data_PCOD8093009
_publ_section_title
;
Structure prediction by ZEFSAII (Michael W. Deem and Ramdas Pophale) SiO2 
 PCOD8093009
Probable space group: C 2/M
;
_chemical_formula_sum "Si O2"
_cell_formula_units_Z 56
_cell_length_a 15.844195
_cell_length_b 9.176528
_cell_length_c 19.920536
_cell_angle_alpha 90.000000
_cell_angle_beta 100.419977
_cell_angle_gamma 90.000000
_cell_volume 2848.575254
_symmetry_space_group_name_H-M "C 2/M"
_symmetry_group_IT_number 12
_symmetry_cell_setting 'monoclinic'
loop_
_space_group_symop_operation_xyz
x,y,z
-x,y,-z
-x,-y,-z
x,-y,z
1/2+x,1/2+y,z
1/2-x,1/2+y,-z
1/2-x,1/2-y,-z
1/2+x,1/2-y,z
loop_
_atom_site_type_symbol
_atom_site_label
_atom_site_fract_x
_atom_site_fract_y
_atom_site_fract_z
Si Si1 0.039757 0.673322 0.349031
Si Si2 0.769249 0.834838 0.199390
Si Si3 0.986789 0.334362 0.070366
Si Si4 0.211200 0.334986 0.932274
Si Si5 0.225712 0.327750 0.428432
Si Si6 0.369374 0.328564 0.342672
Si Si7 0.579623 0.833297 0.209792
O O1 0.029500 0.500000 0.350305
O O2 0.128923 0.721000 0.396205
O O3 0.041745 0.733843 0.272699
O O4 0.958117 0.746664 0.373848
O O5 0.761261 0.732155 0.134283
O O6 0.843034 0.787458 0.262284
O O7 0.681641 0.822567 0.228479
O O8 0.783966 0.000000 0.176217
O O9 0.020551 0.500000 0.066855
O O10 0.889958 0.326801 0.078945
O O11 0.042238 0.255339 0.137078
O O12 0.000000 0.254938 0.000000
O O13 0.244898 0.500000 0.940161
O O14 0.250000 0.250000 0.000000
O O15 0.230242 0.500000 0.438687
O O16 0.250000 0.250000 0.500000
O O17 0.293846 0.277097 0.381708
O O18 0.384625 0.500000 0.351904
O O19 0.548746 0.000000 0.202182
#
# Coordination Sequence:
#
# PCOD8093009 Si02
#       7
#     8   8   8   8   8   8   8
#     4  10  20  37  61  87 115 155 205 245 284 351
#     4  10  19  35  59  82 109 147 186 233 292 350
#     4   9  17  29  48  75 101 132 182 231 272 327
#     4  11  22  35  52  78 109 144 189 240 291 348
#     4  10  22  41  62  87 121 159 200 245 297 357
#     4  10  21  38  60  89 122 155 193 242 302 357
#     4   9  16  31  56  80 106 144 188 235 281 337
#
# _framework density 19.658949
#
# number of rings (size 3 to 8) (size 9 to 14) (size 15 to 20)
#    0.000    2.143    1.429    2.143    0.000    5.714 
#    0.000    3.571    0.000    9.429    0.000    0.000 
#    0.000    0.000    0.000    0.000    0.000    0.000 
#
# Total GULP energy -347114.860739 kJ/mol
# GULP energy per Si atom -12396.959312 kJ/mol
# Density = 1.961420 g / cm^3
# Si number density = 19.658949 Si / 1000 Ang^3
#
#
#
# Elastic Constant Matrix: (Units=GPa)
#
#
# Indices 1 2 3 4 5 6 
#
# 1 121.4084 36.8983 55.1228 0.0000 12.8018 0.0000
# 2 36.8983 55.0797 43.5574 0.0000 1.8287 0.0000
# 3 55.1228 43.5574 131.6583 0.0000 13.2102 0.0000
# 4 0.0000 0.0000 0.0000 29.9882 0.0000 0.1388
# 5 12.8018 1.8287 13.2102 0.0000 30.7774 0.0000
# 6 0.0000 0.0000 0.0000 0.1388 0.0000 28.2789
#
#
#
# Elastic Compliance Matrix: (Units=1/GPa)
#
#
# Indices 1 2 3 4 5 6 
#
# 1 0.011450 -0.005460 -0.002657 0.000000 -0.003298 0.000000
# 2 -0.005460 0.027326 -0.007126 0.000000 0.003706 0.000000
# 3 -0.002657 -0.007126 0.011403 0.000000 -0.003366 0.000000
# 4 0.000000 0.000000 0.000000 0.033347 0.000000 -0.000164
# 5 -0.003298 0.003706 -0.003366 0.000000 0.035088 0.000000
# 6 0.000000 0.000000 0.000000 -0.000164 0.000000 0.035363
#
#
# Mechanical properties :
#
#
# Convention : Reuss Voigt Hill
#
# Bulk Modulus (GPa) = 50.77958 64.36707 57.57332
# Shear Modulus (GPa) = 26.17439 29.31342 27.74391
#
# Velocity S-wave (km/s) = 3.65283 3.86566 3.76075
# Velocity P-wave (km/s) = 6.60887 7.26205 6.94315
#
# Compressibility (1/GPa) = 0.01969296
#
# Stress axis : x y z
#
# Youngs Moduli (GPa) = 87.33622 36.59567 87.69616
#
# Poissons Ratio (x) = 0.19982 0.23297
# Poissons Ratio (y) = 0.47686 0.62494
# Poissons Ratio (z) = 0.23202 0.26079
#
# Static dielectric constant tensor:
#      x y z
#    x 3.567840 0.000000 0.031930 
#    y 0.000000 3.231450 0.000000 
#    z 0.031930 0.000000 3.715190 
# 
# 
# High freq. dielectric constant tensor:
#      x y z
#    x 1.776540 0.000000 0.004210 
#    y 0.000000 1.722490 0.000000 
#    z 0.004210 0.000000 1.777840 
# 
# From -- ./inp_files/309022.got.cif
#   From: 2010.06.25/outbox.cif.g09.slc.cpg/sg12_155_cif.got.tgz:309022.got - 2010.06.28 00:19:55.
