data_PCOD8093845
_publ_section_title
;
Structure prediction by ZEFSAII (Michael W. Deem and Ramdas Pophale) SiO2 
 PCOD8093845
Probable space group: C 2/M
;
_chemical_formula_sum "Si O2"
_cell_formula_units_Z 56
_cell_length_a 19.892931
_cell_length_b 9.047548
_cell_length_c 19.413945
_cell_angle_alpha 90.000000
_cell_angle_beta 57.561219
_cell_angle_gamma 90.000000
_cell_volume 2948.953547
_symmetry_space_group_name_H-M "C 2/M"
_symmetry_group_IT_number 12
_symmetry_cell_setting 'monoclinic'
loop_
_space_group_symop_operation_xyz
x,y,z
-x,y,-z
-x,-y,-z
x,-y,z
1/2+x,1/2+y,z
1/2-x,1/2+y,-z
1/2-x,1/2-y,-z
1/2+x,1/2-y,z
loop_
_atom_site_type_symbol
_atom_site_label
_atom_site_fract_x
_atom_site_fract_y
_atom_site_fract_z
Si Si1 0.115327 0.824233 0.759429
Si Si2 0.720972 0.669924 0.307068
Si Si3 0.169020 0.328035 0.064346
Si Si4 0.377586 0.331943 0.774138
Si Si5 0.489546 0.172218 0.926590
Si Si6 0.083471 0.176347 0.482979
Si Si7 0.555360 0.673502 0.647723
O O1 0.201744 0.770195 0.733138
O O2 0.050177 0.766053 0.848195
O O3 0.096149 0.759476 0.693633
O O4 0.112172 0.000000 0.762702
O O5 0.742347 0.500000 0.312171
O O6 0.688099 0.684290 0.248338
O O7 0.657022 0.733791 0.396860
O O8 0.186724 0.500000 0.056496
O O9 0.141606 0.278259 0.154267
O O10 0.100606 0.290252 0.046387
O O11 0.250000 0.250000 0.000000
O O12 0.379967 0.500000 0.801162
O O13 0.462307 0.286332 0.696047
O O14 0.509104 0.000000 0.904749
O O15 0.500000 0.218711 0.000000
O O16 0.095110 0.234046 0.555272
O O17 0.000000 0.239651 0.500000
O O18 0.080484 0.000000 0.480874
O O19 0.567285 0.500000 0.643202
#
# Coordination Sequence:
#
# PCOD8093845 Si02
#       7
#     8   8   8   8   8   8   8
#     4  11  23  38  57  83 119 155 186 231 290 348
#     4  10  21  35  58  87 115 150 196 242 279 330
#     4  11  24  40  61  89 118 148 186 236 284 338
#     4  10  19  36  60  84 113 151 193 237 282 332
#     4  10  23  43  63  83 111 149 191 234 280 333
#     4   9  15  29  55  86 112 143 194 244 280 324
#     4   9  17  32  56  83 112 148 190 235 282 332
#
# _framework density 18.989787
#
# number of rings (size 3 to 8) (size 9 to 14) (size 15 to 20)
#    0.000    2.000    2.857    0.857    2.000    2.000 
#    0.000    0.000    0.000    2.143    0.000    0.000 
#    0.000    0.000    0.000    0.000    0.000    0.000 
#
# Total GULP energy -347201.946291 kJ/mol
# GULP energy per Si atom -12400.069510 kJ/mol
# Density = 1.894657 g / cm^3
# Si number density = 18.989787 Si / 1000 Ang^3
#
#
#
# Elastic Constant Matrix: (Units=GPa)
#
#
# Indices 1 2 3 4 5 6 
#
# 1 122.7265 51.6576 53.0040 0.0000 2.1787 -0.0001
# 2 51.6576 56.5499 50.3896 0.0000 -5.4145 -0.0001
# 3 53.0040 50.3896 115.8676 0.0000 15.1489 -0.0002
# 4 0.0000 0.0000 0.0000 22.7230 0.0000 -0.3358
# 5 2.1787 -5.4145 15.1489 0.0000 29.2902 0.0000
# 6 -0.0001 -0.0001 -0.0002 -0.3358 0.0000 23.4608
#
#
#
# Elastic Compliance Matrix: (Units=1/GPa)
#
#
# Indices 1 2 3 4 5 6 
#
# 1 0.013568 -0.012255 -0.000482 0.000000 -0.003025 0.000000
# 2 -0.012255 0.045127 -0.016334 0.000000 0.017702 0.000000
# 3 -0.000482 -0.016334 0.017530 0.000000 -0.012050 0.000000
# 4 0.000000 0.000000 0.000000 0.044018 0.000000 0.000630
# 5 -0.003025 0.017702 -0.012050 0.000000 0.043871 0.000000
# 6 0.000000 0.000000 0.000000 0.000630 0.000000 0.042633
#
#
# Mechanical properties :
#
#
# Convention : Reuss Voigt Hill
#
# Bulk Modulus (GPa) = 55.29542 67.24961 61.27252
# Shear Modulus (GPa) = 18.45590 24.43432 21.44511
#
# Velocity S-wave (km/s) = 3.12089 3.59096 3.36415
# Velocity P-wave (km/s) = 6.49371 7.25836 6.88666
#
# Compressibility (1/GPa) = 0.01808468
#
# Stress axis : x y z
#
# Youngs Moduli (GPa) = 73.70158 22.15946 57.04564
#
# Poissons Ratio (x) = 0.27156 0.02748
# Poissons Ratio (y) = 0.90320 0.93177
# Poissons Ratio (z) = 0.03551 0.36195
#
# Static dielectric constant tensor:
#      x y z
#    x 3.582260 0.000000 0.217460 
#    y 0.000000 3.211470 0.000000 
#    z 0.217460 0.000000 3.540570 
# 
# 
# High freq. dielectric constant tensor:
#      x y z
#    x 1.747650 0.000000 0.004840 
#    y 0.000000 1.704330 0.000000 
#    z 0.004840 0.000000 1.752190 
# 
# From -- ./inp_files/275289.got.cif
#   From: 2010.06.25/outbox.cif.g09.slc.cpg/sg12_138_cif.got.tgz:275289.got - 2010.06.28 00:19:55.
