data_PCOD8093985
_publ_section_title
;
Structure prediction by ZEFSAII (Michael W. Deem and Ramdas Pophale) SiO2 
 PCOD8093985
Probable space group: C 2/M
;
_chemical_formula_sum "Si O2"
_cell_formula_units_Z 64
_cell_length_a 15.433677
_cell_length_b 8.574108
_cell_length_c 33.094150
_cell_angle_alpha 90.000000
_cell_angle_beta 133.680694
_cell_angle_gamma 90.000000
_cell_volume 3167.144986
_symmetry_space_group_name_H-M "C 2/M"
_symmetry_group_IT_number 12
_symmetry_cell_setting 'monoclinic'
loop_
_space_group_symop_operation_xyz
x,y,z
-x,y,-z
-x,-y,-z
x,-y,z
1/2+x,1/2+y,z
1/2-x,1/2+y,-z
1/2-x,1/2-y,-z
1/2+x,1/2-y,z
loop_
_atom_site_type_symbol
_atom_site_label
_atom_site_fract_x
_atom_site_fract_y
_atom_site_fract_z
Si Si1 0.097442 0.181546 0.132204
Si Si2 0.279384 0.179601 0.752028
Si Si3 0.055551 0.316808 0.638857
Si Si4 0.840875 0.682990 0.061380
Si Si5 0.534071 0.181392 0.258411
Si Si6 0.401001 0.185489 0.437447
Si Si7 0.864326 0.182551 0.629566
Si Si8 0.699539 0.184408 0.862235
O O1 0.175013 0.214334 0.196836
O O2 0.174758 0.231717 0.117772
O O3 0.976094 0.279063 0.092414
O O4 0.065051 0.000000 0.120123
O O5 0.145282 0.228631 0.697892
O O6 0.361400 0.209970 0.739859
O O7 0.283817 0.000000 0.767070
O O8 0.080400 0.500000 0.649124
O O9 0.071220 0.252579 0.598521
O O10 0.921934 0.275197 0.610531
O O11 0.824312 0.500000 0.057128
O O12 0.809481 0.754653 0.095430
O O13 0.750000 0.750000 0.000000
O O14 0.561197 0.284139 0.306061
O O15 0.410515 0.247366 0.200075
O O16 0.524410 0.000000 0.267725
O O17 0.500000 0.253989 0.500000
O O18 0.270881 0.245749 0.409252
O O19 0.404636 0.000000 0.438692
O O20 0.866510 0.000000 0.620892
O O21 0.684731 0.000000 0.859926
#
# Coordination Sequence:
#
# PCOD8093985 Si02
#       8
#     8   8   8   8   8   8   8   8
#     4  11  22  38  63  92 119 156 199 239 291 357
#     4  11  21  36  61  91 123 156 192 243 297 350
#     4  11  22  38  60  87 119 157 197 240 298 360
#     4  11  23  43  63  85 118 157 202 250 299 348
#     4  10  19  36  61  87 119 158 192 234 297 357
#     4   9  20  39  60  82 114 156 201 249 298 349
#     4  11  22  37  59  89 119 152 196 245 295 351
#     4   9  20  39  61  84 116 156 192 231 288 353
#
# _framework density 20.207474000000001
#
# number of rings (size 3 to 8) (size 9 to 14) (size 15 to 20)
#    0.000    1.625    2.500    2.625    0.000    2.500 
#    0.000    5.625    0.000    5.250    0.000    0.000 
#    0.000    0.000    0.000    0.000    0.000    0.000 
#
# Total GULP energy -396921.705123 kJ/mol
# GULP energy per Si atom -12403.803285 kJ/mol
# Density = 2.016148 g / cm^3
# Si number density = 20.207474 Si / 1000 Ang^3
#
#
#
# Elastic Constant Matrix: (Units=GPa)
#
#
# Indices 1 2 3 4 5 6 
#
# 1 145.2403 22.2802 60.5188 0.0000 9.9998 0.0000
# 2 22.2802 36.8550 10.0619 0.0000 -2.7788 0.0000
# 3 60.5188 10.0619 139.3074 0.0000 12.5060 0.0000
# 4 0.0000 0.0000 0.0000 21.7881 0.0000 2.8447
# 5 9.9998 -2.7788 12.5060 0.0000 13.7305 0.0000
# 6 0.0000 0.0000 0.0000 2.8447 0.0000 29.4085
#
#
#
# Elastic Compliance Matrix: (Units=1/GPa)
#
#
# Indices 1 2 3 4 5 6 
#
# 1 0.009369 -0.005143 -0.003259 0.000000 -0.004896 0.000000
# 2 -0.005143 0.031352 -0.001019 0.000000 0.011019 0.000000
# 3 -0.003259 -0.001019 0.009228 0.000000 -0.006238 0.000000
# 4 0.000000 0.000000 0.000000 0.046484 0.000000 -0.004496
# 5 -0.004896 0.011019 -0.006238 0.000000 0.084308 0.000000
# 6 0.000000 0.000000 0.000000 -0.004496 0.000000 0.034439
#
#
# Mechanical properties :
#
#
# Convention : Reuss Voigt Hill
#
# Bulk Modulus (GPa) = 32.14906 56.34716 44.24811
# Shear Modulus (GPa) = 20.45898 28.22153 24.34025
#
# Velocity S-wave (km/s) = 3.18535 3.74115 3.47438
# Velocity P-wave (km/s) = 5.42887 6.82689 6.16762
#
# Compressibility (1/GPa) = 0.03110511
#
# Stress axis : x y z
#
# Youngs Moduli (GPa) = 106.73152 31.89604 108.36752
#
# Poissons Ratio (x) = 0.16405 0.35320
# Poissons Ratio (y) = 0.54896 0.11046
# Poissons Ratio (z) = 0.34786 0.03251
#
# Static dielectric constant tensor:
#      x y z
#    x 3.580170 0.000000 -0.043720 
#    y 0.000000 3.401680 0.000000 
#    z -0.043720 0.000000 3.740780 
# 
# 
# High freq. dielectric constant tensor:
#      x y z
#    x 1.808330 0.000000 0.000430 
#    y 0.000000 1.767380 0.000000 
#    z 0.000430 0.000000 1.785750 
# 
# From -- ./inp_files/359833.got.cif
#   From: 2010.06.25/outbox.cif.g09.slc.cpg/sg12_180_cif.got.tgz:359833.got - 2010.06.28 00:19:55.
