data_PCOD8093942
_publ_section_title
;
Structure prediction by ZEFSAII (Michael W. Deem and Ramdas Pophale) SiO2 
 PCOD8093942
Probable space group: C 2/M
;
_chemical_formula_sum "Si O2"
_cell_formula_units_Z 56
_cell_length_a 19.658400
_cell_length_b 8.797803
_cell_length_c 16.973054
_cell_angle_alpha 90.000000
_cell_angle_beta 107.080284
_cell_angle_gamma 90.000000
_cell_volume 2806.029244
_symmetry_space_group_name_H-M "C 2/M"
_symmetry_group_IT_number 12
_symmetry_cell_setting 'monoclinic'
loop_
_space_group_symop_operation_xyz
x,y,z
-x,y,-z
-x,-y,-z
x,-y,z
1/2+x,1/2+y,z
1/2-x,1/2+y,-z
1/2-x,1/2-y,-z
1/2+x,1/2-y,z
loop_
_atom_site_type_symbol
_atom_site_label
_atom_site_fract_x
_atom_site_fract_y
_atom_site_fract_z
Si Si1 0.796342 0.177750 0.192918
Si Si2 0.577200 0.819839 0.501928
Si Si3 0.405175 0.819487 0.120792
Si Si4 0.285712 0.180112 0.357234
Si Si5 0.145643 0.319207 0.363289
Si Si6 0.066870 0.319391 0.180652
Si Si7 0.346646 0.821963 0.936885
O O1 0.869160 0.245652 0.184793
O O2 0.774667 0.256432 0.266383
O O3 0.735688 0.213805 0.107638
O O4 0.803665 0.000000 0.211550
O O5 0.500000 0.750452 0.500000
O O6 0.637390 0.766255 0.584252
O O7 0.600131 0.763397 0.422971
O O8 0.571628 0.000000 0.500059
O O9 0.486036 0.764149 0.150429
O O10 0.397833 0.000000 0.124767
O O11 0.369397 0.753327 0.028859
O O12 0.224010 0.245831 0.392502
O O13 0.279999 0.000000 0.354739
O O14 0.154582 0.500000 0.366349
O O15 0.104388 0.258337 0.272240
O O16 0.071669 0.500000 0.181515
O O17 0.106057 0.250566 0.117306
O O18 0.362224 0.000000 0.944794
#
# Coordination Sequence:
#
# PCOD8093942 Si02
#       7
#     8   8   8   8   8   8   8
#     4  11  22  37  56  79 114 153 186 224 279 339
#     4   9  20  36  59  88 114 142 181 228 275 328
#     4  10  20  33  56  85 111 142 188 240 278 318
#     4  11  22  37  59  85 112 144 187 233 272 324
#     4  10  19  36  61  84 112 149 184 222 275 334
#     4   9  17  31  56  85 109 142 187 229 270 324
#     4   9  17  33  55  81 109 144 190 233 274 326
#
# _framework density 19.957025999999999
#
# number of rings (size 3 to 8) (size 9 to 14) (size 15 to 20)
#    0.000    2.143    1.429    2.143    2.000    1.714 
#    0.000    2.143    0.000    3.000    0.000    0.000 
#    0.000    0.000    0.000    0.000    0.000    0.000 
#
# Total GULP energy -347216.597012 kJ/mol
# GULP energy per Si atom -12400.592750 kJ/mol
# Density = 1.991160 g / cm^3
# Si number density = 19.957026 Si / 1000 Ang^3
#
#
#
# Elastic Constant Matrix: (Units=GPa)
#
#
# Indices 1 2 3 4 5 6 
#
# 1 152.1670 29.6861 46.7703 0.0000 -5.7844 0.0000
# 2 29.6861 34.5348 22.9978 0.0000 1.2977 0.0000
# 3 46.7703 22.9978 98.3743 0.0000 0.8184 0.0000
# 4 0.0000 0.0000 0.0000 17.2838 0.0000 0.2114
# 5 -5.7844 1.2977 0.8184 0.0000 36.5568 0.0000
# 6 0.0000 0.0000 0.0000 0.2114 0.0000 25.7670
#
#
#
# Elastic Compliance Matrix: (Units=1/GPa)
#
#
# Indices 1 2 3 4 5 6 
#
# 1 0.008578 -0.005578 -0.002788 0.000000 0.001618 0.000000
# 2 -0.005578 0.037962 -0.006205 0.000000 -0.002091 0.000000
# 3 -0.002788 -0.006205 0.012946 0.000000 -0.000511 0.000000
# 4 0.000000 0.000000 0.000000 0.057864 0.000000 -0.000475
# 5 0.001618 -0.002091 -0.000511 0.000000 0.027696 0.000000
# 6 0.000000 0.000000 0.000000 -0.000475 0.000000 0.038813
#
#
# Mechanical properties :
#
#
# Convention : Reuss Voigt Hill
#
# Bulk Modulus (GPa) = 32.95602 53.77606 43.36604
# Shear Modulus (GPa) = 22.40985 28.29632 25.35309
#
# Velocity S-wave (km/s) = 3.35461 3.76954 3.56811
# Velocity P-wave (km/s) = 5.61729 6.77867 6.22512
#
# Compressibility (1/GPa) = 0.03034347
#
# Stress axis : x y z
#
# Youngs Moduli (GPa) = 116.57275 26.34203 77.24650
#
# Poissons Ratio (x) = 0.14694 0.21535
# Poissons Ratio (y) = 0.65027 0.47934
# Poissons Ratio (z) = 0.32498 0.16346
#
# Static dielectric constant tensor:
#      x y z
#    x 3.848070 0.000000 0.009700 
#    y 0.000000 3.110270 0.000000 
#    z 0.009700 0.000000 3.818740 
# 
# 
# High freq. dielectric constant tensor:
#      x y z
#    x 1.794600 0.000000 -0.001760 
#    y 0.000000 1.727130 0.000000 
#    z -0.001760 0.000000 1.790470 
# 
# From -- ./inp_files/275698.got.cif
#   From: 2010.06.25/outbox.cif.g09.slc.cpg/sg12_138_cif.got.tgz:275698.got - 2010.06.28 00:19:55.
