data_PCOD8093929
_publ_section_title
;
Structure prediction by ZEFSAII (Michael W. Deem and Ramdas Pophale) SiO2 
 PCOD8093929
Probable space group: C 2/M
;
_chemical_formula_sum "Si O2"
_cell_formula_units_Z 56
_cell_length_a 16.633642
_cell_length_b 14.268904
_cell_length_c 11.887771
_cell_angle_alpha 90.000000
_cell_angle_beta 86.885781
_cell_angle_gamma 90.000000
_cell_volume 2817.322507
_symmetry_space_group_name_H-M "C 2/M"
_symmetry_group_IT_number 12
_symmetry_cell_setting 'monoclinic'
loop_
_space_group_symop_operation_xyz
x,y,z
-x,y,-z
-x,-y,-z
x,-y,z
1/2+x,1/2+y,z
1/2-x,1/2+y,-z
1/2-x,1/2-y,-z
1/2+x,1/2-y,z
loop_
_atom_site_type_symbol
_atom_site_label
_atom_site_fract_x
_atom_site_fract_y
_atom_site_fract_z
Si Si1 0.132842 0.104493 0.388878
Si Si2 0.863894 0.648680 0.193492
Si Si3 0.307881 0.398804 0.865904
Si Si4 0.809782 0.608383 0.436354
Si Si5 0.541501 0.895363 0.178620
Si Si6 0.412140 0.738493 0.996894
Si Si7 0.428777 0.198033 0.585125
O O1 0.154538 0.117851 0.258017
O O2 0.213833 0.116057 0.456001
O O3 0.071974 0.188353 0.423082
O O4 0.095543 0.000000 0.413236
O O5 0.788776 0.600989 0.136105
O O6 0.842955 0.665981 0.325878
O O7 0.945581 0.589021 0.175277
O O8 0.881049 0.745868 0.126671
O O9 0.333411 0.500000 0.911277
O O10 0.343090 0.322570 0.946454
O O11 0.835883 0.500000 0.419211
O O12 0.845872 0.653594 0.546095
O O13 0.577422 0.836945 0.071252
O O14 0.560308 0.837169 0.289633
O O15 0.580240 0.000000 0.178154
O O16 0.500000 0.688399 0.000000
O O17 0.500000 0.160651 0.500000
#
# Coordination Sequence:
#
# PCOD8093929 Si02
#       7
#     8   8   8   8   8   8   8
#     4   9  20  38  58  79 107 145 188 222 265 324
#     4  10  20  35  57  82 110 144 184 218 263 326
#     4  10  19  36  61  82 107 144 185 226 263 321
#     4  10  20  35  57  83 110 145 182 220 266 326
#     4  11  22  36  53  81 115 144 176 222 278 327
#     4  10  22  37  56  82 114 142 178 226 275 322
#     4  12  22  34  57  82 113 142 178 231 273 317
#
# _framework density 19.877029
#
# number of rings (size 3 to 8) (size 9 to 14) (size 15 to 20)
#    0.000    1.714    2.857    3.429    0.000    4.857 
#    0.000    0.000    0.000    0.857    0.000    0.000 
#    0.000    0.000    0.000    0.000    0.000    0.000 
#
# Total GULP energy -347026.333750 kJ/mol
# GULP energy per Si atom -12393.797634 kJ/mol
# Density = 1.983179 g / cm^3
# Si number density = 19.877029 Si / 1000 Ang^3
#
#
#
# Elastic Constant Matrix: (Units=GPa)
#
#
# Indices 1 2 3 4 5 6 
#
# 1 53.8912 41.6083 31.1962 0.0000 13.6435 0.0000
# 2 41.6083 98.1532 28.6820 0.0000 18.7829 0.0000
# 3 31.1962 28.6820 70.2968 0.0000 18.1629 0.0000
# 4 0.0000 0.0000 0.0000 14.7723 0.0000 3.4953
# 5 13.6435 18.7829 18.1629 0.0000 28.8358 0.0000
# 6 0.0000 0.0000 0.0000 3.4953 0.0000 17.9572
#
#
#
# Elastic Compliance Matrix: (Units=1/GPa)
#
#
# Indices 1 2 3 4 5 6 
#
# 1 0.033048 -0.010698 -0.009629 0.000000 -0.002604 0.000000
# 2 -0.010698 0.015794 -0.000414 0.000000 -0.004966 0.000000
# 3 -0.009629 -0.000414 0.020807 0.000000 -0.008280 0.000000
# 4 0.000000 0.000000 0.000000 0.070962 0.000000 -0.013812
# 5 -0.002604 -0.004966 -0.008280 0.000000 0.044361 0.000000
# 6 0.000000 0.000000 0.000000 -0.013812 0.000000 0.058377
#
#
# Mechanical properties :
#
#
# Convention : Reuss Voigt Hill
#
# Bulk Modulus (GPa) = 35.50014 47.25713 41.37864
# Shear Modulus (GPa) = 16.99416 20.37005 18.68211
#
# Velocity S-wave (km/s) = 2.92715 3.20473 3.06908
# Velocity P-wave (km/s) = 5.41507 6.12536 5.78113
#
# Compressibility (1/GPa) = 0.02816890
#
# Stress axis : x y z
#
# Youngs Moduli (GPa) = 30.25884 63.31433 48.06166
#
# Poissons Ratio (x) = 0.67731 0.46277
# Poissons Ratio (y) = 0.32370 0.01989
# Poissons Ratio (z) = 0.29135 0.02620
#
# Static dielectric constant tensor:
#      x y z
#    x 3.623950 0.000000 0.146370 
#    y 0.000000 3.523200 0.000000 
#    z 0.146370 0.000000 3.523470 
# 
# 
# High freq. dielectric constant tensor:
#      x y z
#    x 1.769880 0.000000 0.013270 
#    y 0.000000 1.762060 0.000000 
#    z 0.013270 0.000000 1.768970 
# 
# From -- ./inp_files/143727.got.cif
#   From: 2010.06.25/outbox.cif.g09.slc.cpg/sg12_72_cif.got.tgz:143727.got - 2010.06.28 00:19:55.
