data_PCOD8093522
_publ_section_title
;
Structure prediction by ZEFSAII (Michael W. Deem and Ramdas Pophale) SiO2 
 PCOD8093522
Probable space group: C 2/M
;
_chemical_formula_sum "Si O2"
_cell_formula_units_Z 32
_cell_length_a 30.995460
_cell_length_b 8.010440
_cell_length_c 4.782407
_cell_angle_alpha 90.000000
_cell_angle_beta 83.387685
_cell_angle_gamma 90.000000
_cell_volume 1179.512179
_symmetry_space_group_name_H-M "C 2/M"
_symmetry_group_IT_number 12
_symmetry_cell_setting 'monoclinic'
loop_
_space_group_symop_operation_xyz
x,y,z
-x,y,-z
-x,-y,-z
x,-y,z
1/2+x,1/2+y,z
1/2-x,1/2+y,-z
1/2-x,1/2-y,-z
1/2+x,1/2-y,z
loop_
_atom_site_type_symbol
_atom_site_label
_atom_site_fract_x
_atom_site_fract_y
_atom_site_fract_z
Si Si1 0.691138 0.000000 0.525629
Si Si2 0.831875 0.821273 0.756513
Si Si3 0.953032 0.689376 0.577420
Si Si4 0.748486 0.500000 0.020711
Si Si5 0.396426 0.809190 0.136135
O O1 0.662794 0.831693 0.470308
O O2 0.706806 0.000000 0.833312
O O3 0.735342 0.000000 0.310640
O O4 0.781348 0.835261 0.894798
O O5 0.858967 0.797452 0.020149
O O6 0.845233 0.000000 0.607740
O O7 0.956934 0.500000 0.459133
O O8 0.939313 0.694237 0.908685
O O9 0.000000 0.778163 0.500000
O O10 0.914211 0.770359 0.415763
O O11 0.377930 0.000000 0.182921
#
# Coordination Sequence:
#
# PCOD8093522 Si02
#       5
#     4   8   8   4   8
#     4  12  22  48  60  92 121 158 211 254 300 364
#     4  10  24  41  64  92 122 165 200 254 305 361
#     4   9  18  32  58  88 117 155 201 242 293 355
#     4  10  26  40  68  86 123 162 203 256 306 354
#     4  10  19  36  56  85 121 156 194 247 297 353
#
# _framework density 27.129860999999998
#
# number of rings (size 3 to 8) (size 9 to 14) (size 15 to 20)
#    0.750    1.250    1.250    2.250    0.000    7.000 
#    0.000    0.000    0.000    4.500    0.000    0.000 
#    0.000    0.000    0.000    0.000    0.000    0.000 
#
# Total GULP energy -198407.484652 kJ/mol
# GULP energy per Si atom -12400.467791 kJ/mol
# Density = 2.706811 g / cm^3
# Si number density = 27.129861 Si / 1000 Ang^3
#
#
#
# Elastic Constant Matrix: (Units=GPa)
#
#
# Indices 1 2 3 4 5 6 
#
# 1 126.2715 37.7472 4.6617 0.0000 28.9963 0.0000
# 2 37.7472 120.5538 13.5993 0.0000 -1.2050 0.0000
# 3 4.6617 13.5993 87.3350 0.0000 14.2589 0.0000
# 4 0.0000 0.0000 0.0000 22.0744 0.0000 12.8016
# 5 28.9963 -1.2050 14.2589 0.0000 39.8052 0.0000
# 6 0.0000 0.0000 0.0000 12.8016 0.0000 2.8958
#
#
#
# Elastic Compliance Matrix: (Units=1/GPa)
#
#
# Indices 1 2 3 4 5 6 
#
# 1 0.010932 -0.003665 0.001387 0.000000 -0.008571 0.000000
# 2 -0.003665 0.009695 -0.001909 0.000000 0.003647 0.000000
# 3 0.001387 -0.001909 0.012584 0.000000 -0.005576 0.000000
# 4 0.000000 0.000000 0.000000 -0.028971 0.000000 0.128072
# 5 -0.008571 0.003647 -0.005576 0.000000 0.033474 0.000000
# 6 0.000000 0.000000 0.000000 0.128072 0.000000 -0.220841
#
#
# Mechanical properties :
#
#
# Convention : Reuss Voigt Hill
#
# Bulk Modulus (GPa) = 40.26659 49.57519 44.92089
# Shear Modulus (GPa) = -30.03479 31.49856 0.73189
#
# Velocity S-wave (km/s) = -3.33088 3.41108 0.51996
# Velocity P-wave (km/s) = 0.28521 5.81609 4.11754
#
# Compressibility (1/GPa) = 0.02483449
#
# Stress axis : x y z
#
# Youngs Moduli (GPa) = 91.47358 103.15124 79.46741
#
# Poissons Ratio (x) = 0.37806 -0.11019
# Poissons Ratio (y) = 0.33526 0.15174
# Poissons Ratio (z) = -0.12683 0.19696
#
# Static dielectric constant tensor:
#      x y z
#    x 5.078740 0.000000 -0.050100 
#    y 0.000000 4.515200 0.000000 
#    z -0.050100 0.000000 4.679000 
# 
# 
# High freq. dielectric constant tensor:
#      x y z
#    x 2.125340 0.000000 -0.018160 
#    y 0.000000 2.050150 0.000000 
#    z -0.018160 0.000000 2.099460 
# 
# From -- ./inp_files/30256.got.cif
#   From: 2010.06.25/outbox.cif.g09.slc.cpg/sg12_16_cif.got.tgz:30256.got - 2010.06.28 00:19:55.
