data_PCOD8093991
_publ_section_title
;
Structure prediction by ZEFSAII (Michael W. Deem and Ramdas Pophale) SiO2 
 PCOD8093991
Probable space group: C 2/M
;
_chemical_formula_sum "Si O2"
_cell_formula_units_Z 44
_cell_length_a 22.437193
_cell_length_b 14.471858
_cell_length_c 17.198768
_cell_angle_alpha 90.000000
_cell_angle_beta 156.522935
_cell_angle_gamma 90.000000
_cell_volume 2224.793991
_symmetry_space_group_name_H-M "C 2/M"
_symmetry_group_IT_number 12
_symmetry_cell_setting 'monoclinic'
loop_
_space_group_symop_operation_xyz
x,y,z
-x,y,-z
-x,-y,-z
x,-y,z
1/2+x,1/2+y,z
1/2-x,1/2+y,-z
1/2-x,1/2-y,-z
1/2+x,1/2-y,z
loop_
_atom_site_type_symbol
_atom_site_label
_atom_site_fract_x
_atom_site_fract_y
_atom_site_fract_z
Si Si1 0.785431 0.896077 0.906403
Si Si2 0.018563 0.732907 0.829120
Si Si3 0.935943 0.188541 0.569827
Si Si4 0.257609 0.398111 0.049607
Si Si5 0.879033 0.392904 0.788867
Si Si6 0.500000 0.185469 0.500000
O O1 0.647685 0.877310 0.684157
O O2 0.845697 0.000000 0.964926
O O3 0.926248 0.826879 0.061818
O O4 0.718674 0.883138 0.912874
O O5 0.930560 0.753966 0.644118
O O6 0.910200 0.672415 0.752621
O O7 0.170724 0.676596 0.996032
O O8 0.781946 0.134879 0.370203
O O9 0.972217 0.254226 0.542276
O O10 0.064994 0.111883 0.727941
O O11 0.209746 0.500000 0.020592
O O12 0.880056 0.500000 0.764060
O O13 0.000000 0.373946 0.000000
#
# Coordination Sequence:
#
# PCOD8093991 Si02
#       6
#     8   8   8   8   8   4
#     4  10  20  34  58  87 118 152 196 248 294 348
#     4  11  20  42  61  86 119 160 201 244 303 354
#     4  11  22  38  62  89 120 163 200 244 297 356
#     4  10  19  36  61  88 117 152 202 247 293 356
#     4  11  25  42  60  89 125 159 199 249 304 359
#     4  12  19  36  59  88 126 158 193 242 303 348
#
# _framework density 19.777113
#
# number of rings (size 3 to 8) (size 9 to 14) (size 15 to 20)
#    0.000    1.273    3.636    4.091    0.000    0.727 
#    0.000    0.909    0.000    6.000    0.000    0.000 
#    0.000    0.000    0.000    0.000    0.000    0.000 
#
# Total GULP energy -272849.007281 kJ/mol
# GULP energy per Si atom -12402.227604 kJ/mol
# Density = 1.973210 g / cm^3
# Si number density = 19.777113 Si / 1000 Ang^3
#
#
#
# Elastic Constant Matrix: (Units=GPa)
#
#
# Indices 1 2 3 4 5 6 
#
# 1 49.0371 30.5271 20.7115 0.0001 -5.4435 0.0001
# 2 30.5271 126.2663 33.0148 0.0001 -3.5118 0.0001
# 3 20.7115 33.0148 110.5614 0.0001 -6.5230 0.0001
# 4 0.0001 0.0001 0.0001 26.4142 0.0001 4.4416
# 5 -5.4435 -3.5118 -6.5230 0.0001 27.1159 0.0001
# 6 0.0001 0.0001 0.0001 4.4416 0.0001 15.6034
#
#
#
# Elastic Compliance Matrix: (Units=1/GPa)
#
#
# Indices 1 2 3 4 5 6 
#
# 1 0.025317 -0.005245 -0.002959 0.000000 0.003691 0.000000
# 2 -0.005245 0.009684 -0.001925 0.000000 -0.000262 0.000000
# 3 -0.002959 -0.001925 0.010270 0.000000 0.001627 0.000000
# 4 0.000000 0.000000 0.000000 0.039762 0.000000 -0.011318
# 5 0.003691 -0.000262 0.001627 0.000000 0.037977 0.000000
# 6 0.000000 0.000000 0.000000 -0.011318 0.000000 0.067311
#
#
# Mechanical properties :
#
#
# Convention : Reuss Voigt Hill
#
# Bulk Modulus (GPa) = 39.97667 50.48572 45.23120
# Shear Modulus (GPa) = 22.84000 27.26747 25.05374
#
# Velocity S-wave (km/s) = 3.40203 3.71717 3.56308
# Velocity P-wave (km/s) = 5.97404 6.63369 6.31249
#
# Compressibility (1/GPa) = 0.02501459
#
# Stress axis : x y z
#
# Youngs Moduli (GPa) = 39.49901 103.26649 97.37349
#
# Poissons Ratio (x) = 0.54159 0.28811
# Poissons Ratio (y) = 0.20715 0.18741
# Poissons Ratio (z) = 0.11687 0.19875
#
# Static dielectric constant tensor:
#      x y z
#    x 3.403140 0.000000 -0.185490 
#    y 0.000000 3.750810 0.000000 
#    z -0.185490 0.000000 3.790700 
# 
# 
# High freq. dielectric constant tensor:
#      x y z
#    x 1.746440 0.000000 -0.008200 
#    y 0.000000 1.782390 0.000000 
#    z -0.008200 0.000000 1.778240 
# 
# From -- ./inp_files/73219.got.cif
#   From: 2010.06.25/outbox.cif.g09.slc.cpg/sg12_37_cif.got.tgz:73219.got - 2010.06.28 00:19:55.
