data_PCOD8093248
_publ_section_title
;
Structure prediction by ZEFSAII (Michael W. Deem and Ramdas Pophale) SiO2 
 PCOD8093248
Probable space group: C 2/M
;
_chemical_formula_sum "Si O2"
_cell_formula_units_Z 56
_cell_length_a 25.199149
_cell_length_b 8.664083
_cell_length_c 18.427989
_cell_angle_alpha 90.000000
_cell_angle_beta 137.039158
_cell_angle_gamma 90.000000
_cell_volume 2741.897671
_symmetry_space_group_name_H-M "C 2/M"
_symmetry_group_IT_number 12
_symmetry_cell_setting 'monoclinic'
loop_
_space_group_symop_operation_xyz
x,y,z
-x,y,-z
-x,-y,-z
x,-y,z
1/2+x,1/2+y,z
1/2-x,1/2+y,-z
1/2-x,1/2-y,-z
1/2+x,1/2-y,z
loop_
_atom_site_type_symbol
_atom_site_label
_atom_site_fract_x
_atom_site_fract_y
_atom_site_fract_z
Si Si1 0.499256 0.816291 0.418375
Si Si2 0.849689 0.682582 0.516228
Si Si3 0.204876 0.682864 0.287955
Si Si4 0.711026 0.178718 0.130229
Si Si5 0.577115 0.178254 0.891865
Si Si6 0.090340 0.819215 0.278638
Si Si7 0.648790 0.819420 0.813924
O O1 0.500000 0.748738 0.500000
O O2 0.575582 0.758423 0.453318
O O3 0.423422 0.747969 0.303146
O O4 0.497650 0.000000 0.416680
O O5 0.836275 0.500000 0.496676
O O6 0.776193 0.769933 0.410039
O O7 0.862272 0.728502 0.612016
O O8 0.193125 0.500000 0.276758
O O9 0.217972 0.744579 0.218841
O O10 0.126431 0.763290 0.238613
O O11 0.770828 0.254896 0.134861
O O12 0.731045 0.000000 0.150259
O O13 0.623627 0.208414 0.013000
O O14 0.501040 0.283085 0.812673
O O15 0.635596 0.222852 0.884879
O O16 0.550685 0.000000 0.857631
O O17 0.102914 0.000000 0.302398
O O18 0.651324 0.000000 0.804100
#
# Coordination Sequence:
#
# PCOD8093248 Si02
#       7
#     8   8   8   8   8   8   8
#     4   9  17  30  53  86 120 155 192 234 289 350
#     4  11  21  39  64  89 122 159 200 247 296 360
#     4  11  24  42  61  87 123 161 202 249 305 361
#     4  10  23  40  61  89 123 161 201 251 304 355
#     4  10  21  41  64  88 120 162 206 245 300 363
#     4  12  25  41  63  91 120 156 203 254 305 357
#     4  10  19  35  60  88 121 160 200 244 295 361
#
# _framework density 20.423812000000002
#
# number of rings (size 3 to 8) (size 9 to 14) (size 15 to 20)
#    0.000    1.571    1.429    3.857    0.000    4.000 
#    0.000    2.857    0.000    3.000    0.000    0.000 
#    0.000    0.000    0.000    0.000    0.000    0.000 
#
# Total GULP energy -347284.182774 kJ/mol
# GULP energy per Si atom -12403.006528 kJ/mol
# Density = 2.037733 g / cm^3
# Si number density = 20.423812 Si / 1000 Ang^3
#
#
#
# Elastic Constant Matrix: (Units=GPa)
#
#
# Indices 1 2 3 4 5 6 
#
# 1 114.7864 30.0548 43.4433 0.0000 -2.7939 0.0000
# 2 30.0548 45.3305 16.5051 0.0000 4.3577 0.0000
# 3 43.4433 16.5051 92.8967 0.0000 2.9421 0.0000
# 4 0.0000 0.0000 0.0000 27.8219 0.0000 5.6738
# 5 -2.7939 4.3577 2.9421 0.0000 22.9770 0.0000
# 6 0.0000 0.0000 0.0000 5.6738 0.0000 31.3654
#
#
#
# Elastic Compliance Matrix: (Units=1/GPa)
#
#
# Indices 1 2 3 4 5 6 
#
# 1 0.012345 -0.006810 -0.004671 0.000000 0.003391 0.000000
# 2 -0.006810 0.027706 -0.001551 0.000000 -0.005884 0.000000
# 3 -0.004671 -0.001551 0.013287 0.000000 -0.001975 0.000000
# 4 0.000000 0.000000 0.000000 0.037320 0.000000 -0.006751
# 5 0.003391 -0.005884 -0.001975 0.000000 0.045303 0.000000
# 6 0.000000 0.000000 0.000000 -0.006751 0.000000 0.033103
#
#
# Mechanical properties :
#
#
# Convention : Reuss Voigt Hill
#
# Bulk Modulus (GPa) = 36.66546 48.11332 42.38939
# Shear Modulus (GPa) = 24.48333 27.30022 25.89177
#
# Velocity S-wave (km/s) = 3.46607 3.66004 3.56438
# Velocity P-wave (km/s) = 5.83177 6.43970 6.14326
#
# Compressibility (1/GPa) = 0.02727362
#
# Stress axis : x y z
#
# Youngs Moduli (GPa) = 81.00262 36.09310 75.26113
#
# Poissons Ratio (x) = 0.24581 0.35152
# Poissons Ratio (y) = 0.55166 0.11675
# Poissons Ratio (z) = 0.37834 0.05599
#
# Static dielectric constant tensor:
#      x y z
#    x 3.890050 0.000000 -0.113060 
#    y 0.000000 3.436920 0.000000 
#    z -0.113060 0.000000 3.825510 
# 
# 
# High freq. dielectric constant tensor:
#      x y z
#    x 1.809800 0.000000 -0.001810 
#    y 0.000000 1.776760 0.000000 
#    z -0.001810 0.000000 1.808060 
# 
# From -- ./inp_files/288418.got.cif
#   From: 2010.06.25/outbox.cif.g09.slc.cpg/sg12_145_cif.got.tgz:288418.got - 2010.06.28 00:19:55.
