data_PCOD8093766
_publ_section_title
;
Structure prediction by ZEFSAII (Michael W. Deem and Ramdas Pophale) SiO2 
 PCOD8093766
Probable space group: C 2/M
;
_chemical_formula_sum "Si O2"
_cell_formula_units_Z 56
_cell_length_a 20.555003
_cell_length_b 8.509838
_cell_length_c 28.009429
_cell_angle_alpha 90.000000
_cell_angle_beta 145.351243
_cell_angle_gamma 90.000000
_cell_volume 2785.525741
_symmetry_space_group_name_H-M "C 2/M"
_symmetry_group_IT_number 12
_symmetry_cell_setting 'monoclinic'
loop_
_space_group_symop_operation_xyz
x,y,z
-x,y,-z
-x,-y,-z
x,-y,z
1/2+x,1/2+y,z
1/2-x,1/2+y,-z
1/2-x,1/2-y,-z
1/2+x,1/2-y,z
loop_
_atom_site_type_symbol
_atom_site_label
_atom_site_fract_x
_atom_site_fract_y
_atom_site_fract_z
Si Si1 0.179862 0.183683 0.715853
Si Si2 0.969038 0.317222 0.534607
Si Si3 0.080395 0.313245 0.179834
Si Si4 0.533788 0.186479 0.256792
Si Si5 0.194242 0.316415 0.827866
Si Si6 0.754323 0.683642 0.555244
Si Si7 0.576661 0.815939 0.000448
O O1 0.291955 0.244863 0.755686
O O2 0.197864 0.213247 0.782509
O O3 0.072762 0.282439 0.632774
O O4 0.157698 0.000000 0.693562
O O5 0.938753 0.500000 0.518816
O O6 0.859157 0.220018 0.483877
O O7 0.000000 0.263012 0.500000
O O8 0.079683 0.500000 0.177966
O O9 0.045384 0.244809 0.210251
O O10 0.990214 0.251790 0.086279
O O11 0.413763 0.240338 0.206297
O O12 0.636391 0.255597 0.351093
O O13 0.542839 0.000000 0.259561
O O14 0.185522 0.500000 0.809756
O O15 0.306653 0.282014 0.926635
O O16 0.769892 0.500000 0.560082
O O17 0.750000 0.750000 0.500000
O O18 0.605410 0.000000 0.014303
O O19 0.500000 0.779298 0.000000
#
# Coordination Sequence:
#
# PCOD8093766 Si02
#       7
#     8   8   8   8   8   8   8
#     4  11  21  37  62  87 110 149 203 246 288 346
#     4  11  24  40  58  86 124 158 193 248 309 358
#     4   9  18  35  59  82 111 149 192 241 286 337
#     4   9  20  37  56  82 114 150 189 236 291 345
#     4  11  22  36  57  86 120 150 185 235 294 354
#     4  11  22  39  63  87 117 158 206 251 301 362
#     4  10  19  36  59  85 114 148 193 239 284 338
#
# _framework density 20.103923999999999
#
# number of rings (size 3 to 8) (size 9 to 14) (size 15 to 20)
#    0.000    1.714    1.429    3.429    0.000    4.286 
#    0.000    2.143    0.000    6.000    0.000    0.000 
#    0.000    0.000    0.000    0.000    0.000    0.000 
#
# Total GULP energy -347326.196717 kJ/mol
# GULP energy per Si atom -12404.507026 kJ/mol
# Density = 2.005817 g / cm^3
# Si number density = 20.103924 Si / 1000 Ang^3
#
#
#
# Elastic Constant Matrix: (Units=GPa)
#
#
# Indices 1 2 3 4 5 6 
#
# 1 151.4658 20.6423 64.9986 0.0000 0.8994 0.0001
# 2 20.6423 30.8306 16.4304 -0.0001 -1.5702 0.0004
# 3 64.9986 16.4304 155.9550 0.0000 4.4106 0.0000
# 4 0.0000 -0.0001 0.0000 30.8441 0.0000 1.0202
# 5 0.8994 -1.5702 4.4106 0.0000 41.7819 0.0000
# 6 0.0001 0.0004 0.0000 1.0202 0.0000 24.9460
#
#
#
# Elastic Compliance Matrix: (Units=1/GPa)
#
#
# Indices 1 2 3 4 5 6 
#
# 1 0.008486 -0.004023 -0.003113 0.000000 -0.000005 0.000000
# 2 -0.004023 0.036390 -0.002205 0.000000 0.001687 -0.000001
# 3 -0.003113 -0.002205 0.007966 0.000000 -0.000857 0.000000
# 4 0.000000 0.000000 0.000000 0.032465 0.000000 -0.001328
# 5 -0.000005 0.001687 -0.000857 0.000000 0.024088 0.000000
# 6 0.000000 -0.000001 0.000000 -0.001328 0.000000 0.040141
#
#
# Mechanical properties :
#
#
# Convention : Reuss Voigt Hill
#
# Bulk Modulus (GPa) = 29.27356 60.26599 44.76978
# Shear Modulus (GPa) = 27.83894 35.25973 31.54933
#
# Velocity S-wave (km/s) = 3.72526 4.19247 3.96575
# Velocity P-wave (km/s) = 5.75293 7.31287 6.57929
#
# Compressibility (1/GPa) = 0.03416052
#
# Stress axis : x y z
#
# Youngs Moduli (GPa) = 117.83669 27.48014 125.53359
#
# Poissons Ratio (x) = 0.11056 0.39077
# Poissons Ratio (y) = 0.47409 0.27677
# Poissons Ratio (z) = 0.36681 0.06059
#
# Static dielectric constant tensor:
#      x y z
#    x 3.787440 0.000000 0.013850 
#    y 0.000000 3.317200 0.000000 
#    z 0.013850 0.000000 4.075700 
# 
# 
# High freq. dielectric constant tensor:
#      x y z
#    x 1.794790 0.000000 0.000140 
#    y 0.000000 1.758500 0.000000 
#    z 0.000140 0.000000 1.801980 
# 
# From -- ./inp_files/363246.got.cif
#   From: 2010.06.25/outbox.cif.g09.slc.cpg/sg12_182_cif.got.tgz:363246.got - 2010.06.28 00:19:55.
