data_PCOD8093806
_publ_section_title
;
Structure prediction by ZEFSAII (Michael W. Deem and Ramdas Pophale) SiO2 
 PCOD8093806
Probable space group: C 2/M
;
_chemical_formula_sum "Si O2"
_cell_formula_units_Z 56
_cell_length_a 20.326587
_cell_length_b 9.220272
_cell_length_c 17.525519
_cell_angle_alpha 90.000000
_cell_angle_beta 64.238531
_cell_angle_gamma 90.000000
_cell_volume 2958.124548
_symmetry_space_group_name_H-M "C 2/M"
_symmetry_group_IT_number 12
_symmetry_cell_setting 'monoclinic'
loop_
_space_group_symop_operation_xyz
x,y,z
-x,y,-z
-x,-y,-z
x,-y,z
1/2+x,1/2+y,z
1/2-x,1/2+y,-z
1/2-x,1/2-y,-z
1/2+x,1/2-y,z
loop_
_atom_site_type_symbol
_atom_site_label
_atom_site_fract_x
_atom_site_fract_y
_atom_site_fract_z
Si Si1 0.557791 0.667518 0.662645
Si Si2 0.077669 0.669366 0.499070
Si Si3 0.079363 0.670804 0.933844
Si Si4 0.849049 0.167199 0.237763
Si Si5 0.911508 0.329389 0.777390
Si Si6 0.314839 0.171849 0.685602
Si Si7 0.174671 0.669032 0.028924
O O1 0.539334 0.500000 0.656777
O O2 0.586518 0.740020 0.571239
O O3 0.622331 0.685557 0.691062
O O4 0.486378 0.745396 0.730144
O O5 0.086371 0.500000 0.514038
O O6 0.139918 0.727035 0.410290
O O7 0.000000 0.700201 0.500000
O O8 0.078450 0.500000 0.920179
O O9 0.098557 0.746435 0.845175
O O10 0.137971 0.716052 0.968211
O O11 0.000000 0.725333 0.000000
O O12 0.767329 0.233773 0.275365
O O13 0.849123 0.000000 0.212088
O O14 0.927363 0.500000 0.760279
O O15 0.853919 0.274785 0.743101
O O16 0.880109 0.288955 0.875653
O O17 0.312905 0.000000 0.684433
O O18 0.192004 0.500000 0.022619
O O19 0.250000 0.750000 0.000000
#
# Coordination Sequence:
#
# PCOD8093806 Si02
#       7
#     8   8   8   8   8   8   8
#     4  11  23  36  54  84 117 143 176 229 284 331
#     4  10  19  36  61  85 107 143 191 227 264 327
#     4  10  21  38  58  82 112 147 190 235 274 321
#     4  10  22  39  57  81 113 149 185 225 280 336
#     4  10  19  36  60  81 104 146 194 228 267 326
#     4   9  18  35  59  82 107 143 189 230 263 320
#     4  10  21  35  56  84 113 145 184 232 282 331
#
# _framework density 18.930914999999999
#
# number of rings (size 3 to 8) (size 9 to 14) (size 15 to 20)
#    0.000    2.000    1.429    2.143    0.000    5.714 
#    0.000    1.429    0.000    0.000    0.000    0.000 
#    0.000    0.000    0.000    0.000    0.000    0.000 
#
# Total GULP energy -347305.018005 kJ/mol
# GULP energy per Si atom -12403.750643 kJ/mol
# Density = 1.888783 g / cm^3
# Si number density = 18.930915 Si / 1000 Ang^3
#
#
#
# Elastic Constant Matrix: (Units=GPa)
#
#
# Indices 1 2 3 4 5 6 
#
# 1 88.9890 30.2436 25.4625 0.0000 -7.5785 0.0000
# 2 30.2436 46.8542 38.7512 0.0000 2.0406 0.0000
# 3 25.4625 38.7512 111.8148 0.0000 2.1388 0.0000
# 4 0.0000 0.0000 0.0000 25.8592 0.0000 0.7522
# 5 -7.5785 2.0406 2.1388 0.0000 35.9901 0.0000
# 6 0.0000 0.0000 0.0000 0.7522 0.0000 27.1498
#
#
#
# Elastic Compliance Matrix: (Units=1/GPa)
#
#
# Indices 1 2 3 4 5 6 
#
# 1 0.014868 -0.009671 -0.000105 0.000000 0.003685 0.000000
# 2 -0.009671 0.036251 -0.010295 0.000000 -0.003480 0.000000
# 3 -0.000105 -0.010295 0.012538 0.000000 -0.000183 0.000000
# 4 0.000000 0.000000 0.000000 0.038702 0.000000 -0.001072
# 5 0.003685 -0.003480 -0.000183 0.000000 0.028770 0.000000
# 6 0.000000 0.000000 0.000000 -0.001072 0.000000 0.036862
#
#
# Mechanical properties :
#
#
# Convention : Reuss Voigt Hill
#
# Bulk Modulus (GPa) = 42.52218 48.50806 45.51512
# Shear Modulus (GPa) = 23.15129 28.01321 25.58225
#
# Velocity S-wave (km/s) = 3.50084 3.85094 3.68006
# Velocity P-wave (km/s) = 6.23312 6.74183 6.49246
#
# Compressibility (1/GPa) = 0.02351714
#
# Stress axis : x y z
#
# Youngs Moduli (GPa) = 67.25906 27.58542 79.75492
#
# Poissons Ratio (x) = 0.26678 0.00834
# Poissons Ratio (y) = 0.65046 0.82104
# Poissons Ratio (z) = 0.00703 0.28398
#
# Static dielectric constant tensor:
#      x y z
#    x 3.607020 0.000000 0.028530 
#    y 0.000000 3.358960 0.000000 
#    z 0.028530 0.000000 3.618650 
# 
# 
# High freq. dielectric constant tensor:
#      x y z
#    x 1.746510 0.000000 0.001710 
#    y 0.000000 1.713020 0.000000 
#    z 0.001710 0.000000 1.749910 
# 
# From -- ./inp_files/275630.got.cif
#   From: 2010.06.25/outbox.cif.g09.slc.cpg/sg12_138_cif.got.tgz:275630.got - 2010.06.28 00:19:55.
