data_PCOD8093738
_publ_section_title
;
Structure prediction by ZEFSAII (Michael W. Deem and Ramdas Pophale) SiO2 
 PCOD8093738
Probable space group: C 2/M
;
_chemical_formula_sum "Si O2"
_cell_formula_units_Z 56
_cell_length_a 15.015024
_cell_length_b 8.826807
_cell_length_c 28.849764
_cell_angle_alpha 90.000000
_cell_angle_beta 130.699413
_cell_angle_gamma 90.000000
_cell_volume 2898.824477
_symmetry_space_group_name_H-M "C 2/M"
_symmetry_group_IT_number 12
_symmetry_cell_setting 'monoclinic'
loop_
_space_group_symop_operation_xyz
x,y,z
-x,y,-z
-x,-y,-z
x,-y,z
1/2+x,1/2+y,z
1/2-x,1/2+y,-z
1/2-x,1/2-y,-z
1/2+x,1/2-y,z
loop_
_atom_site_type_symbol
_atom_site_label
_atom_site_fract_x
_atom_site_fract_y
_atom_site_fract_z
Si Si1 0.172439 0.820155 0.867813
Si Si2 0.618277 0.821940 0.567355
Si Si3 0.482172 0.676689 0.877200
Si Si4 0.063634 0.320612 0.651187
Si Si5 0.200299 0.320838 0.436651
Si Si6 0.281089 0.819126 0.211106
Si Si7 0.668797 0.677406 0.010807
O O1 0.152488 0.752596 0.810226
O O2 0.298734 0.758610 0.929791
O O3 0.067071 0.758817 0.865303
O O4 0.176568 0.000000 0.867539
O O5 0.500000 0.780685 0.500000
O O6 0.607417 0.762561 0.616165
O O7 0.726336 0.731498 0.582625
O O8 0.644233 0.000000 0.572979
O O9 0.471867 0.500000 0.864221
O O10 0.351790 0.746731 0.830587
O O11 0.535809 0.705986 0.947166
O O12 0.063723 0.500000 0.650771
O O13 0.150510 0.260094 0.720375
O O14 0.932194 0.261818 0.616071
O O15 0.204795 0.500000 0.443641
O O16 0.250000 0.250000 0.500000
O O17 0.283321 0.000000 0.207214
O O18 0.694075 0.500000 0.024437
O O19 0.750000 0.750000 0.000000
#
# Coordination Sequence:
#
# PCOD8093738 Si02
#       7
#     8   8   8   8   8   8   8
#     4  10  20  35  53  79 111 141 177 229 278 323
#     4  10  19  36  59  83 111 144 179 222 273 326
#     4   8  17  33  54  76 103 138 180 222 267 323
#     4   9  20  37  56  78 110 144 180 222 272 329
#     4  11  21  36  57  85 113 143 178 222 272 326
#     4  10  20  37  57  76 101 145 189 221 264 326
#     4   9  16  30  52  79 107 140 180 227 275 325
#
# _framework density 19.318176000000001
#
# number of rings (size 3 to 8) (size 9 to 14) (size 15 to 20)
#    0.000    2.429    1.429    2.143    0.000    2.000 
#    0.000   10.714    0.000    0.000    0.000    0.000 
#    0.000    0.000    0.000    0.000    0.000    0.000 
#
# Total GULP energy -347094.748196 kJ/mol
# GULP energy per Si atom -12396.241007 kJ/mol
# Density = 1.927421 g / cm^3
# Si number density = 19.318176 Si / 1000 Ang^3
#
#
#
# Elastic Constant Matrix: (Units=GPa)
#
#
# Indices 1 2 3 4 5 6 
#
# 1 111.1697 25.8533 58.7684 0.0000 -0.5548 0.0000
# 2 25.8533 48.1884 33.1308 0.0000 0.3734 0.0000
# 3 58.7684 33.1308 150.0378 0.0000 -5.5317 0.0000
# 4 0.0000 0.0000 0.0000 21.8500 0.0000 -5.5238
# 5 -0.5548 0.3734 -5.5317 0.0000 37.3023 0.0000
# 6 0.0000 0.0000 0.0000 -5.5238 0.0000 28.7260
#
#
#
# Elastic Compliance Matrix: (Units=1/GPa)
#
#
# Indices 1 2 3 4 5 6 
#
# 1 0.011896 -0.003734 -0.003848 0.000000 -0.000356 0.000000
# 2 -0.003734 0.025679 -0.004243 0.000000 -0.000942 0.000000
# 3 -0.003848 -0.004243 0.009159 0.000000 0.001343 0.000000
# 4 0.000000 0.000000 0.000000 0.048105 0.000000 0.009250
# 5 -0.000356 -0.000942 0.001343 0.000000 0.027011 0.000000
# 6 0.000000 0.000000 0.000000 0.009250 0.000000 0.036590
#
#
# Mechanical properties :
#
#
# Convention : Reuss Voigt Hill
#
# Bulk Modulus (GPa) = 43.31864 60.54453 51.93159
# Shear Modulus (GPa) = 26.34557 30.35189 28.34873
#
# Velocity S-wave (km/s) = 3.69693 3.96808 3.83491
# Velocity P-wave (km/s) = 6.37931 7.23899 6.82270
#
# Compressibility (1/GPa) = 0.02308475
#
# Stress axis : x y z
#
# Youngs Moduli (GPa) = 84.06099 38.94186 109.18596
#
# Poissons Ratio (x) = 0.14540 0.42018
# Poissons Ratio (y) = 0.31387 0.46324
# Poissons Ratio (z) = 0.32349 0.16522
#
# Static dielectric constant tensor:
#      x y z
#    x 3.859920 0.000000 0.051030 
#    y 0.000000 3.292500 0.000000 
#    z 0.051030 0.000000 3.949960 
# 
# 
# High freq. dielectric constant tensor:
#      x y z
#    x 1.752330 0.000000 -0.002120 
#    y 0.000000 1.723840 0.000000 
#    z -0.002120 0.000000 1.757670 
# 
# From -- ./inp_files/375140.got.cif
#   From: 2010.06.25/outbox.cif.g09.slc.cpg/sg12_188_cif.got.tgz:375140.got - 2010.06.28 00:19:55.
