data_PCOD8093331
_publ_section_title
;
Structure prediction by ZEFSAII (Michael W. Deem and Ramdas Pophale) SiO2 
 PCOD8093331
Probable space group: C 2/M
;
_chemical_formula_sum "Si O2"
_cell_formula_units_Z 56
_cell_length_a 9.454966
_cell_length_b 17.850431
_cell_length_c 25.348656
_cell_angle_alpha 90.000000
_cell_angle_beta 39.602453
_cell_angle_gamma 90.000000
_cell_volume 2727.184342
_symmetry_space_group_name_H-M "C 2/M"
_symmetry_group_IT_number 12
_symmetry_cell_setting 'monoclinic'
loop_
_space_group_symop_operation_xyz
x,y,z
-x,y,-z
-x,-y,-z
x,-y,z
1/2+x,1/2+y,z
1/2-x,1/2+y,-z
1/2-x,1/2-y,-z
1/2+x,1/2-y,z
loop_
_atom_site_type_symbol
_atom_site_label
_atom_site_fract_x
_atom_site_fract_y
_atom_site_fract_z
Si Si1 0.320032 0.911832 0.667697
Si Si2 0.663182 0.174052 0.500783
Si Si3 0.664513 0.086027 0.911779
Si Si4 0.043580 0.587916 0.833564
Si Si5 0.055266 0.170787 0.825958
Si Si6 0.507201 0.414978 0.659800
Si Si7 0.298841 0.296260 0.098668
O O1 0.545158 0.881550 0.576207
O O2 0.272948 0.853561 0.729720
O O3 0.113805 0.903959 0.686998
O O4 0.351228 0.000000 0.675136
O O5 0.500000 0.193447 0.500000
O O6 0.750000 0.250000 0.500000
O O7 0.882597 0.134200 0.416684
O O8 0.618257 0.122784 0.868272
O O9 0.911778 0.094507 0.863694
O O10 0.605698 0.000000 0.923115
O O11 0.500000 0.126684 0.000000
O O12 0.000009 0.500000 0.848612
O O13 0.815004 0.624618 0.881228
O O14 0.247356 0.606589 0.735807
O O15 0.110504 0.198021 0.868213
O O16 0.891569 0.232899 0.847391
O O17 0.540958 0.500000 0.632522
O O18 0.500000 0.280985 0.000000
#
# Coordination Sequence:
#
# PCOD8093331 Si02
#       7
#     8   8   8   8   8   8   8
#     4  10  21  39  66  97 124 161 210 255 301 367
#     4  10  22  38  64  94 130 163 203 249 304 362
#     4  10  19  35  61  89 118 156 201 250 305 365
#     4  10  21  39  63  89 122 162 207 254 310 375
#     4  12  24  39  63  86 123 160 207 258 314 373
#     4   9  18  38  66  91 122 163 209 251 297 365
#     4  12  27  43  61  87 123 164 212 264 320 376
#
# _framework density 20.533998
#
# number of rings (size 3 to 8) (size 9 to 14) (size 15 to 20)
#    0.000    1.571    1.429    3.429    2.000    4.286 
#    0.000    0.000    0.000    0.857    0.000    0.000 
#    0.000    0.000    0.000    0.000    0.000    0.000 
#
# Total GULP energy -347028.856290 kJ/mol
# GULP energy per Si atom -12393.887725 kJ/mol
# Density = 2.048726 g / cm^3
# Si number density = 20.533998 Si / 1000 Ang^3
#
#
#
# Elastic Constant Matrix: (Units=GPa)
#
#
# Indices 1 2 3 4 5 6 
#
# 1 96.4213 41.8736 43.6709 0.0012 8.6782 -0.0018
# 2 41.8736 101.1975 71.0634 0.0045 3.8312 -0.0042
# 3 43.6709 71.0634 117.7321 0.0136 16.1847 0.0024
# 4 0.0012 0.0045 0.0136 25.6539 -0.0003 -8.6183
# 5 8.6782 3.8312 16.1847 -0.0003 29.0162 -0.0074
# 6 -0.0018 -0.0042 0.0024 -8.6183 -0.0074 31.7872
#
#
#
# Elastic Compliance Matrix: (Units=1/GPa)
#
#
# Indices 1 2 3 4 5 6 
#
# 1 0.013262 -0.003748 -0.002361 0.000001 -0.002155 0.000000
# 2 -0.003748 0.018607 -0.010459 0.000004 0.004498 0.000005
# 3 -0.002361 -0.010459 0.016674 -0.000009 -0.007214 -0.000007
# 4 0.000001 0.000004 -0.000009 0.042887 0.000008 0.011628
# 5 -0.002155 0.004498 -0.007214 0.000008 0.038538 0.000012
# 6 0.000000 0.000005 -0.000007 0.011628 0.000012 0.034612
#
#
# Mechanical properties :
#
#
# Convention : Reuss Voigt Hill
#
# Bulk Modulus (GPa) = 64.90513 69.84076 67.37295
# Shear Modulus (GPa) = 24.64848 27.87431 26.26140
#
# Velocity S-wave (km/s) = 3.46840 3.68838 3.58008
# Velocity P-wave (km/s) = 6.90775 7.22669 7.06902
#
# Compressibility (1/GPa) = 0.01540710
#
# Stress axis : x y z
#
# Youngs Moduli (GPa) = 75.40299 53.74281 59.97202
#
# Poissons Ratio (x) = 0.20144 0.14157
# Poissons Ratio (y) = 0.28263 0.62727
# Poissons Ratio (z) = 0.17800 0.56211
#
# Static dielectric constant tensor:
#      x y z
#    x 3.659000 0.000010 0.093400 
#    y 0.000010 3.785030 0.000010 
#    z 0.093400 0.000010 3.992720 
# 
# 
# High freq. dielectric constant tensor:
#      x y z
#    x 1.778190 0.000000 0.001490 
#    y 0.000000 1.812330 0.000000 
#    z 0.001490 0.000000 1.818040 
# 
# From -- ./inp_files/356639.got.cif
#   From: 2010.06.25/outbox.cif.g09.slc.cpg/sg12_179_cif.got.tgz:356639.got - 2010.06.28 00:19:55.
