data_PCOD8093017
_publ_section_title
;
Structure prediction by ZEFSAII (Michael W. Deem and Ramdas Pophale) SiO2 
 PCOD8093017
Probable space group: C 2/M
;
_chemical_formula_sum "Si O2"
_cell_formula_units_Z 56
_cell_length_a 19.042237
_cell_length_b 9.097661
_cell_length_c 16.357722
_cell_angle_alpha 90.000000
_cell_angle_beta 91.593166
_cell_angle_gamma 90.000000
_cell_volume 2832.713322
_symmetry_space_group_name_H-M "C 2/M"
_symmetry_group_IT_number 12
_symmetry_cell_setting 'monoclinic'
loop_
_space_group_symop_operation_xyz
x,y,z
-x,y,-z
-x,-y,-z
x,-y,z
1/2+x,1/2+y,z
1/2-x,1/2+y,-z
1/2-x,1/2-y,-z
1/2+x,1/2-y,z
loop_
_atom_site_type_symbol
_atom_site_label
_atom_site_fract_x
_atom_site_fract_y
_atom_site_fract_z
Si Si1 0.883733 0.332057 0.324423
Si Si2 0.670647 0.674713 0.146088
Si Si3 0.330968 0.825948 0.149758
Si Si4 0.778958 0.833417 0.423883
Si Si5 0.524071 0.167893 0.415196
Si Si6 0.417925 0.173552 0.996500
Si Si7 0.352505 0.168763 0.689168
O O1 0.857433 0.500000 0.329831
O O2 0.863067 0.264248 0.235704
O O3 0.850350 0.241461 0.397326
O O4 0.966722 0.319859 0.341340
O O5 0.666156 0.500000 0.142803
O O6 0.750978 0.729717 0.134461
O O7 0.620224 0.742327 0.077078
O O8 0.641878 0.730063 0.231571
O O9 0.332357 0.000000 0.152818
O O10 0.381128 0.770388 0.078631
O O11 0.750000 0.750000 0.500000
O O12 0.725933 0.822525 0.346608
O O13 0.793996 0.000000 0.449944
O O14 0.500000 0.245760 0.500000
O O15 0.595079 0.235057 0.378597
O O16 0.541296 0.000000 0.438435
O O17 0.407889 0.000000 0.983517
O O18 0.500000 0.216094 0.000000
O O19 0.373044 0.000000 0.711764
#
# Coordination Sequence:
#
# PCOD8093017 Si02
#       7
#     8   8   8   8   8   8   8
#     4  10  19  35  59  82 114 151 189 235 286 343
#     4  11  22  38  59  84 119 154 186 229 290 349
#     4   9  19  36  58  86 114 150 190 230 287 342
#     4  11  22  36  57  85 117 151 193 240 286 337
#     4   9  18  33  56  84 112 147 191 240 288 333
#     4  10  22  39  63  90 115 146 192 239 279 335
#     4  10  21  37  59  86 113 148 198 241 279 335
#
# _framework density 19.769033
#
# number of rings (size 3 to 8) (size 9 to 14) (size 15 to 20)
#    0.000    2.000    1.429    2.143    2.000    3.143 
#    0.000    2.143    0.000    1.714    0.000    0.000 
#    0.000    0.000    0.000    0.000    0.000    0.000 
#
# Total GULP energy -347195.086373 kJ/mol
# GULP energy per Si atom -12399.824513 kJ/mol
# Density = 1.972404 g / cm^3
# Si number density = 19.769033 Si / 1000 Ang^3
#
#
#
# Elastic Constant Matrix: (Units=GPa)
#
#
# Indices 1 2 3 4 5 6 
#
# 1 100.5780 20.1867 38.7066 0.0000 -13.2412 0.0000
# 2 20.1867 57.8082 29.8292 0.0000 -0.8723 0.0000
# 3 38.7066 29.8292 115.9316 0.0000 -10.8580 0.0000
# 4 0.0000 0.0000 0.0000 28.2891 0.0000 -1.5363
# 5 -13.2412 -0.8723 -10.8580 0.0000 41.1553 0.0000
# 6 0.0000 0.0000 0.0000 -1.5363 0.0000 19.3776
#
#
#
# Elastic Compliance Matrix: (Units=1/GPa)
#
#
# Indices 1 2 3 4 5 6 
#
# 1 0.012038 -0.002571 -0.003076 0.000000 0.003007 0.000000
# 2 -0.002571 0.020533 -0.004574 0.000000 -0.001599 0.000000
# 3 -0.003076 -0.004574 0.011000 0.000000 0.001815 0.000000
# 4 0.000000 0.000000 0.000000 0.035502 0.000000 0.002815
# 5 0.003007 -0.001599 0.001815 0.000000 0.025711 0.000000
# 6 0.000000 0.000000 0.000000 0.002815 0.000000 0.051829
#
#
# Mechanical properties :
#
#
# Convention : Reuss Voigt Hill
#
# Bulk Modulus (GPa) = 43.23837 50.19585 46.71711
# Shear Modulus (GPa) = 27.06139 30.13743 28.59941
#
# Velocity S-wave (km/s) = 3.70385 3.90869 3.80765
# Velocity P-wave (km/s) = 6.34118 6.76881 6.55848
#
# Compressibility (1/GPa) = 0.02312761
#
# Stress axis : x y z
#
# Youngs Moduli (GPa) = 83.06848 48.70288 90.91065
#
# Poissons Ratio (x) = 0.12522 0.27965
# Poissons Ratio (y) = 0.21358 0.41586
# Poissons Ratio (z) = 0.25552 0.22278
#
# Static dielectric constant tensor:
#      x y z
#    x 3.777310 0.000000 -0.113200 
#    y 0.000000 3.314160 0.000000 
#    z -0.113200 0.000000 3.812460 
# 
# 
# High freq. dielectric constant tensor:
#      x y z
#    x 1.780620 0.000000 -0.002290 
#    y 0.000000 1.732950 0.000000 
#    z -0.002290 0.000000 1.782790 
# 
# From -- ./inp_files/230919.got.cif
#   From: 2010.06.25/outbox.cif.g09.slc.cpg/sg12_116_cif.got.tgz:230919.got - 2010.06.28 00:19:55.
