data_PCOD8093288
_publ_section_title
;
Structure prediction by ZEFSAII (Michael W. Deem and Ramdas Pophale) SiO2 
 PCOD8093288
Probable space group: C 2/M
;
_chemical_formula_sum "Si O2"
_cell_formula_units_Z 64
_cell_length_a 10.029630
_cell_length_b 14.387475
_cell_length_c 23.554028
_cell_angle_alpha 90.000000
_cell_angle_beta 85.275038
_cell_angle_gamma 90.000000
_cell_volume 3387.320250
_symmetry_space_group_name_H-M "C 2/M"
_symmetry_group_IT_number 12
_symmetry_cell_setting 'monoclinic'
loop_
_space_group_symop_operation_xyz
x,y,z
-x,y,-z
-x,-y,-z
x,-y,z
1/2+x,1/2+y,z
1/2-x,1/2+y,-z
1/2-x,1/2-y,-z
1/2+x,1/2-y,z
loop_
_atom_site_type_symbol
_atom_site_label
_atom_site_fract_x
_atom_site_fract_y
_atom_site_fract_z
Si Si1 0.847883 0.164864 0.495593
Si Si2 0.803622 0.608190 0.867215
Si Si3 0.895606 0.105125 0.371728
Si Si4 0.806794 0.897193 0.616996
Si Si5 0.184577 0.263502 0.701296
Si Si6 0.919229 0.749894 0.777285
Si Si7 0.012929 0.890586 0.127303
Si Si8 0.884276 0.257786 0.960683
O O1 0.750000 0.250000 0.500000
O O2 0.830092 0.112554 0.436419
O O3 0.802331 0.098607 0.548730
O O4 0.000000 0.198499 0.500000
O O5 0.843436 0.500000 0.863615
O O6 0.859036 0.659594 0.809930
O O7 0.644783 0.621489 0.876133
O O8 0.874349 0.655660 0.918384
O O9 0.817110 0.161279 0.326085
O O10 0.048266 0.141169 0.368523
O O11 0.887954 0.000000 0.351413
O O12 0.689947 0.834024 0.647718
O O13 0.783747 0.000000 0.641304
O O14 0.316314 0.281568 0.733167
O O15 0.057191 0.283075 0.744720
O O16 0.942317 0.839231 0.816708
O O17 0.087208 0.839981 0.072310
O O18 0.052950 0.000000 0.127996
O O19 0.750000 0.250000 0.000000
O O20 0.000000 0.283191 0.000000
#
# Coordination Sequence:
#
# PCOD8093288 Si02
#       8
#     8   8   8   8   8   8   8   8
#     4  10  19  35  61  83 114 151 190 239 298 363
#     4  10  22  41  64  90 122 164 206 243 292 348
#     4  10  21  37  60  87 113 152 199 240 295 370
#     4  10  21  37  59  87 116 151 196 243 297 364
#     4  12  22  38  61  86 117 153 197 249 308 351
#     4  11  24  40  61  88 119 156 200 258 298 342
#     4  10  22  41  66  90 118 167 210 237 288 358
#     4  11  22  39  63  98 133 157 193 247 292 339
#
# _framework density 18.893991
#
# number of rings (size 3 to 8) (size 9 to 14) (size 15 to 20)
#    0.000    1.500    5.000    0.375    0.000    4.500 
#    0.000    1.250    0.000    0.750    0.000    0.000 
#    0.000    0.000    0.000    0.000    0.000    0.000 
#
# Total GULP energy -396792.272706 kJ/mol
# GULP energy per Si atom -12399.758522 kJ/mol
# Density = 1.885099 g / cm^3
# Si number density = 18.893991 Si / 1000 Ang^3
#
#
#
# Elastic Constant Matrix: (Units=GPa)
#
#
# Indices 1 2 3 4 5 6 
#
# 1 74.0093 42.3045 44.2243 0.0000 -2.4388 0.0000
# 2 42.3045 128.6998 48.9112 0.0000 -11.7281 0.0000
# 3 44.2243 48.9112 109.0798 0.0000 -11.7594 0.0000
# 4 0.0000 0.0000 0.0000 18.6561 0.0000 3.6349
# 5 -2.4388 -11.7281 -11.7594 0.0000 37.8903 0.0000
# 6 0.0000 0.0000 0.0000 3.6349 0.0000 27.2368
#
#
#
# Elastic Compliance Matrix: (Units=1/GPa)
#
#
# Indices 1 2 3 4 5 6 
#
# 1 0.019618 -0.004250 -0.006263 0.000000 -0.001997 0.000000
# 2 -0.004250 0.010388 -0.002708 0.000000 0.002101 0.000000
# 3 -0.006263 -0.002708 0.013230 0.000000 0.002865 0.000000
# 4 0.000000 0.000000 0.000000 0.055033 0.000000 -0.007344
# 5 -0.001997 0.002101 0.002865 0.000000 0.027803 0.000000
# 6 0.000000 0.000000 0.000000 -0.007344 0.000000 0.037695
#
#
# Mechanical properties :
#
#
# Convention : Reuss Voigt Hill
#
# Bulk Modulus (GPa) = 59.54979 64.74098 62.14539
# Shear Modulus (GPa) = 25.53525 28.51323 27.02424
#
# Velocity S-wave (km/s) = 3.68026 3.88895 3.78605
# Velocity P-wave (km/s) = 7.04595 7.38275 7.21632
#
# Compressibility (1/GPa) = 0.01679267
#
# Stress axis : x y z
#
# Youngs Moduli (GPa) = 50.97330 96.26673 75.58545
#
# Poissons Ratio (x) = 0.40916 0.47341
# Poissons Ratio (y) = 0.21665 0.20470
# Poissons Ratio (z) = 0.31926 0.26071
#
# Static dielectric constant tensor:
#      x y z
#    x 3.447660 0.000000 -0.143950 
#    y 0.000000 3.432110 0.000000 
#    z -0.143950 0.000000 4.196090 
# 
# 
# High freq. dielectric constant tensor:
#      x y z
#    x 1.727930 0.000000 -0.005240 
#    y 0.000000 1.728670 0.000000 
#    z -0.005240 0.000000 1.751870 
# 
# From -- ./inp_files/332918.got.cif
#   From: 2010.06.25/outbox.cif.g09.slc.cpg/sg12_167_cif.got.tgz:332918.got - 2010.06.28 00:19:55.
