data_PCOD8093063
_publ_section_title
;
Structure prediction by ZEFSAII (Michael W. Deem and Ramdas Pophale) SiO2 
 PCOD8093063
Probable space group: C 2/M
;
_chemical_formula_sum "Si O2"
_cell_formula_units_Z 64
_cell_length_a 15.457981
_cell_length_b 8.750142
_cell_length_c 24.113628
_cell_angle_alpha 90.000000
_cell_angle_beta 89.323825
_cell_angle_gamma 90.000000
_cell_volume 3261.370834
_symmetry_space_group_name_H-M "C 2/M"
_symmetry_group_IT_number 12
_symmetry_cell_setting 'monoclinic'
loop_
_space_group_symop_operation_xyz
x,y,z
-x,y,-z
-x,-y,-z
x,-y,z
1/2+x,1/2+y,z
1/2-x,1/2+y,-z
1/2-x,1/2-y,-z
1/2+x,1/2-y,z
loop_
_atom_site_type_symbol
_atom_site_label
_atom_site_fract_x
_atom_site_fract_y
_atom_site_fract_z
Si Si1 0.592565 0.680994 0.137349
Si Si2 0.507165 0.181167 0.561821
Si Si3 0.910160 0.317224 0.133420
Si Si4 0.100017 0.672955 0.255063
Si Si5 0.164617 0.320257 0.631720
Si Si6 0.748717 0.180032 0.939757
Si Si7 0.601325 0.171057 0.745140
Si Si8 0.856984 0.177649 0.634000
O O1 0.586404 0.500000 0.143143
O O2 0.502033 0.746432 0.115031
O O3 0.619432 0.750011 0.196121
O O4 0.665999 0.732569 0.093578
O O5 0.500000 0.250241 0.500000
O O6 0.595088 0.247995 0.588778
O O7 0.424095 0.227012 0.597811
O O8 0.510480 0.000000 0.559197
O O9 0.921055 0.500000 0.135822
O O10 0.837306 0.262290 0.091221
O O11 0.884105 0.251168 0.194752
O O12 0.135910 0.500000 0.254215
O O13 0.146624 0.770409 0.302180
O O14 0.999135 0.672896 0.269528
O O15 0.146335 0.500000 0.638017
O O16 0.150134 0.246011 0.693434
O O17 0.261489 0.288842 0.609657
O O18 0.745678 0.000000 0.945065
O O19 0.750000 0.250000 0.000000
O O20 0.637495 0.000000 0.750445
O O21 0.880970 0.000000 0.630700
#
# Coordination Sequence:
#
# PCOD8093063 Si02
#       8
#     8   8   8   8   8   8   8   8
#     4  10  21  37  58  87 117 147 187 240 292 334
#     4  10  21  40  62  80 109 156 201 234 275 343
#     4   9  19  36  58  83 110 152 194 231 282 347
#     4  10  19  35  59  84 115 153 190 228 278 346
#     4   9  18  33  55  83 112 150 187 225 284 344
#     4  10  23  40  59  82 114 154 197 237 287 347
#     4   8  14  29  56  79 104 142 185 223 267 335
#     4  11  22  34  56  87 116 146 186 239 292 336
#
# _framework density 19.623650999999999
#
# number of rings (size 3 to 8) (size 9 to 14) (size 15 to 20)
#    0.000    2.375    1.250    1.875    1.750    2.750 
#    0.000    3.750    0.000    0.000    0.000    0.000 
#    0.000    0.000    0.000    0.000    0.000    0.000 
#
# Total GULP energy -396705.835794 kJ/mol
# GULP energy per Si atom -12397.057369 kJ/mol
# Density = 1.957899 g / cm^3
# Si number density = 19.623651 Si / 1000 Ang^3
#
#
#
# Elastic Constant Matrix: (Units=GPa)
#
#
# Indices 1 2 3 4 5 6 
#
# 1 125.1921 15.6413 75.7803 0.0000 11.0621 0.0000
# 2 15.6413 25.4888 16.0530 0.0000 1.9931 0.0000
# 3 75.7803 16.0530 138.2522 0.0000 11.7127 0.0000
# 4 0.0000 0.0000 0.0000 25.3645 0.0000 -2.4298
# 5 11.0621 1.9931 11.7127 0.0000 24.5819 0.0000
# 6 0.0000 0.0000 0.0000 -2.4298 0.0000 26.6827
#
#
#
# Elastic Compliance Matrix: (Units=1/GPa)
#
#
# Indices 1 2 3 4 5 6 
#
# 1 0.012372 -0.003520 -0.006174 0.000000 -0.002340 0.000000
# 2 -0.003520 0.043360 -0.003065 0.000000 -0.000471 0.000000
# 3 -0.006174 -0.003065 0.011168 0.000000 -0.002294 0.000000
# 4 0.000000 0.000000 0.000000 0.039772 0.000000 0.003622
# 5 -0.002340 -0.000471 -0.002294 0.000000 0.042865 0.000000
# 6 0.000000 0.000000 0.000000 0.003622 0.000000 0.037807
#
#
# Mechanical properties :
#
#
# Convention : Reuss Voigt Hill
#
# Bulk Modulus (GPa) = 24.16618 55.98693 40.07655
# Shear Modulus (GPa) = 22.05974 27.42305 24.74139
#
# Velocity S-wave (km/s) = 3.35646 3.74230 3.55462
# Velocity P-wave (km/s) = 5.23093 6.87498 6.10852
#
# Compressibility (1/GPa) = 0.04138015
#
# Stress axis : x y z
#
# Youngs Moduli (GPa) = 80.82962 23.06248 89.54347
#
# Poissons Ratio (x) = 0.08119 0.55287
# Poissons Ratio (y) = 0.28455 0.27447
# Poissons Ratio (z) = 0.49907 0.07069
#
# Static dielectric constant tensor:
#      x y z
#    x 3.602840 0.000000 0.005740 
#    y 0.000000 3.286870 0.000000 
#    z 0.005740 0.000000 3.546280 
# 
# 
# High freq. dielectric constant tensor:
#      x y z
#    x 1.770080 0.000000 0.002340 
#    y 0.000000 1.733920 0.000000 
#    z 0.002340 0.000000 1.768160 
# 
# From -- ./inp_files/338776.got.cif
#   From: 2010.06.25/outbox.cif.g09.slc.cpg/sg12_170_cif.got.tgz:338776.got - 2010.06.28 00:19:55.
