data_PCOD8093748
_publ_section_title
;
Structure prediction by ZEFSAII (Michael W. Deem and Ramdas Pophale) SiO2 
 PCOD8093748
Probable space group: C 2/M
;
_chemical_formula_sum "Si O2"
_cell_formula_units_Z 48
_cell_length_a 15.022365
_cell_length_b 8.955068
_cell_length_c 19.073227
_cell_angle_alpha 90.000000
_cell_angle_beta 90.343062
_cell_angle_gamma 90.000000
_cell_volume 2565.804665
_symmetry_space_group_name_H-M "C 2/M"
_symmetry_group_IT_number 12
_symmetry_cell_setting 'monoclinic'
loop_
_space_group_symop_operation_xyz
x,y,z
-x,y,-z
-x,-y,-z
x,-y,z
1/2+x,1/2+y,z
1/2-x,1/2+y,-z
1/2-x,1/2-y,-z
1/2+x,1/2-y,z
loop_
_atom_site_type_symbol
_atom_site_label
_atom_site_fract_x
_atom_site_fract_y
_atom_site_fract_z
Si Si1 0.097314 0.675194 0.174890
Si Si2 0.331893 0.825274 0.671502
Si Si3 0.994826 0.323108 0.578100
Si Si4 0.147774 0.322723 0.681456
Si Si5 0.587275 0.675464 0.824190
Si Si6 0.254669 0.674255 0.074505
O O1 0.077350 0.500000 0.167800
O O2 0.126553 0.715527 0.253435
O O3 0.174000 0.730557 0.122886
O O4 0.009388 0.766165 0.154791
O O5 0.401782 0.775697 0.612572
O O6 0.244057 0.730302 0.656583
O O7 0.308284 0.000000 0.667920
O O8 0.001543 0.500000 0.574986
O O9 0.000000 0.254169 0.500000
O O10 0.076699 0.262099 0.624585
O O11 0.144803 0.500000 0.687691
O O12 0.124459 0.255708 0.756153
O O13 0.585306 0.500000 0.809116
O O14 0.652159 0.715004 0.888712
O O15 0.245396 0.500000 0.062682
O O16 0.250000 0.750000 0.000000
#
# Coordination Sequence:
#
# PCOD8093748 Si02
#       6
#     8   8   8   8   8   8
#     4  10  20  38  60  85 114 151 193 232 279 340
#     4  10  19  36  59  83 115 152 190 234 283 335
#     4   9  19  36  57  82 116 155 189 230 287 341
#     4  11  21  35  58  87 114 149 196 237 278 339
#     4  11  22  38  60  87 116 149 190 237 284 336
#     4  10  23  41  59  82 118 151 186 233 287 340
#
# _framework density 18.707581000000001
#
# number of rings (size 3 to 8) (size 9 to 14) (size 15 to 20)
#    0.000    1.833    3.333    1.000    0.000    4.000 
#    0.000    3.333    0.000    3.500    0.000    0.000 
#    0.000    0.000    0.000    0.000    0.000    0.000 
#
# Total GULP energy -297674.483238 kJ/mol
# GULP energy per Si atom -12403.103468 kJ/mol
# Density = 1.866500 g / cm^3
# Si number density = 18.707581 Si / 1000 Ang^3
#
#
#
# Elastic Constant Matrix: (Units=GPa)
#
#
# Indices 1 2 3 4 5 6 
#
# 1 101.9495 37.6749 12.9814 0.0000 -2.1775 0.0000
# 2 37.6749 49.6525 28.7269 0.0000 5.6874 0.0000
# 3 12.9814 28.7269 93.7134 0.0000 -8.8268 0.0000
# 4 0.0000 0.0000 0.0000 19.9267 0.0000 -0.9823
# 5 -2.1775 5.6874 -8.8268 0.0000 31.2725 0.0000
# 6 0.0000 0.0000 0.0000 -0.9823 0.0000 37.8166
#
#
#
# Elastic Compliance Matrix: (Units=1/GPa)
#
#
# Indices 1 2 3 4 5 6 
#
# 1 0.014246 -0.012555 0.002243 0.000000 0.003909 0.000000
# 2 -0.012555 0.037017 -0.010606 0.000000 -0.010600 0.000000
# 3 0.002243 -0.010606 0.014185 0.000000 0.006089 0.000000
# 4 0.000000 0.000000 0.000000 0.050248 0.000000 0.001305
# 5 0.003909 -0.010600 0.006089 0.000000 0.035896 0.000000
# 6 0.000000 0.000000 0.000000 0.001305 0.000000 0.026477
#
#
# Mechanical properties :
#
#
# Convention : Reuss Voigt Hill
#
# Bulk Modulus (GPa) = 42.35195 44.89796 43.62496
# Shear Modulus (GPa) = 21.95129 28.86532 25.40830
#
# Velocity S-wave (km/s) = 3.42919 3.93233 3.68935
# Velocity P-wave (km/s) = 6.19413 6.68353 6.44348
#
# Compressibility (1/GPa) = 0.02361166
#
# Stress axis : x y z
#
# Youngs Moduli (GPa) = 70.19329 27.01439 70.49758
#
# Poissons Ratio (x) = 0.33918 -0.15816
# Poissons Ratio (y) = 0.88131 0.74773
# Poissons Ratio (z) = -0.15747 0.28653
#
# Static dielectric constant tensor:
#      x y z
#    x 4.097440 0.000000 -0.489150 
#    y 0.000000 3.261280 0.000000 
#    z -0.489150 0.000000 4.398860 
# 
# 
# High freq. dielectric constant tensor:
#      x y z
#    x 1.744160 0.000000 -0.001560 
#    y 0.000000 1.708160 0.000000 
#    z -0.001560 0.000000 1.728180 
# 
# From -- ./inp_files/267607.got.cif
#   From: 2010.06.25/outbox.cif.g09.slc.cpg/sg12_134_cif.got.tgz:267607.got - 2010.06.28 00:19:55.
