data_PCOD8093553
_publ_section_title
;
Structure prediction by ZEFSAII (Michael W. Deem and Ramdas Pophale) SiO2 
 PCOD8093553
Probable space group: C 2/M
;
_chemical_formula_sum "Si O2"
_cell_formula_units_Z 64
_cell_length_a 23.903586
_cell_length_b 8.957229
_cell_length_c 21.650165
_cell_angle_alpha 90.000000
_cell_angle_beta 46.238656
_cell_angle_gamma 90.000000
_cell_volume 3347.893913
_symmetry_space_group_name_H-M "C 2/M"
_symmetry_group_IT_number 12
_symmetry_cell_setting 'monoclinic'
loop_
_space_group_symop_operation_xyz
x,y,z
-x,y,-z
-x,-y,-z
x,-y,z
1/2+x,1/2+y,z
1/2-x,1/2+y,-z
1/2-x,1/2-y,-z
1/2+x,1/2-y,z
loop_
_atom_site_type_symbol
_atom_site_label
_atom_site_fract_x
_atom_site_fract_y
_atom_site_fract_z
Si Si1 0.533998 0.670259 0.539426
Si Si2 0.436614 0.175994 0.715072
Si Si3 0.210136 0.177024 0.230282
Si Si4 0.986044 0.676696 0.110589
Si Si5 0.704119 0.673120 0.590137
Si Si6 0.292229 0.329604 0.626740
Si Si7 0.618842 0.824236 0.920717
Si Si8 0.970943 0.173816 0.252501
O O1 0.500000 0.720538 0.500000
O O2 0.508140 0.500000 0.573775
O O3 0.500385 0.779348 0.616088
O O4 0.626020 0.685309 0.470077
O O5 0.353347 0.243211 0.762832
O O6 0.463342 0.237700 0.760669
O O7 0.429584 0.000000 0.723934
O O8 0.200411 0.227974 0.308805
O O9 0.293305 0.234505 0.142035
O O10 0.199418 0.000000 0.232364
O O11 0.979949 0.500000 0.128360
O O12 0.922181 0.734011 0.110293
O O13 0.971075 0.769044 0.183018
O O14 0.070705 0.720130 0.018551
O O15 0.723952 0.500000 0.572027
O O16 0.750000 0.750000 0.500000
O O17 0.729858 0.733765 0.637269
O O18 0.612724 0.702767 0.652497
O O19 0.263048 0.500000 0.649159
O O20 0.619250 0.000000 0.913778
O O21 0.991491 0.000000 0.237958
#
# Coordination Sequence:
#
# PCOD8093553 Si02
#       8
#     8   8   8   8   8   8   8   8
#     4  10  19  36  57  79 109 148 189 227 273 333
#     4  12  25  38  55  81 111 148 193 242 282 323
#     4  10  19  36  58  83 114 150 184 221 277 340
#     4   9  17  35  62  92 117 143 183 229 274 330
#     4  11  24  39  56  80 112 146 185 231 279 329
#     4  10  20  34  58  85 110 144 185 226 275 332
#     4   8  16  32  61  93 119 144 177 225 281 335
#     4  11  24  41  58  79 111 154 193 228 278 340
#
# _framework density 19.116496000000001
#
# number of rings (size 3 to 8) (size 9 to 14) (size 15 to 20)
#    0.000    1.875    1.250    4.125    0.000    7.250 
#    0.000    3.125    0.000    0.000    0.000    0.000 
#    0.000    0.000    0.000    0.000    0.000    0.000 
#
# Total GULP energy -396867.780381 kJ/mol
# GULP energy per Si atom -12402.118137 kJ/mol
# Density = 1.907299 g / cm^3
# Si number density = 19.116496 Si / 1000 Ang^3
#
#
#
# Elastic Constant Matrix: (Units=GPa)
#
#
# Indices 1 2 3 4 5 6 
#
# 1 106.4674 54.0186 36.5901 0.0001 -5.3955 -0.0002
# 2 54.0186 86.5827 42.8893 -0.0008 -2.2323 0.0002
# 3 36.5901 42.8893 99.7566 -0.0001 -7.3037 0.0001
# 4 0.0001 -0.0008 -0.0001 21.6595 -0.0001 3.0763
# 5 -5.3955 -2.2323 -7.3037 -0.0001 29.5451 0.0001
# 6 -0.0002 0.0002 0.0001 3.0763 0.0001 30.9846
#
#
#
# Elastic Compliance Matrix: (Units=1/GPa)
#
#
# Indices 1 2 3 4 5 6 
#
# 1 0.014050 -0.007915 -0.001636 0.000000 0.001563 0.000000
# 2 -0.007915 0.019140 -0.005424 0.000001 -0.001340 0.000000
# 3 -0.001636 -0.005424 0.013142 0.000000 0.002540 0.000000
# 4 0.000000 0.000001 0.000000 0.046830 0.000000 -0.004649
# 5 0.001563 -0.001340 0.002540 0.000000 0.034659 0.000000
# 6 0.000000 0.000000 0.000000 -0.004649 0.000000 0.032736
#
#
# Mechanical properties :
#
#
# Convention : Reuss Voigt Hill
#
# Bulk Modulus (GPa) = 61.04100 62.20028 61.62064
# Shear Modulus (GPa) = 25.51450 27.05842 26.28646
#
# Velocity S-wave (km/s) = 3.65730 3.76633 3.71221
# Velocity P-wave (km/s) = 7.05938 7.17787 7.11887
#
# Compressibility (1/GPa) = 0.01638243
#
# Stress axis : x y z
#
# Youngs Moduli (GPa) = 71.17519 52.24657 76.08928
#
# Poissons Ratio (x) = 0.41353 0.12448
# Poissons Ratio (y) = 0.56335 0.41271
# Poissons Ratio (z) = 0.11644 0.28339
#
# Static dielectric constant tensor:
#      x y z
#    x 3.720250 0.000000 -0.250390 
#    y 0.000000 3.299840 0.000000 
#    z -0.250390 0.000000 3.723140 
# 
# 
# High freq. dielectric constant tensor:
#      x y z
#    x 1.750790 0.000000 -0.004480 
#    y 0.000000 1.723650 0.000000 
#    z -0.004480 0.000000 1.743490 
# 
# From -- ./inp_files/324180.got.cif
#   From: 2010.06.25/outbox.cif.g09.slc.cpg/sg12_163_cif.got.tgz:324180.got - 2010.06.28 00:19:55.
