data_PCOD8093594
_publ_section_title
;
Structure prediction by ZEFSAII (Michael W. Deem and Ramdas Pophale) SiO2 
 PCOD8093594
Probable space group: C 2/M
;
_chemical_formula_sum "Si O2"
_cell_formula_units_Z 56
_cell_length_a 20.167619
_cell_length_b 9.248514
_cell_length_c 30.907540
_cell_angle_alpha 90.000000
_cell_angle_beta 147.781430
_cell_angle_gamma 90.000000
_cell_volume 3073.554030
_symmetry_space_group_name_H-M "C 2/M"
_symmetry_group_IT_number 12
_symmetry_cell_setting 'monoclinic'
loop_
_space_group_symop_operation_xyz
x,y,z
-x,y,-z
-x,-y,-z
x,-y,z
1/2+x,1/2+y,z
1/2-x,1/2+y,-z
1/2-x,1/2-y,-z
1/2+x,1/2-y,z
loop_
_atom_site_type_symbol
_atom_site_label
_atom_site_fract_x
_atom_site_fract_y
_atom_site_fract_z
Si Si1 0.235084 0.671496 0.094046
Si Si2 0.221291 0.168622 0.332861
Si Si3 0.247764 0.666092 0.810132
Si Si4 0.523353 0.331387 0.930518
Si Si5 0.093411 0.334257 0.642009
Si Si6 0.906293 0.163370 0.488163
Si Si7 0.541615 0.328924 0.843603
O O1 0.221155 0.500000 0.087841
O O2 0.277523 0.728103 0.164041
O O3 0.337756 0.722009 0.115955
O O4 0.104132 0.742288 0.009386
O O5 0.296030 0.200453 0.330234
O O6 0.279963 0.253827 0.405773
O O7 0.082030 0.229072 0.248587
O O8 0.223120 0.000000 0.345656
O O9 0.240892 0.500000 0.821869
O O10 0.380297 0.697749 0.861797
O O11 0.141413 0.700482 0.716465
O O12 0.557438 0.500000 0.953768
O O13 0.551328 0.270159 0.897940
O O14 0.052548 0.500000 0.614688
O O15 0.971933 0.237718 0.565597
O O16 0.000000 0.172052 0.500000
O O17 0.872372 0.000000 0.481868
O O18 0.529251 0.500000 0.839375
#
# Coordination Sequence:
#
# PCOD8093594 Si02
#       7
#     8   8   8   8   8   8   8
#     4  11  23  35  49  75 108 137 164 204 262 314
#     4   9  15  29  52  74  95 126 170 211 243 285
#     4  10  20  35  55  76  99 132 175 216 249 290
#     4  10  19  36  58  75  95 130 177 220 251 288
#     4   9  16  29  51  75  95 125 171 212 243 284
#     4   9  17  27  42  72 110 135 152 192 255 308
#     4   9  18  34  55  76 100 132 172 214 252 294
#
# _framework density 18.219949
#
# number of rings (size 3 to 8) (size 9 to 14) (size 15 to 20)
#    0.000    2.429    1.429    1.714    0.000    4.571 
#    0.000    2.857    0.000    0.857    0.000    0.000 
#    0.000    0.000    0.000    0.000    0.000    0.000 
#
# Total GULP energy -347240.453776 kJ/mol
# GULP energy per Si atom -12401.444778 kJ/mol
# Density = 1.817848 g / cm^3
# Si number density = 18.219949 Si / 1000 Ang^3
#
#
#
# Elastic Constant Matrix: (Units=GPa)
#
#
# Indices 1 2 3 4 5 6 
#
# 1 59.5437 24.9509 16.4931 0.0000 -18.4308 0.0001
# 2 24.9509 69.8598 44.1643 0.0000 -10.2410 0.0002
# 3 16.4931 44.1643 112.3664 0.0000 -18.5654 0.0001
# 4 0.0000 0.0000 0.0000 19.0740 0.0000 -4.7494
# 5 -18.4308 -10.2410 -18.5654 0.0000 19.3450 0.0000
# 6 0.0001 0.0002 0.0001 -4.7494 0.0000 20.8921
#
#
#
# Elastic Compliance Matrix: (Units=1/GPa)
#
#
# Indices 1 2 3 4 5 6 
#
# 1 0.026832 -0.008069 0.003269 0.000000 0.024430 0.000000
# 2 -0.008069 0.021669 -0.007971 0.000000 -0.003866 0.000000
# 3 0.003269 -0.007971 0.013513 0.000000 0.011863 0.000000
# 4 0.000000 0.000000 0.000000 0.055573 0.000000 0.012634
# 5 0.024430 -0.003866 0.011863 0.000000 0.084307 0.000000
# 6 0.000000 0.000000 0.000000 0.012634 0.000000 0.050737
#
#
# Mechanical properties :
#
#
# Convention : Reuss Voigt Hill
#
# Bulk Modulus (GPa) = 27.41827 45.88739 36.65283
# Shear Modulus (GPa) = 17.22190 22.27298 19.74744
#
# Velocity S-wave (km/s) = 3.07778 3.50015 3.29574
# Velocity P-wave (km/s) = 5.26417 6.44784 5.88584
#
# Compressibility (1/GPa) = 0.03647203
#
# Stress axis : x y z
#
# Youngs Moduli (GPa) = 37.26925 46.14974 74.00533
#
# Poissons Ratio (x) = 0.37237 -0.24195
# Poissons Ratio (y) = 0.30071 0.58990
# Poissons Ratio (z) = -0.12184 0.36786
#
# Static dielectric constant tensor:
#      x y z
#    x 3.142500 0.000000 -0.079340 
#    y 0.000000 3.202160 0.000000 
#    z -0.079340 0.000000 3.523950 
# 
# 
# High freq. dielectric constant tensor:
#      x y z
#    x 1.673710 0.000000 -0.007210 
#    y 0.000000 1.689760 0.000000 
#    z -0.007210 0.000000 1.721400 
# 
# From -- ./inp_files/280436.got.cif
#   From: 2010.06.25/outbox.cif.g09.slc.cpg/sg12_141_cif.got.tgz:280436.got - 2010.06.28 00:19:55.
