data_PCOD8093875
_publ_section_title
;
Structure prediction by ZEFSAII (Michael W. Deem and Ramdas Pophale) SiO2 
 PCOD8093875
Probable space group: C 2/M
;
_chemical_formula_sum "Si O2"
_cell_formula_units_Z 56
_cell_length_a 20.974125
_cell_length_b 12.871056
_cell_length_c 16.328894
_cell_angle_alpha 90.000000
_cell_angle_beta 137.841707
_cell_angle_gamma 90.000000
_cell_volume 2958.656592
_symmetry_space_group_name_H-M "C 2/M"
_symmetry_group_IT_number 12
_symmetry_cell_setting 'monoclinic'
loop_
_space_group_symop_operation_xyz
x,y,z
-x,y,-z
-x,-y,-z
x,-y,z
1/2+x,1/2+y,z
1/2-x,1/2+y,-z
1/2-x,1/2-y,-z
1/2+x,1/2-y,z
loop_
_atom_site_type_symbol
_atom_site_label
_atom_site_fract_x
_atom_site_fract_y
_atom_site_fract_z
Si Si1 0.894304 0.279410 0.883976
Si Si2 0.564731 0.617203 0.216012
Si Si3 0.841104 0.379969 0.133825
Si Si4 0.863038 0.797628 0.029600
Si Si5 0.291714 0.616803 0.319567
Si Si6 0.419021 0.618755 0.588953
Si Si7 0.934040 0.740479 0.361655
O O1 0.896226 0.190823 0.817182
O O2 0.822056 0.368754 0.787087
O O3 0.849982 0.231763 0.923083
O O4 0.000000 0.325301 0.000000
O O5 0.589195 0.500000 0.212570
O O6 0.452225 0.626605 0.123153
O O7 0.612953 0.646217 0.348924
O O8 0.861539 0.500000 0.131562
O O9 0.881629 0.306772 0.100424
O O10 0.892584 0.355101 0.269584
O O11 0.728500 0.361372 0.029380
O O12 0.315212 0.500000 0.313747
O O13 0.327394 0.637797 0.445490
O O14 0.344544 0.693751 0.308058
O O15 0.454337 0.500000 0.617731
O O16 0.506433 0.687930 0.642658
O O17 0.000000 0.700808 0.500000
#
# Coordination Sequence:
#
# PCOD8093875 Si02
#       7
#     8   8   8   8   8   8   8
#     4  10  22  37  55  81 110 147 194 231 271 329
#     4  10  20  36  60  82 108 146 190 238 276 320
#     4  11  22  36  58  85 116 147 180 227 286 343
#     4  10  21  39  53  83 114 147 185 227 275 334
#     4  10  20  36  57  83 115 150 186 232 282 330
#     4   9  18  34  60  88 110 141 187 234 283 330
#     4  10  19  36  60  86 114 145 182 233 281 338
#
# _framework density 18.927509000000001
#
# number of rings (size 3 to 8) (size 9 to 14) (size 15 to 20)
#    0.000    2.000    2.857    0.857    0.000    6.571 
#    0.000    2.143    0.000    0.000    0.000    0.000 
#    0.000    0.000    0.000    0.000    0.000    0.000 
#
# Total GULP energy -347148.669399 kJ/mol
# GULP energy per Si atom -12398.166764 kJ/mol
# Density = 1.888443 g / cm^3
# Si number density = 18.927509 Si / 1000 Ang^3
#
#
#
# Elastic Constant Matrix: (Units=GPa)
#
#
# Indices 1 2 3 4 5 6 
#
# 1 70.8734 26.1285 36.4790 0.0000 -14.4528 0.0000
# 2 26.1285 76.6719 42.7277 0.0000 -9.8267 0.0000
# 3 36.4790 42.7277 90.1858 0.0000 -5.7272 0.0000
# 4 0.0000 0.0000 0.0000 25.0151 0.0000 -2.1509
# 5 -14.4528 -9.8267 -5.7272 0.0000 34.2222 0.0000
# 6 0.0000 0.0000 0.0000 -2.1509 0.0000 21.4724
#
#
#
# Elastic Compliance Matrix: (Units=1/GPa)
#
#
# Indices 1 2 3 4 5 6 
#
# 1 0.019590 -0.002245 -0.006444 0.000000 0.006550 0.000000
# 2 -0.002245 0.018461 -0.007643 0.000000 0.003074 0.000000
# 3 -0.006444 -0.007643 0.017186 0.000000 -0.002040 0.000000
# 4 0.000000 0.000000 0.000000 0.040323 0.000000 0.004039
# 5 0.006550 0.003074 -0.002040 0.000000 0.032528 0.000000
# 6 0.000000 0.000000 0.000000 0.004039 0.000000 0.046976
#
#
# Mechanical properties :
#
#
# Convention : Reuss Voigt Hill
#
# Bulk Modulus (GPa) = 44.30180 49.82240 47.06210
# Shear Modulus (GPa) = 23.22840 24.96833 24.09836
#
# Velocity S-wave (km/s) = 3.50698 3.63596 3.57205
# Velocity P-wave (km/s) = 6.31312 6.63376 6.47542
#
# Compressibility (1/GPa) = 0.02257245
#
# Stress axis : x y z
#
# Youngs Moduli (GPa) = 51.04649 54.16846 58.18582
#
# Poissons Ratio (x) = 0.12162 0.37496
# Poissons Ratio (y) = 0.11461 0.44471
# Poissons Ratio (z) = 0.32895 0.41401
#
# Static dielectric constant tensor:
#      x y z
#    x 3.365020 0.000000 -0.153630 
#    y 0.000000 3.214160 0.000000 
#    z -0.153630 0.000000 3.738890 
# 
# 
# High freq. dielectric constant tensor:
#      x y z
#    x 1.727460 0.000000 -0.012600 
#    y 0.000000 1.714530 0.000000 
#    z -0.012600 0.000000 1.752570 
# 
# From -- ./inp_files/289189.got.cif
#   From: 2010.06.25/outbox.cif.g09.slc.cpg/sg12_145_cif.got.tgz:289189.got - 2010.06.28 00:19:55.
