data_PCOD8093879
_publ_section_title
;
Structure prediction by ZEFSAII (Michael W. Deem and Ramdas Pophale) SiO2 
 PCOD8093879
Probable space group: C 2/M
;
_chemical_formula_sum "Si O2"
_cell_formula_units_Z 56
_cell_length_a 15.206755
_cell_length_b 8.799257
_cell_length_c 24.513075
_cell_angle_alpha 90.000000
_cell_angle_beta 61.385936
_cell_angle_gamma 90.000000
_cell_volume 2879.441775
_symmetry_space_group_name_H-M "C 2/M"
_symmetry_group_IT_number 12
_symmetry_cell_setting 'monoclinic'
loop_
_space_group_symop_operation_xyz
x,y,z
-x,y,-z
-x,-y,-z
x,-y,z
1/2+x,1/2+y,z
1/2-x,1/2+y,-z
1/2-x,1/2-y,-z
1/2+x,1/2-y,z
loop_
_atom_site_type_symbol
_atom_site_label
_atom_site_fract_x
_atom_site_fract_y
_atom_site_fract_z
Si Si1 0.809257 0.826096 0.618363
Si Si2 0.007967 0.319796 0.152399
Si Si3 0.584525 0.819770 0.708230
Si Si4 0.586165 0.179119 0.931783
Si Si5 0.348457 0.820901 0.496074
Si Si6 0.497567 0.674158 0.629177
Si Si7 0.269155 0.820058 0.935661
O O1 0.699021 0.766700 0.666601
O O2 0.856038 0.723092 0.557044
O O3 0.879549 0.812671 0.650662
O O4 0.804422 0.000000 0.598969
O O5 0.005403 0.500000 0.152684
O O6 0.954507 0.255701 0.222427
O O7 0.948118 0.260844 0.117225
O O8 0.122502 0.263255 0.117196
O O9 0.515210 0.750209 0.682086
O O10 0.575185 0.000000 0.708295
O O11 0.688090 0.264641 0.916157
O O12 0.606755 0.000000 0.926714
O O13 0.500000 0.223321 0.000000
O O14 0.250000 0.750000 0.500000
O O15 0.443897 0.758654 0.436058
O O16 0.345093 0.000000 0.490298
O O17 0.533259 0.500000 0.620594
O O18 0.265448 0.000000 0.942436
O O19 0.250000 0.750000 0.000000
#
# Coordination Sequence:
#
# PCOD8093879 Si02
#       7
#     8   8   8   8   8   8   8
#     4  10  22  39  60  86 118 154 196 242 292 345
#     4   9  20  38  59  83 117 156 196 238 292 354
#     4  10  21  40  62  82 112 161 203 237 288 352
#     4  10  19  36  60  86 116 152 191 236 293 352
#     4  12  23  37  61  90 119 153 195 244 298 349
#     4  11  23  39  60  89 122 154 194 246 293 341
#     4  11  21  36  58  87 118 151 192 240 293 347
#
# _framework density 19.448214
#
# number of rings (size 3 to 8) (size 9 to 14) (size 15 to 20)
#    0.000    1.571    2.857    2.571    0.000    4.286 
#    0.000    3.571    0.000    0.000    0.000    0.000 
#    0.000    0.000    0.000    0.000    0.000    0.000 
#
# Total GULP energy -347297.915206 kJ/mol
# GULP energy per Si atom -12403.496972 kJ/mol
# Density = 1.940395 g / cm^3
# Si number density = 19.448214 Si / 1000 Ang^3
#
#
#
# Elastic Constant Matrix: (Units=GPa)
#
#
# Indices 1 2 3 4 5 6 
#
# 1 146.5402 30.4780 65.2721 0.0000 15.3547 0.0000
# 2 30.4780 58.7045 35.5801 0.0000 2.6927 0.0001
# 3 65.2721 35.5801 155.5905 0.0000 19.0743 0.0000
# 4 0.0000 0.0000 0.0000 22.4043 0.0000 4.2780
# 5 15.3547 2.6927 19.0743 0.0000 24.2891 0.0000
# 6 0.0000 0.0001 0.0000 4.2780 0.0000 33.9827
#
#
#
# Elastic Compliance Matrix: (Units=1/GPa)
#
#
# Indices 1 2 3 4 5 6 
#
# 1 0.008965 -0.002863 -0.002711 0.000000 -0.003221 0.000000
# 2 -0.002863 0.020740 -0.003852 0.000000 0.002536 0.000000
# 3 -0.002711 -0.003852 0.009055 0.000000 -0.004970 0.000000
# 4 0.000000 0.000000 0.000000 0.045734 0.000000 -0.005757
# 5 -0.003221 0.002536 -0.004970 0.000000 0.046828 0.000000
# 6 0.000000 0.000000 0.000000 -0.005757 0.000000 0.030152
#
#
# Mechanical properties :
#
#
# Convention : Reuss Voigt Hill
#
# Bulk Modulus (GPa) = 50.23823 69.27730 59.75777
# Shear Modulus (GPa) = 26.74349 31.43553 29.08951
#
# Velocity S-wave (km/s) = 3.71227 4.02477 3.87168
# Velocity P-wave (km/s) = 6.65301 7.56949 7.12600
#
# Compressibility (1/GPa) = 0.01990516
#
# Stress axis : x y z
#
# Youngs Moduli (GPa) = 111.54899 48.21697 110.43957
#
# Poissons Ratio (x) = 0.13806 0.29942
# Poissons Ratio (y) = 0.31940 0.42546
# Poissons Ratio (z) = 0.30243 0.18575
#
# Static dielectric constant tensor:
#      x y z
#    x 3.802380 0.000000 -0.009280 
#    y 0.000000 3.464930 0.000000 
#    z -0.009280 0.000000 3.707220 
# 
# 
# High freq. dielectric constant tensor:
#      x y z
#    x 1.774440 0.000000 0.001890 
#    y 0.000000 1.742910 0.000000 
#    z 0.001890 0.000000 1.754220 
# 
# From -- ./inp_files/338440.got.cif
#   From: 2010.06.25/outbox.cif.g09.slc.cpg/sg12_170_cif.got.tgz:338440.got - 2010.06.28 00:19:55.
