data_PCOD8093580
_publ_section_title
;
Structure prediction by ZEFSAII (Michael W. Deem and Ramdas Pophale) SiO2 
 PCOD8093580
Probable space group: C 2/M
;
_chemical_formula_sum "Si O2"
_cell_formula_units_Z 64
_cell_length_a 23.311131
_cell_length_b 21.865110
_cell_length_c 16.885667
_cell_angle_alpha 90.000000
_cell_angle_beta 158.921331
_cell_angle_gamma 90.000000
_cell_volume 3095.370435
_symmetry_space_group_name_H-M "C 2/M"
_symmetry_group_IT_number 12
_symmetry_cell_setting 'monoclinic'
loop_
_space_group_symop_operation_xyz
x,y,z
-x,y,-z
-x,-y,-z
x,-y,z
1/2+x,1/2+y,z
1/2-x,1/2+y,-z
1/2-x,1/2-y,-z
1/2+x,1/2-y,z
loop_
_atom_site_type_symbol
_atom_site_label
_atom_site_fract_x
_atom_site_fract_y
_atom_site_fract_z
Si Si1 0.614492 0.430419 0.873505
Si Si2 0.832186 0.932565 0.615913
Si Si3 0.340804 0.838593 0.498486
Si Si4 0.893214 0.682400 0.042564
Si Si5 0.452561 0.651670 0.354643
Si Si6 0.031190 0.428362 0.631560
Si Si7 0.907066 0.609308 0.809905
Si Si8 0.760119 0.277360 0.715335
O O1 0.620821 0.500000 0.854505
O O2 0.515337 0.422087 0.826959
O O3 0.527800 0.395836 0.690539
O O4 0.791049 0.406539 0.118653
O O5 0.780869 0.877259 0.605096
O O6 0.730876 0.932503 0.403612
O O7 0.812098 0.000000 0.629616
O O8 0.470357 0.799835 0.717658
O O9 0.417060 0.886813 0.536955
O O10 0.233806 0.789206 0.315645
O O11 0.962127 0.620519 0.091135
O O12 0.729837 0.673769 0.879756
O O13 0.861683 0.728475 0.928265
O O14 0.500000 0.620813 0.500000
O O15 0.575972 0.707013 0.498736
O O16 0.002426 0.500000 0.613835
O O17 0.000000 0.414616 0.500000
O O18 0.836508 0.673086 0.754326
O O19 0.000000 0.573967 0.000000
#
# Coordination Sequence:
#
# PCOD8093580 Si02
#       8
#     8   8   8   8   8   8   8   8
#     4  10  20  39  62  88 122 158 199 251 303 351
#     4  10  21  37  61  91 119 155 205 252 297 357
#     4  11  22  40  63  88 119 162 203 247 301 358
#     4   9  20  36  57  85 117 155 197 243 293 354
#     4  10  19  36  57  85 123 156 196 247 297 356
#     4  10  22  42  65  89 121 158 202 253 302 356
#     4   9  18  36  56  81 126 161 194 241 299 357
#     4  10  21  37  56  84 122 161 197 245 298 359
#
# _framework density 20.676038999999999
#
# number of rings (size 3 to 8) (size 9 to 14) (size 15 to 20)
#    0.000    2.125    2.500    0.375    0.000    4.500 
#    2.250    3.125    0.000    3.000    0.000    0.000 
#    0.000    0.000    0.000    0.000    0.000    0.000 
#
# Total GULP energy -396564.834662 kJ/mol
# GULP energy per Si atom -12392.651083 kJ/mol
# Density = 2.062898 g / cm^3
# Si number density = 20.676039 Si / 1000 Ang^3
#
#
#
# Elastic Constant Matrix: (Units=GPa)
#
#
# Indices 1 2 3 4 5 6 
#
# 1 88.9191 42.5458 24.4673 0.0000 -4.1963 0.0000
# 2 42.5458 82.9150 30.8764 0.0000 -8.6064 0.0000
# 3 24.4673 30.8764 44.9895 0.0000 -3.3644 0.0000
# 4 0.0000 0.0000 0.0000 19.4261 0.0000 -3.3244
# 5 -4.1963 -8.6064 -3.3644 0.0000 42.1863 0.0000
# 6 0.0000 0.0000 0.0000 -3.3244 0.0000 25.2875
#
#
#
# Elastic Compliance Matrix: (Units=1/GPa)
#
#
# Indices 1 2 3 4 5 6 
#
# 1 0.015417 -0.006442 -0.003970 0.000000 -0.000097 0.000000
# 2 -0.006442 0.019145 -0.009448 0.000000 0.002511 0.000000
# 3 -0.003970 -0.009448 0.030881 0.000000 0.000140 0.000000
# 4 0.000000 0.000000 0.000000 0.052662 0.000000 0.006923
# 5 -0.000097 0.002511 0.000140 0.000000 0.024218 0.000000
# 6 0.000000 0.000000 0.000000 0.006923 0.000000 0.040455
#
#
# Mechanical properties :
#
#
# Convention : Reuss Voigt Hill
#
# Bulk Modulus (GPa) = 38.87698 45.84474 42.36086
# Shear Modulus (GPa) = 21.63815 25.30892 23.47354
#
# Velocity S-wave (km/s) = 3.23853 3.50247 3.37308
# Velocity P-wave (km/s) = 5.72955 6.21107 5.97516
#
# Compressibility (1/GPa) = 0.02572216
#
# Stress axis : x y z
#
# Youngs Moduli (GPa) = 64.86556 52.23235 32.38221
#
# Poissons Ratio (x) = 0.33650 0.12856
# Poissons Ratio (y) = 0.41788 0.30595
# Poissons Ratio (z) = 0.25752 0.49349
#
# Static dielectric constant tensor:
#      x y z
#    x 3.863510 0.000000 0.000200 
#    y 0.000000 3.314510 0.000000 
#    z 0.000200 0.000000 3.972280 
# 
# 
# High freq. dielectric constant tensor:
#      x y z
#    x 1.819930 0.000000 0.006720 
#    y 0.000000 1.770720 0.000000 
#    z 0.006720 0.000000 1.820830 
# 
# From -- ./inp_files/290934.got.cif
#   From: 2010.06.25/outbox.cif.g09.slc.cpg/sg12_146_cif.got.tgz:290934.got - 2010.06.28 00:19:55.
