data_PCOD8093144
_publ_section_title
;
Structure prediction by ZEFSAII (Michael W. Deem and Ramdas Pophale) SiO2 
 PCOD8093144
Probable space group: C 2/M
;
_chemical_formula_sum "Si O2"
_cell_formula_units_Z 56
_cell_length_a 29.363283
_cell_length_b 8.803461
_cell_length_c 12.593560
_cell_angle_alpha 90.000000
_cell_angle_beta 59.940574
_cell_angle_gamma 90.000000
_cell_volume 2817.583717
_symmetry_space_group_name_H-M "C 2/M"
_symmetry_group_IT_number 12
_symmetry_cell_setting 'monoclinic'
loop_
_space_group_symop_operation_xyz
x,y,z
-x,y,-z
-x,-y,-z
x,-y,z
1/2+x,1/2+y,z
1/2-x,1/2+y,-z
1/2-x,1/2-y,-z
1/2+x,1/2-y,z
loop_
_atom_site_type_symbol
_atom_site_label
_atom_site_fract_x
_atom_site_fract_y
_atom_site_fract_z
Si Si1 0.387731 0.319749 0.986285
Si Si2 0.038784 0.671099 0.551855
Si Si3 0.108073 0.179776 0.779612
Si Si4 0.003362 0.177948 0.800635
Si Si5 0.197385 0.820124 0.516988
Si Si6 0.343673 0.822220 0.641149
Si Si7 0.693257 0.820295 0.083353
O O1 0.384258 0.500000 0.972498
O O2 0.446149 0.253809 0.894530
O O3 0.346356 0.239027 0.959223
O O4 0.373901 0.273878 0.123463
O O5 0.039921 0.500000 0.597085
O O6 0.018425 0.787547 0.662636
O O7 0.095766 0.721867 0.445107
O O8 0.000000 0.682083 0.500000
O O9 0.049499 0.244834 0.822831
O O10 0.149257 0.243911 0.645046
O O11 0.105783 0.000000 0.771533
O O12 0.999428 0.000000 0.822782
O O13 0.250000 0.750000 0.500000
O O14 0.190964 0.768685 0.403200
O O15 0.200881 0.000000 0.519029
O O16 0.327306 0.768984 0.777442
O O17 0.333209 0.000000 0.637404
O O18 0.696937 0.000000 0.070065
O O19 0.750000 0.750000 0.000000
#
# Coordination Sequence:
#
# PCOD8093144 Si02
#       7
#     8   8   8   8   8   8   8
#     4  10  21  38  62  89 121 160 200 241 294 355
#     4  10  20  35  57  84 118 158 195 236 292 350
#     4   9  19  37  60  88 121 157 193 240 295 348
#     4  10  19  35  59  89 120 154 198 242 288 348
#     4  11  23  39  62  90 122 155 198 249 300 357
#     4  10  22  41  62  85 118 158 198 244 297 354
#     4  11  25  44  64  87 118 155 201 250 300 356
#
# _framework density 19.875184999999998
#
# number of rings (size 3 to 8) (size 9 to 14) (size 15 to 20)
#    0.000    1.857    1.429    2.143    2.000    4.857 
#    0.000    1.429    0.000    1.714    0.000    0.000 
#    0.000    0.000    0.000    0.000    0.000    0.000 
#
# Total GULP energy -347236.872116 kJ/mol
# GULP energy per Si atom -12401.316861 kJ/mol
# Density = 1.982995 g / cm^3
# Si number density = 19.875185 Si / 1000 Ang^3
#
#
#
# Elastic Constant Matrix: (Units=GPa)
#
#
# Indices 1 2 3 4 5 6 
#
# 1 155.2121 32.9044 54.2346 0.0000 5.9333 0.0000
# 2 32.9044 36.4139 24.4037 0.0000 2.7153 0.0000
# 3 54.2346 24.4037 120.9484 0.0000 9.4198 0.0000
# 4 0.0000 0.0000 0.0000 25.4598 0.0000 1.6157
# 5 5.9333 2.7153 9.4198 0.0000 35.8573 0.0000
# 6 0.0000 0.0000 0.0000 1.6157 0.0000 33.0032
#
#
#
# Elastic Compliance Matrix: (Units=1/GPa)
#
#
# Indices 1 2 3 4 5 6 
#
# 1 0.008655 -0.006029 -0.002643 0.000000 -0.000281 0.000000
# 2 -0.006029 0.035975 -0.004513 0.000000 -0.000541 0.000000
# 3 -0.002643 -0.004513 0.010518 0.000000 -0.001984 0.000000
# 4 0.000000 0.000000 0.000000 0.039400 0.000000 -0.001929
# 5 -0.000281 -0.000541 -0.001984 0.000000 0.028497 0.000000
# 6 0.000000 0.000000 0.000000 -0.001929 0.000000 0.030395
#
#
# Mechanical properties :
#
#
# Convention : Reuss Voigt Hill
#
# Bulk Modulus (GPa) = 34.74786 59.51776 47.13281
# Shear Modulus (GPa) = 26.39892 32.26617 29.33254
#
# Velocity S-wave (km/s) = 3.64845 4.03356 3.84583
# Velocity P-wave (km/s) = 5.93879 7.19052 6.59442
#
# Compressibility (1/GPa) = 0.02877875
#
# Stress axis : x y z
#
# Youngs Moduli (GPa) = 115.53937 27.79724 95.07398
#
# Poissons Ratio (x) = 0.16759 0.25125
# Poissons Ratio (y) = 0.69657 0.42908
# Poissons Ratio (z) = 0.30533 0.12545
#
# Static dielectric constant tensor:
#      x y z
#    x 3.802850 0.000000 -0.111700 
#    y 0.000000 3.441500 0.000000 
#    z -0.111700 0.000000 3.820510 
# 
# 
# High freq. dielectric constant tensor:
#      x y z
#    x 1.793900 0.000000 -0.000400 
#    y 0.000000 1.750290 0.000000 
#    z -0.000400 0.000000 1.786210 
# 
# From -- ./inp_files/180780.got.cif
#   From: 2010.06.25/outbox.cif.g09.slc.cpg/sg12_91_cif.got.tgz:180780.got - 2010.06.28 00:19:55.
