data_PCOD8093979
_publ_section_title
;
Structure prediction by ZEFSAII (Michael W. Deem and Ramdas Pophale) SiO2 
 PCOD8093979
Probable space group: C 2/M
;
_chemical_formula_sum "Si O2"
_cell_formula_units_Z 56
_cell_length_a 18.562634
_cell_length_b 8.663281
_cell_length_c 19.580590
_cell_angle_alpha 90.000000
_cell_angle_beta 66.209618
_cell_angle_gamma 90.000000
_cell_volume 2881.256179
_symmetry_space_group_name_H-M "C 2/M"
_symmetry_group_IT_number 12
_symmetry_cell_setting 'monoclinic'
loop_
_space_group_symop_operation_xyz
x,y,z
-x,y,-z
-x,-y,-z
x,-y,z
1/2+x,1/2+y,z
1/2-x,1/2+y,-z
1/2-x,1/2-y,-z
1/2+x,1/2-y,z
loop_
_atom_site_type_symbol
_atom_site_label
_atom_site_fract_x
_atom_site_fract_y
_atom_site_fract_z
Si Si1 0.450562 0.329959 0.320080
Si Si2 0.623008 0.669737 0.796183
Si Si3 0.228747 0.821194 0.299956
Si Si4 0.679024 0.316018 0.072442
Si Si5 0.519833 0.683992 0.066155
Si Si6 0.297260 0.182338 0.419321
Si Si7 0.619848 0.818218 0.235363
O O1 0.471261 0.500000 0.342828
O O2 0.400584 0.354526 0.271961
O O3 0.388262 0.239312 0.391683
O O4 0.529903 0.238227 0.272694
O O5 0.644521 0.500000 0.819249
O O6 0.695957 0.785153 0.776512
O O7 0.549908 0.750093 0.861074
O O8 0.249977 0.766604 0.368723
O O9 0.156624 0.726226 0.294962
O O10 0.207162 0.000000 0.305021
O O11 0.685415 0.500000 0.072624
O O12 0.602500 0.254419 0.061714
O O13 0.670815 0.256041 0.153680
O O14 0.750000 0.250000 0.000000
O O15 0.520318 0.500000 0.068283
O O16 0.500000 0.750492 0.000000
O O17 0.250000 0.250000 0.500000
O O18 0.299800 0.000000 0.421889
O O19 0.620774 0.000000 0.224916
#
# Coordination Sequence:
#
# PCOD8093979 Si02
#       7
#     8   8   8   8   8   8   8
#     4  10  19  36  61  87 117 155 194 240 293 349
#     4   9  17  33  56  81 109 148 192 236 289 349
#     4  10  22  38  58  87 120 152 192 243 293 346
#     4  11  23  40  58  83 118 158 200 250 306 357
#     4   9  18  33  54  79 109 145 190 238 289 348
#     4  10  21  39  64  94 125 157 193 237 290 353
#     4  12  24  39  60  85 117 160 205 250 297 353
#
# _framework density 19.435966000000001
#
# number of rings (size 3 to 8) (size 9 to 14) (size 15 to 20)
#    0.000    1.857    1.429    3.000    2.000    2.286 
#    0.000    0.714    0.000    6.429    0.000    0.000 
#    0.000    0.000    0.000    0.000    0.000    0.000 
#
# Total GULP energy -346984.639440 kJ/mol
# GULP energy per Si atom -12392.308551 kJ/mol
# Density = 1.939173 g / cm^3
# Si number density = 19.435966 Si / 1000 Ang^3
#
#
#
# Elastic Constant Matrix: (Units=GPa)
#
#
# Indices 1 2 3 4 5 6 
#
# 1 83.0795 36.5429 44.9752 -0.0001 -3.3324 0.0001
# 2 36.5429 96.6026 42.3237 -0.0001 -2.3460 -0.0001
# 3 44.9752 42.3237 117.2812 0.0000 -20.8046 0.0000
# 4 -0.0001 -0.0001 0.0000 28.3874 0.0000 4.2794
# 5 -3.3324 -2.3460 -20.8046 0.0000 32.9960 0.0000
# 6 0.0001 -0.0001 0.0000 4.2794 0.0000 -55.5061
#
#
#
# Elastic Compliance Matrix: (Units=1/GPa)
#
#
# Indices 1 2 3 4 5 6 
#
# 1 0.016564 -0.004015 -0.005243 0.000000 -0.001919 0.000000
# 2 -0.004015 0.013408 -0.003605 0.000000 -0.001725 0.000000
# 3 -0.005243 -0.003605 0.013172 0.000000 0.007519 0.000000
# 4 0.000000 0.000000 0.000000 0.034822 0.000000 0.002685
# 5 -0.001919 -0.001725 0.007519 0.000000 0.034731 0.000000
# 6 0.000000 0.000000 0.000000 0.002685 0.000000 -0.017809
#
#
# Mechanical properties :
#
#
# Convention : Reuss Voigt Hill
#
# Bulk Modulus (GPa) = 57.41432 60.51633 58.96533
# Shear Modulus (GPa) = 39.55003 12.71689 26.13346
#
# Velocity S-wave (km/s) = 4.51587 2.56070 3.67085
# Velocity P-wave (km/s) = 7.53625 6.32034 6.95492
#
# Compressibility (1/GPa) = 0.01741726
#
# Stress axis : x y z
#
# Youngs Moduli (GPa) = 60.37036 74.58197 75.91823
#
# Poissons Ratio (x) = 0.29947 0.39808
# Poissons Ratio (y) = 0.24241 0.27367
# Poissons Ratio (z) = 0.31655 0.26886
#
# Static dielectric constant tensor:
#      x y z
#    x 3.674320 0.000000 -0.122590 
#    y 0.000000 3.678560 0.000000 
#    z -0.122590 0.000000 3.746770 
# 
# 
# High freq. dielectric constant tensor:
#      x y z
#    x 1.759750 0.000000 -0.009940 
#    y 0.000000 1.751450 0.000000 
#    z -0.009940 0.000000 1.747850 
# 
# From -- ./inp_files/275224.got.cif
#   From: 2010.06.25/outbox.cif.g09.slc.cpg/sg12_138_cif.got.tgz:275224.got - 2010.06.28 00:19:55.
