data_PCOD8093469
_publ_section_title
;
Structure prediction by ZEFSAII (Michael W. Deem and Ramdas Pophale) SiO2 
 PCOD8093469
Probable space group: C 2/M
;
_chemical_formula_sum "Si O2"
_cell_formula_units_Z 48
_cell_length_a 12.843084
_cell_length_b 15.948908
_cell_length_c 28.357901
_cell_angle_alpha 90.000000
_cell_angle_beta 152.838137
_cell_angle_gamma 90.000000
_cell_volume 2651.677312
_symmetry_space_group_name_H-M "C 2/M"
_symmetry_group_IT_number 12
_symmetry_cell_setting 'monoclinic'
loop_
_space_group_symop_operation_xyz
x,y,z
-x,y,-z
-x,-y,-z
x,-y,z
1/2+x,1/2+y,z
1/2-x,1/2+y,-z
1/2-x,1/2-y,-z
1/2+x,1/2-y,z
loop_
_atom_site_type_symbol
_atom_site_label
_atom_site_fract_x
_atom_site_fract_y
_atom_site_fract_z
Si Si1 0.397456 0.171076 0.234128
Si Si2 0.685602 0.500000 0.008430
Si Si3 0.946209 0.765137 0.616729
Si Si4 0.232594 0.097133 0.387490
Si Si5 0.163419 0.500000 0.828829
Si Si6 0.101346 0.168701 0.929900
Si Si7 0.894795 0.796119 0.750793
O O1 0.549879 0.192699 0.341551
O O2 0.438114 0.233755 0.208034
O O3 0.129000 0.178122 0.133576
O O4 0.468909 0.078797 0.246351
O O5 0.423930 0.500000 0.917905
O O6 0.737056 0.584219 0.999200
O O7 0.851076 0.500000 0.120363
O O8 0.750000 0.750000 0.500000
O O9 0.906096 0.853461 0.627459
O O10 0.185423 0.760487 0.685740
O O11 0.500000 0.112032 0.500000
O O12 0.178362 0.129213 0.313274
O O13 0.164355 0.000000 0.364722
O O14 0.038446 0.160348 0.849817
O O15 0.250000 0.250000 0.000000
#
# Coordination Sequence:
#
# PCOD8093469 Si02
#       7
#     8   4   8   8   4   8   8
#     4   9  20  34  55  80 105 143 178 219 274 322
#     4   9  18  30  54  77 104 135 179 218 269 309
#     4  10  19  36  54  80 109 142 181 224 271 325
#     4  10  20  35  56  83 108 146 187 225 275 328
#     4   9  16  34  50  77 103 134 175 226 260 318
#     4  10  20  34  55  83 107 140 183 223 266 328
#     4  10  20  35  58  77 111 146 178 223 275 325
#
# _framework density 18.101751
#
# number of rings (size 3 to 8) (size 9 to 14) (size 15 to 20)
#    0.000    2.333    1.667    1.000    1.167    2.000 
#    4.500    0.000   14.667    2.000    0.000    0.000 
#    0.000    0.000    0.000    0.000    0.000    0.000 
#
# Total GULP energy -297532.740675 kJ/mol
# GULP energy per Si atom -12397.197528 kJ/mol
# Density = 1.806055 g / cm^3
# Si number density = 18.101751 Si / 1000 Ang^3
#
#
#
# Elastic Constant Matrix: (Units=GPa)
#
#
# Indices 1 2 3 4 5 6 
#
# 1 102.0647 60.6032 43.7904 0.0002 -26.0501 -0.0001
# 2 60.6032 167.4033 67.9158 0.0002 -25.1570 0.0001
# 3 43.7904 67.9158 87.8057 0.0014 -28.4102 0.0003
# 4 0.0002 0.0002 0.0014 27.1749 0.0005 -0.5224
# 5 -26.0501 -25.1570 -28.4102 0.0005 23.7429 0.0000
# 6 -0.0001 0.0001 0.0003 -0.5224 0.0000 24.5132
#
#
#
# Elastic Compliance Matrix: (Units=1/GPa)
#
#
# Indices 1 2 3 4 5 6 
#
# 1 0.015285 -0.003231 -0.001314 0.000000 0.011775 0.000000
# 2 -0.003231 0.009441 -0.005877 0.000000 -0.000573 0.000000
# 3 -0.001314 -0.005877 0.023022 -0.000002 0.019878 0.000000
# 4 0.000000 0.000000 -0.000002 0.036814 -0.000003 0.000784
# 5 0.011775 -0.000573 0.019878 -0.000003 0.078215 0.000000
# 6 0.000000 0.000000 0.000000 0.000784 0.000000 0.040811
#
#
# Mechanical properties :
#
#
# Convention : Reuss Voigt Hill
#
# Bulk Modulus (GPa) = 37.16885 77.98805 57.57845
# Shear Modulus (GPa) = 21.42243 27.41716 24.41980
#
# Velocity S-wave (km/s) = 3.44386 3.89603 3.67690
# Velocity P-wave (km/s) = 6.03253 7.96338 7.06423
#
# Compressibility (1/GPa) = 0.02690425
#
# Stress axis : x y z
#
# Youngs Moduli (GPa) = 65.42247 105.91721 43.43742
#
# Poissons Ratio (x) = 0.34221 0.05709
# Poissons Ratio (y) = 0.21137 0.25528
# Poissons Ratio (z) = 0.08598 0.62246
#
# Static dielectric constant tensor:
#      x y z
#    x 3.507940 0.000000 -0.160940 
#    y 0.000000 3.513330 0.000000 
#    z -0.160940 0.000000 3.421030 
# 
# 
# High freq. dielectric constant tensor:
#      x y z
#    x 1.704450 0.000000 -0.020580 
#    y 0.000000 1.702400 0.000000 
#    z -0.020580 0.000000 1.692990 
# 
# From -- ./inp_files/204487.got.cif
#   From: 2010.06.25/outbox.cif.g09.slc.cpg/sg12_103_cif.got.tgz:204487.got - 2010.06.28 00:19:55.
