data_PCOD8093848
_publ_section_title
;
Structure prediction by ZEFSAII (Michael W. Deem and Ramdas Pophale) SiO2 
 PCOD8093848
Probable space group: C 2/M
;
_chemical_formula_sum "Si O2"
_cell_formula_units_Z 56
_cell_length_a 29.829939
_cell_length_b 11.735327
_cell_length_c 8.681665
_cell_angle_alpha 90.000000
_cell_angle_beta 112.283371
_cell_angle_gamma 90.000000
_cell_volume 2812.175654
_symmetry_space_group_name_H-M "C 2/M"
_symmetry_group_IT_number 12
_symmetry_cell_setting 'monoclinic'
loop_
_space_group_symop_operation_xyz
x,y,z
-x,y,-z
-x,-y,-z
x,-y,z
1/2+x,1/2+y,z
1/2-x,1/2+y,-z
1/2-x,1/2-y,-z
1/2+x,1/2-y,z
loop_
_atom_site_type_symbol
_atom_site_label
_atom_site_fract_x
_atom_site_fract_y
_atom_site_fract_z
Si Si1 0.875722 0.207018 0.476122
Si Si2 0.968905 0.269031 0.093020
Si Si3 0.385941 0.366302 0.819531
Si Si4 0.892028 0.366802 0.218596
Si Si5 0.223320 0.871162 0.792014
Si Si6 0.025191 0.125113 0.388923
Si Si7 0.311051 0.276284 0.944255
O O1 0.877634 0.220342 0.664365
O O2 0.891337 0.316473 0.392596
O O3 0.823342 0.160767 0.367589
O O4 0.917721 0.114456 0.500165
O O5 0.941597 0.346866 0.184364
O O6 0.013353 0.199496 0.225357
O O7 0.931143 0.177590 0.977092
O O8 0.000000 0.336679 0.000000
O O9 0.393803 0.500000 0.782787
O O10 0.337667 0.358054 0.859031
O O11 0.883942 0.500000 0.226497
O O12 0.847316 0.314737 0.067163
O O13 0.268194 0.791566 0.801516
O O14 0.238053 0.000000 0.775133
O O15 0.212106 0.858032 0.957848
O O16 0.000000 0.186460 0.500000
O O17 0.002908 0.000000 0.336282
#
# Coordination Sequence:
#
# PCOD8093848 Si02
#       7
#     8   8   8   8   8   8   8
#     4  11  22  37  57  86 115 148 195 235 282 347
#     4  11  22  37  59  86 119 148 195 234 285 347
#     4  11  22  37  59  89 124 151 182 235 290 343
#     4  10  22  42  60  79 112 155 198 243 284 331
#     4  10  19  36  60  84 114 151 190 237 288 338
#     4  11  21  35  57  85 120 154 185 233 288 339
#     4   9  21  37  59  87 113 148 195 237 284 348
#
# _framework density 19.913409000000001
#
# number of rings (size 3 to 8) (size 9 to 14) (size 15 to 20)
#    0.000    1.571    2.857    2.571    0.000    1.429 
#    0.000    5.714    0.000    0.000    0.000    0.000 
#    0.000    0.000    0.000    0.000    0.000    0.000 
#
# Total GULP energy -346884.811024 kJ/mol
# GULP energy per Si atom -12388.743251 kJ/mol
# Density = 1.986808 g / cm^3
# Si number density = 19.913409 Si / 1000 Ang^3
#
#
#
# Elastic Constant Matrix: (Units=GPa)
#
#
# Indices 1 2 3 4 5 6 
#
# 1 84.5444 8.3386 18.2930 0.0000 2.8742 0.0000
# 2 8.3386 82.1755 27.1152 0.0000 -2.6175 0.0000
# 3 18.2930 27.1152 83.1139 0.0000 7.3813 0.0000
# 4 0.0000 0.0000 0.0000 16.6643 0.0000 2.3153
# 5 2.8742 -2.6175 7.3813 0.0000 43.2477 0.0000
# 6 0.0000 0.0000 0.0000 2.3153 0.0000 13.7012
#
#
#
# Elastic Compliance Matrix: (Units=1/GPa)
#
#
# Indices 1 2 3 4 5 6 
#
# 1 0.012439 -0.000431 -0.002560 0.000000 -0.000416 0.000000
# 2 -0.000431 0.013763 -0.004541 0.000000 0.001637 0.000000
# 3 -0.002560 -0.004541 0.014303 0.000000 -0.002546 0.000000
# 4 0.000000 0.000000 0.000000 0.061451 0.000000 -0.010384
# 5 -0.000416 0.001637 -0.002546 0.000000 0.023684 0.000000
# 6 0.000000 0.000000 0.000000 -0.010384 0.000000 0.074741
#
#
# Mechanical properties :
#
#
# Convention : Reuss Voigt Hill
#
# Bulk Modulus (GPa) = 39.30617 39.70306 39.50462
# Shear Modulus (GPa) = 22.32895 27.79510 25.06202
#
# Velocity S-wave (km/s) = 3.35222 3.74009 3.55145
# Velocity P-wave (km/s) = 5.89615 6.21548 6.05792
#
# Compressibility (1/GPa) = 0.02544130
#
# Stress axis : x y z
#
# Youngs Moduli (GPa) = 80.39436 72.65764 69.91718
#
# Poissons Ratio (x) = 0.03129 0.17901
# Poissons Ratio (y) = 0.03462 0.31747
# Poissons Ratio (z) = 0.20583 0.32992
#
# Static dielectric constant tensor:
#      x y z
#    x 3.911830 0.000000 -0.088860 
#    y 0.000000 3.254460 0.000000 
#    z -0.088860 0.000000 3.716330 
# 
# 
# High freq. dielectric constant tensor:
#      x y z
#    x 1.797570 0.000000 0.000530 
#    y 0.000000 1.741930 0.000000 
#    z 0.000530 0.000000 1.777920 
# 
# From -- ./inp_files/109881.got.cif
#   From: 2010.06.25/outbox.cif.g09.slc.cpg/sg12_55_cif.got.tgz:109881.got - 2010.06.28 00:19:55.
