data_PCOD8093557
_publ_section_title
;
Structure prediction by ZEFSAII (Michael W. Deem and Ramdas Pophale) SiO2 
 PCOD8093557
Probable space group: C 2/M
;
_chemical_formula_sum "Si O2"
_cell_formula_units_Z 56
_cell_length_a 29.263962
_cell_length_b 8.778218
_cell_length_c 21.662369
_cell_angle_alpha 90.000000
_cell_angle_beta 148.868961
_cell_angle_gamma 90.000000
_cell_volume 2876.958255
_symmetry_space_group_name_H-M "C 2/M"
_symmetry_group_IT_number 12
_symmetry_cell_setting 'monoclinic'
loop_
_space_group_symop_operation_xyz
x,y,z
-x,y,-z
-x,-y,-z
x,-y,z
1/2+x,1/2+y,z
1/2-x,1/2+y,-z
1/2-x,1/2-y,-z
1/2+x,1/2-y,z
loop_
_atom_site_type_symbol
_atom_site_label
_atom_site_fract_x
_atom_site_fract_y
_atom_site_fract_z
Si Si1 0.735335 0.677226 0.200534
Si Si2 0.261238 0.321256 0.107312
Si Si3 0.116094 0.179449 0.861121
Si Si4 0.775212 0.320290 0.384291
Si Si5 0.414189 0.319275 0.630597
Si Si6 0.532363 0.676386 0.968835
Si Si7 0.118018 0.679399 0.279142
O O1 0.744982 0.500000 0.198341
O O2 0.785971 0.766053 0.204610
O O3 0.778584 0.720893 0.315803
O O4 0.633382 0.727104 0.082182
O O5 0.251703 0.500000 0.095171
O O6 0.338740 0.266855 0.150640
O O7 0.167440 0.250979 0.978363
O O8 0.015468 0.236132 0.745637
O O9 0.120683 0.000000 0.874727
O O10 0.762838 0.500000 0.380107
O O11 0.866333 0.260357 0.517822
O O12 0.692419 0.235514 0.318430
O O13 0.404817 0.500000 0.614132
O O14 0.367430 0.262834 0.638889
O O15 0.518494 0.500000 0.934618
O O16 0.478089 0.778877 0.858344
O O17 0.500000 0.708454 0.000000
O O18 0.126232 0.500000 0.298625
#
# Coordination Sequence:
#
# PCOD8093557 Si02
#       7
#     8   8   8   8   8   8   8
#     4  10  21  37  58  82 113 152 187 224 282 339
#     4  10  20  35  60  90 116 143 182 231 279 331
#     4   9  20  39  60  84 115 149 183 225 282 339
#     4  11  23  41  59  79 111 152 194 233 276 332
#     4  11  23  40  60  81 109 149 193 234 280 333
#     4  10  19  36  57  79 111 151 187 225 275 331
#     4  12  24  37  56  85 116 148 188 235 284 332
#
# _framework density 19.465004
#
# number of rings (size 3 to 8) (size 9 to 14) (size 15 to 20)
#    0.000    1.571    1.429    3.857    0.000    7.143 
#    0.000    0.714    0.000    4.286    0.000    0.000 
#    0.000    0.000    0.000    0.000    0.000    0.000 
#
# Total GULP energy -347344.832661 kJ/mol
# GULP energy per Si atom -12405.172595 kJ/mol
# Density = 1.942070 g / cm^3
# Si number density = 19.465004 Si / 1000 Ang^3
#
#
#
# Elastic Constant Matrix: (Units=GPa)
#
#
# Indices 1 2 3 4 5 6 
#
# 1 87.8779 22.9732 32.7981 0.0000 -18.8266 0.0000
# 2 22.9732 40.1932 27.8322 0.0000 -2.3192 0.0000
# 3 32.7981 27.8322 99.3339 0.0000 -15.6373 0.0000
# 4 0.0000 0.0000 0.0000 34.3952 0.0000 -4.0157
# 5 -18.8266 -2.3192 -15.6373 0.0000 26.0775 0.0000
# 6 0.0000 0.0000 0.0000 -4.0157 0.0000 30.9226
#
#
#
# Elastic Compliance Matrix: (Units=1/GPa)
#
#
# Indices 1 2 3 4 5 6 
#
# 1 0.016082 -0.007477 -0.001648 0.000000 0.009958 0.000000
# 2 -0.007477 0.034517 -0.008358 0.000000 -0.007340 0.000000
# 3 -0.001648 -0.008358 0.013967 0.000000 0.006443 0.000000
# 4 0.000000 0.000000 0.000000 0.029521 0.000000 0.003834
# 5 0.009958 -0.007340 0.006443 0.000000 0.048747 0.000000
# 6 0.000000 0.000000 0.000000 0.003834 0.000000 0.032837
#
#
# Mechanical properties :
#
#
# Convention : Reuss Voigt Hill
#
# Bulk Modulus (GPa) = 33.78165 43.84577 38.81371
# Shear Modulus (GPa) = 22.67535 27.86581 25.27058
#
# Velocity S-wave (km/s) = 3.41681 3.78773 3.60704
# Velocity P-wave (km/s) = 5.74098 6.45783 6.10993
#
# Compressibility (1/GPa) = 0.02960187
#
# Stress axis : x y z
#
# Youngs Moduli (GPa) = 62.18063 28.97085 71.59656
#
# Poissons Ratio (x) = 0.21660 0.11796
# Poissons Ratio (y) = 0.46490 0.59842
# Poissons Ratio (z) = 0.10245 0.24215
#
# Static dielectric constant tensor:
#      x y z
#    x 3.716110 0.000000 -0.065740 
#    y 0.000000 3.485050 0.000000 
#    z -0.065740 0.000000 3.624720 
# 
# 
# High freq. dielectric constant tensor:
#      x y z
#    x 1.762570 0.000000 -0.010250 
#    y 0.000000 1.756530 0.000000 
#    z -0.010250 0.000000 1.754620 
# 
# From -- ./inp_files/238936.got.cif
#   From: 2010.06.25/outbox.cif.g09.slc.cpg/sg12_120_cif.got.tgz:238936.got - 2010.06.28 00:19:55.
