data_PCOD8093125
_publ_section_title
;
Structure prediction by ZEFSAII (Michael W. Deem and Ramdas Pophale) SiO2 
 PCOD8093125
Probable space group: C 2/M
;
_chemical_formula_sum "Si O2"
_cell_formula_units_Z 56
_cell_length_a 24.084614
_cell_length_b 8.579848
_cell_length_c 14.133583
_cell_angle_alpha 90.000000
_cell_angle_beta 83.930790
_cell_angle_gamma 90.000000
_cell_volume 2904.226264
_symmetry_space_group_name_H-M "C 2/M"
_symmetry_group_IT_number 12
_symmetry_cell_setting 'monoclinic'
loop_
_space_group_symop_operation_xyz
x,y,z
-x,y,-z
-x,-y,-z
x,-y,z
1/2+x,1/2+y,z
1/2-x,1/2+y,-z
1/2-x,1/2-y,-z
1/2+x,1/2-y,z
loop_
_atom_site_type_symbol
_atom_site_label
_atom_site_fract_x
_atom_site_fract_y
_atom_site_fract_z
Si Si1 0.784329 0.183133 0.299752
Si Si2 0.438747 0.317565 0.981734
Si Si3 0.134859 0.182903 0.549666
Si Si4 0.455409 0.180386 0.313205
Si Si5 0.164116 0.183385 0.337024
Si Si6 0.926545 0.682354 0.780359
Si Si7 0.874359 0.681354 0.159715
O O1 0.819173 0.245822 0.384250
O O2 0.728342 0.282283 0.305377
O O3 0.819850 0.220362 0.199264
O O4 0.771160 0.000000 0.307912
O O5 0.433493 0.500000 0.002334
O O6 0.426498 0.281638 0.875468
O O7 0.500000 0.255909 0.000000
O O8 0.392169 0.229091 0.051433
O O9 0.072763 0.230401 0.593815
O O10 0.147797 0.249687 0.443514
O O11 0.139107 0.000000 0.546200
O O12 0.519834 0.230675 0.292437
O O13 0.425250 0.224211 0.220466
O O14 0.449114 0.000000 0.337433
O O15 0.128648 0.277743 0.267212
O O16 0.152198 0.000000 0.329861
O O17 0.928810 0.500000 0.805524
O O18 0.859244 0.500000 0.165792
#
# Coordination Sequence:
#
# PCOD8093125 Si02
#       7
#     8   8   8   8   8   8   8
#     4  10  20  37  60  86 113 148 193 238 282 335
#     4  11  22  36  59  89 117 148 186 231 281 337
#     4   9  20  36  58  84 113 148 191 237 284 334
#     4   9  19  34  55  83 114 147 188 233 281 333
#     4  11  23  39  56  81 115 154 193 235 286 338
#     4  11  23  39  57  82 116 154 192 233 282 339
#     4  10  19  35  59  87 116 148 186 235 283 331
#
# _framework density 19.282243999999999
#
# number of rings (size 3 to 8) (size 9 to 14) (size 15 to 20)
#    0.000    1.857    1.429    2.571    0.000    4.571 
#    0.000    3.571    0.000    0.000    0.000    0.000 
#    0.000    0.000    0.000    0.000    0.000    0.000 
#
# Total GULP energy -347329.926345 kJ/mol
# GULP energy per Si atom -12404.640227 kJ/mol
# Density = 1.923836 g / cm^3
# Si number density = 19.282244 Si / 1000 Ang^3
#
#
#
# Elastic Constant Matrix: (Units=GPa)
#
#
# Indices 1 2 3 4 5 6 
#
# 1 73.9342 10.8800 56.4635 0.0000 2.5148 0.0000
# 2 10.8800 38.2796 12.4475 0.0000 -1.3464 0.0000
# 3 56.4635 12.4475 104.9363 0.0000 -10.1787 0.0000
# 4 0.0000 0.0000 0.0000 29.4601 0.0000 -5.6913
# 5 2.5148 -1.3464 -10.1787 0.0000 22.4528 0.0000
# 6 0.0000 0.0000 0.0000 -5.6913 0.0000 29.9383
#
#
#
# Elastic Compliance Matrix: (Units=1/GPa)
#
#
# Indices 1 2 3 4 5 6 
#
# 1 0.024944 -0.002870 -0.013984 0.000000 -0.009305 0.000000
# 2 -0.002870 0.027502 -0.001597 0.000000 0.001247 0.000000
# 3 -0.013984 -0.001597 0.018186 0.000000 0.009715 0.000000
# 4 0.000000 0.000000 0.000000 0.035238 0.000000 0.006699
# 5 -0.009305 0.001247 0.009715 0.000000 0.050059 0.000000
# 6 0.000000 0.000000 0.000000 0.006699 0.000000 0.034675
#
#
# Mechanical properties :
#
#
# Convention : Reuss Voigt Hill
#
# Bulk Modulus (GPa) = 29.64692 41.85909 35.75301
# Shear Modulus (GPa) = 20.94241 25.52752 23.23497
#
# Velocity S-wave (km/s) = 3.29918 3.64247 3.47507
# Velocity P-wave (km/s) = 5.47004 6.28060 5.88928
#
# Compressibility (1/GPa) = 0.03373032
#
# Stress axis : x y z
#
# Youngs Moduli (GPa) = 40.09009 36.36034 54.98820
#
# Poissons Ratio (x) = 0.10435 0.76895
# Poissons Ratio (y) = 0.11505 0.08783
# Poissons Ratio (z) = 0.56061 0.05808
#
# Static dielectric constant tensor:
#      x y z
#    x 3.419900 0.000000 -0.106380 
#    y 0.000000 3.418240 0.000000 
#    z -0.106380 0.000000 3.573940 
# 
# 
# High freq. dielectric constant tensor:
#      x y z
#    x 1.739490 0.000000 -0.015070 
#    y 0.000000 1.751890 0.000000 
#    z -0.015070 0.000000 1.751730 
# 
# From -- ./inp_files/237403.got.cif
#   From: 2010.06.25/outbox.cif.g09.slc.cpg/sg12_119_cif.got.tgz:237403.got - 2010.06.28 00:19:55.
