data_PCOD8093739
_publ_section_title
;
Structure prediction by ZEFSAII (Michael W. Deem and Ramdas Pophale) SiO2 
 PCOD8093739
Probable space group: C 2/M
;
_chemical_formula_sum "Si O2"
_cell_formula_units_Z 56
_cell_length_a 15.243644
_cell_length_b 17.909209
_cell_length_c 13.752048
_cell_angle_alpha 90.000000
_cell_angle_beta 127.130310
_cell_angle_gamma 90.000000
_cell_volume 2993.195788
_symmetry_space_group_name_H-M "C 2/M"
_symmetry_group_IT_number 12
_symmetry_cell_setting 'monoclinic'
loop_
_space_group_symop_operation_xyz
x,y,z
-x,y,-z
-x,-y,-z
x,-y,z
1/2+x,1/2+y,z
1/2-x,1/2+y,-z
1/2-x,1/2-y,-z
1/2+x,1/2-y,z
loop_
_atom_site_type_symbol
_atom_site_label
_atom_site_fract_x
_atom_site_fract_y
_atom_site_fract_z
Si Si1 0.102502 0.585543 0.795988
Si Si2 0.563294 0.913331 0.140012
Si Si3 0.262707 0.199290 0.660458
Si Si4 0.654412 0.412971 0.050428
Si Si5 0.062515 0.912415 0.187341
Si Si6 0.603557 0.309955 0.382946
Si Si7 0.076373 0.721493 0.642284
O O1 0.095548 0.500000 0.753248
O O2 0.226519 0.604389 0.914774
O O3 0.075918 0.640562 0.690970
O O4 0.022055 0.599073 0.830853
O O5 0.672323 0.864643 0.235809
O O6 0.599416 0.000000 0.154823
O O7 0.500000 0.886908 0.000000
O O8 0.345880 0.244400 0.648579
O O9 0.171882 0.166697 0.524872
O O10 0.198920 0.251426 0.695679
O O11 0.628915 0.500000 0.038569
O O12 0.642933 0.383824 0.154289
O O13 0.559472 0.379250 0.917908
O O14 0.101433 0.883449 0.316980
O O15 0.064268 0.000000 0.199628
O O16 0.480385 0.284116 0.328058
O O17 0.000000 0.707736 0.500000
#
# Coordination Sequence:
#
# PCOD8093739 Si02
#       7
#     8   8   8   8   8   8   8
#     4  10  19  36  59  83 111 146 192 237 283 340
#     4  10  22  41  61  82 114 155 196 237 279 335
#     4  10  21  39  57  78 116 151 182 237 289 337
#     4   8  16  31  51  79 113 141 173 233 294 326
#     4   9  17  32  53  79 112 148 186 230 284 341
#     4  10  20  36  56  80 112 149 188 232 288 338
#     4  10  21  37  57  83 115 148 185 237 292 337
#
# _framework density 18.709101
#
# number of rings (size 3 to 8) (size 9 to 14) (size 15 to 20)
#    0.000    2.429    1.429    1.714    0.000    2.000 
#    5.143    3.571    0.000    2.571    0.000    0.000 
#    0.000    0.000    0.000    0.000    0.000    0.000 
#
# Total GULP energy -347003.993170 kJ/mol
# GULP energy per Si atom -12392.999756 kJ/mol
# Density = 1.866652 g / cm^3
# Si number density = 18.709101 Si / 1000 Ang^3
#
#
#
# Elastic Constant Matrix: (Units=GPa)
#
#
# Indices 1 2 3 4 5 6 
#
# 1 91.6335 33.4813 31.1032 0.0000 3.4787 0.0000
# 2 33.4813 71.0014 58.1648 0.0000 1.6640 0.0000
# 3 31.1032 58.1648 98.9244 0.0000 -2.6850 0.0000
# 4 0.0000 0.0000 0.0000 30.7421 0.0000 -4.7505
# 5 3.4787 1.6640 -2.6850 0.0000 25.0155 0.0000
# 6 0.0000 0.0000 0.0000 -4.7505 0.0000 23.1957
#
#
#
# Elastic Compliance Matrix: (Units=1/GPa)
#
#
# Indices 1 2 3 4 5 6 
#
# 1 0.013294 -0.005347 -0.001080 0.000000 -0.001609 0.000000
# 2 -0.005347 0.029638 -0.015824 0.000000 -0.002926 0.000000
# 3 -0.001080 -0.015824 0.019843 0.000000 0.003333 0.000000
# 4 0.000000 0.000000 0.000000 0.033592 0.000000 0.006880
# 5 -0.001609 -0.002926 0.003333 0.000000 0.040751 0.000000
# 6 0.000000 0.000000 0.000000 0.006880 0.000000 0.044520
#
#
# Mechanical properties :
#
#
# Convention : Reuss Voigt Hill
#
# Bulk Modulus (GPa) = 54.72582 56.33975 55.53279
# Shear Modulus (GPa) = 21.53027 25.04466 23.28746
#
# Velocity S-wave (km/s) = 3.39601 3.66271 3.53188
# Velocity P-wave (km/s) = 6.68518 6.93298 6.81020
#
# Compressibility (1/GPa) = 0.01827291
#
# Stress axis : x y z
#
# Youngs Moduli (GPa) = 75.22058 33.74102 50.39555
#
# Poissons Ratio (x) = 0.18040 0.05442
# Poissons Ratio (y) = 0.40218 0.79748
# Poissons Ratio (z) = 0.08123 0.53393
#
# Static dielectric constant tensor:
#      x y z
#    x 3.655770 0.000000 0.033790 
#    y 0.000000 3.199080 0.000000 
#    z 0.033790 0.000000 3.524680 
# 
# 
# High freq. dielectric constant tensor:
#      x y z
#    x 1.738430 0.000000 0.001620 
#    y 0.000000 1.705060 0.000000 
#    z 0.001620 0.000000 1.722570 
# 
# From -- ./inp_files/146214.got.cif
#   From: 2010.06.25/outbox.cif.g09.slc.cpg/sg12_74_cif.got.tgz:146214.got - 2010.06.28 00:19:55.
