data_PCOD8093443
_publ_section_title
;
Structure prediction by ZEFSAII (Michael W. Deem and Ramdas Pophale) SiO2 
 PCOD8093443
Probable space group: C 2/M
;
_chemical_formula_sum "Si O2"
_cell_formula_units_Z 64
_cell_length_a 24.686701
_cell_length_b 14.368612
_cell_length_c 11.467640
_cell_angle_alpha 90.000000
_cell_angle_beta 132.986111
_cell_angle_gamma 90.000000
_cell_volume 2975.620469
_symmetry_space_group_name_H-M "C 2/M"
_symmetry_group_IT_number 12
_symmetry_cell_setting 'monoclinic'
loop_
_space_group_symop_operation_xyz
x,y,z
-x,y,-z
-x,-y,-z
x,-y,z
1/2+x,1/2+y,z
1/2-x,1/2+y,-z
1/2-x,1/2-y,-z
1/2+x,1/2-y,z
loop_
_atom_site_type_symbol
_atom_site_label
_atom_site_fract_x
_atom_site_fract_y
_atom_site_fract_z
Si Si1 0.672107 0.819992 0.256757
Si Si2 0.415039 0.604902 0.398828
Si Si3 0.576763 0.401116 0.321859
Si Si4 0.607239 0.891694 0.938023
Si Si5 0.172378 0.273901 0.830881
Si Si6 0.548240 0.192631 0.253216
Si Si7 0.714188 0.369299 0.385434
Si Si8 0.156325 0.602208 0.587800
O O1 0.598103 0.843987 0.220154
O O2 0.679349 0.709870 0.251234
O O3 0.746674 0.841692 0.436006
O O4 0.669037 0.872337 0.128336
O O5 0.500000 0.631534 0.500000
O O6 0.398761 0.500000 0.329589
O O7 0.394472 0.613230 0.504447
O O8 0.365810 0.676265 0.253773
O O9 0.529592 0.500000 0.248362
O O10 0.534643 0.305114 0.226506
O O11 0.643587 0.424070 0.330447
O O12 0.621781 0.831563 0.845266
O O13 0.528472 0.860235 0.872622
O O14 0.607648 0.000000 0.906088
O O15 0.185318 0.339065 0.738786
O O16 0.250000 0.250000 0.000000
O O17 0.590858 0.163132 0.433888
O O18 0.774683 0.421369 0.396392
O O19 0.125457 0.500000 0.579260
#
# Coordination Sequence:
#
# PCOD8093443 Si02
#       8
#     8   8   8   8   8   8   8   8
#     4   9  20  37  61  89 126 163 205 256 318 368
#     4  10  22  42  68  92 119 162 217 273 327 383
#     4  10  19  35  66  96 117 153 210 266 320 376
#     4  12  26  41  62  92 128 172 216 253 309 384
#     4  12  27  43  62  90 132 169 210 267 326 383
#     4  10  21  40  63  92 129 164 209 268 317 372
#     4   9  19  37  63  93 123 160 205 263 319 369
#     4  11  22  39  61  88 128 173 213 255 315 380
#
# _framework density 21.508120000000002
#
# number of rings (size 3 to 8) (size 9 to 14) (size 15 to 20)
#    0.000    1.625    1.250    3.750    1.750    4.500 
#    0.000    1.250    0.000    7.500    0.000    0.000 
#    0.000    0.000    0.000    0.000    0.000    0.000 
#
# Total GULP energy -396449.370099 kJ/mol
# GULP energy per Si atom -12389.042816 kJ/mol
# Density = 2.145917 g / cm^3
# Si number density = 21.508120 Si / 1000 Ang^3
#
#
#
# Elastic Constant Matrix: (Units=GPa)
#
#
# Indices 1 2 3 4 5 6 
#
# 1 59.3417 27.6535 18.4764 0.0000 -2.9288 0.0000
# 2 27.6535 144.8756 32.6642 0.0000 -1.4892 0.0000
# 3 18.4764 32.6642 72.0161 0.0000 -6.9953 0.0000
# 4 0.0000 0.0000 0.0000 123.2314 0.0000 -11.5252
# 5 -2.9288 -1.4892 -6.9953 0.0000 30.2416 0.0000
# 6 0.0000 0.0000 0.0000 -11.5252 0.0000 6.4900
#
#
#
# Elastic Compliance Matrix: (Units=1/GPa)
#
#
# Indices 1 2 3 4 5 6 
#
# 1 0.019350 -0.002879 -0.003570 0.000000 0.000906 0.000000
# 2 -0.002879 0.008123 -0.003001 0.000000 -0.000573 0.000000
# 3 -0.003570 -0.003001 0.016486 0.000000 0.003320 0.000000
# 4 0.000000 0.000000 0.000000 0.009731 0.000000 0.017281
# 5 0.000906 -0.000573 0.003320 0.000000 0.033895 0.000000
# 6 0.000000 0.000000 0.000000 0.017281 0.000000 0.184770
#
#
# Mechanical properties :
#
#
# Convention : Reuss Voigt Hill
#
# Bulk Modulus (GPa) = 39.90993 48.20243 44.05618
# Shear Modulus (GPa) = 16.68850 45.15522 30.92186
#
# Velocity S-wave (km/s) = 2.78855 4.58695 3.79579
# Velocity P-wave (km/s) = 5.38183 7.10728 6.30386
#
# Compressibility (1/GPa) = 0.02505642
#
# Stress axis : x y z
#
# Youngs Moduli (GPa) = 51.68056 123.11011 60.65920
#
# Poissons Ratio (x) = 0.35445 0.21658
# Poissons Ratio (y) = 0.14879 0.18205
# Poissons Ratio (z) = 0.18452 0.36948
#
# Static dielectric constant tensor:
#      x y z
#    x 3.916180 0.000000 -0.113570 
#    y 0.000000 4.063800 0.000000 
#    z -0.113570 0.000000 3.720070 
# 
# 
# High freq. dielectric constant tensor:
#      x y z
#    x 1.845960 0.000000 -0.006460 
#    y 0.000000 1.862030 0.000000 
#    z -0.006460 0.000000 1.815460 
# 
# From -- ./inp_files/183838.got.cif
#   From: 2010.06.25/outbox.cif.g09.slc.cpg/sg12_92_cif.got.tgz:183838.got - 2010.06.28 00:19:55.
