data_PCOD8093606
_publ_section_title
;
Structure prediction by ZEFSAII (Michael W. Deem and Ramdas Pophale) SiO2 
 PCOD8093606
Probable space group: C 2/M
;
_chemical_formula_sum "Si O2"
_cell_formula_units_Z 64
_cell_length_a 14.574696
_cell_length_b 8.958868
_cell_length_c 29.797673
_cell_angle_alpha 90.000000
_cell_angle_beta 120.262420
_cell_angle_gamma 90.000000
_cell_volume 3360.555926
_symmetry_space_group_name_H-M "C 2/M"
_symmetry_group_IT_number 12
_symmetry_cell_setting 'monoclinic'
loop_
_space_group_symop_operation_xyz
x,y,z
-x,y,-z
-x,-y,-z
x,-y,z
1/2+x,1/2+y,z
1/2-x,1/2+y,-z
1/2-x,1/2-y,-z
1/2+x,1/2-y,z
loop_
_atom_site_type_symbol
_atom_site_label
_atom_site_fract_x
_atom_site_fract_y
_atom_site_fract_z
Si Si1 0.443851 0.329149 0.617245
Si Si2 0.098253 0.826933 0.992904
Si Si3 0.044985 0.177440 0.811685
Si Si4 0.238455 0.828686 0.361279
Si Si5 0.890335 0.176129 0.269817
Si Si6 0.668790 0.824065 0.255695
Si Si7 0.335985 0.826850 0.079612
Si Si8 0.028087 0.323308 0.555958
O O1 0.473352 0.500000 0.614051
O O2 0.326724 0.314515 0.608768
O O3 0.529449 0.258346 0.673076
O O4 0.443769 0.238683 0.570855
O O5 0.099379 0.731612 0.947669
O O6 0.084183 0.000000 0.976439
O O7 0.209720 0.799684 0.045445
O O8 0.000000 0.773869 0.000000
O O9 0.082108 0.239358 0.772398
O O10 0.127960 0.236056 0.868280
O O11 0.928711 0.243164 0.792826
O O12 0.041078 0.000000 0.812761
O O13 0.181681 0.729552 0.309853
O O14 0.355571 0.767382 0.400406
O O15 0.239576 0.000000 0.344795
O O16 0.771437 0.223745 0.252569
O O17 0.905801 0.000000 0.272848
O O18 0.650271 0.000000 0.250820
O O19 0.363400 0.000000 0.092112
O O20 0.022266 0.500000 0.553822
O O21 0.000000 0.258816 0.500000
#
# Coordination Sequence:
#
# PCOD8093606 Si02
#       8
#     8   8   8   8   8   8   8   8
#     4  10  19  36  58  79 105 142 186 224 271 335
#     4   9  19  38  63  87 116 155 196 235 282 335
#     4  11  22  39  58  80 116 156 189 227 282 338
#     4  10  20  36  57  78 107 146 181 219 276 339
#     4   9  19  35  55  79 109 144 182 226 276 333
#     4  11  21  35  56  83 110 140 184 234 278 328
#     4  10  21  37  57  87 121 151 191 240 283 328
#     4  10  22  38  55  81 114 143 179 231 283 330
#
# _framework density 19.044468999999999
#
# number of rings (size 3 to 8) (size 9 to 14) (size 15 to 20)
#    0.000    2.000    2.500    1.125    0.000    3.000 
#    0.000    5.000    0.000    0.000    0.000    0.000 
#    0.000    0.000    0.000    0.000    0.000    0.000 
#
# Total GULP energy -396893.153276 kJ/mol
# GULP energy per Si atom -12402.911040 kJ/mol
# Density = 1.900112 g / cm^3
# Si number density = 19.044469 Si / 1000 Ang^3
#
#
#
# Elastic Constant Matrix: (Units=GPa)
#
#
# Indices 1 2 3 4 5 6 
#
# 1 98.3571 25.6453 20.1534 0.0000 -7.2958 0.0000
# 2 25.6453 51.9530 24.8068 0.0000 -0.7591 0.0000
# 3 20.1534 24.8068 78.7850 0.0000 -7.7456 0.0000
# 4 0.0000 0.0000 0.0000 31.3180 0.0000 -3.3123
# 5 -7.2958 -0.7591 -7.7456 0.0000 25.7014 0.0000
# 6 0.0000 0.0000 0.0000 -3.3123 0.0000 27.4364
#
#
#
# Elastic Compliance Matrix: (Units=1/GPa)
#
#
# Indices 1 2 3 4 5 6 
#
# 1 0.012006 -0.005360 -0.001096 0.000000 0.002919 0.000000
# 2 -0.005360 0.025105 -0.006812 0.000000 -0.002833 0.000000
# 3 -0.001096 -0.006812 0.015528 0.000000 0.004167 0.000000
# 4 0.000000 0.000000 0.000000 0.032344 0.000000 0.003905
# 5 0.002919 -0.002833 0.004167 0.000000 0.040909 0.000000
# 6 0.000000 0.000000 0.000000 0.003905 0.000000 0.036919
#
#
# Mechanical properties :
#
#
# Convention : Reuss Voigt Hill
#
# Bulk Modulus (GPa) = 38.31198 41.14512 39.72855
# Shear Modulus (GPa) = 25.24623 27.45714 26.35168
#
# Velocity S-wave (km/s) = 3.64489 3.80114 3.72384
# Velocity P-wave (km/s) = 6.15422 6.39661 6.27658
#
# Compressibility (1/GPa) = 0.02610149
#
# Stress axis : x y z
#
# Youngs Moduli (GPa) = 83.29277 39.83192 64.40039
#
# Poissons Ratio (x) = 0.21351 0.07061
# Poissons Ratio (y) = 0.44647 0.43871
# Poissons Ratio (z) = 0.09132 0.27134
#
# Static dielectric constant tensor:
#      x y z
#    x 3.599040 0.000000 0.014000 
#    y 0.000000 3.334190 0.000000 
#    z 0.014000 0.000000 3.477700 
# 
# 
# High freq. dielectric constant tensor:
#      x y z
#    x 1.749600 0.000000 0.000200 
#    y 0.000000 1.727380 0.000000 
#    z 0.000200 0.000000 1.737120 
# 
# From -- ./inp_files/375098.got.cif
#   From: 2010.06.25/outbox.cif.g09.slc.cpg/sg12_188_cif.got.tgz:375098.got - 2010.06.28 00:19:55.
