data_PCOD8093394
_publ_section_title
;
Structure prediction by ZEFSAII (Michael W. Deem and Ramdas Pophale) SiO2 
 PCOD8093394
Probable space group: C 2/M
;
_chemical_formula_sum "Si O2"
_cell_formula_units_Z 48
_cell_length_a 23.374262
_cell_length_b 8.473157
_cell_length_c 12.305979
_cell_angle_alpha 90.000000
_cell_angle_beta 69.879919
_cell_angle_gamma 90.000000
_cell_volume 2288.509827
_symmetry_space_group_name_H-M "C 2/M"
_symmetry_group_IT_number 12
_symmetry_cell_setting 'monoclinic'
loop_
_space_group_symop_operation_xyz
x,y,z
-x,y,-z
-x,-y,-z
x,-y,z
1/2+x,1/2+y,z
1/2-x,1/2+y,-z
1/2-x,1/2-y,-z
1/2+x,1/2-y,z
loop_
_atom_site_type_symbol
_atom_site_label
_atom_site_fract_x
_atom_site_fract_y
_atom_site_fract_z
Si Si1 0.149216 0.816739 0.825410
Si Si2 0.881443 0.683494 0.548672
Si Si3 0.745115 0.316733 0.383837
Si Si4 0.943404 0.312509 0.283443
Si Si5 0.424464 0.184156 0.751846
Si Si6 0.817658 0.684280 0.969456
O O1 0.210047 0.783401 0.719225
O O2 0.089950 0.766081 0.796400
O O3 0.145211 0.000000 0.856082
O O4 0.152488 0.719768 0.934117
O O5 0.862356 0.500000 0.554055
O O6 0.823052 0.790497 0.612816
O O7 0.912123 0.739738 0.416949
O O8 0.926044 0.714067 0.621223
O O9 0.763673 0.500000 0.367393
O O10 0.750000 0.250000 0.500000
O O11 0.940416 0.500000 0.273617
O O12 0.012707 0.247316 0.239640
O O13 0.364287 0.257291 0.848896
O O14 0.424040 0.000000 0.777214
O O15 0.811159 0.500000 0.956911
O O16 0.750000 0.750000 0.000000
#
# Coordination Sequence:
#
# PCOD8093394 Si02
#       6
#     8   8   8   8   8   8
#     4  12  25  41  61  88 125 163 208 257 307 360
#     4  10  19  35  62  93 126 160 201 251 305 368
#     4  12  23  37  59  89 123 158 199 248 307 365
#     4  10  20  37  62  91 124 161 204 250 306 369
#     4   9  20  38  62  91 121 161 206 251 303 369
#     4  11  23  42  66  91 123 161 208 256 308 367
#
# _framework density 20.974347999999999
#
# number of rings (size 3 to 8) (size 9 to 14) (size 15 to 20)
#    0.000    1.333    1.667    5.000    0.000    4.000 
#    0.000    6.667    0.000    2.000    0.000    0.000 
#    0.000    0.000    0.000    0.000    0.000    0.000 
#
# Total GULP energy -297617.594509 kJ/mol
# GULP energy per Si atom -12400.733105 kJ/mol
# Density = 2.092661 g / cm^3
# Si number density = 20.974348 Si / 1000 Ang^3
#
#
#
# Elastic Constant Matrix: (Units=GPa)
#
#
# Indices 1 2 3 4 5 6 
#
# 1 160.7494 22.2432 45.6578 0.0000 -2.3691 0.0000
# 2 22.2432 42.6729 4.5010 0.0000 -1.8552 0.0000
# 3 45.6578 4.5010 98.5253 0.0000 10.1961 0.0000
# 4 0.0000 0.0000 0.0000 22.9773 0.0000 2.1803
# 5 -2.3691 -1.8552 10.1961 0.0000 34.9052 0.0000
# 6 0.0000 0.0000 0.0000 2.1803 0.0000 32.0012
#
#
#
# Elastic Compliance Matrix: (Units=1/GPa)
#
#
# Indices 1 2 3 4 5 6 
#
# 1 0.007754 -0.003605 -0.003571 0.000000 0.001378 0.000000
# 2 -0.003605 0.025312 0.000413 0.000000 0.000980 0.000000
# 3 -0.003571 0.000413 0.012177 0.000000 -0.003777 0.000000
# 4 0.000000 0.000000 0.000000 0.043804 0.000000 -0.002985
# 5 0.001378 0.000980 -0.003777 0.000000 0.029898 0.000000
# 6 0.000000 0.000000 0.000000 -0.002985 0.000000 0.031452
#
#
# Mechanical properties :
#
#
# Convention : Reuss Voigt Hill
#
# Bulk Modulus (GPa) = 31.52977 49.63906 40.58441
# Shear Modulus (GPa) = 28.65365 33.27978 30.96672
#
# Velocity S-wave (km/s) = 3.70013 3.98765 3.84658
# Velocity P-wave (km/s) = 5.77233 6.70222 6.25458
#
# Compressibility (1/GPa) = 0.03171606
#
# Stress axis : x y z
#
# Youngs Moduli (GPa) = 128.95830 39.50628 82.12370
#
# Poissons Ratio (x) = 0.14244 0.29330
# Poissons Ratio (y) = 0.46495 -0.03392
# Poissons Ratio (z) = 0.46056 -0.01632
#
# Static dielectric constant tensor:
#      x y z
#    x 3.232030 0.000000 0.198820 
#    y 0.000000 3.610370 0.000000 
#    z 0.198820 0.000000 3.790400 
# 
# 
# High freq. dielectric constant tensor:
#      x y z
#    x 1.837900 0.000000 0.003300 
#    y 0.000000 1.797030 0.000000 
#    z 0.003300 0.000000 1.826600 
# 
# From -- ./inp_files/172937.got.cif
#   From: 2010.06.25/outbox.cif.g09.slc.cpg/sg12_87_cif.got.tgz:172937.got - 2010.06.28 00:19:55.
