data_PCOD8093391
_publ_section_title
;
Structure prediction by ZEFSAII (Michael W. Deem and Ramdas Pophale) SiO2 
 PCOD8093391
Probable space group: C 2/M
;
_chemical_formula_sum "Si O2"
_cell_formula_units_Z 48
_cell_length_a 11.395214
_cell_length_b 21.745519
_cell_length_c 13.868814
_cell_angle_alpha 90.000000
_cell_angle_beta 139.627115
_cell_angle_gamma 90.000000
_cell_volume 2226.103401
_symmetry_space_group_name_H-M "C 2/M"
_symmetry_group_IT_number 12
_symmetry_cell_setting 'monoclinic'
loop_
_space_group_symop_operation_xyz
x,y,z
-x,y,-z
-x,-y,-z
x,-y,z
1/2+x,1/2+y,z
1/2-x,1/2+y,-z
1/2-x,1/2-y,-z
1/2+x,1/2-y,z
loop_
_atom_site_type_symbol
_atom_site_label
_atom_site_fract_x
_atom_site_fract_y
_atom_site_fract_z
Si Si1 0.211814 0.865812 0.658714
Si Si2 0.302032 0.671974 0.137157
Si Si3 0.293117 0.500000 0.400637
Si Si4 0.543132 0.798312 0.805681
Si Si5 0.780829 0.400008 0.194433
Si Si6 0.522020 0.431037 0.864178
Si Si7 0.546070 0.000000 0.415079
O O1 0.254401 0.836337 0.788586
O O2 0.337661 0.823460 0.668303
O O3 0.000000 0.859121 0.500000
O O4 0.282755 0.936639 0.694531
O O5 0.448722 0.726161 0.211933
O O6 0.398783 0.607782 0.173527
O O7 0.124534 0.685672 0.962207
O O8 0.500000 0.500000 0.500000
O O9 0.247823 0.500000 0.489692
O O10 0.670595 0.830780 0.805215
O O11 0.667083 0.399485 0.222276
O O12 0.962361 0.438450 0.319394
O O13 0.661921 0.433585 0.039321
O O14 0.481299 0.500000 0.802413
O O15 0.500000 0.000000 0.500000
#
# Coordination Sequence:
#
# PCOD8093391 Si02
#       7
#     8   8   4   8   8   8   4
#     4  11  24  43  66  90 133 174 216 265 329 395
#     4  10  24  39  66  96 123 175 212 269 325 392
#     4  10  24  44  63  91 137 179 214 271 331 393
#     4  10  22  43  64  91 131 164 224 265 319 385
#     4  10  19  37  58  88 123 163 203 266 322 371
#     4  10  19  35  62  91 123 151 207 271 325 379
#     4  12  22  37  62  96 130 173 219 263 325 390
#
# _framework density 21.562339999999999
#
# number of rings (size 3 to 8) (size 9 to 14) (size 15 to 20)
#    0.000    1.667    3.333    1.000    3.500    3.333 
#    0.000    1.667    0.000    0.000    0.000    0.000 
#    0.000    0.000    0.000    0.000    0.000    0.000 
#
# Total GULP energy -297400.013670 kJ/mol
# GULP energy per Si atom -12391.667236 kJ/mol
# Density = 2.151326 g / cm^3
# Si number density = 21.562340 Si / 1000 Ang^3
#
#
#
# Elastic Constant Matrix: (Units=GPa)
#
#
# Indices 1 2 3 4 5 6 
#
# 1 126.1086 50.3126 30.1810 0.0000 10.8353 0.0000
# 2 50.3126 122.1303 31.8436 0.0000 0.5189 0.0000
# 3 30.1810 31.8436 43.5563 0.0000 11.4691 0.0000
# 4 0.0000 0.0000 0.0000 23.3427 0.0000 1.9093
# 5 10.8353 0.5189 11.4691 0.0000 30.4083 0.0000
# 6 0.0000 0.0000 0.0000 1.9093 0.0000 18.1821
#
#
#
# Elastic Compliance Matrix: (Units=1/GPa)
#
#
# Indices 1 2 3 4 5 6 
#
# 1 0.010402 -0.003131 -0.004393 0.000000 -0.001996 0.000000
# 2 -0.003131 0.011296 -0.007030 0.000000 0.003574 0.000000
# 3 -0.004393 -0.007030 0.034083 0.000000 -0.011170 0.000000
# 4 0.000000 0.000000 0.000000 0.043211 0.000000 -0.004538
# 5 -0.001996 0.003574 -0.011170 0.000000 0.037749 0.000000
# 6 0.000000 0.000000 0.000000 -0.004538 0.000000 0.055476
#
#
# Mechanical properties :
#
#
# Convention : Reuss Voigt Hill
#
# Bulk Modulus (GPa) = 37.49064 57.38552 47.43808
# Shear Modulus (GPa) = 21.71888 26.35047 24.03467
#
# Velocity S-wave (km/s) = 3.17718 3.49959 3.34227
# Velocity P-wave (km/s) = 5.55735 6.55752 6.07804
#
# Compressibility (1/GPa) = 0.02667332
#
# Stress axis : x y z
#
# Youngs Moduli (GPa) = 96.13784 88.53006 29.34006
#
# Poissons Ratio (x) = 0.27721 0.12888
# Poissons Ratio (y) = 0.30103 0.20625
# Poissons Ratio (z) = 0.42230 0.62233
#
# Static dielectric constant tensor:
#      x y z
#    x 3.999060 0.000000 0.128160 
#    y 0.000000 3.634770 0.000000 
#    z 0.128160 0.000000 3.573850 
# 
# 
# High freq. dielectric constant tensor:
#      x y z
#    x 1.859420 0.000000 0.012920 
#    y 0.000000 1.851290 0.000000 
#    z 0.012920 0.000000 1.809840 
# 
# From -- ./inp_files/208029.got.cif
#   From: 2010.06.25/outbox.cif.g09.slc.cpg/sg12_105_cif.got.tgz:208029.got - 2010.06.28 00:19:55.
