data_PCOD8093818
_publ_section_title
;
Structure prediction by ZEFSAII (Michael W. Deem and Ramdas Pophale) SiO2 
 PCOD8093818
Probable space group: C 2/M
;
_chemical_formula_sum "Si O2"
_cell_formula_units_Z 56
_cell_length_a 15.991916
_cell_length_b 9.064467
_cell_length_c 22.861635
_cell_angle_alpha 90.000000
_cell_angle_beta 122.643219
_cell_angle_gamma 90.000000
_cell_volume 2790.523921
_symmetry_space_group_name_H-M "C 2/M"
_symmetry_group_IT_number 12
_symmetry_cell_setting 'monoclinic'
loop_
_space_group_symop_operation_xyz
x,y,z
-x,y,-z
-x,-y,-z
x,-y,z
1/2+x,1/2+y,z
1/2-x,1/2+y,-z
1/2-x,1/2-y,-z
1/2+x,1/2-y,z
loop_
_atom_site_type_symbol
_atom_site_label
_atom_site_fract_x
_atom_site_fract_y
_atom_site_fract_z
Si Si1 0.728258 0.672529 0.931442
Si Si2 0.911727 0.324892 0.927145
Si Si3 0.534303 0.825429 0.660936
Si Si4 0.612805 0.169964 0.212121
Si Si5 0.192527 0.831274 0.649580
Si Si6 0.696012 0.825673 0.426218
Si Si7 0.450208 0.673485 0.216505
O O1 0.737591 0.500000 0.946330
O O2 0.808883 0.728226 0.915488
O O3 0.622332 0.715939 0.864489
O O4 0.750000 0.750000 0.000000
O O5 0.919070 0.500000 0.928318
O O6 0.915589 0.266235 0.862319
O O7 0.000000 0.257451 0.000000
O O8 0.594689 0.765348 0.627130
O O9 0.419176 0.775899 0.615691
O O10 0.584112 0.753481 0.737163
O O11 0.545515 0.000000 0.667714
O O12 0.730321 0.183353 0.267424
O O13 0.558452 0.268582 0.239926
O O14 0.578941 0.000000 0.207261
O O15 0.248028 0.774704 0.611903
O O16 0.158029 0.000000 0.628751
O O17 0.750000 0.750000 0.500000
O O18 0.702559 0.000000 0.435419
O O19 0.450739 0.500000 0.228665
#
# Coordination Sequence:
#
# PCOD8093818 Si02
#       7
#     8   8   8   8   8   8   8
#     4  10  21  36  53  78 111 149 196 249 305 365
#     4   9  17  30  51  77 104 143 193 239 293 356
#     4  11  23  41  64  93 125 162 208 252 301 369
#     4  10  19  36  60  82 115 157 199 250 302 361
#     4  10  21  40  63  90 124 163 206 254 307 363
#     4  10  23  43  65  91 127 164 204 253 307 367
#     4  11  22  36  57  86 120 157 200 253 309 362
#
# _framework density 20.067917000000001
#
# number of rings (size 3 to 8) (size 9 to 14) (size 15 to 20)
#    0.000    1.857    1.429    2.571    0.000    7.429 
#    0.000    3.571    0.000    2.571    0.000    0.000 
#    0.000    0.000    0.000    0.000    0.000    0.000 
#
# Total GULP energy -347212.049783 kJ/mol
# GULP energy per Si atom -12400.430349 kJ/mol
# Density = 2.002224 g / cm^3
# Si number density = 20.067917 Si / 1000 Ang^3
#
#
#
# Elastic Constant Matrix: (Units=GPa)
#
#
# Indices 1 2 3 4 5 6 
#
# 1 149.1839 51.0804 50.4516 0.0000 -5.5821 0.0000
# 2 51.0804 61.1156 42.5732 0.0000 1.3446 0.0000
# 3 50.4516 42.5732 116.8454 0.0000 -9.9094 0.0000
# 4 0.0000 0.0000 0.0000 32.0602 0.0000 -3.0439
# 5 -5.5821 1.3446 -9.9094 0.0000 27.5150 0.0000
# 6 0.0000 0.0000 0.0000 -3.0439 0.0000 33.6733
#
#
#
# Elastic Compliance Matrix: (Units=1/GPa)
#
#
# Indices 1 2 3 4 5 6 
#
# 1 0.009704 -0.007154 -0.001431 0.000000 0.001803 0.000000
# 2 -0.007154 0.027653 -0.007452 0.000000 -0.005486 0.000000
# 3 -0.001431 -0.007452 0.012272 0.000000 0.004494 0.000000
# 4 0.000000 0.000000 0.000000 0.031461 0.000000 0.002844
# 5 0.001803 -0.005486 0.004494 0.000000 0.038596 0.000000
# 6 0.000000 0.000000 0.000000 0.002844 0.000000 0.029954
#
#
# Mechanical properties :
#
#
# Convention : Reuss Voigt Hill
#
# Bulk Modulus (GPa) = 56.95778 68.37281 62.66530
# Shear Modulus (GPa) = 26.65732 30.85234 28.75483
#
# Velocity S-wave (km/s) = 3.64861 3.92522 3.78944
# Velocity P-wave (km/s) = 6.79662 7.39512 7.10217
#
# Compressibility (1/GPa) = 0.01755686
#
# Stress axis : x y z
#
# Youngs Moduli (GPa) = 103.05285 36.16214 81.48407
#
# Poissons Ratio (x) = 0.25869 0.11657
# Poissons Ratio (y) = 0.73719 0.60723
# Poissons Ratio (z) = 0.14742 0.26949
#
# Static dielectric constant tensor:
#      x y z
#    x 3.960140 0.000000 -0.186220 
#    y 0.000000 3.379660 0.000000 
#    z -0.186220 0.000000 3.912140 
# 
# 
# High freq. dielectric constant tensor:
#      x y z
#    x 1.794310 0.000000 -0.002640 
#    y 0.000000 1.757930 0.000000 
#    z -0.002640 0.000000 1.787340 
# 
# From -- ./inp_files/339037.got.cif
#   From: 2010.06.25/outbox.cif.g09.slc.cpg/sg12_170_cif.got.tgz:339037.got - 2010.06.28 00:19:55.
