data_PCOD8093558
_publ_section_title
;
Structure prediction by ZEFSAII (Michael W. Deem and Ramdas Pophale) SiO2 
 PCOD8093558
Probable space group: C 2/M
;
_chemical_formula_sum "Si O2"
_cell_formula_units_Z 56
_cell_length_a 20.911464
_cell_length_b 8.805763
_cell_length_c 17.352799
_cell_angle_alpha 90.000000
_cell_angle_beta 63.206988
_cell_angle_gamma 90.000000
_cell_volume 2852.316420
_symmetry_space_group_name_H-M "C 2/M"
_symmetry_group_IT_number 12
_symmetry_cell_setting 'monoclinic'
loop_
_space_group_symop_operation_xyz
x,y,z
-x,y,-z
-x,-y,-z
x,-y,z
1/2+x,1/2+y,z
1/2-x,1/2+y,-z
1/2-x,1/2-y,-z
1/2+x,1/2-y,z
loop_
_atom_site_type_symbol
_atom_site_label
_atom_site_fract_x
_atom_site_fract_y
_atom_site_fract_z
Si Si1 0.689954 0.334325 0.079029
Si Si2 0.828062 0.321196 0.469506
Si Si3 0.909256 0.180875 0.736608
Si Si4 0.078890 0.676653 0.432301
Si Si5 0.077564 0.831365 0.008824
Si Si6 0.431478 0.179050 0.131849
Si Si7 0.064397 0.180327 0.709133
O O1 0.720303 0.500000 0.084170
O O2 0.656695 0.256513 0.174202
O O3 0.750000 0.250000 0.000000
O O4 0.625623 0.347859 0.055830
O O5 0.825302 0.500000 0.453093
O O6 0.750000 0.250000 0.500000
O O7 0.860006 0.291353 0.537378
O O8 0.880891 0.236513 0.383982
O O9 0.896024 0.237006 0.657647
O O10 0.985244 0.239785 0.728728
O O11 0.908652 0.000000 0.739197
O O12 0.072760 0.500000 0.415994
O O13 0.000000 0.737358 0.500000
O O14 0.115294 0.751551 0.913446
O O15 0.051918 0.000000 0.998676
O O16 0.012556 0.724664 0.069636
O O17 0.408510 0.249239 0.225577
O O18 0.420684 0.000000 0.140582
O O19 0.066298 0.000000 0.714347
#
# Coordination Sequence:
#
# PCOD8093558 Si02
#       7
#     8   8   8   8   8   8   8
#     4  10  22  40  59  84 117 158 203 252 307 363
#     4  11  24  43  64  91 127 164 203 251 310 373
#     4  10  21  38  62  91 120 155 206 256 304 367
#     4  10  21  39  64  95 127 159 203 257 308 367
#     4  10  19  36  57  79 114 154 193 241 297 353
#     4  11  21  33  55  88 116 146 193 245 295 350
#     4  11  21  38  63  89 119 157 200 250 307 366
#
# _framework density 19.633164000000001
#
# number of rings (size 3 to 8) (size 9 to 14) (size 15 to 20)
#    0.000    1.571    2.857    3.429    0.000    3.714 
#    2.571    0.000    0.000    0.000    0.000    0.000 
#    0.000    0.000    0.000    0.000    0.000    0.000 
#
# Total GULP energy -346996.950109 kJ/mol
# GULP energy per Si atom -12392.748218 kJ/mol
# Density = 1.958848 g / cm^3
# Si number density = 19.633164 Si / 1000 Ang^3
#
#
#
# Elastic Constant Matrix: (Units=GPa)
#
#
# Indices 1 2 3 4 5 6 
#
# 1 58.1312 22.1376 37.6514 0.0000 -2.9519 0.0000
# 2 22.1376 76.5850 43.1594 0.0000 2.2598 0.0000
# 3 37.6514 43.1594 158.6832 0.0000 1.1178 0.0000
# 4 0.0000 0.0000 0.0000 39.1687 0.0000 2.2246
# 5 -2.9519 2.2598 1.1178 0.0000 37.0956 0.0000
# 6 0.0000 0.0000 0.0000 2.2246 0.0000 23.4507
#
#
#
# Elastic Compliance Matrix: (Units=1/GPa)
#
#
# Indices 1 2 3 4 5 6 
#
# 1 0.021427 -0.003994 -0.004013 0.000000 0.002069 0.000000
# 2 -0.003994 0.016190 -0.003447 0.000000 -0.001200 0.000000
# 3 -0.004013 -0.003447 0.008194 0.000000 -0.000356 0.000000
# 4 0.000000 0.000000 0.000000 0.025669 0.000000 -0.002435
# 5 0.002069 -0.001200 -0.000356 0.000000 0.027206 0.000000
# 6 0.000000 0.000000 0.000000 -0.002435 0.000000 0.042874
#
#
# Mechanical properties :
#
#
# Convention : Reuss Voigt Hill
#
# Bulk Modulus (GPa) = 43.65980 55.47735 49.56857
# Shear Modulus (GPa) = 29.05263 32.63974 30.84619
#
# Velocity S-wave (km/s) = 3.85096 4.08178 3.96804
# Velocity P-wave (km/s) = 6.48531 7.10864 6.80412
#
# Compressibility (1/GPa) = 0.02290437
#
# Stress axis : x y z
#
# Youngs Moduli (GPa) = 46.66946 61.76671 122.03930
#
# Poissons Ratio (x) = 0.24667 0.48969
# Poissons Ratio (y) = 0.18638 0.42072
# Poissons Ratio (z) = 0.18726 0.21293
#
# Static dielectric constant tensor:
#      x y z
#    x 3.640250 0.000000 0.370440 
#    y 0.000000 3.616770 0.000000 
#    z 0.370440 0.000000 3.832200 
# 
# 
# High freq. dielectric constant tensor:
#      x y z
#    x 1.752980 0.000000 0.018960 
#    y 0.000000 1.765540 0.000000 
#    z 0.018960 0.000000 1.777450 
# 
# From -- ./inp_files/280942.got.cif
#   From: 2010.06.25/outbox.cif.g09.slc.cpg/sg12_141_cif.got.tgz:280942.got - 2010.06.28 00:19:55.
