data_PCOD8093813
_publ_section_title
;
Structure prediction by ZEFSAII (Michael W. Deem and Ramdas Pophale) SiO2 
 PCOD8093813
Probable space group: C 2/M
;
_chemical_formula_sum "Si O2"
_cell_formula_units_Z 56
_cell_length_a 14.521965
_cell_length_b 8.754564
_cell_length_c 26.115894
_cell_angle_alpha 90.000000
_cell_angle_beta 115.599361
_cell_angle_gamma 90.000000
_cell_volume 2994.284212
_symmetry_space_group_name_H-M "C 2/M"
_symmetry_group_IT_number 12
_symmetry_cell_setting 'monoclinic'
loop_
_space_group_symop_operation_xyz
x,y,z
-x,y,-z
-x,-y,-z
x,-y,z
1/2+x,1/2+y,z
1/2-x,1/2+y,-z
1/2-x,1/2-y,-z
1/2+x,1/2-y,z
loop_
_atom_site_type_symbol
_atom_site_label
_atom_site_fract_x
_atom_site_fract_y
_atom_site_fract_z
Si Si1 0.013889 0.674008 0.853282
Si Si2 0.698152 0.681010 0.438102
Si Si3 0.573762 0.819088 0.061884
Si Si4 0.991332 0.681969 0.351461
Si Si5 0.757019 0.673523 0.056617
Si Si6 0.217771 0.320489 0.649545
Si Si7 0.437943 0.679580 0.733854
O O1 0.980574 0.500000 0.833237
O O2 0.132865 0.683211 0.892342
O O3 0.958462 0.740348 0.890184
O O4 0.985140 0.782707 0.799840
O O5 0.689414 0.500000 0.440630
O O6 0.750000 0.750000 0.500000
O O7 0.584660 0.748171 0.405878
O O8 0.768100 0.728738 0.406313
O O9 0.687324 0.762396 0.079939
O O10 0.567498 0.000000 0.058989
O O11 0.500000 0.751271 0.000000
O O12 0.996591 0.500000 0.355862
O O13 0.996801 0.733889 0.293787
O O14 0.885665 0.748111 0.350586
O O15 0.720694 0.500000 0.041594
O O16 0.750000 0.750000 0.000000
O O17 0.208339 0.500000 0.651496
O O18 0.319421 0.266035 0.704371
O O19 0.445308 0.500000 0.724285
#
# Coordination Sequence:
#
# PCOD8093813 Si02
#       7
#     8   8   8   8   8   8   8
#     4  10  22  39  57  79 111 147 180 224 281 337
#     4  10  20  36  55  83 119 153 190 231 275 324
#     4  10  20  38  58  79 110 143 176 222 277 330
#     4  10  19  36  60  82 108 148 189 229 280 330
#     4  11  22  37  57  81 109 142 182 223 275 336
#     4   8  18  36  57  78 108 148 185 225 275 328
#     4  10  21  38  57  81 111 142 183 233 277 329
#
# _framework density 18.702299
#
# number of rings (size 3 to 8) (size 9 to 14) (size 15 to 20)
#    0.000    2.143    1.429    2.571    0.000    3.714 
#    0.000   15.714    0.000    0.000    0.000    0.000 
#    0.000    0.000    0.000    0.000    0.000    0.000 
#
# Total GULP energy -347191.960168 kJ/mol
# GULP energy per Si atom -12399.712863 kJ/mol
# Density = 1.865973 g / cm^3
# Si number density = 18.702299 Si / 1000 Ang^3
#
#
#
# Elastic Constant Matrix: (Units=GPa)
#
#
# Indices 1 2 3 4 5 6 
#
# 1 146.8242 18.3049 50.2450 0.0000 -9.1071 0.0000
# 2 18.3049 35.6510 32.6065 0.0000 -4.1547 0.0000
# 3 50.2450 32.6065 127.7375 0.0000 -10.5759 0.0000
# 4 0.0000 0.0000 0.0000 32.0186 0.0000 1.9142
# 5 -9.1071 -4.1547 -10.5759 0.0000 18.9801 0.0000
# 6 0.0000 0.0000 0.0000 1.9142 0.0000 28.0055
#
#
#
# Elastic Compliance Matrix: (Units=1/GPa)
#
#
# Indices 1 2 3 4 5 6 
#
# 1 0.008015 -0.001497 -0.002599 0.000000 0.002070 0.000000
# 2 -0.001497 0.037030 -0.008651 0.000000 0.002567 0.000000
# 3 -0.002599 -0.008651 0.011321 0.000000 0.003168 0.000000
# 4 0.000000 0.000000 0.000000 0.031360 0.000000 -0.002144
# 5 0.002070 0.002567 0.003168 0.000000 0.056007 0.000000
# 6 0.000000 0.000000 0.000000 -0.002144 0.000000 0.035854
#
#
# Mechanical properties :
#
#
# Convention : Reuss Voigt Hill
#
# Bulk Modulus (GPa) = 32.39161 56.94728 44.66944
# Shear Modulus (GPa) = 23.21564 29.73794 26.47679
#
# Velocity S-wave (km/s) = 3.52707 3.99189 3.76666
# Velocity P-wave (km/s) = 5.82616 7.19461 6.54624
#
# Compressibility (1/GPa) = 0.03087219
#
# Stress axis : x y z
#
# Youngs Moduli (GPa) = 124.75976 27.00548 88.32763
#
# Poissons Ratio (x) = 0.04042 0.22959
# Poissons Ratio (y) = 0.18675 0.76411
# Poissons Ratio (z) = 0.32429 0.23362
#
# Static dielectric constant tensor:
#      x y z
#    x 3.696550 0.000000 -0.050920 
#    y 0.000000 3.375650 0.000000 
#    z -0.050920 0.000000 3.370450 
# 
# 
# High freq. dielectric constant tensor:
#      x y z
#    x 1.736310 0.000000 -0.001890 
#    y 0.000000 1.719080 0.000000 
#    z -0.001890 0.000000 1.726530 
# 
# From -- ./inp_files/360026.got.cif
#   From: 2010.06.25/outbox.cif.g09.slc.cpg/sg12_181_cif.got.tgz:360026.got - 2010.06.28 00:19:55.
