data_PCOD8093158
_publ_section_title
;
Structure prediction by ZEFSAII (Michael W. Deem and Ramdas Pophale) SiO2 
 PCOD8093158
Probable space group: C 2/M
;
_chemical_formula_sum "Si O2"
_cell_formula_units_Z 56
_cell_length_a 27.536096
_cell_length_b 13.832192
_cell_length_c 7.061295
_cell_angle_alpha 90.000000
_cell_angle_beta 81.377162
_cell_angle_gamma 90.000000
_cell_volume 2659.137624
_symmetry_space_group_name_H-M "C 2/M"
_symmetry_group_IT_number 12
_symmetry_cell_setting 'monoclinic'
loop_
_space_group_symop_operation_xyz
x,y,z
-x,y,-z
-x,-y,-z
x,-y,z
1/2+x,1/2+y,z
1/2-x,1/2+y,-z
1/2-x,1/2-y,-z
1/2+x,1/2-y,z
loop_
_atom_site_type_symbol
_atom_site_label
_atom_site_fract_x
_atom_site_fract_y
_atom_site_fract_z
Si Si1 0.866682 0.610828 0.830312
Si Si2 0.944328 0.104061 0.967761
Si Si3 0.208335 0.888184 0.095975
Si Si4 0.378831 0.206354 0.423209
Si Si5 0.701221 0.780928 0.840865
Si Si6 0.106855 0.106110 0.372566
Si Si7 0.941968 0.687378 0.056779
O O1 0.851284 0.500000 0.846902
O O2 0.869637 0.642866 0.612209
O O3 0.826432 0.671450 0.965018
O O4 0.919718 0.625791 0.898077
O O5 0.920623 0.201655 0.065425
O O6 0.919514 0.000000 0.043308
O O7 0.939822 0.113117 0.742034
O O8 0.000000 0.101836 0.000000
O O9 0.210264 0.831042 0.893793
O O10 0.221264 0.000000 0.050316
O O11 0.247843 0.839256 0.215651
O O12 0.155159 0.876055 0.219222
O O13 0.328116 0.211988 0.337154
O O14 0.397896 0.313740 0.463308
O O15 0.421081 0.152440 0.272412
O O16 0.108172 0.000000 0.468870
O O17 0.000000 0.680030 0.000000
#
# Coordination Sequence:
#
# PCOD8093158 Si02
#       7
#     8   8   8   8   8   8   8
#     4  11  23  42  62  86 119 156 205 253 305 364
#     4   9  17  34  60  87 121 162 198 238 294 359
#     4  10  20  38  63  91 126 163 202 251 299 351
#     4  11  22  39  62  88 119 159 199 245 309 358
#     4  10  22  40  64  88 124 163 203 245 299 364
#     4  10  19  35  59  90 127 160 204 253 297 356
#     4  10  22  40  62  87 120 157 201 253 305 363
#
# _framework density 21.059460000000001
#
# number of rings (size 3 to 8) (size 9 to 14) (size 15 to 20)
#    0.000    1.857    2.857    1.286    0.000    5.429 
#    0.000    0.714    0.000    4.286    0.000    0.000 
#    0.000    0.000    0.000    0.000    0.000    0.000 
#
# Total GULP energy -347024.902492 kJ/mol
# GULP energy per Si atom -12393.746518 kJ/mol
# Density = 2.101153 g / cm^3
# Si number density = 21.059460 Si / 1000 Ang^3
#
#
#
# Elastic Constant Matrix: (Units=GPa)
#
#
# Indices 1 2 3 4 5 6 
#
# 1 93.4893 14.9263 43.3606 0.0000 29.0106 0.0000
# 2 14.9263 108.3331 36.1979 0.0000 13.4720 0.0000
# 3 43.3606 36.1979 118.4467 0.0000 25.9792 0.0000
# 4 0.0000 0.0000 0.0000 13.5252 0.0000 4.4955
# 5 29.0106 13.4720 25.9792 0.0000 24.1926 0.0000
# 6 0.0000 0.0000 0.0000 4.4955 0.0000 24.3072
#
#
#
# Elastic Compliance Matrix: (Units=1/GPa)
#
#
# Indices 1 2 3 4 5 6 
#
# 1 0.017583 0.000765 -0.002554 0.000000 -0.018767 0.000000
# 2 0.000765 0.010492 -0.002621 0.000000 -0.003945 0.000000
# 3 -0.002554 -0.002621 0.012017 0.000000 -0.008382 0.000000
# 4 0.000000 0.000000 0.000000 0.078779 0.000000 -0.014570
# 5 -0.018767 -0.003945 -0.008382 0.000000 0.075038 0.000000
# 6 0.000000 0.000000 0.000000 -0.014570 0.000000 0.043835
#
#
# Mechanical properties :
#
#
# Convention : Reuss Voigt Hill
#
# Bulk Modulus (GPa) = 31.97875 56.58207 44.28041
# Shear Modulus (GPa) = 19.45625 27.45731 23.45678
#
# Velocity S-wave (km/s) = 3.04282 3.61473 3.34104
# Velocity P-wave (km/s) = 5.25005 6.65942 5.99628
#
# Compressibility (1/GPa) = 0.03127077
#
# Stress axis : x y z
#
# Youngs Moduli (GPa) = 56.87466 95.31275 83.21480
#
# Poissons Ratio (x) = -0.07288 0.21253
# Poissons Ratio (y) = -0.04349 0.21811
# Poissons Ratio (z) = 0.14525 0.24982
#
# Static dielectric constant tensor:
#      x y z
#    x 3.879210 0.000000 0.265710 
#    y 0.000000 4.213670 0.000000 
#    z 0.265710 0.000000 3.598750 
# 
# 
# High freq. dielectric constant tensor:
#      x y z
#    x 1.825100 0.000000 0.020600 
#    y 0.000000 1.833570 0.000000 
#    z 0.020600 0.000000 1.805480 
# 
# From -- ./inp_files/31504.got.cif
#   From: 2010.06.25/outbox.cif.g09.slc.cpg/sg12_16_cif.got.tgz:31504.got - 2010.06.28 00:19:55.
