data_PCOD8093976
_publ_section_title
;
Structure prediction by ZEFSAII (Michael W. Deem and Ramdas Pophale) SiO2 
 PCOD8093976
Probable space group: C 2/M
;
_chemical_formula_sum "Si O2"
_cell_formula_units_Z 64
_cell_length_a 20.232284
_cell_length_b 8.879549
_cell_length_c 22.429325
_cell_angle_alpha 90.000000
_cell_angle_beta 124.425603
_cell_angle_gamma 90.000000
_cell_volume 3323.783841
_symmetry_space_group_name_H-M "C 2/M"
_symmetry_group_IT_number 12
_symmetry_cell_setting 'monoclinic'
loop_
_space_group_symop_operation_xyz
x,y,z
-x,y,-z
-x,-y,-z
x,-y,z
1/2+x,1/2+y,z
1/2-x,1/2+y,-z
1/2-x,1/2-y,-z
1/2+x,1/2-y,z
loop_
_atom_site_type_symbol
_atom_site_label
_atom_site_fract_x
_atom_site_fract_y
_atom_site_fract_z
Si Si1 0.964640 0.678451 0.165109
Si Si2 0.295380 0.672975 0.076423
Si Si3 0.405968 0.174339 0.451569
Si Si4 0.977382 0.823363 0.690441
Si Si5 0.165217 0.177028 0.468892
Si Si6 0.457445 0.179671 0.918447
Si Si7 0.719302 0.827512 0.162535
Si Si8 0.629070 0.679581 0.689436
O O1 0.960287 0.500000 0.164977
O O2 0.877776 0.745441 0.133291
O O3 0.023527 0.736511 0.247082
O O4 0.995416 0.734215 0.116238
O O5 0.313665 0.500000 0.070666
O O6 0.236111 0.688900 0.101456
O O7 0.250000 0.750000 0.000000
O O8 0.500000 0.200992 0.500000
O O9 0.368645 0.263210 0.486868
O O10 0.369524 0.241829 0.373273
O O11 0.382830 0.000000 0.444907
O O12 0.051776 0.768933 0.687863
O O13 0.895278 0.780735 0.615323
O O14 0.984528 0.000000 0.707080
O O15 0.250000 0.250000 0.500000
O O16 0.175623 0.000000 0.479520
O O17 0.367181 0.247279 0.868532
O O18 0.454323 0.000000 0.920343
O O19 0.500000 0.242871 0.000000
O O20 0.791650 0.755951 0.237395
O O21 0.715093 0.000000 0.179746
O O22 0.628632 0.500000 0.681795
#
# Coordination Sequence:
#
# PCOD8093976 Si02
#       8
#     8   8   8   8   8   8   8   8
#     4  11  22  35  58  89 118 153 196 242 298 359
#     4  11  21  36  58  85 115 150 195 246 296 352
#     4  11  23  38  60  91 123 157 200 252 305 358
#     4  10  21  39  61  86 120 159 194 242 305 366
#     4  11  24  42  64  89 123 163 207 252 306 369
#     4   9  18  34  55  81 114 150 192 237 282 339
#     4   9  18  34  57  82 110 147 194 242 285 340
#     4  10  19  36  61  87 115 155 203 245 300 362
#
# _framework density 19.255163
#
# number of rings (size 3 to 8) (size 9 to 14) (size 15 to 20)
#    0.000    1.750    2.500    2.250    0.000    5.000 
#    0.000    1.250    0.000    9.000    0.000    0.000 
#    0.000    0.000    0.000    0.000    0.000    0.000 
#
# Total GULP energy -396855.008148 kJ/mol
# GULP energy per Si atom -12401.719005 kJ/mol
# Density = 1.921134 g / cm^3
# Si number density = 19.255163 Si / 1000 Ang^3
#
#
#
# Elastic Constant Matrix: (Units=GPa)
#
#
# Indices 1 2 3 4 5 6 
#
# 1 94.7514 44.3057 47.7271 0.0000 2.1788 0.0000
# 2 44.3057 49.3108 57.4669 0.0000 -0.0349 0.0000
# 3 47.7271 57.4669 146.3978 0.0000 -5.4002 0.0000
# 4 0.0000 0.0000 0.0000 32.6371 0.0000 -4.2246
# 5 2.1788 -0.0349 -5.4002 0.0000 38.5609 0.0000
# 6 0.0000 0.0000 0.0000 -4.2246 0.0000 26.7602
#
#
#
# Elastic Compliance Matrix: (Units=1/GPa)
#
#
# Indices 1 2 3 4 5 6 
#
# 1 0.018298 -0.017417 0.000837 0.000000 -0.000932 0.000000
# 2 -0.017417 0.054117 -0.015607 0.000000 -0.001153 0.000000
# 3 0.000837 -0.015607 0.012748 0.000000 0.001724 0.000000
# 4 0.000000 0.000000 0.000000 0.031279 0.000000 0.004938
# 5 -0.000932 -0.001153 0.001724 0.000000 0.026226 0.000000
# 6 0.000000 0.000000 0.000000 0.004938 0.000000 0.038148
#
#
# Mechanical properties :
#
#
# Convention : Reuss Voigt Hill
#
# Bulk Modulus (GPa) = 48.10427 65.49550 56.79988
# Shear Modulus (GPa) = 19.83187 28.98900 24.41043
#
# Velocity S-wave (km/s) = 3.21277 3.88431 3.56439
# Velocity P-wave (km/s) = 6.22890 7.36244 6.81927
#
# Compressibility (1/GPa) = 0.02078818
#
# Stress axis : x y z
#
# Youngs Moduli (GPa) = 54.65137 18.47861 78.44446
#
# Poissons Ratio (x) = 0.32184 -0.06567
# Poissons Ratio (y) = 0.95185 1.22431
# Poissons Ratio (z) = -0.04575 0.28840
#
# Static dielectric constant tensor:
#      x y z
#    x 3.626620 0.000000 0.162390 
#    y 0.000000 3.360730 0.000000 
#    z 0.162390 0.000000 3.859460 
# 
# 
# High freq. dielectric constant tensor:
#      x y z
#    x 1.753490 0.000000 0.000190 
#    y 0.000000 1.726450 0.000000 
#    z 0.000190 0.000000 1.768400 
# 
# From -- ./inp_files/320120.got.cif
#   From: 2010.06.25/outbox.cif.g09.slc.cpg/sg12_161_cif.got.tgz:320120.got - 2010.06.28 00:19:55.
