data_PCOD8093454
_publ_section_title
;
Structure prediction by ZEFSAII (Michael W. Deem and Ramdas Pophale) SiO2 
 PCOD8093454
Probable space group: C 2/M
;
_chemical_formula_sum "Si O2"
_cell_formula_units_Z 56
_cell_length_a 19.797366
_cell_length_b 20.304358
_cell_length_c 9.083316
_cell_angle_alpha 90.000000
_cell_angle_beta 130.451638
_cell_angle_gamma 90.000000
_cell_volume 2778.429825
_symmetry_space_group_name_H-M "C 2/M"
_symmetry_group_IT_number 12
_symmetry_cell_setting 'monoclinic'
loop_
_space_group_symop_operation_xyz
x,y,z
-x,y,-z
-x,-y,-z
x,-y,z
1/2+x,1/2+y,z
1/2-x,1/2+y,-z
1/2-x,1/2-y,-z
1/2+x,1/2-y,z
loop_
_atom_site_type_symbol
_atom_site_label
_atom_site_fract_x
_atom_site_fract_y
_atom_site_fract_z
Si Si1 0.840541 0.214141 0.103576
Si Si2 0.299733 0.310902 0.727892
Si Si3 0.408779 0.630030 0.440930
Si Si4 0.230942 0.924808 0.543731
Si Si5 0.383907 0.245469 0.587836
Si Si6 0.032856 0.335414 0.704108
Si Si7 0.089588 0.423303 0.037863
O O1 0.846832 0.151606 0.218630
O O2 0.915181 0.267654 0.247376
O O3 0.750000 0.250000 0.000000
O O4 0.847786 0.181550 0.951860
O O5 0.285628 0.380129 0.623617
O O6 0.364985 0.263824 0.729002
O O7 0.207655 0.272401 0.624180
O O8 0.500000 0.599881 0.500000
O O9 0.351925 0.579265 0.459535
O O10 0.431708 0.693845 0.572494
O O11 0.322729 0.900329 0.748847
O O12 0.239554 0.000000 0.502339
O O13 0.445795 0.181646 0.676385
O O14 0.000000 0.364437 0.500000
O O15 0.089175 0.387715 0.877789
O O16 0.096622 0.500000 0.012818
O O17 0.000000 0.406847 0.000000
#
# Coordination Sequence:
#
# PCOD8093454 Si02
#       7
#     8   8   8   8   8   8   8
#     4  12  21  34  56  91 121 152 189 250 313 364
#     4  10  22  34  59  86 118 155 195 251 307 356
#     4  11  20  39  59  87 125 158 205 250 307 369
#     4  10  23  44  63  84 120 168 214 253 296 361
#     4  10  19  36  52  87 120 152 189 241 309 367
#     4  12  22  35  57  87 124 155 186 245 300 363
#     4  10  23  40  61  87 118 163 210 248 296 367
#
# _framework density 20.155270000000002
#
# number of rings (size 3 to 8) (size 9 to 14) (size 15 to 20)
#    0.000    1.286    4.286    1.714    6.000    0.571 
#    0.000    0.714    0.000    6.857    0.000    0.000 
#    0.000    0.000    0.000    0.000    0.000    0.000 
#
# Total GULP energy -347120.378011 kJ/mol
# GULP energy per Si atom -12397.156358 kJ/mol
# Density = 2.010940 g / cm^3
# Si number density = 20.155270 Si / 1000 Ang^3
#
#
#
# Elastic Constant Matrix: (Units=GPa)
#
#
# Indices 1 2 3 4 5 6 
#
# 1 81.3311 7.4062 5.6420 0.0000 19.3280 0.0000
# 2 7.4062 55.6256 20.3361 0.0000 -7.5194 0.0000
# 3 5.6420 20.3361 86.5698 0.0000 -9.9819 0.0000
# 4 0.0000 0.0000 0.0000 15.3776 0.0000 3.1060
# 5 19.3280 -7.5194 -9.9819 0.0000 23.2186 0.0000
# 6 0.0000 0.0000 0.0000 3.1060 0.0000 24.7147
#
#
#
# Elastic Compliance Matrix: (Units=1/GPa)
#
#
# Indices 1 2 3 4 5 6 
#
# 1 0.016518 -0.003583 -0.002056 0.000000 -0.015794 0.000000
# 2 -0.003583 0.020924 -0.003742 0.000000 0.008150 0.000000
# 3 -0.002056 -0.003742 0.013280 0.000000 0.006209 0.000000
# 4 0.000000 0.000000 0.000000 0.066723 0.000000 -0.008386
# 5 -0.015794 0.008150 0.006209 0.000000 0.061525 0.000000
# 6 0.000000 0.000000 0.000000 -0.008386 0.000000 0.041516
#
#
# Mechanical properties :
#
#
# Convention : Reuss Voigt Hill
#
# Bulk Modulus (GPa) = 31.28841 32.25500 31.77171
# Shear Modulus (GPa) = 20.00790 25.33832 22.67311
#
# Velocity S-wave (km/s) = 3.15411 3.54949 3.35762
# Velocity P-wave (km/s) = 5.36861 5.73031 5.55241
#
# Compressibility (1/GPa) = 0.03196072
#
# Stress axis : x y z
#
# Youngs Moduli (GPa) = 60.54119 47.79183 75.29920
#
# Poissons Ratio (x) = 0.17122 0.15482
# Poissons Ratio (y) = 0.21689 0.28177
# Poissons Ratio (z) = 0.12448 0.17884
#
# Static dielectric constant tensor:
#      x y z
#    x 3.833670 0.000000 0.104210 
#    y 0.000000 3.309100 0.000000 
#    z 0.104210 0.000000 3.788740 
# 
# 
# High freq. dielectric constant tensor:
#      x y z
#    x 1.803300 0.000000 0.001480 
#    y 0.000000 1.755800 0.000000 
#    z 0.001480 0.000000 1.786660 
# 
# From -- ./inp_files/89680.got.cif
#   From: 2010.06.25/outbox.cif.g09.slc.cpg/sg12_45_cif.got.tgz:89680.got - 2010.06.28 00:19:55.
