data_PCOD8093406
_publ_section_title
;
Structure prediction by ZEFSAII (Michael W. Deem and Ramdas Pophale) SiO2 
 PCOD8093406
Probable space group: C 2/M
;
_chemical_formula_sum "Si O2"
_cell_formula_units_Z 48
_cell_length_a 13.464791
_cell_length_b 13.495629
_cell_length_c 12.414469
_cell_angle_alpha 90.000000
_cell_angle_beta 85.342596
_cell_angle_gamma 90.000000
_cell_volume 2248.456525
_symmetry_space_group_name_H-M "C 2/M"
_symmetry_group_IT_number 12
_symmetry_cell_setting 'monoclinic'
loop_
_space_group_symop_operation_xyz
x,y,z
-x,y,-z
-x,-y,-z
x,-y,z
1/2+x,1/2+y,z
1/2-x,1/2+y,-z
1/2-x,1/2-y,-z
1/2+x,1/2-y,z
loop_
_atom_site_type_symbol
_atom_site_label
_atom_site_fract_x
_atom_site_fract_y
_atom_site_fract_z
Si Si1 0.919364 0.290771 0.315833
Si Si2 0.111119 0.388082 0.256303
Si Si3 0.763094 0.614014 0.190988
Si Si4 0.891412 0.382916 0.978568
Si Si5 0.943587 0.113386 0.697053
Si Si6 0.855144 0.745717 0.546999
O O1 0.810189 0.312942 0.277822
O O2 0.926355 0.294269 0.445263
O O3 0.990891 0.378032 0.266557
O O4 0.963173 0.182576 0.276291
O O5 0.144826 0.500000 0.271640
O O6 0.146211 0.346415 0.136216
O O7 0.156056 0.325458 0.349464
O O8 0.792234 0.500000 0.213625
O O9 0.643517 0.625175 0.204992
O O10 0.806673 0.647360 0.071722
O O11 0.904302 0.500000 0.968685
O O12 0.000000 0.336930 0.000000
O O13 0.896476 0.148547 0.586302
O O14 0.979756 0.000000 0.683993
O O15 0.750000 0.750000 0.500000
#
# Coordination Sequence:
#
# PCOD8093406 Si02
#       6
#     8   8   8   8   8   8
#     4  11  21  36  59  83 122 149 192 246 292 349
#     4  10  20  34  57  89 117 148 186 237 301 347
#     4  10  19  35  63  90 116 152 193 241 297 352
#     4   9  16  30  55  87 119 147 187 238 292 356
#     4  10  22  39  59  83 113 158 202 236 290 354
#     4  11  23  38  55  82 120 154 196 246 286 350
#
# _framework density 21.347977
#
# number of rings (size 3 to 8) (size 9 to 14) (size 15 to 20)
#    0.000    1.833    3.333    2.500    0.000    4.000 
#    0.000    3.333    3.667    0.000    0.000    9.333 
#    0.000    0.000    0.000    0.000    0.000    0.000 
#
# Total GULP energy -297401.503281 kJ/mol
# GULP energy per Si atom -12391.729303 kJ/mol
# Density = 2.129939 g / cm^3
# Si number density = 21.347977 Si / 1000 Ang^3
#
#
#
# Elastic Constant Matrix: (Units=GPa)
#
#
# Indices 1 2 3 4 5 6 
#
# 1 42.1899 27.5173 22.7114 0.0000 -2.9169 0.0000
# 2 27.5173 102.5977 47.9910 0.0000 6.7085 0.0000
# 3 22.7114 47.9910 155.4041 0.0000 -22.9828 0.0000
# 4 0.0000 0.0000 0.0000 24.9572 0.0000 -5.7331
# 5 -2.9169 6.7085 -22.9828 0.0000 31.4049 0.0000
# 6 0.0000 0.0000 0.0000 -5.7331 0.0000 24.8762
#
#
#
# Elastic Compliance Matrix: (Units=1/GPa)
#
#
# Indices 1 2 3 4 5 6 
#
# 1 0.029602 -0.007416 -0.001564 0.000000 0.003189 0.000000
# 2 -0.007416 0.014208 -0.004322 0.000000 -0.006887 0.000000
# 3 -0.001564 -0.004322 0.009098 0.000000 0.007436 0.000000
# 4 0.000000 0.000000 0.000000 0.042309 0.000000 0.009751
# 5 0.003189 -0.006887 0.007436 0.000000 0.039051 0.000000
# 6 0.000000 0.000000 0.000000 0.009751 0.000000 0.042446
#
#
# Mechanical properties :
#
#
# Convention : Reuss Voigt Hill
#
# Bulk Modulus (GPa) = 38.01957 55.18123 46.60040
# Shear Modulus (GPa) = 23.57522 29.71246 26.64384
#
# Velocity S-wave (km/s) = 3.32675 3.73475 3.53664
# Velocity P-wave (km/s) = 5.71003 6.67101 6.20914
#
# Compressibility (1/GPa) = 0.02630225
#
# Stress axis : x y z
#
# Youngs Moduli (GPa) = 33.78158 70.38295 109.91460
#
# Poissons Ratio (x) = 0.52197 0.17194
# Poissons Ratio (y) = 0.25053 0.47509
# Poissons Ratio (z) = 0.05284 0.30422
#
# Static dielectric constant tensor:
#      x y z
#    x 3.843860 0.000000 -0.394630 
#    y 0.000000 3.735240 0.000000 
#    z -0.394630 0.000000 4.345560 
# 
# 
# High freq. dielectric constant tensor:
#      x y z
#    x 1.832340 0.000000 -0.023850 
#    y 0.000000 1.815500 0.000000 
#    z -0.023850 0.000000 1.840970 
# 
# From -- ./inp_files/143094.got.cif
#   From: 2010.06.25/outbox.cif.g09.slc.cpg/sg12_72_cif.got.tgz:143094.got - 2010.06.28 00:19:55.
