data_PCOD8093205
_publ_section_title
;
Structure prediction by ZEFSAII (Michael W. Deem and Ramdas Pophale) SiO2 
 PCOD8093205
Probable space group: C 2/M
;
_chemical_formula_sum "Si O2"
_cell_formula_units_Z 48
_cell_length_a 20.553967
_cell_length_b 8.614465
_cell_length_c 21.242289
_cell_angle_alpha 90.000000
_cell_angle_beta 41.377821
_cell_angle_gamma 90.000000
_cell_volume 2486.227304
_symmetry_space_group_name_H-M "C 2/M"
_symmetry_group_IT_number 12
_symmetry_cell_setting 'monoclinic'
loop_
_space_group_symop_operation_xyz
x,y,z
-x,y,-z
-x,-y,-z
x,-y,z
1/2+x,1/2+y,z
1/2-x,1/2+y,-z
1/2-x,1/2-y,-z
1/2+x,1/2-y,z
loop_
_atom_site_type_symbol
_atom_site_label
_atom_site_fract_x
_atom_site_fract_y
_atom_site_fract_z
Si Si1 0.515007 0.184410 0.817338
Si Si2 0.410487 0.819702 0.017901
Si Si3 0.828018 0.683309 0.491879
Si Si4 0.725088 0.182102 0.215722
Si Si5 0.734876 0.817094 0.679582
Si Si6 0.530850 0.815798 0.286879
O O1 0.624911 0.249352 0.749025
O O2 0.474093 0.249549 0.780957
O O3 0.521181 0.000000 0.813592
O O4 0.442834 0.239346 0.925406
O O5 0.319205 0.715170 0.104329
O O6 0.379272 0.000000 0.040986
O O7 0.500000 0.791399 0.000000
O O8 0.822581 0.500000 0.491838
O O9 0.750000 0.750000 0.500000
O O10 0.808042 0.738483 0.576977
O O11 0.936301 0.743709 0.394214
O O12 0.729316 0.276310 0.277051
O O13 0.629389 0.245107 0.248445
O O14 0.718036 0.000000 0.235428
O O15 0.738095 0.000000 0.667026
O O16 0.531492 0.000000 0.283447
#
# Coordination Sequence:
#
# PCOD8093205 Si02
#       6
#     8   8   8   8   8   8
#     4   9  17  34  60  83 108 151 197 228 277 354
#     4  10  19  35  60  86 112 151 196 237 289 350
#     4  11  21  37  62  90 117 152 198 241 287 344
#     4  11  23  38  57  85 120 153 192 242 291 343
#     4  11  21  38  62  86 115 153 196 241 290 346
#     4   9  20  38  58  82 118 159 190 229 293 356
#
# _framework density 19.306362
#
# number of rings (size 3 to 8) (size 9 to 14) (size 15 to 20)
#    0.000    1.833    3.333    1.500    0.000    1.667 
#    0.000    6.667    0.000    0.000    0.000    0.000 
#    0.000    0.000    0.000    0.000    0.000    0.000 
#
# Total GULP energy -297655.667852 kJ/mol
# GULP energy per Si atom -12402.319494 kJ/mol
# Density = 1.926242 g / cm^3
# Si number density = 19.306362 Si / 1000 Ang^3
#
#
#
# Elastic Constant Matrix: (Units=GPa)
#
#
# Indices 1 2 3 4 5 6 
#
# 1 139.8647 12.1984 68.3644 -0.0003 4.0605 0.0003
# 2 12.1984 35.1628 18.7370 -0.0001 -5.1474 -0.0001
# 3 68.3644 18.7370 157.9985 -0.0002 13.4293 0.0002
# 4 -0.0003 -0.0001 -0.0002 32.5065 0.0001 2.0589
# 5 4.0605 -5.1474 13.4293 0.0001 36.7760 -0.0001
# 6 0.0003 -0.0001 0.0002 2.0589 -0.0001 25.2308
#
#
#
# Elastic Compliance Matrix: (Units=1/GPa)
#
#
# Indices 1 2 3 4 5 6 
#
# 1 0.009111 -0.001082 -0.003835 0.000000 0.000243 0.000000
# 2 -0.001082 0.031708 -0.003797 0.000000 0.005944 0.000000
# 3 -0.003835 -0.003797 0.008719 0.000000 -0.003292 0.000000
# 4 0.000000 0.000000 0.000000 0.030923 0.000000 -0.002523
# 5 0.000243 0.005944 -0.003292 0.000000 0.029199 0.000000
# 6 0.000000 0.000000 0.000000 -0.002523 0.000000 0.039840
#
#
# Mechanical properties :
#
#
# Convention : Reuss Voigt Hill
#
# Bulk Modulus (GPa) = 31.14290 59.06951 45.10620
# Shear Modulus (GPa) = 28.14820 34.48442 31.31631
#
# Velocity S-wave (km/s) = 3.82249 4.23089 4.03186
# Velocity P-wave (km/s) = 5.97058 7.38441 6.71481
#
# Compressibility (1/GPa) = 0.03211005
#
# Stress axis : x y z
#
# Youngs Moduli (GPa) = 109.75164 31.53769 114.69772
#
# Poissons Ratio (x) = 0.03412 0.43984
# Poissons Ratio (y) = 0.11874 0.43555
# Poissons Ratio (z) = 0.42087 0.11976
#
# Static dielectric constant tensor:
#      x y z
#    x 3.644850 0.000000 -0.002650 
#    y 0.000000 3.247000 0.000000 
#    z -0.002650 0.000000 3.725100 
# 
# 
# High freq. dielectric constant tensor:
#      x y z
#    x 1.754670 0.000000 0.008000 
#    y 0.000000 1.723290 0.000000 
#    z 0.008000 0.000000 1.767290 
# 
# From -- ./inp_files/229952.got.cif
#   From: 2010.06.25/outbox.cif.g09.slc.cpg/sg12_115_cif.got.tgz:229952.got - 2010.06.28 00:19:55.
