data_PCOD8093877
_publ_section_title
;
Structure prediction by ZEFSAII (Michael W. Deem and Ramdas Pophale) SiO2 
 PCOD8093877
Probable space group: C 2/M
;
_chemical_formula_sum "Si O2"
_cell_formula_units_Z 56
_cell_length_a 20.175120
_cell_length_b 9.044748
_cell_length_c 22.694403
_cell_angle_alpha 90.000000
_cell_angle_beta 133.590023
_cell_angle_gamma 90.000000
_cell_volume 2999.473365
_symmetry_space_group_name_H-M "C 2/M"
_symmetry_group_IT_number 12
_symmetry_cell_setting 'monoclinic'
loop_
_space_group_symop_operation_xyz
x,y,z
-x,y,-z
-x,-y,-z
x,-y,z
1/2+x,1/2+y,z
1/2-x,1/2+y,-z
1/2-x,1/2-y,-z
1/2+x,1/2-y,z
loop_
_atom_site_type_symbol
_atom_site_label
_atom_site_fract_x
_atom_site_fract_y
_atom_site_fract_z
Si Si1 0.510261 0.331816 0.666914
Si Si2 0.564842 0.828493 0.267803
Si Si3 0.884073 0.329627 0.096156
Si Si4 0.738272 0.172942 0.082748
Si Si5 0.282654 0.672078 0.237134
Si Si6 0.084420 0.169422 0.512513
Si Si7 0.257938 0.325190 0.668663
O O1 0.510012 0.500000 0.691058
O O2 0.481800 0.218129 0.699752
O O3 0.610472 0.290777 0.704389
O O4 0.438274 0.314751 0.569986
O O5 0.492126 0.801754 0.170119
O O6 0.652600 0.729546 0.310340
O O7 0.593037 0.000000 0.288884
O O8 0.859526 0.500000 0.091035
O O9 0.830158 0.241988 0.113026
O O10 0.850931 0.279837 0.010258
O O11 0.727575 0.220596 0.144297
O O12 0.755608 0.000000 0.091158
O O13 0.268062 0.500000 0.242851
O O14 0.240723 0.766002 0.264113
O O15 0.171009 0.269989 0.579050
O O16 0.000000 0.226256 0.500000
O O17 0.107190 0.000000 0.543673
O O18 0.257734 0.500000 0.669562
#
# Coordination Sequence:
#
# PCOD8093877 Si02
#       7
#     8   8   8   8   8   8   8
#     4  10  20  36  62  89 114 147 189 232 279 339
#     4  11  23  39  58  82 119 157 191 232 284 339
#     4   9  18  32  53  85 117 148 187 232 278 329
#     4   9  17  31  56  86 115 147 186 231 279 333
#     4  10  19  36  60  86 115 151 190 230 283 341
#     4  10  20  39  63  86 114 148 186 231 285 341
#     4  12  26  40  58  83 115 151 193 239 286 339
#
# _framework density 18.669944000000001
#
# number of rings (size 3 to 8) (size 9 to 14) (size 15 to 20)
#    0.000    1.857    2.857    1.714    0.000    3.143 
#    0.000    0.714    0.000    4.286    0.000    0.000 
#    0.000    0.000    0.000    0.000    0.000    0.000 
#
# Total GULP energy -347230.013010 kJ/mol
# GULP energy per Si atom -12401.071893 kJ/mol
# Density = 1.862745 g / cm^3
# Si number density = 18.669944 Si / 1000 Ang^3
#
#
#
# Elastic Constant Matrix: (Units=GPa)
#
#
# Indices 1 2 3 4 5 6 
#
# 1 51.0637 24.3248 22.0827 0.0000 -0.6721 0.0000
# 2 24.3248 71.1378 31.3367 0.0000 0.3842 0.0000
# 3 22.0827 31.3367 91.8311 0.0000 -5.2561 0.0000
# 4 0.0000 0.0000 0.0000 23.4450 0.0000 -3.6008
# 5 -0.6721 0.3842 -5.2561 0.0000 25.8550 0.0000
# 6 0.0000 0.0000 0.0000 -3.6008 0.0000 30.9156
#
#
#
# Elastic Compliance Matrix: (Units=1/GPa)
#
#
# Indices 1 2 3 4 5 6 
#
# 1 0.024337 -0.006760 -0.003545 0.000000 0.000013 0.000000
# 2 -0.006760 0.018473 -0.004759 0.000000 -0.001418 0.000000
# 3 -0.003545 -0.004759 0.013522 0.000000 0.002728 0.000000
# 4 0.000000 0.000000 0.000000 0.043430 0.000000 0.005058
# 5 0.000013 -0.001418 0.002728 0.000000 0.039253 0.000000
# 6 0.000000 0.000000 0.000000 0.005058 0.000000 0.032935
#
#
# Mechanical properties :
#
#
# Convention : Reuss Voigt Hill
#
# Bulk Modulus (GPa) = 38.16296 41.05789 39.61043
# Shear Modulus (GPa) = 23.71767 25.12901 24.42334
#
# Velocity S-wave (km/s) = 3.56809 3.67271 3.62078
# Velocity P-wave (km/s) = 6.12048 6.32647 6.22433
#
# Compressibility (1/GPa) = 0.02620342
#
# Stress axis : x y z
#
# Youngs Moduli (GPa) = 41.08999 54.13308 73.95288
#
# Poissons Ratio (x) = 0.36596 0.26214
# Poissons Ratio (y) = 0.27778 0.35196
# Poissons Ratio (z) = 0.14565 0.25763
#
# Static dielectric constant tensor:
#      x y z
#    x 3.206380 0.000000 -0.108110 
#    y 0.000000 3.361610 0.000000 
#    z -0.108110 0.000000 3.817610 
# 
# 
# High freq. dielectric constant tensor:
#      x y z
#    x 1.703770 0.000000 -0.008530 
#    y 0.000000 1.718650 0.000000 
#    z -0.008530 0.000000 1.743460 
# 
# From -- ./inp_files/342599.got.cif
#   From: 2010.06.25/outbox.cif.g09.slc.cpg/sg12_172_cif.got.tgz:342599.got - 2010.06.28 00:19:55.
