data_PCOD8093280
_publ_section_title
;
Structure prediction by ZEFSAII (Michael W. Deem and Ramdas Pophale) SiO2 
 PCOD8093280
Probable space group: C 2/M
;
_chemical_formula_sum "Si O2"
_cell_formula_units_Z 64
_cell_length_a 22.232108
_cell_length_b 13.848726
_cell_length_c 9.949969
_cell_angle_alpha 90.000000
_cell_angle_beta 95.892944
_cell_angle_gamma 90.000000
_cell_volume 3047.270908
_symmetry_space_group_name_H-M "C 2/M"
_symmetry_group_IT_number 12
_symmetry_cell_setting 'monoclinic'
loop_
_space_group_symop_operation_xyz
x,y,z
-x,y,-z
-x,-y,-z
x,-y,z
1/2+x,1/2+y,z
1/2-x,1/2+y,-z
1/2-x,1/2-y,-z
1/2+x,1/2-y,z
loop_
_atom_site_type_symbol
_atom_site_label
_atom_site_fract_x
_atom_site_fract_y
_atom_site_fract_z
Si Si1 0.759101 0.839867 0.901221
Si Si2 0.556402 0.717797 0.287993
Si Si3 0.920881 0.791314 0.237943
Si Si4 0.758653 0.617645 0.399064
Si Si5 0.372550 0.895300 0.105948
Si Si6 0.343803 0.713005 0.466693
Si Si7 0.107488 0.108037 0.042021
Si Si8 0.052313 0.390874 0.114360
O O1 0.764281 0.825385 0.740628
O O2 0.699353 0.904037 0.898755
O O3 0.750000 0.750000 0.000000
O O4 0.819985 0.893284 0.957081
O O5 0.487870 0.688004 0.311108
O O6 0.598763 0.705108 0.424072
O O7 0.552978 0.830200 0.249634
O O8 0.583329 0.660977 0.167688
O O9 0.905860 0.678302 0.212592
O O10 0.868983 0.825846 0.329418
O O11 0.919122 0.844912 0.096566
O O12 0.768475 0.500000 0.385944
O O13 0.707830 0.637601 0.500074
O O14 0.819669 0.675394 0.456188
O O15 0.400708 0.000000 0.147973
O O16 0.385307 0.871685 0.952184
O O17 0.083358 0.000000 0.046038
O O18 0.043473 0.500000 0.158294
O O19 0.000000 0.356599 0.000000
#
# Coordination Sequence:
#
# PCOD8093280 Si02
#       8
#     8   8   8   8   8   8   8   8
#     4  12  21  40  71 101 130 162 217 276 336 393
#     4  12  23  42  66  95 132 173 222 276 330 390
#     4  12  24  43  64  95 134 173 222 277 325 388
#     4  11  24  46  70  93 134 182 218 270 340 401
#     4  11  21  36  63  95 129 168 210 263 337 400
#     4  11  26  43  68  97 131 176 225 270 326 406
#     4  12  25  43  69  98 130 172 222 276 333 394
#     4  10  19  35  60  93 132 171 209 265 333 393
#
# _framework density 21.002400000000002
#
# number of rings (size 3 to 8) (size 9 to 14) (size 15 to 20)
#    0.000    0.625    6.250    1.875    0.000    2.000 
#    0.000    0.000    0.000    4.500    0.000    0.000 
#    0.000    0.000    0.000    0.000    0.000    0.000 
#
# Total GULP energy -396509.798145 kJ/mol
# GULP energy per Si atom -12390.931192 kJ/mol
# Density = 2.095460 g / cm^3
# Si number density = 21.002400 Si / 1000 Ang^3
#
#
#
# Elastic Constant Matrix: (Units=GPa)
#
#
# Indices 1 2 3 4 5 6 
#
# 1 112.8588 17.6368 12.8917 0.0000 -1.2158 0.0000
# 2 17.6368 96.6911 38.1547 0.0000 -4.7468 0.0000
# 3 12.8917 38.1547 85.7258 0.0000 -3.8840 0.0000
# 4 0.0000 0.0000 0.0000 12.3680 0.0000 -3.3968
# 5 -1.2158 -4.7468 -3.8840 0.0000 37.0516 0.0000
# 6 0.0000 0.0000 0.0000 -3.3968 0.0000 11.9262
#
#
#
# Elastic Compliance Matrix: (Units=1/GPa)
#
#
# Indices 1 2 3 4 5 6 
#
# 1 0.009162 -0.001366 -0.000768 0.000000 0.000045 0.000000
# 2 -0.001366 0.012788 -0.005440 0.000000 0.001023 0.000000
# 3 -0.000768 -0.005440 0.014237 0.000000 0.000770 0.000000
# 4 0.000000 0.000000 0.000000 0.087715 0.000000 0.024983
# 5 0.000045 0.001023 0.000770 0.000000 0.027203 0.000000
# 6 0.000000 0.000000 0.000000 0.024983 0.000000 0.090965
#
#
# Mechanical properties :
#
#
# Convention : Reuss Voigt Hill
#
# Bulk Modulus (GPa) = 47.52949 48.07134 47.80041
# Shear Modulus (GPa) = 18.92289 27.37533 23.14911
#
# Velocity S-wave (km/s) = 3.00490 3.61423 3.32356
# Velocity P-wave (km/s) = 5.89227 6.35257 6.12674
#
# Compressibility (1/GPa) = 0.02103957
#
# Stress axis : x y z
#
# Youngs Moduli (GPa) = 109.14290 78.19671 70.24103
#
# Poissons Ratio (x) = 0.10682 0.05393
# Poissons Ratio (y) = 0.14909 0.38211
# Poissons Ratio (z) = 0.08380 0.42539
#
# Static dielectric constant tensor:
#      x y z
#    x 4.153920 0.000000 -0.159190 
#    y 0.000000 3.760230 0.000000 
#    z -0.159190 0.000000 3.938180 
# 
# 
# High freq. dielectric constant tensor:
#      x y z
#    x 1.843620 0.000000 -0.018400 
#    y 0.000000 1.809860 0.000000 
#    z -0.018400 0.000000 1.811960 
# 
# From -- ./inp_files/96877.got.cif
#   From: 2010.06.25/outbox.cif.g09.slc.cpg/sg12_49_cif.got.tgz:96877.got - 2010.06.28 00:19:55.
