data_PCOD8093323
_publ_section_title
;
Structure prediction by ZEFSAII (Michael W. Deem and Ramdas Pophale) SiO2 
 PCOD8093323
Probable space group: C 2/M
;
_chemical_formula_sum "Si O2"
_cell_formula_units_Z 56
_cell_length_a 25.077048
_cell_length_b 8.890069
_cell_length_c 14.438932
_cell_angle_alpha 90.000000
_cell_angle_beta 119.564919
_cell_angle_gamma 90.000000
_cell_volume 2799.849051
_symmetry_space_group_name_H-M "C 2/M"
_symmetry_group_IT_number 12
_symmetry_cell_setting 'monoclinic'
loop_
_space_group_symop_operation_xyz
x,y,z
-x,y,-z
-x,-y,-z
x,-y,z
1/2+x,1/2+y,z
1/2-x,1/2+y,-z
1/2-x,1/2-y,-z
1/2+x,1/2-y,z
loop_
_atom_site_type_symbol
_atom_site_label
_atom_site_fract_x
_atom_site_fract_y
_atom_site_fract_z
Si Si1 0.797274 0.822390 0.610457
Si Si2 0.925031 0.326425 0.695261
Si Si3 0.258693 0.678415 0.781597
Si Si4 0.013871 0.169397 0.904924
Si Si5 0.148905 0.822610 0.984920
Si Si6 0.520833 0.173846 0.618936
Si Si7 0.646872 0.323432 0.774993
O O1 0.750000 0.750000 0.500000
O O2 0.864569 0.773141 0.638070
O O3 0.783022 0.767686 0.702766
O O4 0.791712 0.000000 0.598631
O O5 0.906478 0.500000 0.689612
O O6 0.964545 0.278095 0.817114
O O7 0.963195 0.296428 0.635272
O O8 0.255028 0.500000 0.783877
O O9 0.190750 0.742607 0.738999
O O10 0.303569 0.745587 0.899703
O O11 0.080910 0.240863 0.945660
O O12 0.009358 0.000000 0.858953
O O13 0.000000 0.163312 0.000000
O O14 0.168591 0.778906 0.897566
O O15 0.146559 0.000000 0.997443
O O16 0.500000 0.226189 0.500000
O O17 0.577253 0.273493 0.700944
O O18 0.541243 0.000000 0.637578
O O19 0.650980 0.500000 0.762648
#
# Coordination Sequence:
#
# PCOD8093323 Si02
#       7
#     8   8   8   8   8   8   8
#     4  11  25  44  66  89 120 162 206 253 305 361
#     4  11  23  40  63  92 124 157 202 255 304 357
#     4  10  22  41  63  86 119 165 206 241 296 368
#     4  10  19  35  61  88 121 164 205 245 299 365
#     4   9  18  35  58  88 122 156 199 243 293 359
#     4  10  23  42  63  87 120 164 206 244 299 367
#     4  11  22  37  61  94 126 155 196 254 305 350
#
# _framework density 20.001078
#
# number of rings (size 3 to 8) (size 9 to 14) (size 15 to 20)
#    0.000    1.714    1.429    2.571    2.000    4.571 
#    0.000    1.429    0.000    0.000    0.000    0.000 
#    0.000    0.000    0.000    0.000    0.000    0.000 
#
# Total GULP energy -347313.982602 kJ/mol
# GULP energy per Si atom -12404.070807 kJ/mol
# Density = 1.995555 g / cm^3
# Si number density = 20.001078 Si / 1000 Ang^3
#
#
#
# Elastic Constant Matrix: (Units=GPa)
#
#
# Indices 1 2 3 4 5 6 
#
# 1 123.8986 38.5491 52.3116 0.0000 2.7759 0.0000
# 2 38.5491 44.9944 40.8390 0.0000 -7.7419 0.0000
# 3 52.3116 40.8390 134.3701 0.0000 -9.9217 0.0000
# 4 0.0000 0.0000 0.0000 39.5646 0.0000 5.7180
# 5 2.7759 -7.7419 -9.9217 0.0000 23.5380 0.0000
# 6 0.0000 0.0000 0.0000 5.7180 0.0000 32.2347
#
#
#
# Elastic Compliance Matrix: (Units=1/GPa)
#
#
# Indices 1 2 3 4 5 6 
#
# 1 0.012000 -0.009123 -0.002296 0.000000 -0.005384 0.000000
# 2 -0.009123 0.038578 -0.007387 0.000000 0.010651 0.000000
# 3 -0.002296 -0.007387 0.010757 0.000000 0.002375 0.000000
# 4 0.000000 0.000000 0.000000 0.025940 0.000000 -0.004601
# 5 -0.005384 0.010651 0.002375 0.000000 0.047624 0.000000
# 6 0.000000 0.000000 0.000000 -0.004601 0.000000 0.031839
#
#
# Mechanical properties :
#
#
# Convention : Reuss Voigt Hill
#
# Bulk Modulus (GPa) = 42.15455 62.96253 52.55854
# Shear Modulus (GPa) = 23.55625 30.50501 27.03063
#
# Velocity S-wave (km/s) = 3.43556 3.90958 3.68021
# Velocity P-wave (km/s) = 6.07119 7.20608 6.66284
#
# Compressibility (1/GPa) = 0.02372223
#
# Stress axis : x y z
#
# Youngs Moduli (GPa) = 83.33504 25.92119 92.96521
#
# Poissons Ratio (x) = 0.23647 0.21349
# Poissons Ratio (y) = 0.76025 0.68674
# Poissons Ratio (z) = 0.19138 0.19148
#
# Static dielectric constant tensor:
#      x y z
#    x 3.901410 0.000000 0.024800 
#    y 0.000000 3.550530 0.000000 
#    z 0.024800 0.000000 3.751380 
# 
# 
# High freq. dielectric constant tensor:
#      x y z
#    x 1.795620 0.000000 -0.001520 
#    y 0.000000 1.763530 0.000000 
#    z -0.001520 0.000000 1.788360 
# 
# From -- ./inp_files/238903.got.cif
#   From: 2010.06.25/outbox.cif.g09.slc.cpg/sg12_120_cif.got.tgz:238903.got - 2010.06.28 00:19:55.
