data_PCOD8093835
_publ_section_title
;
Structure prediction by ZEFSAII (Michael W. Deem and Ramdas Pophale) SiO2 
 PCOD8093835
Probable space group: C 2/M
;
_chemical_formula_sum "Si O2"
_cell_formula_units_Z 64
_cell_length_a 20.253396
_cell_length_b 8.701229
_cell_length_c 33.897033
_cell_angle_alpha 90.000000
_cell_angle_beta 144.948452
_cell_angle_gamma 90.000000
_cell_volume 3430.748820
_symmetry_space_group_name_H-M "C 2/M"
_symmetry_group_IT_number 12
_symmetry_cell_setting 'monoclinic'
loop_
_space_group_symop_operation_xyz
x,y,z
-x,y,-z
-x,-y,-z
x,-y,z
1/2+x,1/2+y,z
1/2-x,1/2+y,-z
1/2-x,1/2-y,-z
1/2+x,1/2-y,z
loop_
_atom_site_type_symbol
_atom_site_label
_atom_site_fract_x
_atom_site_fract_y
_atom_site_fract_z
Si Si1 0.467574 0.677240 0.420657
Si Si2 0.564688 0.820148 0.678039
Si Si3 0.225872 0.323046 0.176538
Si Si4 0.078024 0.181415 0.324510
Si Si5 0.124850 0.176229 0.826108
Si Si6 0.730574 0.181409 0.032803
Si Si7 0.005775 0.178817 0.957015
Si Si8 0.684654 0.676669 0.580383
O O1 0.460524 0.500000 0.403872
O O2 0.460745 0.787840 0.380011
O O3 0.587920 0.710506 0.500753
O O4 0.363761 0.715717 0.399907
O O5 0.683302 0.736795 0.747057
O O6 0.457682 0.759192 0.651681
O O7 0.578430 0.000000 0.691849
O O8 0.197725 0.500000 0.172103
O O9 0.275850 0.302281 0.157427
O O10 0.110932 0.222691 0.122752
O O11 0.208133 0.215560 0.376722
O O12 0.994079 0.248147 0.248775
O O13 0.059093 0.000000 0.320371
O O14 0.172415 0.251847 0.889815
O O15 0.100003 0.000000 0.822736
O O16 0.742334 0.000000 0.036773
O O17 0.750000 0.250000 0.000000
O O18 0.604855 0.222122 0.986027
O O19 0.031455 0.000000 0.963373
O O20 0.000000 0.223153 0.000000
O O21 0.723868 0.500000 0.597527
#
# Coordination Sequence:
#
# PCOD8093835 Si02
#       8
#     8   8   8   8   8   8   8   8
#     4   9  19  38  60  81 113 151 186 228 281 333
#     4  11  22  36  56  85 117 148 185 233 281 327
#     4  10  19  36  60  84 110 147 190 230 281 335
#     4  10  20  36  58  84 111 147 188 230 281 335
#     4   8  17  34  56  78 106 145 184 225 277 334
#     4  11  22  39  58  80 112 151 192 234 285 338
#     4  11  22  36  58  88 115 144 188 236 280 332
#     4   9  19  37  60  84 110 147 190 232 276 329
#
# _framework density 18.654820000000001
#
# number of rings (size 3 to 8) (size 9 to 14) (size 15 to 20)
#    0.000    2.125    1.250    4.125    0.000    2.000 
#    2.250    3.125    0.000    0.000    0.000    0.000 
#    0.000    0.000    0.000    0.000    0.000    0.000 
#
# Total GULP energy -396791.722114 kJ/mol
# GULP energy per Si atom -12399.741316 kJ/mol
# Density = 1.861236 g / cm^3
# Si number density = 18.654820 Si / 1000 Ang^3
#
#
#
# Elastic Constant Matrix: (Units=GPa)
#
#
# Indices 1 2 3 4 5 6 
#
# 1 93.2612 31.6818 58.2463 -0.0002 -7.4625 -0.0001
# 2 31.6818 65.4484 29.7158 -0.0003 -7.2833 -0.0007
# 3 58.2463 29.7158 98.1138 -0.0001 -4.5155 0.0001
# 4 -0.0002 -0.0003 -0.0001 30.0675 0.0000 2.5049
# 5 -7.4625 -7.2833 -4.5155 0.0000 30.6942 0.0000
# 6 -0.0001 -0.0007 0.0001 2.5049 0.0000 32.5226
#
#
#
# Elastic Compliance Matrix: (Units=1/GPa)
#
#
# Indices 1 2 3 4 5 6 
#
# 1 0.018240 -0.004325 -0.009426 0.000000 0.002022 0.000000
# 2 -0.004325 0.019109 -0.003080 0.000000 0.003030 0.000000
# 3 -0.009426 -0.003080 0.016695 0.000000 -0.000567 0.000000
# 4 0.000000 0.000000 0.000000 0.033473 0.000000 -0.002578
# 5 0.002022 0.003030 -0.000567 0.000000 0.033707 0.000000
# 6 0.000000 0.000000 0.000000 -0.002578 0.000000 0.030946
#
#
# Mechanical properties :
#
#
# Convention : Reuss Voigt Hill
#
# Bulk Modulus (GPa) = 49.06394 55.12346 52.09370
# Shear Modulus (GPa) = 25.95703 27.80216 26.87959
#
# Velocity S-wave (km/s) = 3.73425 3.86469 3.80003
# Velocity P-wave (km/s) = 6.70454 7.03760 6.87308
#
# Compressibility (1/GPa) = 0.02038157
#
# Stress axis : x y z
#
# Youngs Moduli (GPa) = 54.82332 52.33241 59.89914
#
# Poissons Ratio (x) = 0.22635 0.56459
# Poissons Ratio (y) = 0.23712 0.18451
# Poissons Ratio (z) = 0.51674 0.16120
#
# Static dielectric constant tensor:
#      x y z
#    x 3.282550 0.000000 -0.096220 
#    y 0.000000 3.313660 0.000000 
#    z -0.096220 0.000000 3.627400 
# 
# 
# High freq. dielectric constant tensor:
#      x y z
#    x 1.712670 0.000000 0.000630 
#    y 0.000000 1.718220 0.000000 
#    z 0.000630 0.000000 1.734610 
# 
# From -- ./inp_files/378419.got.cif
#   From: 2010.06.25/outbox.cif.g09.slc.cpg/sg12_190_cif.got.tgz:378419.got - 2010.06.28 00:19:55.
