data_PCOD8093453
_publ_section_title
;
Structure prediction by ZEFSAII (Michael W. Deem and Ramdas Pophale) SiO2 
 PCOD8093453
Probable space group: C 2/M
;
_chemical_formula_sum "Si O2"
_cell_formula_units_Z 40
_cell_length_a 13.946152
_cell_length_b 9.711203
_cell_length_c 18.797697
_cell_angle_alpha 90.000000
_cell_angle_beta 132.697847
_cell_angle_gamma 90.000000
_cell_volume 1871.044009
_symmetry_space_group_name_H-M "C 2/M"
_symmetry_group_IT_number 12
_symmetry_cell_setting 'monoclinic'
loop_
_space_group_symop_operation_xyz
x,y,z
-x,y,-z
-x,-y,-z
x,-y,z
1/2+x,1/2+y,z
1/2-x,1/2+y,-z
1/2-x,1/2-y,-z
1/2+x,1/2-y,z
loop_
_atom_site_type_symbol
_atom_site_label
_atom_site_fract_x
_atom_site_fract_y
_atom_site_fract_z
Si Si1 0.513600 0.790095 0.281261
Si Si2 0.746102 0.767434 0.204095
Si Si3 0.363385 0.500000 0.893689
Si Si4 0.879827 0.500000 0.123500
Si Si5 0.320599 0.500000 0.332082
Si Si6 0.277440 0.000000 0.569234
Si Si7 0.150372 0.500000 0.056432
Si Si8 0.564850 0.500000 0.348964
O O1 0.390866 0.796138 0.273048
O O2 0.553009 0.630579 0.290545
O O3 0.469498 0.865687 0.186028
O O4 0.632669 0.865516 0.380251
O O5 0.646468 0.639026 0.158864
O O6 0.735296 0.863984 0.268437
O O7 0.719232 0.862904 0.121268
O O8 0.250691 0.500000 0.895984
O O9 0.500000 0.500000 0.000000
O O10 0.834186 0.500000 0.020033
O O11 0.332615 0.500000 0.423196
O O12 0.454906 0.500000 0.355713
O O13 0.204872 0.000000 0.457602
O O14 0.000000 0.500000 0.000000
#
# Coordination Sequence:
#
# PCOD8093453 Si02
#       8
#     8   8   4   4   4   4   4   4
#     4   9  20  36  57  82 118 148 182 240 291 340
#     4   9  20  38  55  79 118 155 188 235 294 331
#     4  10  19  36  52  80 114 156 197 243 285 328
#     4   9  21  38  56  83 116 157 199 234 294 348
#     4   9  20  37  59  82 114 152 193 236 280 349
#     4  11  20  35  62  90 111 149 195 231 293 361
#     4  11  22  36  61  84 115 158 202 243 282 345
#     4  10  19  38  61  88 113 146 188 245 293 347
#
# _framework density 21.378440000000001
#
# number of rings (size 3 to 8) (size 9 to 14) (size 15 to 20)
#    0.000    2.400    0.000    2.700    5.600    3.200 
#    3.600    2.000    0.000    0.000    0.000   19.600 
#    0.000    0.000    0.000    0.000    0.000    0.000 
#
# Total GULP energy -247896.171976 kJ/mol
# GULP energy per Si atom -12394.808599 kJ/mol
# Density = 2.132978 g / cm^3
# Si number density = 21.378440 Si / 1000 Ang^3
#
#
#
# Elastic Constant Matrix: (Units=GPa)
#
#
# Indices 1 2 3 4 5 6 
#
# 1 41.2224 8.7184 13.1543 0.0000 7.7129 0.0000
# 2 8.7184 177.1227 44.3035 0.0000 4.9082 0.0000
# 3 13.1543 44.3035 98.7645 0.0000 4.9692 0.0000
# 4 0.0000 0.0000 0.0000 26.8748 0.0000 12.9851
# 5 7.7129 4.9082 4.9692 0.0000 34.0144 0.0000
# 6 0.0000 0.0000 0.0000 12.9851 0.0000 12.8099
#
#
#
# Elastic Compliance Matrix: (Units=1/GPa)
#
#
# Indices 1 2 3 4 5 6 
#
# 1 0.026340 -0.000379 -0.003063 0.000000 -0.005470 0.000000
# 2 -0.000379 0.006373 -0.002787 0.000000 -0.000427 0.000000
# 3 -0.003063 -0.002787 0.011815 0.000000 -0.000629 0.000000
# 4 0.000000 0.000000 0.000000 0.072928 0.000000 -0.073926
# 5 -0.005470 -0.000427 -0.000629 0.000000 0.030793 0.000000
# 6 0.000000 0.000000 0.000000 -0.073926 0.000000 0.153001
#
#
# Mechanical properties :
#
#
# Convention : Reuss Voigt Hill
#
# Bulk Modulus (GPa) = 31.18139 49.94022 40.56081
# Shear Modulus (GPa) = 15.41313 31.46869 23.44091
#
# Velocity S-wave (km/s) = 2.68799 3.84080 3.31490
# Velocity P-wave (km/s) = 4.92452 6.56352 5.80218
#
# Compressibility (1/GPa) = 0.03207041
#
# Stress axis : x y z
#
# Youngs Moduli (GPa) = 37.96546 156.90245 84.63871
#
# Poissons Ratio (x) = 0.05943 0.25925
# Poissons Ratio (y) = 0.01438 0.23589
# Poissons Ratio (z) = 0.11629 0.43729
#
# Static dielectric constant tensor:
#      x y z
#    x 3.554410 0.000000 0.248090 
#    y 0.000000 4.396460 0.000000 
#    z 0.248090 0.000000 3.852030 
# 
# 
# High freq. dielectric constant tensor:
#      x y z
#    x 1.811650 0.000000 0.029110 
#    y 0.000000 1.856290 0.000000 
#    z 0.029110 0.000000 1.830360 
# 
# From -- ./inp_files/308728.got.cif
#   From: 2010.06.25/outbox.cif.g09.slc.cpg/sg12_155_cif.got.tgz:308728.got - 2010.06.28 00:19:55.
