data_PCOD8093409
_publ_section_title
;
Structure prediction by ZEFSAII (Michael W. Deem and Ramdas Pophale) SiO2 
 PCOD8093409
Probable space group: C 2/M
;
_chemical_formula_sum "Si O2"
_cell_formula_units_Z 64
_cell_length_a 17.752858
_cell_length_b 14.316902
_cell_length_c 23.474712
_cell_angle_alpha 90.000000
_cell_angle_beta 148.109316
_cell_angle_gamma 90.000000
_cell_volume 3152.088865
_symmetry_space_group_name_H-M "C 2/M"
_symmetry_group_IT_number 12
_symmetry_cell_setting 'monoclinic'
loop_
_space_group_symop_operation_xyz
x,y,z
-x,y,-z
-x,-y,-z
x,-y,z
1/2+x,1/2+y,z
1/2-x,1/2+y,-z
1/2-x,1/2-y,-z
1/2+x,1/2-y,z
loop_
_atom_site_type_symbol
_atom_site_label
_atom_site_fract_x
_atom_site_fract_y
_atom_site_fract_z
Si Si1 0.074952 0.107201 0.108853
Si Si2 0.740194 0.106859 0.403101
Si Si3 0.616659 0.607925 0.796928
Si Si4 0.161034 0.110503 0.953271
Si Si5 0.214799 0.106851 0.439458
Si Si6 0.337328 0.772606 0.246751
Si Si7 0.074300 0.269723 0.492188
Si Si8 0.419702 0.107814 0.192980
O O1 0.206080 0.178755 0.194523
O O2 0.967420 0.143856 0.088496
O O3 0.124449 0.000000 0.152158
O O4 0.000000 0.113299 0.000000
O O5 0.742076 0.141463 0.469987
O O6 0.852193 0.171578 0.441749
O O7 0.581856 0.120353 0.275779
O O8 0.791351 0.000000 0.430843
O O9 0.664021 0.500000 0.819589
O O10 0.644059 0.647362 0.878129
O O11 0.451242 0.622637 0.677646
O O12 0.705668 0.673484 0.810467
O O13 0.158377 0.000000 0.949569
O O14 0.312099 0.146703 0.075524
O O15 0.301655 0.161378 0.447630
O O16 0.258672 0.000000 0.460523
O O17 0.459120 0.751287 0.369988
O O18 0.398905 0.841352 0.239026
O O19 0.000000 0.313401 0.500000
O O20 0.384503 0.000000 0.182906
#
# Coordination Sequence:
#
# PCOD8093409 Si02
#       8
#     8   8   8   8   8   8   8   8
#     4  10  20  37  59  87 124 155 189 238 297 360
#     4  10  20  39  65  86 110 152 205 249 290 345
#     4  10  22  39  60  85 116 157 202 246 287 342
#     4   9  19  37  60  90 122 150 190 246 298 347
#     4  10  20  38  61  83 112 154 199 243 298 352
#     4  12  22  36  59  86 117 162 196 235 298 361
#     4  12  26  39  54  87 126 155 191 248 301 357
#     4  10  19  35  63  93 116 145 194 249 298 345
#
# _framework density 20.303996000000001
#
# number of rings (size 3 to 8) (size 9 to 14) (size 15 to 20)
#    0.000    1.625    3.750    1.500    1.750    1.500 
#    0.000    0.000    0.000    0.375    0.000    0.000 
#    0.000    0.000    0.000    0.000    0.000    0.000 
#
# Total GULP energy -396824.279459 kJ/mol
# GULP energy per Si atom -12400.758733 kJ/mol
# Density = 2.025778 g / cm^3
# Si number density = 20.303996 Si / 1000 Ang^3
#
#
#
# Elastic Constant Matrix: (Units=GPa)
#
#
# Indices 1 2 3 4 5 6 
#
# 1 59.8519 33.1500 34.1778 0.0004 -2.7329 -0.0005
# 2 33.1500 73.5102 32.0784 0.0007 9.3893 -0.0002
# 3 34.1778 32.0784 109.0692 0.0021 2.1063 0.0001
# 4 0.0004 0.0007 0.0021 19.4991 0.0008 9.3245
# 5 -2.7329 9.3893 2.1063 0.0008 28.7006 -0.0001
# 6 -0.0005 -0.0002 0.0001 9.3245 -0.0001 21.4586
#
#
#
# Elastic Compliance Matrix: (Units=1/GPa)
#
#
# Indices 1 2 3 4 5 6 
#
# 1 0.025477 -0.010016 -0.005155 0.000000 0.006081 0.000001
# 2 -0.010016 0.020227 -0.002668 0.000000 -0.007375 0.000000
# 3 -0.005155 -0.002668 0.011578 -0.000001 -0.000468 0.000000
# 4 0.000000 0.000000 -0.000001 0.064736 -0.000002 -0.028130
# 5 0.006081 -0.007375 -0.000468 -0.000002 0.037869 0.000001
# 6 0.000001 0.000000 0.000000 -0.028130 0.000001 0.058825
#
#
# Mechanical properties :
#
#
# Convention : Reuss Voigt Hill
#
# Bulk Modulus (GPa) = 46.28961 49.02707 47.65834
# Shear Modulus (GPa) = 19.11392 23.46666 21.29029
#
# Velocity S-wave (km/s) = 3.07153 3.40334 3.24169
# Velocity P-wave (km/s) = 5.95205 6.29624 6.12656
#
# Compressibility (1/GPa) = 0.02160312
#
# Stress axis : x y z
#
# Youngs Moduli (GPa) = 39.25121 49.43989 86.37438
#
# Poissons Ratio (x) = 0.49520 0.44526
# Poissons Ratio (y) = 0.39315 0.23043
# Poissons Ratio (z) = 0.20234 0.13189
#
# Static dielectric constant tensor:
#      x y z
#    x 3.587330 0.000000 -0.069720 
#    y 0.000000 3.797950 0.000000 
#    z -0.069720 0.000000 3.882070 
# 
# 
# High freq. dielectric constant tensor:
#      x y z
#    x 1.767260 0.000000 -0.003740 
#    y 0.000000 1.796480 0.000000 
#    z -0.003740 0.000000 1.800250 
# 
# From -- ./inp_files/183788.got.cif
#   From: 2010.06.25/outbox.cif.g09.slc.cpg/sg12_92_cif.got.tgz:183788.got - 2010.06.28 00:19:55.
