data_PCOD8093428
_publ_section_title
;
Structure prediction by ZEFSAII (Michael W. Deem and Ramdas Pophale) SiO2 
 PCOD8093428
Probable space group: C 2/M
;
_chemical_formula_sum "Si O2"
_cell_formula_units_Z 52
_cell_length_a 18.941654
_cell_length_b 11.743600
_cell_length_c 22.570208
_cell_angle_alpha 90.000000
_cell_angle_beta 148.651093
_cell_angle_gamma 90.000000
_cell_volume 2611.953029
_symmetry_space_group_name_H-M "C 2/M"
_symmetry_group_IT_number 12
_symmetry_cell_setting 'monoclinic'
loop_
_space_group_symop_operation_xyz
x,y,z
-x,y,-z
-x,-y,-z
x,-y,z
1/2+x,1/2+y,z
1/2-x,1/2+y,-z
1/2-x,1/2-y,-z
1/2+x,1/2-y,z
loop_
_atom_site_type_symbol
_atom_site_label
_atom_site_fract_x
_atom_site_fract_y
_atom_site_fract_z
Si Si1 0.026620 0.500000 0.619265
Si Si2 0.614851 0.872195 0.237727
Si Si3 0.175210 0.000000 0.204032
Si Si4 0.365710 0.256608 0.869774
Si Si5 0.768698 0.000000 0.626843
Si Si6 0.386641 0.805475 0.236368
Si Si7 0.651680 0.274030 0.376070
Si Si8 0.812357 0.625768 0.059804
O O1 0.161955 0.500000 0.677814
O O2 0.026055 0.387265 0.658930
O O3 0.895050 0.500000 0.482680
O O4 0.658697 0.807083 0.209555
O O5 0.678024 0.815170 0.341626
O O6 0.453598 0.872462 0.126777
O O7 0.672783 0.000000 0.275332
O O8 0.113973 0.890701 0.127584
O O9 0.142112 0.000000 0.249547
O O10 0.231937 0.236982 0.814212
O O11 0.500000 0.211087 0.000000
O O12 0.815225 0.103601 0.622198
O O13 0.494958 0.720169 0.284794
O O14 0.321275 0.880605 0.137249
O O15 0.750000 0.250000 0.500000
O O16 0.743096 0.500000 0.993185
O O17 0.750000 0.750000 0.000000
#
# Coordination Sequence:
#
# PCOD8093428 Si02
#       8
#     4   8   4   8   4   8   8   8
#     4  10  19  35  65  88 120 166 199 246 316 376
#     4  10  23  42  63  84 122 166 205 250 306 381
#     4  10  22  38  58 100 128 152 197 264 309 361
#     4  11  22  41  64  89 123 165 206 251 309 366
#     4  12  21  39  65  92 124 159 205 259 316 366
#     4  10  21  39  58  90 124 158 208 255 307 377
#     4  11  23  39  64  92 121 160 205 256 313 370
#     4  10  20  38  61  88 119 160 211 261 318 374
#
# _framework density 19.908473999999998
#
# number of rings (size 3 to 8) (size 9 to 14) (size 15 to 20)
#    0.000    1.538    3.846    1.385    2.154    0.308 
#   11.077    0.769    0.000    0.923    0.000    0.000 
#    0.000    0.000    0.000    0.000    0.000    0.000 
#
# Total GULP energy -322172.159174 kJ/mol
# GULP energy per Si atom -12391.236891 kJ/mol
# Density = 1.986316 g / cm^3
# Si number density = 19.908474 Si / 1000 Ang^3
#
#
#
# Elastic Constant Matrix: (Units=GPa)
#
#
# Indices 1 2 3 4 5 6 
#
# 1 123.0067 33.6663 32.1888 -0.0002 -5.3091 -0.0001
# 2 33.6663 136.6772 30.1341 -0.0003 -2.0864 -0.0002
# 3 32.1888 30.1341 82.5987 0.0000 -8.8356 -0.0003
# 4 -0.0002 -0.0003 0.0000 43.2624 -0.0001 -3.0755
# 5 -5.3091 -2.0864 -8.8356 -0.0001 28.7601 -0.0002
# 6 -0.0001 -0.0002 -0.0003 -3.0755 -0.0002 22.4871
#
#
#
# Elastic Compliance Matrix: (Units=1/GPa)
#
#
# Indices 1 2 3 4 5 6 
#
# 1 0.009391 -0.001644 -0.002985 0.000000 0.000697 0.000000
# 2 -0.001644 0.008247 -0.002416 0.000000 -0.000447 0.000000
# 3 -0.002985 -0.002416 0.014552 0.000000 0.003744 0.000000
# 4 0.000000 0.000000 0.000000 0.023342 0.000000 0.003192
# 5 0.000697 -0.000447 0.003744 0.000000 0.036017 0.000000
# 6 0.000000 0.000000 0.000000 0.003192 0.000000 0.044907
#
#
# Mechanical properties :
#
#
# Convention : Reuss Voigt Hill
#
# Bulk Modulus (GPa) = 55.25051 59.36235 57.30643
# Shear Modulus (GPa) = 31.93264 35.32147 33.62705
#
# Velocity S-wave (km/s) = 4.00931 4.21669 4.11430
# Velocity P-wave (km/s) = 7.01749 7.32049 7.17059
#
# Compressibility (1/GPa) = 0.01809938
#
# Stress axis : x y z
#
# Youngs Moduli (GPa) = 106.48543 121.25075 68.71925
#
# Poissons Ratio (x) = 0.19938 0.20514
# Poissons Ratio (y) = 0.17510 0.16602
# Poissons Ratio (z) = 0.31788 0.29293
#
# Static dielectric constant tensor:
#      x y z
#    x 3.758480 0.000000 -0.175830 
#    y 0.000000 3.644430 0.000000 
#    z -0.175830 0.000000 3.772950 
# 
# 
# High freq. dielectric constant tensor:
#      x y z
#    x 1.786110 0.000000 -0.013210 
#    y 0.000000 1.773580 0.000000 
#    z -0.013210 0.000000 1.764570 
# 
# From -- ./inp_files/315820.got.cif
#   From: 2010.06.25/outbox.cif.g09.slc.cpg/sg12_158_cif.got.tgz:315820.got - 2010.06.28 00:19:55.
