data_PCOD8093295
_publ_section_title
;
Structure prediction by ZEFSAII (Michael W. Deem and Ramdas Pophale) SiO2 
 PCOD8093295
Probable space group: C 2/M
;
_chemical_formula_sum "Si O2"
_cell_formula_units_Z 48
_cell_length_a 10.501878
_cell_length_b 31.504845
_cell_length_c 12.463547
_cell_angle_alpha 90.000000
_cell_angle_beta 35.168865
_cell_angle_gamma 90.000000
_cell_volume 2375.196524
_symmetry_space_group_name_H-M "C 2/M"
_symmetry_group_IT_number 12
_symmetry_cell_setting 'monoclinic'
loop_
_space_group_symop_operation_xyz
x,y,z
-x,y,-z
-x,-y,-z
x,-y,z
1/2+x,1/2+y,z
1/2-x,1/2+y,-z
1/2-x,1/2-y,-z
1/2+x,1/2-y,z
loop_
_atom_site_type_symbol
_atom_site_label
_atom_site_fract_x
_atom_site_fract_y
_atom_site_fract_z
Si Si1 0.106253 0.877799 0.039698
Si Si2 0.438552 0.836251 0.238086
Si Si3 0.213166 0.341914 0.415679
Si Si4 0.232646 0.916776 0.282236
Si Si5 0.764431 0.751920 0.617117
Si Si6 0.811541 0.548709 0.996901
O O1 0.197410 0.926212 0.977015
O O2 0.916703 0.873544 0.259621
O O3 0.302325 0.845365 0.933545
O O4 0.000000 0.866033 0.000000
O O5 0.326498 0.840784 0.431029
O O6 0.311815 0.868138 0.244605
O O7 0.408243 0.787329 0.219628
O O8 0.279647 0.296428 0.315091
O O9 0.000000 0.360026 0.500000
O O10 0.220356 0.926947 0.164844
O O11 0.000000 0.926478 0.500000
O O12 0.422963 0.947880 0.198658
O O13 0.750000 0.750000 0.500000
O O14 0.000000 0.767074 0.500000
O O15 0.737573 0.500000 0.047681
#
# Coordination Sequence:
#
# PCOD8093295 Si02
#       6
#     8   8   8   8   8   8
#     4  11  22  37  60  81 110 153 195 235 288 347
#     4  10  20  35  58  87 115 151 195 232 284 344
#     4  10  19  36  58  80 115 153 193 237 282 335
#     4  10  19  35  61  84 114 148 182 230 290 351
#     4   9  19  34  57  85 118 157 194 239 284 333
#     4  10  23  39  56  85 115 144 187 240 295 352
#
# _framework density 20.208856000000001
#
# number of rings (size 3 to 8) (size 9 to 14) (size 15 to 20)
#    0.000    2.000    1.667    2.500    0.000    3.667 
#    0.000    0.000    7.333    0.500    0.000    0.000 
#    0.000    0.000    0.000    0.000    0.000    0.000 
#
# Total GULP energy -297465.717756 kJ/mol
# GULP energy per Si atom -12394.404906 kJ/mol
# Density = 2.016286 g / cm^3
# Si number density = 20.208856 Si / 1000 Ang^3
#
#
#
# Elastic Constant Matrix: (Units=GPa)
#
#
# Indices 1 2 3 4 5 6 
#
# 1 71.5625 23.2578 26.3071 0.0000 -24.5941 0.0000
# 2 23.2578 105.3397 28.6913 0.0000 -20.4658 0.0000
# 3 26.3071 28.6913 121.9209 0.0000 -22.4449 0.0000
# 4 0.0000 0.0000 0.0000 21.8969 0.0000 4.5801
# 5 -24.5941 -20.4658 -22.4449 0.0000 25.9857 0.0000
# 6 0.0000 0.0000 0.0000 4.5801 0.0000 20.0294
#
#
#
# Elastic Compliance Matrix: (Units=1/GPa)
#
#
# Indices 1 2 3 4 5 6 
#
# 1 0.020873 -0.000793 -0.000946 0.000000 0.018314 0.000000
# 2 -0.000793 0.011389 -0.001184 0.000000 0.007196 0.000000
# 3 -0.000946 -0.001184 0.009927 0.000000 0.006746 0.000000
# 4 0.000000 0.000000 0.000000 0.047963 0.000000 -0.010968
# 5 0.018314 0.007196 0.006746 0.000000 0.067311 0.000000
# 6 0.000000 0.000000 0.000000 -0.010968 0.000000 0.052435
#
#
# Mechanical properties :
#
#
# Convention : Reuss Voigt Hill
#
# Bulk Modulus (GPa) = 27.51547 50.59282 39.05415
# Shear Modulus (GPa) = 21.94358 28.28684 25.11521
#
# Velocity S-wave (km/s) = 3.29878 3.74535 3.52914
# Velocity P-wave (km/s) = 5.30607 6.61762 5.99780
#
# Compressibility (1/GPa) = 0.03634319
#
# Stress axis : x y z
#
# Youngs Moduli (GPa) = 47.90828 87.80530 100.73787
#
# Poissons Ratio (x) = 0.06961 0.09527
# Poissons Ratio (y) = 0.03798 0.11930
# Poissons Ratio (z) = 0.04531 0.10398
#
# Static dielectric constant tensor:
#      x y z
#    x 3.671500 0.000000 -0.165450 
#    y 0.000000 3.784510 0.000000 
#    z -0.165450 0.000000 3.583610 
# 
# 
# High freq. dielectric constant tensor:
#      x y z
#    x 1.790990 0.000000 -0.015260 
#    y 0.000000 1.780870 0.000000 
#    z -0.015260 0.000000 1.775210 
# 
# From -- ./inp_files/209789.got.cif
#   From: 2010.06.25/outbox.cif.g09.slc.cpg/sg12_105_cif.got.tgz:209789.got - 2010.06.28 00:19:55.
