data_PCOD8093537
_publ_section_title
;
Structure prediction by ZEFSAII (Michael W. Deem and Ramdas Pophale) SiO2 
 PCOD8093537
Probable space group: C 2/M
;
_chemical_formula_sum "Si O2"
_cell_formula_units_Z 56
_cell_length_a 9.406496
_cell_length_b 20.060369
_cell_length_c 21.133988
_cell_angle_alpha 90.000000
_cell_angle_beta 132.047937
_cell_angle_gamma 90.000000
_cell_volume 2961.380855
_symmetry_space_group_name_H-M "C 2/M"
_symmetry_group_IT_number 12
_symmetry_cell_setting 'monoclinic'
loop_
_space_group_symop_operation_xyz
x,y,z
-x,y,-z
-x,-y,-z
x,-y,z
1/2+x,1/2+y,z
1/2-x,1/2+y,-z
1/2-x,1/2-y,-z
1/2+x,1/2-y,z
loop_
_atom_site_type_symbol
_atom_site_label
_atom_site_fract_x
_atom_site_fract_y
_atom_site_fract_z
Si Si1 0.180116 0.805640 0.598567
Si Si2 0.277810 0.132277 0.172677
Si Si3 0.621272 0.421701 0.909861
Si Si4 0.584093 0.761711 0.695115
Si Si5 0.315981 0.074272 0.713653
Si Si6 0.842723 0.317645 0.054932
Si Si7 0.269138 0.644676 0.186893
O O1 0.370171 0.787008 0.617009
O O2 0.175731 0.754481 0.655300
O O3 0.192420 0.880060 0.629718
O O4 0.000000 0.798529 0.500000
O O5 0.286069 0.181576 0.234696
O O6 0.457686 0.083091 0.228770
O O7 0.283347 0.176784 0.110638
O O8 0.087557 0.088558 0.122068
O O9 0.671137 0.500000 0.923691
O O10 0.635751 0.390717 0.844532
O O11 0.772820 0.384089 0.998909
O O12 0.580390 0.697648 0.740211
O O13 0.269746 0.087909 0.772970
O O14 0.255565 0.000000 0.678318
O O15 0.071478 0.315542 0.113250
O O16 0.750000 0.250000 0.000000
#
# Coordination Sequence:
#
# PCOD8093537 Si02
#       7
#     8   8   8   8   8   8   8
#     4  10  20  33  55  84 109 131 160 210 266 318
#     4  10  21  36  55  75 103 142 183 222 263 316
#     4  12  24  35  52  80 111 143 182 230 278 315
#     4  10  19  36  57  78 104 136 174 212 259 316
#     4   9  19  36  55  74 102 142 179 211 254 314
#     4  11  23  38  55  76 105 141 186 235 278 316
#     4  10  21  36  55  75 103 142 183 222 263 316
#
# _framework density 18.910095999999999
#
# number of rings (size 3 to 8) (size 9 to 14) (size 15 to 20)
#    0.000    1.714    0.000    5.571    0.000    6.000 
#    0.000    0.000    0.000    0.000    0.000    0.000 
#    0.000   20.571    0.000    0.000    0.000    0.000 
#
# Total GULP energy -347237.541482 kJ/mol
# GULP energy per Si atom -12401.340767 kJ/mol
# Density = 1.886706 g / cm^3
# Si number density = 18.910096 Si / 1000 Ang^3
#
#
#
# Elastic Constant Matrix: (Units=GPa)
#
#
# Indices 1 2 3 4 5 6 
#
# 1 59.2941 12.5493 7.9117 0.0003 -2.4143 0.0000
# 2 12.5493 95.0410 29.1788 0.0001 -0.7024 0.0000
# 3 7.9117 29.1788 80.5471 0.0005 1.4640 0.0001
# 4 0.0003 0.0001 0.0005 13.6964 0.0003 3.1480
# 5 -2.4143 -0.7024 1.4640 0.0003 20.9860 0.0001
# 6 0.0000 0.0000 0.0001 3.1480 0.0001 16.0156
#
#
#
# Elastic Compliance Matrix: (Units=1/GPa)
#
#
# Indices 1 2 3 4 5 6 
#
# 1 0.017505 -0.001977 -0.001040 0.000000 0.002020 0.000000
# 2 -0.001977 0.012072 -0.004187 0.000000 0.000469 0.000000
# 3 -0.001040 -0.004187 0.014057 0.000000 -0.001240 0.000000
# 4 0.000000 0.000000 0.000000 0.076467 -0.000001 -0.015030
# 5 0.002020 0.000469 -0.001240 -0.000001 0.047985 0.000000
# 6 0.000000 0.000000 0.000000 -0.015030 0.000000 0.065393
#
#
# Mechanical properties :
#
#
# Convention : Reuss Voigt Hill
#
# Bulk Modulus (GPa) = 34.21815 37.12910 35.67362
# Shear Modulus (GPa) = 19.40776 22.48909 20.94843
#
# Velocity S-wave (km/s) = 3.20709 3.45231 3.33196
# Velocity P-wave (km/s) = 5.64344 5.96393 5.80589
#
# Compressibility (1/GPa) = 0.02922426
#
# Stress axis : x y z
#
# Youngs Moduli (GPa) = 57.12803 82.83694 71.14033
#
# Poissons Ratio (x) = 0.16378 0.07398
# Poissons Ratio (y) = 0.11295 0.29790
# Poissons Ratio (z) = 0.05941 0.34688
#
# Static dielectric constant tensor:
#      x y z
#    x 3.503730 0.000000 -0.047940 
#    y 0.000000 3.363650 0.000000 
#    z -0.047940 0.000000 3.356750 
# 
# 
# High freq. dielectric constant tensor:
#      x y z
#    x 1.742320 0.000000 -0.001000 
#    y 0.000000 1.732090 0.000000 
#    z -0.001000 0.000000 1.725900 
# 
# From -- ./inp_files/301626.got.cif
#   From: 2010.06.25/outbox.cif.g09.slc.cpg/sg12_151_cif.got.tgz:301626.got - 2010.06.28 00:19:55.
