data_PCOD8093656
_publ_section_title
;
Structure prediction by ZEFSAII (Michael W. Deem and Ramdas Pophale) SiO2 
 PCOD8093656
Probable space group: C 2/M
;
_chemical_formula_sum "Si O2"
_cell_formula_units_Z 56
_cell_length_a 23.336022
_cell_length_b 8.608132
_cell_length_c 15.373793
_cell_angle_alpha 90.000000
_cell_angle_beta 116.050508
_cell_angle_gamma 90.000000
_cell_volume 2774.533835
_symmetry_space_group_name_H-M "C 2/M"
_symmetry_group_IT_number 12
_symmetry_cell_setting 'monoclinic'
loop_
_space_group_symop_operation_xyz
x,y,z
-x,y,-z
-x,-y,-z
x,-y,z
1/2+x,1/2+y,z
1/2-x,1/2+y,-z
1/2-x,1/2-y,-z
1/2+x,1/2-y,z
loop_
_atom_site_type_symbol
_atom_site_label
_atom_site_fract_x
_atom_site_fract_y
_atom_site_fract_z
Si Si1 0.963972 0.817755 0.728575
Si Si2 0.346118 0.180356 0.565118
Si Si3 0.109559 0.818237 0.822064
Si Si4 0.659293 0.819922 0.030798
Si Si5 0.223699 0.680384 0.806151
Si Si6 0.435958 0.319489 0.906047
Si Si7 0.760471 0.179946 0.368548
O O1 0.919054 0.725441 0.632086
O O2 0.945633 0.768237 0.813657
O O3 0.036486 0.768526 0.758097
O O4 0.953894 0.000000 0.708484
O O5 0.303162 0.222405 0.620284
O O6 0.322459 0.278177 0.466713
O O7 0.340285 0.000000 0.537862
O O8 0.150968 0.725853 0.778816
O O9 0.118545 0.000000 0.812801
O O10 0.129677 0.779638 0.933530
O O11 0.732497 0.774063 0.096471
O O12 0.620871 0.783825 0.093441
O O13 0.655385 0.000000 0.003554
O O14 0.234851 0.500000 0.829908
O O15 0.240805 0.718599 0.718764
O O16 0.417648 0.500000 0.902825
O O17 0.500000 0.281048 0.000000
O O18 0.763149 0.000000 0.344396
#
# Coordination Sequence:
#
# PCOD8093656 Si02
#       7
#     8   8   8   8   8   8   8
#     4  10  21  37  60  86 118 158 196 237 293 352
#     4  10  21  37  62  93 123 152 188 238 292 347
#     4  11  23  42  61  82 116 159 202 245 292 349
#     4  12  24  38  58  87 119 157 200 245 295 348
#     4  12  25  41  61  86 116 154 198 247 297 347
#     4  10  19  36  58  84 117 155 195 239 290 345
#     4  10  21  40  64  91 120 152 192 239 292 349
#
# _framework density 20.183571000000001
#
# number of rings (size 3 to 8) (size 9 to 14) (size 15 to 20)
#    0.000    1.286    1.429    5.143    0.000    6.000 
#    0.000    0.714    0.000    4.286    0.000    0.000 
#    0.000    0.000    0.000    0.000    0.000    0.000 
#
# Total GULP energy -347407.077391 kJ/mol
# GULP energy per Si atom -12407.395621 kJ/mol
# Density = 2.013763 g / cm^3
# Si number density = 20.183571 Si / 1000 Ang^3
#
#
#
# Elastic Constant Matrix: (Units=GPa)
#
#
# Indices 1 2 3 4 5 6 
#
# 1 87.9906 28.5080 28.7271 0.0000 15.1214 0.0000
# 2 28.5080 57.0395 15.7075 0.0000 1.5427 0.0000
# 3 28.7271 15.7075 74.5713 0.0000 21.6238 0.0000
# 4 0.0000 0.0000 0.0000 32.2747 0.0000 -0.1243
# 5 15.1214 1.5427 21.6238 0.0000 31.2228 0.0000
# 6 0.0000 0.0000 0.0000 -0.1243 0.0000 29.3403
#
#
#
# Elastic Compliance Matrix: (Units=1/GPa)
#
#
# Indices 1 2 3 4 5 6 
#
# 1 0.015403 -0.006718 -0.003068 0.000000 -0.005003 0.000000
# 2 -0.006718 0.021668 -0.003265 0.000000 0.004444 0.000000
# 3 -0.003068 -0.003265 0.018521 0.000000 -0.011180 0.000000
# 4 0.000000 0.000000 0.000000 0.030984 0.000000 0.000131
# 5 -0.005003 0.004444 -0.011180 0.000000 0.041974 0.000000
# 6 0.000000 0.000000 0.000000 0.000131 0.000000 0.034083
#
#
# Mechanical properties :
#
#
# Convention : Reuss Voigt Hill
#
# Bulk Modulus (GPa) = 33.90844 40.60961 37.25903
# Shear Modulus (GPa) = 25.18048 28.34482 26.76265
#
# Velocity S-wave (km/s) = 3.53593 3.75153 3.64533
# Velocity P-wave (km/s) = 5.78852 6.23932 6.01814
#
# Compressibility (1/GPa) = 0.02949118
#
# Stress axis : x y z
#
# Youngs Moduli (GPa) = 64.92317 46.15045 53.99144
#
# Poissons Ratio (x) = 0.31005 0.16563
# Poissons Ratio (y) = 0.43616 0.17627
# Poissons Ratio (z) = 0.19917 0.15067
#
# Static dielectric constant tensor:
#      x y z
#    x 3.737300 0.000000 0.097550 
#    y 0.000000 3.541180 0.000000 
#    z 0.097550 0.000000 3.566300 
# 
# 
# High freq. dielectric constant tensor:
#      x y z
#    x 1.789180 0.000000 0.008870 
#    y 0.000000 1.789890 0.000000 
#    z 0.008870 0.000000 1.784240 
# 
# From -- ./inp_files/238946.got.cif
#   From: 2010.06.25/outbox.cif.g09.slc.cpg/sg12_120_cif.got.tgz:238946.got - 2010.06.28 00:19:55.
