data_PCOD8093294
_publ_section_title
;
Structure prediction by ZEFSAII (Michael W. Deem and Ramdas Pophale) SiO2 
 PCOD8093294
Probable space group: C 2/M
;
_chemical_formula_sum "Si O2"
_cell_formula_units_Z 48
_cell_length_a 26.231585
_cell_length_b 14.641324
_cell_length_c 22.156617
_cell_angle_alpha 90.000000
_cell_angle_beta 162.371921
_cell_angle_gamma 90.000000
_cell_volume 2577.016797
_symmetry_space_group_name_H-M "C 2/M"
_symmetry_group_IT_number 12
_symmetry_cell_setting 'monoclinic'
loop_
_space_group_symop_operation_xyz
x,y,z
-x,y,-z
-x,-y,-z
x,-y,z
1/2+x,1/2+y,z
1/2-x,1/2+y,-z
1/2-x,1/2-y,-z
1/2+x,1/2-y,z
loop_
_atom_site_type_symbol
_atom_site_label
_atom_site_fract_x
_atom_site_fract_y
_atom_site_fract_z
Si Si1 0.954692 0.254824 0.014339
Si Si2 0.319145 0.103120 0.323908
Si Si3 0.938018 0.264161 0.193596
Si Si4 0.998082 0.395283 0.158824
Si Si5 0.346565 0.599095 0.604406
Si Si6 0.285361 0.844043 0.421160
O O1 0.906574 0.342066 0.000430
O O2 0.121215 0.216484 0.231702
O O3 0.812189 0.176155 0.850994
O O4 0.000000 0.292949 0.000000
O O5 0.500000 0.127951 0.500000
O O6 0.321844 0.103192 0.399954
O O7 0.266194 0.000000 0.244569
O O8 0.928124 0.353458 0.141376
O O9 0.013130 0.177877 0.241196
O O10 0.051612 0.281744 0.380866
O O11 0.750000 0.250000 0.000000
O O12 0.941625 0.500000 0.090223
O O13 0.202130 0.384917 0.390624
O O14 0.432632 0.500000 0.690874
O O15 0.253123 0.593175 0.564098
#
# Coordination Sequence:
#
# PCOD8093294 Si02
#       6
#     8   8   8   8   8   8
#     4  10  20  36  60  82 112 154 193 235 282 341
#     4  10  23  38  57  89 122 152 190 237 296 351
#     4  11  22  36  59  86 121 150 186 243 300 344
#     4  10  20  38  59  83 112 148 196 239 280 344
#     4  10  19  35  61  84 110 148 193 238 288 347
#     4  10  19  37  58  84 115 151 194 236 284 345
#
# _framework density 18.626187999999999
#
# number of rings (size 3 to 8) (size 9 to 14) (size 15 to 20)
#    0.000    1.833    3.333    1.500    2.333    5.333 
#    0.000    0.000    0.000    0.500    0.000    0.000 
#    0.000    0.000    0.000    0.000    0.000    0.000 
#
# Total GULP energy -297407.155019 kJ/mol
# GULP energy per Si atom -12391.964792 kJ/mol
# Density = 1.858379 g / cm^3
# Si number density = 18.626188 Si / 1000 Ang^3
#
#
#
# Elastic Constant Matrix: (Units=GPa)
#
#
# Indices 1 2 3 4 5 6 
#
# 1 83.7080 58.3634 49.4415 -0.4372 -0.2931 -0.1738
# 2 58.3634 143.3377 66.1318 -0.4299 -0.3486 -0.2016
# 3 49.4415 66.1318 116.4466 -0.5113 5.1691 -0.2386
# 4 -0.4372 -0.4299 -0.5113 -75.2304 -0.2864 -40.7522
# 5 -0.2931 -0.3486 5.1691 -0.2864 32.6850 -0.1199
# 6 -0.1738 -0.2016 -0.2386 -40.7522 -0.1199 9.8617
#
#
#
# Elastic Compliance Matrix: (Units=1/GPa)
#
#
# Indices 1 2 3 4 5 6 
#
# 1 0.018528 -0.005277 -0.004909 -0.000033 0.000886 -0.000026
# 2 -0.005277 0.010986 -0.004030 -0.000009 0.000707 0.000004
# 3 -0.004909 -0.004030 0.013056 -0.000029 -0.002152 0.000000
# 4 -0.000033 -0.000009 -0.000029 -0.004104 -0.000094 -0.016961
# 5 0.000886 0.000707 -0.002152 -0.000094 0.030950 -0.000034
# 6 -0.000026 0.000004 0.000000 -0.016961 -0.000034 0.031312
#
#
# Mechanical properties :
#
#
# Convention : Reuss Voigt Hill
#
# Bulk Modulus (GPa) = 70.73381 76.81842 73.77612
# Shear Modulus (GPa) = 37.34847 4.76697 21.05772
#
# Velocity S-wave (km/s) = 4.48276 1.60151 3.36600
# Velocity P-wave (km/s) = 8.05304 6.68965 7.40280
#
# Compressibility (1/GPa) = 0.01413751
#
# Stress axis : x y z
#
# Youngs Moduli (GPa) = 53.97181 91.02219 76.59174
#
# Poissons Ratio (x) = 0.48034 0.37601
# Poissons Ratio (y) = 0.28482 0.30868
# Poissons Ratio (z) = 0.26497 0.36683
#
# Static dielectric constant tensor:
#      x y z
#    x 3.847050 0.000010 -0.293040 
#    y 0.000010 3.461020 -0.000050 
#    z -0.293040 -0.000050 3.391750 
# 
# 
# High freq. dielectric constant tensor:
#      x y z
#    x 1.718550 0.000000 -0.010730 
#    y 0.000000 1.722590 0.000000 
#    z -0.010730 0.000000 1.710480 
# 
# From -- ./inp_files/85142.got.cif
#   From: 2010.06.25/outbox.cif.g09.slc.cpg/sg12_43_cif.got.tgz:85142.got - 2010.06.28 00:19:55.
