data_PCOD8093072
_publ_section_title
;
Structure prediction by ZEFSAII (Michael W. Deem and Ramdas Pophale) SiO2 
 PCOD8093072
Probable space group: C 2/M
;
_chemical_formula_sum "Si O2"
_cell_formula_units_Z 64
_cell_length_a 13.047669
_cell_length_b 14.138927
_cell_length_c 30.575395
_cell_angle_alpha 90.000000
_cell_angle_beta 35.647263
_cell_angle_gamma 90.000000
_cell_volume 3287.275892
_symmetry_space_group_name_H-M "C 2/M"
_symmetry_group_IT_number 12
_symmetry_cell_setting 'monoclinic'
loop_
_space_group_symop_operation_xyz
x,y,z
-x,y,-z
-x,-y,-z
x,-y,z
1/2+x,1/2+y,z
1/2-x,1/2+y,-z
1/2-x,1/2-y,-z
1/2+x,1/2-y,z
loop_
_atom_site_type_symbol
_atom_site_label
_atom_site_fract_x
_atom_site_fract_y
_atom_site_fract_z
Si Si1 0.846641 0.751720 0.421174
Si Si2 0.186452 0.393977 0.204634
Si Si3 0.281377 0.747179 0.673199
Si Si4 0.707186 0.105729 0.629088
Si Si5 0.653094 0.610917 0.980231
Si Si6 0.946543 0.892455 0.887377
Si Si7 0.406949 0.773331 0.842231
Si Si8 0.691876 0.890200 0.413525
O O1 0.750000 0.750000 0.500000
O O2 0.752010 0.666999 0.427812
O O3 0.825369 0.851370 0.403706
O O4 0.053702 0.735757 0.353050
O O5 0.212441 0.500000 0.173747
O O6 0.340946 0.379580 0.186490
O O7 0.193227 0.308149 0.167006
O O8 0.002226 0.391786 0.292883
O O9 0.306752 0.652393 0.635578
O O10 0.266545 0.837915 0.646522
O O11 0.114712 0.728503 0.761850
O O12 0.779462 0.000000 0.597805
O O13 0.667616 0.500000 0.971560
O O14 0.843784 0.653583 0.901435
O O15 0.500000 0.648061 0.000000
O O16 0.614127 0.641426 0.043502
O O17 0.859726 0.830591 0.878276
O O18 0.890430 0.000000 0.897299
O O19 0.500000 0.869944 0.500000
O O20 0.726025 0.000000 0.393351
#
# Coordination Sequence:
#
# PCOD8093072 Si02
#       8
#     8   8   8   8   8   8   8   8
#     4  11  21  36  57  80 112 142 186 233 274 329
#     4   9  17  34  56  81 110 143 186 232 273 327
#     4  10  22  37  56  84 114 144 180 236 280 328
#     4   9  20  35  54  80 112 145 180 226 284 336
#     4  10  19  35  59  85 111 145 190 234 272 323
#     4  10  20  33  54  83 113 144 186 232 270 324
#     4  11  20  33  58  86 112 144 185 228 286 329
#     4  10  21  39  60  80 108 149 190 226 273 331
#
# _framework density 19.469007000000001
#
# number of rings (size 3 to 8) (size 9 to 14) (size 15 to 20)
#    0.000    2.000    2.500    1.500    0.000    2.500 
#    0.000    0.625    0.000    1.875    0.000    0.000 
#    0.000    0.000    0.000    0.000    0.000    0.000 
#
# Total GULP energy -396541.213233 kJ/mol
# GULP energy per Si atom -12391.912914 kJ/mol
# Density = 1.942469 g / cm^3
# Si number density = 19.469007 Si / 1000 Ang^3
#
#
#
# Elastic Constant Matrix: (Units=GPa)
#
#
# Indices 1 2 3 4 5 6 
#
# 1 68.1846 44.4265 12.2934 0.0001 8.1880 0.0001
# 2 44.4265 110.1911 26.3095 -0.0006 9.8011 -0.0001
# 3 12.2934 26.3095 58.8011 -0.0024 3.2089 -0.0007
# 4 0.0001 -0.0006 -0.0024 27.1737 -0.0001 -0.8593
# 5 8.1880 9.8011 3.2089 -0.0001 18.7984 -0.0002
# 6 0.0001 -0.0001 -0.0007 -0.8593 -0.0002 20.9924
#
#
#
# Elastic Compliance Matrix: (Units=1/GPa)
#
#
# Indices 1 2 3 4 5 6 
#
# 1 0.020313 -0.007628 -0.000573 0.000000 -0.004773 0.000000
# 2 -0.007628 0.013429 -0.004252 0.000000 -0.002953 0.000000
# 3 -0.000573 -0.004252 0.019072 0.000002 -0.000789 0.000001
# 4 0.000000 0.000000 0.000002 0.036848 0.000000 0.001508
# 5 -0.004773 -0.002953 -0.000789 0.000000 0.056949 0.000000
# 6 0.000000 0.000000 0.000001 0.001508 0.000000 0.047698
#
#
# Mechanical properties :
#
#
# Convention : Reuss Voigt Hill
#
# Bulk Modulus (GPa) = 35.83490 44.80394 40.31942
# Shear Modulus (GPa) = 21.88007 23.66939 22.77473
#
# Velocity S-wave (km/s) = 3.35601 3.49054 3.42394
# Velocity P-wave (km/s) = 5.78474 6.26961 6.03205
#
# Compressibility (1/GPa) = 0.02790576
#
# Stress axis : x y z
#
# Youngs Moduli (GPa) = 49.22995 74.46745 52.43273
#
# Poissons Ratio (x) = 0.56806 0.03005
# Poissons Ratio (y) = 0.37554 0.22297
# Poissons Ratio (z) = 0.02822 0.31667
#
# Static dielectric constant tensor:
#      x y z
#    x 3.466250 0.000000 0.057130 
#    y 0.000000 3.695950 0.000000 
#    z 0.057130 0.000000 3.590130 
# 
# 
# High freq. dielectric constant tensor:
#      x y z
#    x 1.736810 0.000000 0.011250 
#    y 0.000000 1.754410 0.000000 
#    z 0.011250 0.000000 1.765920 
# 
# From -- ./inp_files/269868.got.cif
#   From: 2010.06.25/outbox.cif.g09.slc.cpg/sg12_135_cif.got.tgz:269868.got - 2010.06.28 00:19:55.
