data_PCOD8093209
_publ_section_title
;
Structure prediction by ZEFSAII (Michael W. Deem and Ramdas Pophale) SiO2 
 PCOD8093209
Probable space group: C 2/M
;
_chemical_formula_sum "Si O2"
_cell_formula_units_Z 56
_cell_length_a 30.824320
_cell_length_b 21.222184
_cell_length_c 9.492328
_cell_angle_alpha 90.000000
_cell_angle_beta 27.807790
_cell_angle_gamma 90.000000
_cell_volume 2896.772526
_symmetry_space_group_name_H-M "C 2/M"
_symmetry_group_IT_number 12
_symmetry_cell_setting 'monoclinic'
loop_
_space_group_symop_operation_xyz
x,y,z
-x,y,-z
-x,-y,-z
x,-y,z
1/2+x,1/2+y,z
1/2-x,1/2+y,-z
1/2-x,1/2-y,-z
1/2+x,1/2-y,z
loop_
_atom_site_type_symbol
_atom_site_label
_atom_site_fract_x
_atom_site_fract_y
_atom_site_fract_z
Si Si1 0.653289 0.735477 0.205055
Si Si2 0.217464 0.112894 0.890406
Si Si3 0.913241 0.371044 0.653935
Si Si4 0.051420 0.928307 0.212122
Si Si5 0.782073 0.071464 0.791726
Si Si6 0.915725 0.573637 0.347437
Si Si7 0.950119 0.845845 0.283105
O O1 0.607935 0.796991 0.266474
O O2 0.580739 0.712030 0.531036
O O3 0.750000 0.750000 0.000000
O O4 0.677022 0.684007 0.016741
O O5 0.325698 0.107801 0.537736
O O6 0.161331 0.077577 0.928256
O O7 0.204847 0.079363 0.077957
O O8 0.941709 0.389692 0.414549
O O9 0.000000 0.391109 0.500000
O O10 0.820304 0.408360 0.965658
O O11 0.000000 0.902619 0.500000
O O12 0.023077 0.888639 0.158228
O O13 0.023409 0.000000 0.261409
O O14 0.860143 0.113883 0.492755
O O15 0.798870 0.000000 0.698590
O O16 0.894664 0.500000 0.439527
O O17 0.000000 0.582023 0.000000
O O18 0.000000 0.819557 0.000000
#
# Coordination Sequence:
#
# PCOD8093209 Si02
#       7
#     8   8   8   8   8   8   8
#     4  11  20  40  62  82 113 160 202 241 286 345
#     4  10  19  35  60  86 113 150 200 240 281 347
#     4  11  23  38  63  89 112 152 207 249 287 342
#     4  11  20  34  61  92 118 152 196 240 286 357
#     4  10  19  36  61  85 117 156 192 235 293 359
#     4  10  21  39  61  86 119 154 190 242 303 351
#     4  11  24  39  58  90 124 157 191 239 306 359
#
# _framework density 19.331859999999999
#
# number of rings (size 3 to 8) (size 9 to 14) (size 15 to 20)
#    0.000    1.429    7.143    3.000    2.000    2.857 
#    2.571    0.000    0.000    2.571    0.000    0.000 
#    0.000    0.000    0.000    0.000    0.000    0.000 
#
# Total GULP energy -347197.767219 kJ/mol
# GULP energy per Si atom -12399.920258 kJ/mol
# Density = 1.928786 g / cm^3
# Si number density = 19.331860 Si / 1000 Ang^3
#
#
#
# Elastic Constant Matrix: (Units=GPa)
#
#
# Indices 1 2 3 4 5 6 
#
# 1 88.6029 2.0586 27.4078 0.0000 -30.4910 0.0000
# 2 2.0586 75.8151 12.5509 0.0000 -1.3919 0.0000
# 3 27.4078 12.5509 93.5696 0.0000 -10.7344 0.0000
# 4 0.0000 0.0000 0.0000 25.1573 0.0000 -6.7054
# 5 -30.4910 -1.3919 -10.7344 0.0000 28.6256 0.0000
# 6 0.0000 0.0000 0.0000 -6.7054 0.0000 21.2759
#
#
#
# Elastic Compliance Matrix: (Units=1/GPa)
#
#
# Indices 1 2 3 4 5 6 
#
# 1 0.018782 0.000398 -0.003404 0.000000 0.018749 0.000000
# 2 0.000398 0.013498 -0.001884 0.000000 0.000373 0.000000
# 3 -0.003404 -0.001884 0.012028 0.000000 0.000793 0.000000
# 4 0.000000 0.000000 0.000000 0.043395 0.000000 0.013677
# 5 0.018749 0.000373 0.000793 0.000000 0.055220 0.000000
# 6 0.000000 0.000000 0.000000 0.013677 0.000000 0.051312
#
#
# Mechanical properties :
#
#
# Convention : Reuss Voigt Hill
#
# Bulk Modulus (GPa) = 28.96267 38.00247 33.48257
# Shear Modulus (GPa) = 23.19914 29.40979 26.30446
#
# Velocity S-wave (km/s) = 3.46793 3.90463 3.69274
# Velocity P-wave (km/s) = 5.57223 6.32683 5.96148
#
# Compressibility (1/GPa) = 0.03452721
#
# Stress axis : x y z
#
# Youngs Moduli (GPa) = 53.24209 74.08530 83.13924
#
# Poissons Ratio (x) = -0.02947 0.28301
# Poissons Ratio (y) = -0.02118 0.15665
# Poissons Ratio (z) = 0.18124 0.13959
#
# Static dielectric constant tensor:
#      x y z
#    x 3.329990 0.000000 -0.338120 
#    y 0.000000 5.235990 0.000000 
#    z -0.338120 0.000000 3.569230 
# 
# 
# High freq. dielectric constant tensor:
#      x y z
#    x 1.730570 0.000000 -0.031640 
#    y 0.000000 1.757180 0.000000 
#    z -0.031640 0.000000 1.743890 
# 
# From -- ./inp_files/113349.got.cif
#   From: 2010.06.25/outbox.cif.g09.slc.cpg/sg12_57_cif.got.tgz:113349.got - 2010.06.28 00:19:55.
