data_PCOD8093477
_publ_section_title
;
Structure prediction by ZEFSAII (Michael W. Deem and Ramdas Pophale) SiO2 
 PCOD8093477
Probable space group: C 2/M
;
_chemical_formula_sum "Si O2"
_cell_formula_units_Z 56
_cell_length_a 15.616005
_cell_length_b 13.194240
_cell_length_c 23.872741
_cell_angle_alpha 90.000000
_cell_angle_beta 143.150124
_cell_angle_gamma 90.000000
_cell_volume 2949.887362
_symmetry_space_group_name_H-M "C 2/M"
_symmetry_group_IT_number 12
_symmetry_cell_setting 'monoclinic'
loop_
_space_group_symop_operation_xyz
x,y,z
-x,y,-z
-x,-y,-z
x,-y,z
1/2+x,1/2+y,z
1/2-x,1/2+y,-z
1/2-x,1/2-y,-z
1/2+x,1/2-y,z
loop_
_atom_site_type_symbol
_atom_site_label
_atom_site_fract_x
_atom_site_fract_y
_atom_site_fract_z
Si Si1 0.978771 0.120301 0.244471
Si Si2 0.788801 0.385719 0.420614
Si Si3 0.777565 0.757444 0.209210
Si Si4 0.700195 0.380669 0.952493
Si Si5 0.656009 0.616280 0.055833
Si Si6 0.435123 0.115739 0.378278
Si Si7 0.008604 0.616211 0.071258
O O1 0.877289 0.149879 0.242705
O O2 0.914667 0.162908 0.152144
O O3 0.134774 0.169936 0.338421
O O4 0.989244 0.000000 0.246697
O O5 0.763715 0.500000 0.427294
O O6 0.850269 0.384195 0.391095
O O7 0.904199 0.340951 0.525442
O O8 0.760507 0.684413 0.146921
O O9 0.853390 0.691490 0.295577
O O10 0.632332 0.807590 0.157130
O O11 0.693726 0.500000 0.945132
O O12 0.660282 0.343704 0.994010
O O13 0.860369 0.345282 0.020494
O O14 0.707229 0.500000 0.085625
O O15 0.500000 0.628984 0.000000
O O16 0.437820 0.000000 0.355855
O O17 0.042291 0.500000 0.106277
O O18 0.000000 0.625725 0.000000
#
# Coordination Sequence:
#
# PCOD8093477 Si02
#       7
#     8   8   8   8   8   8   8
#     4  10  20  34  54  79 102 134 181 224 264 309
#     4   8  17  36  58  77 101 135 178 224 270 318
#     4  12  22  31  52  82 109 141 173 221 271 315
#     4   9  19  36  55  72 104 147 179 219 262 306
#     4  10  23  38  49  72 110 146 180 215 261 324
#     4   9  19  36  56  78 105 138 175 220 271 324
#     4  10  19  36  55  75 107 143 185 226 258 304
#
# _framework density 18.983775000000001
#
# number of rings (size 3 to 8) (size 9 to 14) (size 15 to 20)
#    0.000    2.286    1.429    2.143    2.000    2.286 
#    0.000    0.000    0.000    0.000    0.000    8.000 
#    0.000    0.000    0.000    0.000    0.000    0.000 
#
# Total GULP energy -346994.470469 kJ/mol
# GULP energy per Si atom -12392.659660 kJ/mol
# Density = 1.894057 g / cm^3
# Si number density = 18.983775 Si / 1000 Ang^3
#
#
#
# Elastic Constant Matrix: (Units=GPa)
#
#
# Indices 1 2 3 4 5 6 
#
# 1 101.1178 15.8743 50.5412 0.0000 16.6979 0.0001
# 2 15.8743 60.5345 54.1676 0.0000 4.0578 0.0000
# 3 50.5412 54.1676 152.2476 0.0000 23.5253 0.0003
# 4 0.0000 0.0000 0.0000 38.7899 0.0000 -46.8999
# 5 16.6979 4.0578 23.5253 0.0000 27.1557 0.0001
# 6 0.0001 0.0000 0.0003 -46.8999 0.0001 204.7972
#
#
#
# Elastic Compliance Matrix: (Units=1/GPa)
#
#
# Indices 1 2 3 4 5 6 
#
# 1 0.012349 0.000146 -0.003435 0.000000 -0.004640 0.000000
# 2 0.000146 0.024710 -0.009531 0.000000 0.004475 0.000000
# 3 -0.003435 -0.009531 0.012184 0.000000 -0.007019 0.000000
# 4 0.000000 0.000000 0.000000 0.035651 0.000000 0.008164
# 5 -0.004640 0.004475 -0.007019 0.000000 0.045090 0.000000
# 6 0.000000 0.000000 0.000000 0.008164 0.000000 0.006753
#
#
# Mechanical properties :
#
#
# Convention : Reuss Voigt Hill
#
# Bulk Modulus (GPa) = 42.36651 61.67403 52.02027
# Shear Modulus (GPa) = 29.36930 67.03634 48.20282
#
# Velocity S-wave (km/s) = 3.93755 5.94887 5.04447
# Velocity P-wave (km/s) = 6.56034 8.92994 7.83524
#
# Compressibility (1/GPa) = 0.02360355
#
# Stress axis : x y z
#
# Youngs Moduli (GPa) = 80.97524 40.46904 82.07367
#
# Poissons Ratio (x) = -0.00590 0.28188
# Poissons Ratio (y) = -0.01181 0.78228
# Poissons Ratio (z) = 0.27811 0.38573
#
# Static dielectric constant tensor:
#      x y z
#    x 3.525150 0.000000 0.179540 
#    y 0.000000 3.492040 0.000000 
#    z 0.179540 0.000000 3.894380 
# 
# 
# High freq. dielectric constant tensor:
#      x y z
#    x 1.730950 0.000000 0.014930 
#    y 0.000000 1.729230 0.000000 
#    z 0.014930 0.000000 1.732470 
# 
# From -- ./inp_files/310836.got.cif
#   From: 2010.06.25/outbox.cif.g09.slc.cpg/sg12_156_cif.got.tgz:310836.got - 2010.06.28 00:19:55.
