data_PCOD8093600
_publ_section_title
;
Structure prediction by ZEFSAII (Michael W. Deem and Ramdas Pophale) SiO2 
 PCOD8093600
Probable space group: C 2/M
;
_chemical_formula_sum "Si O2"
_cell_formula_units_Z 56
_cell_length_a 15.075573
_cell_length_b 8.823202
_cell_length_c 24.732217
_cell_angle_alpha 90.000000
_cell_angle_beta 117.378610
_cell_angle_gamma 90.000000
_cell_volume 2921.257018
_symmetry_space_group_name_H-M "C 2/M"
_symmetry_group_IT_number 12
_symmetry_cell_setting 'monoclinic'
loop_
_space_group_symop_operation_xyz
x,y,z
-x,y,-z
-x,-y,-z
x,-y,z
1/2+x,1/2+y,z
1/2-x,1/2+y,-z
1/2-x,1/2-y,-z
1/2+x,1/2-y,z
loop_
_atom_site_type_symbol
_atom_site_label
_atom_site_fract_x
_atom_site_fract_y
_atom_site_fract_z
Si Si1 0.915557 0.178064 0.433088
Si Si2 0.767768 0.179399 0.563143
Si Si3 0.987412 0.820368 0.650273
Si Si4 0.815232 0.181249 0.862226
Si Si5 0.891073 0.180345 0.213301
Si Si6 0.890097 0.834698 0.992728
Si Si7 0.025710 0.818816 0.876934
O O1 0.815238 0.268382 0.417854
O O2 0.000000 0.220121 0.500000
O O3 0.951758 0.236351 0.384935
O O4 0.892406 0.000000 0.427813
O O5 0.750000 0.250000 0.500000
O O6 0.873830 0.238289 0.615674
O O7 0.766906 0.000000 0.556425
O O8 0.039387 0.757194 0.718963
O O9 0.987787 0.000000 0.650736
O O10 0.719027 0.254564 0.807780
O O11 0.911340 0.233500 0.854202
O O12 0.806801 0.000000 0.860523
O O13 0.824747 0.245933 0.927147
O O14 0.936624 0.243255 0.169938
O O15 0.886339 0.000000 0.212011
O O16 0.901487 0.751767 0.054550
O O17 0.842519 0.000000 0.989514
O O18 0.000000 0.855582 0.000000
O O19 0.030348 0.000000 0.881034
#
# Coordination Sequence:
#
# PCOD8093600 Si02
#       7
#     8   8   8   8   8   8   8
#     4  10  19  36  58  78 104 139 169 205 260 313
#     4  11  21  36  58  84 108 135 171 212 257 307
#     4   9  20  37  53  72 105 141 169 202 257 316
#     4   9  17  31  51  73  99 131 170 217 258 295
#     4  10  20  34  51  72 100 137 173 205 250 312
#     4   7  11  23  45  71  95 125 167 210 252 300
#     4   8  15  29  50  72  97 133 173 207 249 309
#
# _framework density 19.169829
#
# number of rings (size 3 to 8) (size 9 to 14) (size 15 to 20)
#    0.000    2.857    1.429    2.143    0.000    2.000 
#    0.000    4.286    0.000    3.857    0.000    0.000 
#    0.000    0.000    0.000    0.000    0.000    0.000 
#
# Total GULP energy -346980.821979 kJ/mol
# GULP energy per Si atom -12392.172214 kJ/mol
# Density = 1.912620 g / cm^3
# Si number density = 19.169829 Si / 1000 Ang^3
#
#
#
# Elastic Constant Matrix: (Units=GPa)
#
#
# Indices 1 2 3 4 5 6 
#
# 1 103.6640 18.4144 46.2221 0.0000 1.5111 0.0000
# 2 18.4144 23.3512 18.6505 0.0000 4.0154 0.0000
# 3 46.2221 18.6505 132.2311 0.0000 2.2855 0.0000
# 4 0.0000 0.0000 0.0000 13.4641 0.0000 6.0466
# 5 1.5111 4.0154 2.2855 0.0000 37.3673 0.0000
# 6 0.0000 0.0000 0.0000 6.0466 0.0000 26.6402
#
#
#
# Elastic Compliance Matrix: (Units=1/GPa)
#
#
# Indices 1 2 3 4 5 6 
#
# 1 0.012403 -0.007205 -0.003328 0.000000 0.000476 0.000000
# 2 -0.007205 0.053313 -0.004912 0.000000 -0.005137 0.000000
# 3 -0.003328 -0.004912 0.009417 0.000000 0.000086 0.000000
# 4 0.000000 0.000000 0.000000 0.082701 0.000000 -0.018771
# 5 0.000476 -0.005137 0.000086 0.000000 0.027289 0.000000
# 6 0.000000 0.000000 0.000000 -0.018771 0.000000 0.041798
#
#
# Mechanical properties :
#
#
# Convention : Reuss Voigt Hill
#
# Bulk Modulus (GPa) = 22.60222 47.31336 34.95779
# Shear Modulus (GPa) = 18.34469 27.22493 22.78481
#
# Velocity S-wave (km/s) = 3.09683 3.77264 3.45131
# Velocity P-wave (km/s) = 4.96016 6.61149 5.84444
#
# Compressibility (1/GPa) = 0.04424344
#
# Stress axis : x y z
#
# Youngs Moduli (GPa) = 80.62432 18.75718 106.19051
#
# Poissons Ratio (x) = 0.13515 0.35336
# Poissons Ratio (y) = 0.58091 0.52162
# Poissons Ratio (z) = 0.26828 0.09214
#
# Static dielectric constant tensor:
#      x y z
#    x 3.653720 0.000000 -0.063670 
#    y 0.000000 2.980580 0.000000 
#    z -0.063670 0.000000 3.909590 
# 
# 
# High freq. dielectric constant tensor:
#      x y z
#    x 1.747830 0.000000 -0.001380 
#    y 0.000000 1.692790 0.000000 
#    z -0.001380 0.000000 1.755570 
# 
# From -- ./inp_files/335322.got.cif
#   From: 2010.06.25/outbox.cif.g09.slc.cpg/sg12_168_cif.got.tgz:335322.got - 2010.06.28 00:19:55.
