data_PCOD8093712
_publ_section_title
;
Structure prediction by ZEFSAII (Michael W. Deem and Ramdas Pophale) SiO2 
 PCOD8093712
Probable space group: C 2/M
;
_chemical_formula_sum "Si O2"
_cell_formula_units_Z 56
_cell_length_a 30.752346
_cell_length_b 8.605764
_cell_length_c 18.182359
_cell_angle_alpha 90.000000
_cell_angle_beta 143.953228
_cell_angle_gamma 90.000000
_cell_volume 2831.549396
_symmetry_space_group_name_H-M "C 2/M"
_symmetry_group_IT_number 12
_symmetry_cell_setting 'monoclinic'
loop_
_space_group_symop_operation_xyz
x,y,z
-x,y,-z
-x,-y,-z
x,-y,z
1/2+x,1/2+y,z
1/2-x,1/2+y,-z
1/2-x,1/2-y,-z
1/2+x,1/2-y,z
loop_
_atom_site_type_symbol
_atom_site_label
_atom_site_fract_x
_atom_site_fract_y
_atom_site_fract_z
Si Si1 0.294872 0.180606 0.293575
Si Si2 0.273344 0.322707 0.416501
Si Si3 0.643796 0.316732 0.020680
Si Si4 0.832248 0.816235 0.109119
Si Si5 0.141263 0.321487 0.339027
Si Si6 0.003556 0.182922 0.919234
Si Si7 0.080789 0.183007 0.630159
O O1 0.286169 0.204193 0.368170
O O2 0.222561 0.250999 0.154437
O O3 0.365823 0.274579 0.363678
O O4 0.306085 0.000000 0.291053
O O5 0.281854 0.500000 0.401293
O O6 0.191967 0.289798 0.337191
O O7 0.334248 0.289815 0.561604
O O8 0.647475 0.500000 0.034019
O O9 0.630128 0.267864 0.917124
O O10 0.579584 0.255549 0.986819
O O11 0.884568 0.749458 0.246060
O O12 0.825144 0.000000 0.106187
O O13 0.750000 0.750000 0.000000
O O14 0.148074 0.500000 0.373397
O O15 0.058257 0.280083 0.206462
O O16 0.991543 0.000000 0.889887
O O17 0.000000 0.224833 0.000000
O O18 0.000000 0.254070 0.500000
O O19 0.073431 0.000000 0.627882
#
# Coordination Sequence:
#
# PCOD8093712 Si02
#       7
#     8   8   8   8   8   8   8
#     4  11  21  36  59  85 114 145 190 244 290 344
#     4  10  21  37  58  81 111 151 191 232 287 353
#     4   9  19  34  55  83 112 152 197 239 289 344
#     4  10  19  36  59  81 111 149 194 242 290 346
#     4  10  21  37  56  82 114 149 191 240 291 338
#     4  10  20  35  56  82 116 156 196 235 284 347
#     4  10  22  38  57  84 118 155 194 240 298 361
#
# _framework density 19.777159000000001
#
# number of rings (size 3 to 8) (size 9 to 14) (size 15 to 20)
#    0.000    2.000    1.429    2.143    0.000    4.571 
#    0.000    5.000    0.000    0.000    0.000    0.000 
#    0.000    0.000    0.000    0.000    0.000    0.000 
#
# Total GULP energy -347230.086453 kJ/mol
# GULP energy per Si atom -12401.074516 kJ/mol
# Density = 1.973215 g / cm^3
# Si number density = 19.777159 Si / 1000 Ang^3
#
#
#
# Elastic Constant Matrix: (Units=GPa)
#
#
# Indices 1 2 3 4 5 6 
#
# 1 129.9074 15.3232 67.4163 0.0000 3.2782 0.0000
# 2 15.3232 19.6064 18.9990 0.0000 -0.0640 0.0000
# 3 67.4163 18.9990 141.7200 0.0000 17.0731 0.0000
# 4 0.0000 0.0000 0.0000 28.4158 0.0000 0.2413
# 5 3.2782 -0.0640 17.0731 0.0000 32.6038 0.0000
# 6 0.0000 0.0000 0.0000 0.2413 0.0000 15.7879
#
#
#
# Elastic Compliance Matrix: (Units=1/GPa)
#
#
# Indices 1 2 3 4 5 6 
#
# 1 0.010526 -0.003687 -0.004680 0.000000 0.001385 0.000000
# 2 -0.003687 0.060540 -0.006853 0.000000 0.004078 0.000000
# 3 -0.004680 -0.006853 0.010829 0.000000 -0.005214 0.000000
# 4 0.000000 0.000000 0.000000 0.035196 0.000000 -0.000538
# 5 0.001385 0.004078 -0.005214 0.000000 0.033270 0.000000
# 6 0.000000 0.000000 0.000000 -0.000538 0.000000 0.063348
#
#
# Mechanical properties :
#
#
# Convention : Reuss Voigt Hill
#
# Bulk Modulus (GPa) = 19.43467 54.96788 37.20127
# Shear Modulus (GPa) = 19.13490 27.99450 23.56470
#
# Velocity S-wave (km/s) = 3.11388 3.76639 3.45557
# Velocity P-wave (km/s) = 4.77247 6.83873 5.89681
#
# Compressibility (1/GPa) = 0.05145444
#
# Stress axis : x y z
#
# Youngs Moduli (GPa) = 94.99835 16.51805 92.34212
#
# Poissons Ratio (x) = 0.06091 0.43216
# Poissons Ratio (y) = 0.35029 0.63284
# Poissons Ratio (z) = 0.44459 0.11320
#
# Static dielectric constant tensor:
#      x y z
#    x 3.717910 0.000000 -0.044340 
#    y 0.000000 3.313030 0.000000 
#    z -0.044340 0.000000 3.764610 
# 
# 
# High freq. dielectric constant tensor:
#      x y z
#    x 1.776710 0.000000 -0.003490 
#    y 0.000000 1.749900 0.000000 
#    z -0.003490 0.000000 1.776470 
# 
# From -- ./inp_files/281750.got.cif
#   From: 2010.06.25/outbox.cif.g09.slc.cpg/sg12_141_cif.got.tgz:281750.got - 2010.06.28 00:19:55.
