data_PCOD8093322
_publ_section_title
;
Structure prediction by ZEFSAII (Michael W. Deem and Ramdas Pophale) SiO2 
 PCOD8093322
Probable space group: C 2/M
;
_chemical_formula_sum "Si O2"
_cell_formula_units_Z 64
_cell_length_a 20.815336
_cell_length_b 16.583704
_cell_length_c 14.276384
_cell_angle_alpha 90.000000
_cell_angle_beta 144.084512
_cell_angle_gamma 90.000000
_cell_volume 2890.805043
_symmetry_space_group_name_H-M "C 2/M"
_symmetry_group_IT_number 12
_symmetry_cell_setting 'monoclinic'
loop_
_space_group_symop_operation_xyz
x,y,z
-x,y,-z
-x,-y,-z
x,-y,z
1/2+x,1/2+y,z
1/2-x,1/2+y,-z
1/2-x,1/2-y,-z
1/2+x,1/2-y,z
loop_
_atom_site_type_symbol
_atom_site_label
_atom_site_fract_x
_atom_site_fract_y
_atom_site_fract_z
Si Si1 0.456602 0.088688 0.605460
Si Si2 0.778959 0.249681 0.925025
Si Si3 0.333579 0.089795 0.654226
Si Si4 0.334292 0.911670 0.040707
Si Si5 0.833602 0.729659 0.385779
Si Si6 0.628920 0.588467 0.922483
Si Si7 0.598504 0.344627 0.373437
Si Si8 0.100478 0.749227 0.186866
O O1 0.398555 0.102820 0.635729
O O2 0.586570 0.100217 0.775949
O O3 0.409103 0.150479 0.474258
O O4 0.432207 0.000000 0.536337
O O5 0.674310 0.255959 0.732704
O O6 0.750000 0.250000 0.000000
O O7 0.849450 0.333085 0.990218
O O8 0.843760 0.165975 0.978837
O O9 0.205757 0.102775 0.481288
O O10 0.379002 0.153002 0.783810
O O11 0.351294 0.000000 0.715415
O O12 0.360034 0.000000 0.023391
O O13 0.209474 0.911235 0.928579
O O14 0.891186 0.796980 0.516905
O O15 0.710363 0.710233 0.275379
O O16 0.639266 0.500000 0.985515
O O17 0.505149 0.596793 0.739501
O O18 0.579839 0.282222 0.266569
O O19 0.000000 0.769572 0.000000
#
# Coordination Sequence:
#
# PCOD8093322 Si02
#       8
#     8   8   8   8   8   8   8   8
#     4  10  19  35  61  88 121 160 202 256 307 365
#     4  10  22  40  63  89 120 160 208 258 304 368
#     4  10  20  36  58  87 123 159 201 252 306 363
#     4   9  20  40  63  89 119 160 209 261 311 357
#     4  11  21  38  62  88 123 163 202 256 313 367
#     4  10  21  39  63  87 123 164 203 255 308 365
#     4  11  20  39  60  87 123 161 206 244 306 370
#     4  11  22  36  59  88 122 163 200 250 306 370
#
# _framework density 22.139161000000001
#
# number of rings (size 3 to 8) (size 9 to 14) (size 15 to 20)
#    0.000    1.750    2.500    2.625    1.750    0.750 
#    0.000   13.125    0.000   12.375    0.000    0.000 
#    0.000    0.000    0.000    0.000    0.000    0.000 
#
# Total GULP energy -396518.023487 kJ/mol
# GULP energy per Si atom -12391.188234 kJ/mol
# Density = 2.208877 g / cm^3
# Si number density = 22.139161 Si / 1000 Ang^3
#
#
#
# Elastic Constant Matrix: (Units=GPa)
#
#
# Indices 1 2 3 4 5 6 
#
# 1 54.0459 12.5991 36.0390 0.0000 0.4972 0.0000
# 2 12.5991 180.8849 50.4254 0.0000 -6.8864 0.0000
# 3 36.0390 50.4254 114.2478 0.0000 -3.0666 0.0000
# 4 0.0000 0.0000 0.0000 29.5423 0.0000 8.1899
# 5 0.4972 -6.8864 -3.0666 0.0000 44.9806 0.0000
# 6 0.0000 0.0000 0.0000 8.1899 0.0000 12.4159
#
#
#
# Elastic Compliance Matrix: (Units=1/GPa)
#
#
# Indices 1 2 3 4 5 6 
#
# 1 0.023492 0.000465 -0.007635 0.000000 -0.000709 0.000000
# 2 0.000465 0.006340 -0.002925 0.000000 0.000766 0.000000
# 3 -0.007635 -0.002925 0.012465 0.000000 0.000486 0.000000
# 4 0.000000 0.000000 0.000000 0.041425 0.000000 -0.027325
# 5 -0.000709 0.000766 0.000486 0.000000 0.022390 0.000000
# 6 0.000000 0.000000 0.000000 -0.027325 0.000000 0.098566
#
#
# Mechanical properties :
#
#
# Convention : Reuss Voigt Hill
#
# Bulk Modulus (GPa) = 45.23050 60.81171 53.02111
# Shear Modulus (GPa) = 21.52972 34.06209 27.79591
#
# Velocity S-wave (km/s) = 3.12183 3.92668 3.54716
# Velocity P-wave (km/s) = 5.78523 6.93441 6.38572
#
# Compressibility (1/GPa) = 0.02210897
#
# Stress axis : x y z
#
# Youngs Moduli (GPa) = 42.56781 157.71755 80.22370
#
# Poissons Ratio (x) = -0.07335 0.61249
# Poissons Ratio (y) = -0.01980 0.23462
# Poissons Ratio (z) = 0.32499 0.46126
#
# Static dielectric constant tensor:
#      x y z
#    x 3.664570 0.000000 0.259930 
#    y 0.000000 4.770510 0.000000 
#    z 0.259930 0.000000 4.058590 
# 
# 
# High freq. dielectric constant tensor:
#      x y z
#    x 1.840610 0.000000 0.025030 
#    y 0.000000 1.886400 0.000000 
#    z 0.025030 0.000000 1.868160 
# 
# From -- ./inp_files/241528.got.cif
#   From: 2010.06.25/outbox.cif.g09.slc.cpg/sg12_121_cif.got.tgz:241528.got - 2010.06.28 00:19:55.
