data_PCOD8093029
_publ_section_title
;
Structure prediction by ZEFSAII (Michael W. Deem and Ramdas Pophale) SiO2 
 PCOD8093029
Probable space group: C 2/M
;
_chemical_formula_sum "Si O2"
_cell_formula_units_Z 64
_cell_length_a 24.191997
_cell_length_b 8.887070
_cell_length_c 32.686602
_cell_angle_alpha 90.000000
_cell_angle_beta 28.903926
_cell_angle_gamma 90.000000
_cell_volume 3396.682576
_symmetry_space_group_name_H-M "C 2/M"
_symmetry_group_IT_number 12
_symmetry_cell_setting 'monoclinic'
loop_
_space_group_symop_operation_xyz
x,y,z
-x,y,-z
-x,-y,-z
x,-y,z
1/2+x,1/2+y,z
1/2-x,1/2+y,-z
1/2-x,1/2-y,-z
1/2+x,1/2-y,z
loop_
_atom_site_type_symbol
_atom_site_label
_atom_site_fract_x
_atom_site_fract_y
_atom_site_fract_z
Si Si1 0.188857 0.175881 0.501557
Si Si2 0.125281 0.167761 0.660448
Si Si3 0.360325 0.330161 0.256766
Si Si4 0.275878 0.176048 0.919516
Si Si5 0.080710 0.675601 0.094095
Si Si6 0.107866 0.676967 0.404407
Si Si7 0.891144 0.176680 0.769408
Si Si8 0.554136 0.822878 0.347394
O O1 0.250000 0.250000 0.500000
O O2 0.272711 0.211367 0.409449
O O3 0.071022 0.256178 0.570317
O O4 0.168694 0.000000 0.520759
O O5 0.087509 0.168897 0.731673
O O6 0.020218 0.215074 0.699637
O O7 0.167804 0.000000 0.620463
O O8 0.359365 0.500000 0.239312
O O9 0.449017 0.227775 0.174017
O O10 0.231152 0.262824 0.340351
O O11 0.371476 0.214592 0.891650
O O12 0.303987 0.253989 0.858338
O O13 0.267369 0.000000 0.917271
O O14 0.153360 0.236277 0.013269
O O15 0.090244 0.500000 0.078779
O O16 0.102175 0.500000 0.415298
O O17 0.000000 0.748126 0.500000
O O18 0.106486 0.718686 0.357454
O O19 0.871596 0.248684 0.737202
O O20 0.869227 0.000000 0.781214
O O21 0.549097 0.000000 0.343230
#
# Coordination Sequence:
#
# PCOD8093029 Si02
#       8
#     8   8   8   8   8   8   8   8
#     4  12  23  34  50  73 105 142 180 225 276 331
#     4  10  20  33  52  78 109 144 181 223 274 331
#     4  10  19  35  59  83 109 145 190 234 277 328
#     4  10  20  34  54  81 117 154 188 226 276 336
#     4  10  20  33  53  83 118 151 185 228 280 337
#     4   9  19  37  61  84 108 145 194 240 277 321
#     4  11  21  34  54  81 114 148 181 222 278 338
#     4  11  22  37  57  80 108 145 189 232 279 334
#
# _framework density 18.841913000000002
#
# number of rings (size 3 to 8) (size 9 to 14) (size 15 to 20)
#    0.000    1.625    2.500    3.375    0.000    4.000 
#    0.000    1.250    0.000    3.375    0.000    5.250 
#    0.000    0.000    0.000    0.000    0.000    0.000 
#
# Total GULP energy -396748.629027 kJ/mol
# GULP energy per Si atom -12398.394657 kJ/mol
# Density = 1.879903 g / cm^3
# Si number density = 18.841913 Si / 1000 Ang^3
#
#
#
# Elastic Constant Matrix: (Units=GPa)
#
#
# Indices 1 2 3 4 5 6 
#
# 1 68.6285 41.6736 44.2344 0.0519 1.8986 -0.1450
# 2 41.6736 68.5118 52.1791 0.0281 16.6866 -0.0946
# 3 44.2344 52.1791 133.0926 -0.0204 5.8869 0.0400
# 4 0.0519 0.0281 -0.0204 35.4762 0.0085 1.4002
# 5 1.8986 16.6866 5.8869 0.0085 27.9107 0.0689
# 6 -0.1450 -0.0946 0.0400 1.4002 0.0689 19.2412
#
#
#
# Elastic Compliance Matrix: (Units=1/GPa)
#
#
# Indices 1 2 3 4 5 6 
#
# 1 0.025445 -0.015276 -0.002822 -0.000032 0.007997 0.000096
# 2 -0.015276 0.033816 -0.007401 -0.000010 -0.017617 0.000130
# 3 -0.002822 -0.007401 0.011254 0.000019 0.002243 -0.000090
# 4 -0.000032 -0.000010 0.000019 0.028269 0.000000 -0.002057
# 5 0.007997 -0.017617 0.002243 0.000000 0.045344 -0.000193
# 6 0.000096 0.000130 -0.000090 -0.002057 -0.000193 0.052124
#
#
# Mechanical properties :
#
#
# Convention : Reuss Voigt Hill
#
# Bulk Modulus (GPa) = 51.23766 60.71190 55.97478
# Shear Modulus (GPa) = 19.70404 25.33534 22.51969
#
# Velocity S-wave (km/s) = 3.23732 3.67089 3.46090
# Velocity P-wave (km/s) = 6.42076 7.08936 6.76332
#
# Compressibility (1/GPa) = 0.01951689
#
# Stress axis : x y z
#
# Youngs Moduli (GPa) = 39.30048 29.57205 88.85873
#
# Poissons Ratio (x) = 0.45174 0.25073
# Poissons Ratio (y) = 0.60035 0.65766
# Poissons Ratio (z) = 0.11089 0.21887
#
# Static dielectric constant tensor:
#      x y z
#    x 2.969150 0.000790 0.322540 
#    y 0.000790 3.531340 -0.000990 
#    z 0.322540 -0.000990 3.443780 
# 
# 
# High freq. dielectric constant tensor:
#      x y z
#    x 1.704530 -0.000010 0.009490 
#    y -0.000010 1.725510 0.000010 
#    z 0.009490 0.000010 1.737370 
# 
# From -- ./inp_files/382267.got.cif
#   From: 2010.06.25/outbox.cif.g09.slc.cpg/sg12_192_cif.got.tgz:382267.got - 2010.06.28 00:19:55.
