data_PCOD8093924
_publ_section_title
;
Structure prediction by ZEFSAII (Michael W. Deem and Ramdas Pophale) SiO2 
 PCOD8093924
Probable space group: C 2/M
;
_chemical_formula_sum "Si O2"
_cell_formula_units_Z 64
_cell_length_a 30.422945
_cell_length_b 8.562675
_cell_length_c 19.208698
_cell_angle_alpha 90.000000
_cell_angle_beta 141.980825
_cell_angle_gamma 90.000000
_cell_volume 3082.028056
_symmetry_space_group_name_H-M "C 2/M"
_symmetry_group_IT_number 12
_symmetry_cell_setting 'monoclinic'
loop_
_space_group_symop_operation_xyz
x,y,z
-x,y,-z
-x,-y,-z
x,-y,z
1/2+x,1/2+y,z
1/2-x,1/2+y,-z
1/2-x,1/2-y,-z
1/2+x,1/2-y,z
loop_
_atom_site_type_symbol
_atom_site_label
_atom_site_fract_x
_atom_site_fract_y
_atom_site_fract_z
Si Si1 0.944924 0.180252 0.648147
Si Si2 0.677361 0.821276 0.248924
Si Si3 0.173732 0.179956 0.995161
Si Si4 0.086179 0.680615 0.767930
Si Si5 0.174841 0.317562 0.596189
Si Si6 0.319141 0.817196 0.240202
Si Si7 0.941703 0.679572 0.794431
Si Si8 0.417705 0.677067 0.984703
O O1 0.878788 0.218148 0.516669
O O2 0.938877 0.280958 0.709965
O O3 0.017727 0.214833 0.697951
O O4 0.943831 0.000000 0.668012
O O5 0.745025 0.707528 0.331121
O O6 0.635773 0.787832 0.269010
O O7 0.703308 0.000000 0.277393
O O8 0.624605 0.790826 0.118925
O O9 0.151544 0.281221 0.900870
O O10 0.111283 0.196861 0.973528
O O11 0.183570 0.000000 0.984749
O O12 0.246910 0.253512 0.116702
O O13 0.065031 0.500000 0.748693
O O14 0.112526 0.719286 0.722536
O O15 0.155272 0.500000 0.566799
O O16 0.167837 0.251167 0.666224
O O17 0.304651 0.000000 0.229593
O O18 0.963872 0.500000 0.830481
O O19 0.998968 0.780529 0.908911
O O20 0.408233 0.500000 0.946416
#
# Coordination Sequence:
#
# PCOD8093924 Si02
#       8
#     8   8   8   8   8   8   8   8
#     4  12  26  44  63  88 122 159 205 259 308 365
#     4  11  24  41  63  94 128 160 202 253 304 364
#     4  10  19  36  60  91 127 162 199 247 300 359
#     4  11  22  38  63  93 123 162 204 248 303 363
#     4  11  23  44  68  89 119 161 208 256 304 362
#     4   9  20  39  63  91 124 160 203 247 299 363
#     4  11  24  42  64  91 124 163 206 252 304 364
#     4  11  21  36  63  94 128 165 202 248 304 364
#
# _framework density 20.765549
#
# number of rings (size 3 to 8) (size 9 to 14) (size 15 to 20)
#    0.000    1.250    2.500    3.750    0.000    5.000 
#    0.000    5.625    0.000    0.000    0.000    0.000 
#    0.000    0.000    0.000    0.000    0.000    0.000 
#
# Total GULP energy -396987.484297 kJ/mol
# GULP energy per Si atom -12405.858884 kJ/mol
# Density = 2.071829 g / cm^3
# Si number density = 20.765549 Si / 1000 Ang^3
#
#
#
# Elastic Constant Matrix: (Units=GPa)
#
#
# Indices 1 2 3 4 5 6 
#
# 1 99.1065 27.5485 30.7938 0.0000 3.8607 0.0000
# 2 27.5485 51.5847 1.4024 0.0000 -1.1970 0.0000
# 3 30.7938 1.4024 101.7865 0.0000 5.2060 0.0000
# 4 0.0000 0.0000 0.0000 33.5086 0.0000 4.9246
# 5 3.8607 -1.1970 5.2060 0.0000 11.6233 0.0000
# 6 0.0000 0.0000 0.0000 4.9246 0.0000 27.3373
#
#
#
# Elastic Compliance Matrix: (Units=1/GPa)
#
#
# Indices 1 2 3 4 5 6 
#
# 1 0.013377 -0.007123 -0.003771 0.000000 -0.003488 0.000000
# 2 -0.007123 0.023239 0.001629 0.000000 0.004030 0.000000
# 3 -0.003771 0.001629 0.011125 0.000000 -0.003563 0.000000
# 4 0.000000 0.000000 0.000000 0.030655 0.000000 -0.005522
# 5 -0.003488 0.004030 -0.003563 0.000000 0.089204 0.000000
# 6 0.000000 0.000000 0.000000 -0.005522 0.000000 0.037575
#
#
# Mechanical properties :
#
#
# Convention : Reuss Voigt Hill
#
# Bulk Modulus (GPa) = 34.23277 41.32970 37.78124
# Shear Modulus (GPa) = 21.41871 27.34270 24.38071
#
# Velocity S-wave (km/s) = 3.21511 3.63262 3.43022
# Velocity P-wave (km/s) = 5.50488 6.12705 5.82428
#
# Compressibility (1/GPa) = 0.02921177
#
# Stress axis : x y z
#
# Youngs Moduli (GPa) = 74.75259 43.03186 89.88770
#
# Poissons Ratio (x) = 0.30650 0.33893
# Poissons Ratio (y) = 0.53243 -0.14639
# Poissons Ratio (z) = 0.28186 -0.07008
#
# Static dielectric constant tensor:
#      x y z
#    x 3.879420 0.000000 -0.024800 
#    y 0.000000 3.627150 0.000000 
#    z -0.024800 0.000000 3.686480 
# 
# 
# High freq. dielectric constant tensor:
#      x y z
#    x 1.825120 0.000000 0.000270 
#    y 0.000000 1.804260 0.000000 
#    z 0.000270 0.000000 1.808410 
# 
# From -- ./inp_files/295815.got.cif
#   From: 2010.06.25/outbox.cif.g09.slc.cpg/sg12_148_cif.got.tgz:295815.got - 2010.06.28 00:19:55.
