data_PCOD8093091
_publ_section_title
;
Structure prediction by ZEFSAII (Michael W. Deem and Ramdas Pophale) SiO2 
 PCOD8093091
Probable space group: C 2/M
;
_chemical_formula_sum "Si O2"
_cell_formula_units_Z 56
_cell_length_a 27.830783
_cell_length_b 13.526752
_cell_length_c 12.628611
_cell_angle_alpha 90.000000
_cell_angle_beta 140.161090
_cell_angle_gamma 90.000000
_cell_volume 3045.668921
_symmetry_space_group_name_H-M "C 2/M"
_symmetry_group_IT_number 12
_symmetry_cell_setting 'monoclinic'
loop_
_space_group_symop_operation_xyz
x,y,z
-x,y,-z
-x,-y,-z
x,-y,z
1/2+x,1/2+y,z
1/2-x,1/2+y,-z
1/2-x,1/2-y,-z
1/2+x,1/2-y,z
loop_
_atom_site_type_symbol
_atom_site_label
_atom_site_fract_x
_atom_site_fract_y
_atom_site_fract_z
Si Si1 0.427991 0.704883 0.590791
Si Si2 0.925798 0.885083 0.811697
Si Si3 0.843482 0.695811 0.122836
Si Si4 0.919467 0.110685 0.191847
Si Si5 0.785013 0.746774 0.234626
Si Si6 0.322840 0.389293 0.827312
Si Si7 0.503682 0.887809 0.628426
O O1 0.416176 0.684480 0.694119
O O2 0.492026 0.634177 0.650790
O O3 0.349681 0.686735 0.397308
O O4 0.451572 0.819475 0.613418
O O5 0.853401 0.864811 0.762356
O O6 0.930704 0.000000 0.785334
O O7 0.000000 0.853613 0.000000
O O8 0.871343 0.810527 0.176774
O O9 0.818076 0.671900 0.200344
O O10 0.908987 0.624505 0.191703
O O11 0.774947 0.681945 0.925155
O O12 0.905413 0.000000 0.212184
O O13 0.893857 0.120122 0.026470
O O14 0.744788 0.683395 0.257758
O O15 0.290308 0.500000 0.776456
O O16 0.500000 0.854167 0.500000
O O17 0.477454 0.000000 0.601072
#
# Coordination Sequence:
#
# PCOD8093091 Si02
#       7
#     8   8   8   8   8   8   8
#     4  11  20  32  56  85 111 137 180 230 273 314
#     4  10  19  35  59  86 108 137 181 228 278 328
#     4   9  19  36  53  76 113 147 178 215 272 331
#     4   9  17  32  55  82 108 140 183 225 265 324
#     4  10  20  33  50  79 114 145 174 215 273 333
#     4   9  18  33  55  80 103 139 187 225 263 319
#     4  10  20  36  58  80 104 142 191 228 254 308
#
# _framework density 18.386766000000001
#
# number of rings (size 3 to 8) (size 9 to 14) (size 15 to 20)
#    0.000    2.286    2.857    0.429    0.000    1.714 
#    0.000    5.714    0.000    0.429    0.000    0.000 
#    0.000    0.000    0.000    0.000    0.000    0.000 
#
# Total GULP energy -347137.048389 kJ/mol
# GULP energy per Si atom -12397.751728 kJ/mol
# Density = 1.834492 g / cm^3
# Si number density = 18.386766 Si / 1000 Ang^3
#
#
#
# Elastic Constant Matrix: (Units=GPa)
#
#
# Indices 1 2 3 4 5 6 
#
# 1 90.2507 31.9653 42.0985 0.0000 -6.1401 0.0000
# 2 31.9653 71.6853 25.7769 0.0000 -7.5166 0.0000
# 3 42.0985 25.7769 115.1658 0.0000 9.5640 0.0000
# 4 0.0000 0.0000 0.0000 20.5289 0.0000 -4.2761
# 5 -6.1401 -7.5166 9.5640 0.0000 31.3687 0.0000
# 6 0.0000 0.0000 0.0000 -4.2761 0.0000 26.1342
#
#
#
# Elastic Compliance Matrix: (Units=1/GPa)
#
#
# Indices 1 2 3 4 5 6 
#
# 1 0.015203 -0.004715 -0.004776 0.000000 0.003302 0.000000
# 2 -0.004715 0.017370 -0.002496 0.000000 0.004000 0.000000
# 3 -0.004776 -0.002496 0.011404 0.000000 -0.005010 0.000000
# 4 0.000000 0.000000 0.000000 0.050431 0.000000 0.008251
# 5 0.003302 0.004000 -0.005010 0.000000 0.035011 0.000000
# 6 0.000000 0.000000 0.000000 0.008251 0.000000 0.039614
#
#
# Mechanical properties :
#
#
# Convention : Reuss Voigt Hill
#
# Bulk Modulus (GPa) = 49.99843 52.97590 51.48716
# Shear Modulus (GPa) = 25.04070 27.42377 26.23223
#
# Velocity S-wave (km/s) = 3.69438 3.86618 3.78125
# Velocity P-wave (km/s) = 6.74163 6.98601 6.86491
#
# Compressibility (1/GPa) = 0.02000063
#
# Stress axis : x y z
#
# Youngs Moduli (GPa) = 65.77668 57.57192 87.69003
#
# Poissons Ratio (x) = 0.27148 0.41882
# Poissons Ratio (y) = 0.31017 0.21889
# Poissons Ratio (z) = 0.31416 0.14371
#
# Static dielectric constant tensor:
#      x y z
#    x 3.402280 0.000000 0.105420 
#    y 0.000000 3.122500 0.000000 
#    z 0.105420 0.000000 3.374600 
# 
# 
# High freq. dielectric constant tensor:
#      x y z
#    x 1.713950 0.000000 0.013470 
#    y 0.000000 1.682030 0.000000 
#    z 0.013470 0.000000 1.706210 
# 
# From -- ./inp_files/189228.got.cif
#   From: 2010.06.25/outbox.cif.g09.slc.cpg/sg12_95_cif.got.tgz:189228.got - 2010.06.28 00:19:55.
