data_PCOD8093090
_publ_section_title
;
Structure prediction by ZEFSAII (Michael W. Deem and Ramdas Pophale) SiO2 
 PCOD8093090
Probable space group: C 2/M
;
_chemical_formula_sum "Si O2"
_cell_formula_units_Z 40
_cell_length_a 29.758436
_cell_length_b 8.955040
_cell_length_c 14.794882
_cell_angle_alpha 90.000000
_cell_angle_beta 30.827456
_cell_angle_gamma 90.000000
_cell_volume 2020.432657
_symmetry_space_group_name_H-M "C 2/M"
_symmetry_group_IT_number 12
_symmetry_cell_setting 'monoclinic'
loop_
_space_group_symop_operation_xyz
x,y,z
-x,y,-z
-x,-y,-z
x,-y,z
1/2+x,1/2+y,z
1/2-x,1/2+y,-z
1/2-x,1/2-y,-z
1/2+x,1/2-y,z
loop_
_atom_site_type_symbol
_atom_site_label
_atom_site_fract_x
_atom_site_fract_y
_atom_site_fract_z
Si Si1 0.156906 0.328476 0.395576
Si Si2 0.732396 0.670321 0.624140
Si Si3 0.970285 0.676294 0.770888
Si Si4 0.719186 0.177615 0.961140
Si Si5 0.060229 0.323739 0.977226
O O1 0.164773 0.500000 0.348252
O O2 0.184539 0.317382 0.452870
O O3 0.215752 0.224355 0.231319
O O4 0.055598 0.270760 0.566695
O O5 0.709413 0.500000 0.642126
O O6 0.750000 0.750000 0.500000
O O7 0.653507 0.746401 0.812870
O O8 0.965428 0.500000 0.774920
O O9 0.879178 0.739750 0.888058
O O10 0.982618 0.724642 0.853930
O O11 0.720543 0.000000 0.966819
O O12 0.750000 0.250000 0.000000
O O13 0.074803 0.500000 0.944187
O O14 0.000000 0.264173 0.000000
#
# Coordination Sequence:
#
# PCOD8093090 Si02
#       5
#     8   8   8   8   8
#     4  10  21  40  63  88 118 157 202 247 295 355
#     4  11  22  35  56  86 123 160 201 249 298 356
#     4   9  19  37  61  86 117 158 199 238 295 362
#     4  11  23  41  64  89 119 156 200 251 303 359
#     4  10  19  35  59  85 118 159 203 245 292 358
#
# _framework density 19.797739
#
# number of rings (size 3 to 8) (size 9 to 14) (size 15 to 20)
#    0.000    1.800    2.000    2.400    0.000    5.200 
#    0.000    7.000    0.000    0.000    0.000    0.000 
#    0.000    0.000    0.000    0.000    0.000    0.000 
#
# Total GULP energy -247981.041877 kJ/mol
# GULP energy per Si atom -12399.052094 kJ/mol
# Density = 1.975268 g / cm^3
# Si number density = 19.797739 Si / 1000 Ang^3
#
#
#
# Elastic Constant Matrix: (Units=GPa)
#
#
# Indices 1 2 3 4 5 6 
#
# 1 122.2537 29.8490 49.1842 0.0000 -7.9996 0.0000
# 2 29.8490 52.9911 29.0568 -0.0001 0.3397 0.0000
# 3 49.1842 29.0568 134.2956 0.0000 -18.9417 0.0000
# 4 0.0000 -0.0001 0.0000 29.6728 0.0000 2.2138
# 5 -7.9996 0.3397 -18.9417 0.0000 33.9817 0.0000
# 6 0.0000 0.0000 0.0000 2.2138 0.0000 28.6707
#
#
#
# Elastic Compliance Matrix: (Units=1/GPa)
#
#
# Indices 1 2 3 4 5 6 
#
# 1 0.010409 -0.004373 -0.002729 0.000000 0.000973 0.000000
# 2 -0.004373 0.023541 -0.003983 0.000000 -0.003485 0.000000
# 3 -0.002729 -0.003983 0.010009 0.000000 0.004977 0.000000
# 4 0.000000 0.000000 0.000000 0.033896 0.000000 -0.002617
# 5 0.000973 -0.003485 0.004977 0.000000 0.032466 0.000000
# 6 0.000000 0.000000 0.000000 -0.002617 0.000000 0.035081
#
#
# Mechanical properties :
#
#
# Convention : Reuss Voigt Hill
#
# Bulk Modulus (GPa) = 45.89507 58.41337 52.15422
# Shear Modulus (GPa) = 28.59833 31.89507 30.24670
#
# Velocity S-wave (km/s) = 3.80481 4.01814 3.91293
# Velocity P-wave (km/s) = 6.52184 7.14817 6.84218
#
# Compressibility (1/GPa) = 0.02178883
#
# Stress axis : x y z
#
# Youngs Moduli (GPa) = 96.07160 42.47916 99.90582
#
# Poissons Ratio (x) = 0.18577 0.27261
# Poissons Ratio (y) = 0.42014 0.39796
# Poissons Ratio (z) = 0.26215 0.16921
#
# Static dielectric constant tensor:
#      x y z
#    x 3.806970 0.000000 -0.238910 
#    y 0.000000 3.400640 0.000000 
#    z -0.238910 0.000000 3.719840 
# 
# 
# High freq. dielectric constant tensor:
#      x y z
#    x 1.778130 0.000000 -0.005020 
#    y 0.000000 1.748960 0.000000 
#    z -0.005020 0.000000 1.783840 
# 
# From -- ./inp_files/211161.got.cif
#   From: 2010.06.25/outbox.cif.g09.slc.cpg/sg12_106_cif.got.tgz:211161.got - 2010.06.28 00:19:55.
