data_PCOD8093304
_publ_section_title
;
Structure prediction by ZEFSAII (Michael W. Deem and Ramdas Pophale) SiO2 
 PCOD8093304
Probable space group: C 2/M
;
_chemical_formula_sum "Si O2"
_cell_formula_units_Z 64
_cell_length_a 12.453025
_cell_length_b 13.651396
_cell_length_c 31.062667
_cell_angle_alpha 90.000000
_cell_angle_beta 35.823255
_cell_angle_gamma 90.000000
_cell_volume 3090.718196
_symmetry_space_group_name_H-M "C 2/M"
_symmetry_group_IT_number 12
_symmetry_cell_setting 'monoclinic'
loop_
_space_group_symop_operation_xyz
x,y,z
-x,y,-z
-x,-y,-z
x,-y,z
1/2+x,1/2+y,z
1/2-x,1/2+y,-z
1/2-x,1/2-y,-z
1/2+x,1/2-y,z
loop_
_atom_site_type_symbol
_atom_site_label
_atom_site_fract_x
_atom_site_fract_y
_atom_site_fract_z
Si Si1 0.634630 0.115620 0.048352
Si Si2 0.665945 0.111821 0.645994
Si Si3 0.613011 0.222792 0.582015
Si Si4 0.500806 0.707783 0.048912
Si Si5 0.906667 0.660446 0.203207
Si Si6 0.225566 0.213875 0.682970
Si Si7 0.838995 0.604858 0.807218
Si Si8 0.499407 0.388669 0.683343
O O1 0.544388 0.176119 0.038286
O O2 0.552918 0.168591 0.117284
O O3 0.591398 0.000000 0.059354
O O4 0.851076 0.137094 0.976434
O O5 0.705226 0.144446 0.584290
O O6 0.772833 0.182223 0.644164
O O7 0.446437 0.127237 0.727582
O O8 0.729658 0.000000 0.631915
O O9 0.750000 0.250000 0.500000
O O10 0.428814 0.169927 0.623598
O O11 0.570373 0.322821 0.621273
O O12 0.305290 0.689577 0.135366
O O13 0.500000 0.675537 0.000000
O O14 0.867494 0.764885 0.239921
O O15 0.721613 0.614894 0.243194
O O16 0.002439 0.593086 0.208127
O O17 0.089845 0.146647 0.699095
O O18 0.736721 0.500000 0.837691
O O19 0.562875 0.500000 0.655065
#
# Coordination Sequence:
#
# PCOD8093304 Si02
#       8
#     8   8   8   8   8   8   8   8
#     4  11  24  39  58  86 120 155 196 244 292 348
#     4   9  20  37  58  85 114 151 192 239 289 341
#     4  10  22  39  58  85 119 154 190 241 290 341
#     4  11  24  38  59  87 117 157 199 242 296 346
#     4  10  20  35  60  85 113 149 191 242 294 339
#     4   9  21  37  59  84 116 150 188 240 283 349
#     4  10  19  35  61  86 113 149 197 247 291 343
#     4  10  21  37  58  87 118 155 196 237 289 356
#
# _framework density 20.707160999999999
#
# number of rings (size 3 to 8) (size 9 to 14) (size 15 to 20)
#    0.000    2.000    1.250    1.500    7.000    7.250 
#    0.000    1.250    0.000    0.750    0.000    0.000 
#    0.000    0.000    0.000    0.000    0.000    0.000 
#
# Total GULP energy -396549.073759 kJ/mol
# GULP energy per Si atom -12392.158555 kJ/mol
# Density = 2.066003 g / cm^3
# Si number density = 20.707161 Si / 1000 Ang^3
#
#
#
# Elastic Constant Matrix: (Units=GPa)
#
#
# Indices 1 2 3 4 5 6 
#
# 1 60.4203 15.6011 0.2894 0.0000 -7.6675 -0.0002
# 2 15.6011 78.1887 -2.1438 0.0000 -3.5132 -0.0001
# 3 0.2894 -2.1438 69.5243 -0.0010 3.4088 0.0000
# 4 0.0000 0.0000 -0.0010 17.3910 0.0004 -0.1084
# 5 -7.6675 -3.5132 3.4088 0.0004 24.5873 0.0001
# 6 -0.0002 -0.0001 0.0000 -0.1084 0.0001 17.7141
#
#
#
# Elastic Compliance Matrix: (Units=1/GPa)
#
#
# Indices 1 2 3 4 5 6 
#
# 1 0.018089 -0.003387 -0.000436 0.000000 0.005218 0.000000
# 2 -0.003387 0.013513 0.000391 0.000000 0.000821 0.000000
# 3 -0.000436 0.000391 0.014500 0.000001 -0.002090 0.000000
# 4 0.000000 0.000000 0.000001 0.057503 -0.000001 0.000352
# 5 0.005218 0.000821 -0.002090 -0.000001 0.042706 0.000000
# 6 0.000000 0.000000 0.000000 0.000352 0.000000 0.056454
#
#
# Mechanical properties :
#
#
# Convention : Reuss Voigt Hill
#
# Bulk Modulus (GPa) = 25.48528 26.18075 25.83301
# Shear Modulus (GPa) = 22.45085 24.89757 23.67421
#
# Velocity S-wave (km/s) = 3.29630 3.47128 3.38492
# Velocity P-wave (km/s) = 5.17896 5.36070 5.27062
#
# Compressibility (1/GPa) = 0.03923834
#
# Stress axis : x y z
#
# Youngs Moduli (GPa) = 55.28076 74.00311 68.96642
#
# Poissons Ratio (x) = 0.25064 0.03004
# Poissons Ratio (y) = 0.18723 -0.02693
# Poissons Ratio (z) = 0.02408 -0.02890
#
# Static dielectric constant tensor:
#      x y z
#    x 3.810730 0.000000 0.029320 
#    y 0.000000 3.555230 0.000000 
#    z 0.029320 0.000000 3.629840 
# 
# 
# High freq. dielectric constant tensor:
#      x y z
#    x 1.808460 0.000000 0.000380 
#    y 0.000000 1.791780 0.000000 
#    z 0.000380 0.000000 1.801840 
# 
# From -- ./inp_files/374074.got.cif
#   From: 2010.06.25/outbox.cif.g09.slc.cpg/sg12_188_cif.got.tgz:374074.got - 2010.06.28 00:19:55.
