data_PCOD8093051
_publ_section_title
;
Structure prediction by ZEFSAII (Michael W. Deem and Ramdas Pophale) SiO2 
 PCOD8093051
Probable space group: C 2/M
;
_chemical_formula_sum "Si O2"
_cell_formula_units_Z 64
_cell_length_a 15.354920
_cell_length_b 17.592258
_cell_length_c 12.795116
_cell_angle_alpha 90.000000
_cell_angle_beta 110.655701
_cell_angle_gamma 90.000000
_cell_volume 3234.133268
_symmetry_space_group_name_H-M "C 2/M"
_symmetry_group_IT_number 12
_symmetry_cell_setting 'monoclinic'
loop_
_space_group_symop_operation_xyz
x,y,z
-x,y,-z
-x,-y,-z
x,-y,z
1/2+x,1/2+y,z
1/2-x,1/2+y,-z
1/2-x,1/2-y,-z
1/2+x,1/2-y,z
loop_
_atom_site_type_symbol
_atom_site_label
_atom_site_fract_x
_atom_site_fract_y
_atom_site_fract_z
Si Si1 0.379453 0.410592 0.206469
Si Si2 0.106489 0.590163 0.275388
Si Si3 0.108376 0.084944 0.561082
Si Si4 0.757152 0.660621 0.498245
Si Si5 0.246520 0.090668 0.271710
Si Si6 0.538777 0.590565 0.126103
Si Si7 0.396127 0.910223 0.166210
Si Si8 0.674592 0.089079 0.080276
O O1 0.396767 0.500000 0.226635
O O2 0.370386 0.375402 0.318581
O O3 0.467897 0.375959 0.183068
O O4 0.283553 0.393413 0.106018
O O5 0.122681 0.500000 0.290406
O O6 0.163974 0.631124 0.389947
O O7 0.138438 0.622404 0.175387
O O8 0.998867 0.612395 0.247672
O O9 0.155832 0.130620 0.488215
O O10 0.000000 0.083558 0.500000
O O11 0.150472 0.000000 0.576125
O O12 0.750000 0.750000 0.500000
O O13 0.778589 0.630997 0.391537
O O14 0.143506 0.118406 0.193695
O O15 0.319277 0.119824 0.215230
O O16 0.249732 0.000000 0.288378
O O17 0.536280 0.500000 0.124026
O O18 0.500000 0.622189 0.000000
O O19 0.385078 0.000000 0.153152
O O20 0.378736 0.875629 0.042504
O O21 0.655159 0.000000 0.077625
#
# Coordination Sequence:
#
# PCOD8093051 Si02
#       8
#     8   8   8   8   8   8   8   8
#     4   9  15  24  45  78 111 141 171 219 283 333
#     4  10  19  35  59  84 112 147 188 231 277 325
#     4  10  19  35  59  85 109 141 192 245 294 340
#     4  12  25  40  55  79 114 153 194 237 286 342
#     4  10  20  36  57  82 116 150 186 229 278 340
#     4   9  16  27  49  84 118 144 173 223 290 346
#     4   9  18  31  54  88 114 142 180 225 278 332
#     4   9  15  27  51  85 119 139 174 233 282 329
#
# _framework density 19.788919
#
# number of rings (size 3 to 8) (size 9 to 14) (size 15 to 20)
#    0.000    2.250    1.250    3.000    0.000    7.000 
#    2.250    1.875    0.000    2.250    0.000    0.000 
#    0.000    0.000    0.000    0.000    0.000    0.000 
#
# Total GULP energy -396693.773747 kJ/mol
# GULP energy per Si atom -12396.680430 kJ/mol
# Density = 1.974388 g / cm^3
# Si number density = 19.788919 Si / 1000 Ang^3
#
#
#
# Elastic Constant Matrix: (Units=GPa)
#
#
# Indices 1 2 3 4 5 6 
#
# 1 148.0769 26.5985 65.3399 0.0000 -6.1956 0.0000
# 2 26.5985 41.9992 33.4771 0.0000 0.0024 0.0000
# 3 65.3399 33.4771 162.8105 0.0000 -2.1188 0.0000
# 4 0.0000 0.0000 0.0000 3.1311 0.0000 0.3637
# 5 -6.1956 0.0024 -2.1188 0.0000 33.9269 0.0000
# 6 0.0000 0.0000 0.0000 0.3637 0.0000 4.9693
#
#
#
# Elastic Compliance Matrix: (Units=1/GPa)
#
#
# Indices 1 2 3 4 5 6 
#
# 1 0.008619 -0.003248 -0.002773 0.000000 0.001401 0.000000
# 2 -0.003248 0.029706 -0.004816 0.000000 -0.000896 0.000000
# 3 -0.002773 -0.004816 0.008245 0.000000 0.000009 0.000000
# 4 0.000000 0.000000 0.000000 0.322113 0.000000 -0.023576
# 5 0.001401 -0.000896 0.000009 0.000000 0.029732 0.000000
# 6 0.000000 0.000000 0.000000 -0.023576 0.000000 0.202962
#
#
# Mechanical properties :
#
#
# Convention : Reuss Voigt Hill
#
# Bulk Modulus (GPa) = 40.16762 67.07971 53.62366
# Shear Modulus (GPa) = 7.91954 23.57020 15.74487
#
# Velocity S-wave (km/s) = 2.00267 3.45495 2.82377
# Velocity P-wave (km/s) = 5.06850 7.06306 6.14721
#
# Compressibility (1/GPa) = 0.02489567
#
# Stress axis : x y z
#
# Youngs Moduli (GPa) = 116.02445 33.66310 121.28070
#
# Poissons Ratio (x) = 0.10935 0.33629
# Poissons Ratio (y) = 0.37688 0.58411
# Poissons Ratio (z) = 0.32171 0.16213
#
# Static dielectric constant tensor:
#      x y z
#    x 3.815400 0.000000 -0.075100 
#    y 0.000000 2.917990 0.000000 
#    z -0.075100 0.000000 3.866870 
# 
# 
# High freq. dielectric constant tensor:
#      x y z
#    x 1.788380 0.000000 -0.000170 
#    y 0.000000 1.691900 0.000000 
#    z -0.000170 0.000000 1.788510 
# 
# From -- ./inp_files/147678.got.cif
#   From: 2010.06.25/outbox.cif.g09.slc.cpg/sg12_74_cif.got.tgz:147678.got - 2010.06.28 00:19:55.
