data_PCOD8093588
_publ_section_title
;
Structure prediction by ZEFSAII (Michael W. Deem and Ramdas Pophale) SiO2 
 PCOD8093588
Probable space group: C 2/M
;
_chemical_formula_sum "Si O2"
_cell_formula_units_Z 48
_cell_length_a 8.937125
_cell_length_b 16.553738
_cell_length_c 26.459854
_cell_angle_alpha 90.000000
_cell_angle_beta 38.607049
_cell_angle_gamma 90.000000
_cell_volume 2442.581472
_symmetry_space_group_name_H-M "C 2/M"
_symmetry_group_IT_number 12
_symmetry_cell_setting 'monoclinic'
loop_
_space_group_symop_operation_xyz
x,y,z
-x,y,-z
-x,-y,-z
x,-y,z
1/2+x,1/2+y,z
1/2-x,1/2+y,-z
1/2-x,1/2-y,-z
1/2+x,1/2-y,z
loop_
_atom_site_type_symbol
_atom_site_label
_atom_site_fract_x
_atom_site_fract_y
_atom_site_fract_z
Si Si1 0.990432 0.216126 0.056181
Si Si2 0.107725 0.796653 0.305650
Si Si3 0.629137 0.859810 0.589482
Si Si4 0.533003 0.591437 0.415091
Si Si5 0.477908 0.312430 0.841671
Si Si6 0.392128 0.410652 0.281091
O O1 0.935358 0.168880 0.123076
O O2 0.799156 0.287230 0.093915
O O3 0.250000 0.250000 0.000000
O O4 0.000000 0.164819 0.000000
O O5 0.363363 0.760027 0.223420
O O6 0.924351 0.729482 0.375101
O O7 0.146663 0.865684 0.336664
O O8 0.001412 0.838281 0.284374
O O9 0.801234 0.857230 0.494921
O O10 0.392212 0.907854 0.636887
O O11 0.763000 0.911960 0.596451
O O12 0.456632 0.500000 0.421497
O O13 0.532111 0.394600 0.797070
O O14 0.483041 0.500000 0.272681
#
# Coordination Sequence:
#
# PCOD8093588 Si02
#       6
#     8   8   8   8   8   8
#     4   9  18  34  62  92 112 141 185 229 266 326
#     4  11  22  35  56  82 114 147 195 234 278 329
#     4  10  21  38  55  76 107 151 199 242 276 329
#     4  11  22  37  54  78 112 151 193 240 292 332
#     4  10  19  36  57  90 115 145 187 230 273 330
#     4  11  22  36  55  83 117 152 186 232 287 333
#
# _framework density 19.651340000000001
#
# number of rings (size 3 to 8) (size 9 to 14) (size 15 to 20)
#    0.000    1.667    1.667    5.000    2.333    2.000 
#    0.000    1.667    0.000    5.000    0.000    0.000 
#    0.000    0.000    0.000    0.000    0.000    0.000 
#
# Total GULP energy -297391.517090 kJ/mol
# GULP energy per Si atom -12391.313212 kJ/mol
# Density = 1.960661 g / cm^3
# Si number density = 19.651340 Si / 1000 Ang^3
#
#
#
# Elastic Constant Matrix: (Units=GPa)
#
#
# Indices 1 2 3 4 5 6 
#
# 1 88.6054 22.8053 45.8598 -0.0111 5.0137 0.0006
# 2 22.8053 107.9638 30.0651 -0.0005 6.4259 -0.0023
# 3 45.8598 30.0651 97.2200 -0.0194 5.8096 -0.0096
# 4 -0.0111 -0.0005 -0.0194 6.7229 0.0105 -3.1133
# 5 5.0137 6.4259 5.8096 0.0105 45.1958 -0.0003
# 6 0.0006 -0.0023 -0.0096 -3.1133 -0.0003 14.5256
#
#
#
# Elastic Compliance Matrix: (Units=1/GPa)
#
#
# Indices 1 2 3 4 5 6 
#
# 1 0.015119 -0.001292 -0.006695 0.000005 -0.000633 -0.000004
# 2 -0.001292 0.010295 -0.002515 -0.000008 -0.000997 -0.000002
# 3 -0.006695 -0.002515 0.014265 0.000039 -0.000734 0.000018
# 4 0.000005 -0.000008 0.000039 0.165137 -0.000042 0.035394
# 5 -0.000633 -0.000997 -0.000734 -0.000042 0.022432 -0.000009
# 6 -0.000004 -0.000002 0.000018 0.035394 -0.000009 0.076430
#
#
# Mechanical properties :
#
#
# Convention : Reuss Voigt Hill
#
# Bulk Modulus (GPa) = 53.54089 54.58328 54.06209
# Shear Modulus (GPa) = 15.10997 26.29277 20.70137
#
# Velocity S-wave (km/s) = 2.77592 3.66179 3.24918
# Velocity P-wave (km/s) = 6.13016 6.76124 6.45342
#
# Compressibility (1/GPa) = 0.01867731
#
# Stress axis : x y z
#
# Youngs Moduli (GPa) = 66.14083 97.13586 70.09953
#
# Poissons Ratio (x) = 0.12547 0.46929
# Poissons Ratio (y) = 0.08543 0.17628
# Poissons Ratio (z) = 0.44279 0.24427
#
# Static dielectric constant tensor:
#      x y z
#    x 3.934400 -0.000440 0.380690 
#    y -0.000440 3.707030 -0.000180 
#    z 0.380690 -0.000180 3.996340 
# 
# 
# High freq. dielectric constant tensor:
#      x y z
#    x 1.777960 0.000000 0.008290 
#    y 0.000000 1.726890 0.000000 
#    z 0.008290 0.000000 1.777460 
# 
# From -- ./inp_files/256130.got.cif
#   From: 2010.06.25/outbox.cif.g09.slc.cpg/sg12_129_cif.got.tgz:256130.got - 2010.06.28 00:19:55.
