data_PCOD8093534
_publ_section_title
;
Structure prediction by ZEFSAII (Michael W. Deem and Ramdas Pophale) SiO2 
 PCOD8093534
Probable space group: C 2/M
;
_chemical_formula_sum "Si O2"
_cell_formula_units_Z 64
_cell_length_a 29.089983
_cell_length_b 8.722196
_cell_length_c 14.251449
_cell_angle_alpha 90.000000
_cell_angle_beta 72.805874
_cell_angle_gamma 90.000000
_cell_volume 3454.395449
_symmetry_space_group_name_H-M "C 2/M"
_symmetry_group_IT_number 12
_symmetry_cell_setting 'monoclinic'
loop_
_space_group_symop_operation_xyz
x,y,z
-x,y,-z
-x,-y,-z
x,-y,z
1/2+x,1/2+y,z
1/2-x,1/2+y,-z
1/2-x,1/2-y,-z
1/2+x,1/2-y,z
loop_
_atom_site_type_symbol
_atom_site_label
_atom_site_fract_x
_atom_site_fract_y
_atom_site_fract_z
Si Si1 0.555184 0.825357 0.491244
Si Si2 0.428388 0.681099 0.809918
Si Si3 0.469492 0.679512 0.311530
Si Si4 0.867013 0.821626 0.679629
Si Si5 0.690173 0.819601 0.622688
Si Si6 0.403887 0.181119 0.208013
Si Si7 0.790061 0.679913 0.597639
Si Si8 0.444930 0.318085 0.008789
O O1 0.500000 0.801899 0.500000
O O2 0.561190 0.777903 0.595720
O O3 0.586468 0.710892 0.411243
O O4 0.573127 0.000000 0.466901
O O5 0.432088 0.500000 0.814761
O O6 0.475273 0.736978 0.723803
O O7 0.380852 0.729329 0.778501
O O8 0.429788 0.745098 0.914786
O O9 0.465187 0.500000 0.336465
O O10 0.447393 0.720014 0.224489
O O11 0.821446 0.730424 0.668056
O O12 0.854692 0.000000 0.682892
O O13 0.645158 0.764052 0.711781
O O14 0.737341 0.748999 0.641428
O O15 0.685772 0.766050 0.515963
O O16 0.695680 0.000000 0.624078
O O17 0.406332 0.230190 0.097862
O O18 0.411595 0.000000 0.215664
O O19 0.785193 0.500000 0.602368
O O20 0.438001 0.500000 0.022016
O O21 0.500000 0.271869 0.000000
#
# Coordination Sequence:
#
# PCOD8093534 Si02
#       8
#     8   8   8   8   8   8   8   8
#     4  11  22  33  46  72 109 144 178 223 270 311
#     4   9  19  34  52  75 104 142 188 228 263 315
#     4  11  20  34  53  74 104 146 190 222 262 323
#     4  11  21  35  55  77 107 149 189 221 268 333
#     4   9  20  38  57  79 112 145 176 220 274 333
#     4  11  22  35  54  83 114 142 178 229 285 333
#     4  10  20  36  59  85 112 140 179 226 274 328
#     4  10  19  36  57  77 106 146 190 236 276 320
#
# _framework density 18.52712
#
# number of rings (size 3 to 8) (size 9 to 14) (size 15 to 20)
#    0.000    1.750    2.500    2.625    0.000    3.250 
#    0.000    1.250    0.000    0.750    0.000    0.000 
#    0.000    0.000    0.000    0.000    0.000    0.000 
#
# Total GULP energy -396722.305010 kJ/mol
# GULP energy per Si atom -12397.572032 kJ/mol
# Density = 1.848495 g / cm^3
# Si number density = 18.527120 Si / 1000 Ang^3
#
#
#
# Elastic Constant Matrix: (Units=GPa)
#
#
# Indices 1 2 3 4 5 6 
#
# 1 101.3932 17.4502 44.2872 0.0000 11.0661 0.0000
# 2 17.4502 18.2039 11.2874 0.0000 -6.8244 0.0000
# 3 44.2872 11.2874 96.8320 0.0000 9.6777 0.0000
# 4 0.0000 0.0000 0.0000 26.2543 0.0000 0.6263
# 5 11.0661 -6.8244 9.6777 0.0000 27.9861 0.0000
# 6 0.0000 0.0000 0.0000 0.6263 0.0000 28.8531
#
#
#
# Elastic Compliance Matrix: (Units=1/GPa)
#
#
# Indices 1 2 3 4 5 6 
#
# 1 0.015252 -0.014932 -0.004421 0.000000 -0.008143 0.000000
# 2 -0.014932 0.083359 -0.005706 0.000000 0.028205 0.000000
# 3 -0.004421 -0.005706 0.013443 0.000000 -0.004292 0.000000
# 4 0.000000 0.000000 0.000000 0.038109 0.000000 -0.000827
# 5 -0.008143 0.028205 -0.004292 0.000000 0.047314 0.000000
# 6 0.000000 0.000000 0.000000 -0.000827 0.000000 0.034676
#
#
# Mechanical properties :
#
#
# Convention : Reuss Voigt Hill
#
# Bulk Modulus (GPa) = 16.14599 40.27543 28.21071
# Shear Modulus (GPa) = 16.50608 26.17900 21.34254
#
# Velocity S-wave (km/s) = 2.98806 3.76308 3.39774
# Velocity P-wave (km/s) = 4.54295 6.37706 5.53648
#
# Compressibility (1/GPa) = 0.06193488
#
# Stress axis : x y z
#
# Youngs Moduli (GPa) = 65.56322 11.99632 74.38544
#
# Poissons Ratio (x) = 0.17913 0.32889
# Poissons Ratio (y) = 0.97900 0.42447
# Poissons Ratio (z) = 0.28988 0.06846
#
# Static dielectric constant tensor:
#      x y z
#    x 3.450660 0.000000 0.241970 
#    y 0.000000 3.225980 0.000000 
#    z 0.241970 0.000000 3.571200 
# 
# 
# High freq. dielectric constant tensor:
#      x y z
#    x 1.708830 0.000000 0.015050 
#    y 0.000000 1.711590 0.000000 
#    z 0.015050 0.000000 1.709730 
# 
# From -- ./inp_files/243780.got.cif
#   From: 2010.06.25/outbox.cif.g09.slc.cpg/sg12_122_cif.got.tgz:243780.got - 2010.06.28 00:19:55.
