data_PCOD8093898
_publ_section_title
;
Structure prediction by ZEFSAII (Michael W. Deem and Ramdas Pophale) SiO2 
 PCOD8093898
Probable space group: C 2/M
;
_chemical_formula_sum "Si O2"
_cell_formula_units_Z 48
_cell_length_a 15.012542
_cell_length_b 17.664994
_cell_length_c 16.269511
_cell_angle_alpha 90.000000
_cell_angle_beta 145.399565
_cell_angle_gamma 90.000000
_cell_volume 2450.055122
_symmetry_space_group_name_H-M "C 2/M"
_symmetry_group_IT_number 12
_symmetry_cell_setting 'monoclinic'
loop_
_space_group_symop_operation_xyz
x,y,z
-x,y,-z
-x,-y,-z
x,-y,z
1/2+x,1/2+y,z
1/2-x,1/2+y,-z
1/2-x,1/2-y,-z
1/2+x,1/2-y,z
loop_
_atom_site_type_symbol
_atom_site_label
_atom_site_fract_x
_atom_site_fract_y
_atom_site_fract_z
Si Si1 0.918637 0.409636 0.174556
Si Si2 0.975694 0.089090 0.386901
Si Si3 0.334727 0.584367 0.888478
Si Si4 0.148719 0.410457 0.063208
Si Si5 0.766248 0.338855 0.517922
Si Si6 0.841353 0.415656 0.411588
O O1 0.946035 0.500000 0.204087
O O2 0.787174 0.378699 0.139272
O O3 0.080288 0.366588 0.316357
O O4 0.862070 0.386754 0.040518
O O5 0.808777 0.120359 0.226315
O O6 0.000000 0.110434 0.500000
O O7 0.112192 0.129053 0.441934
O O8 0.988629 0.000000 0.382043
O O9 0.368656 0.500000 0.949089
O O10 0.273298 0.579854 0.750692
O O11 0.500000 0.628748 0.000000
O O12 0.146585 0.500000 0.069858
O O13 0.000000 0.376451 0.000000
O O14 0.750000 0.250000 0.500000
O O15 0.765084 0.366695 0.424079
O O16 0.879979 0.500000 0.475583
O O17 0.000000 0.376220 0.500000
#
# Coordination Sequence:
#
# PCOD8093898 Si02
#       6
#     8   8   8   8   8   8
#     4  10  19  36  60  87 118 150 192 243 295 346
#     4  10  21  39  64  90 114 148 198 248 292 345
#     4   9  18  31  56  91 116 140 180 239 297 344
#     4   9  18  33  59  90 115 144 187 246 303 345
#     4  12  25  38  56  84 121 161 197 237 288 349
#     4  10  19  36  61  85 111 148 195 241 292 345
#
# _framework density 19.591394999999999
#
# number of rings (size 3 to 8) (size 9 to 14) (size 15 to 20)
#    0.000    2.000    1.667    2.500    2.333    3.333 
#    0.000    0.833    0.000    0.000    0.000    0.000 
#    0.000    0.000    0.000    0.000    0.000    0.000 
#
# Total GULP energy -297485.360340 kJ/mol
# GULP energy per Si atom -12395.223348 kJ/mol
# Density = 1.954680 g / cm^3
# Si number density = 19.591395 Si / 1000 Ang^3
#
#
#
# Elastic Constant Matrix: (Units=GPa)
#
#
# Indices 1 2 3 4 5 6 
#
# 1 190.6683 58.3492 91.9065 0.0022 12.1664 0.0022
# 2 58.3492 42.5294 33.3921 0.0013 0.3019 -0.0018
# 3 91.9065 33.3921 170.0932 0.0079 14.7413 -0.0007
# 4 0.0022 0.0013 0.0079 17.2997 0.0043 -19.0969
# 5 12.1664 0.3019 14.7413 0.0043 45.6739 0.0004
# 6 0.0022 -0.0018 -0.0007 -19.0969 0.0004 58.9650
#
#
#
# Elastic Compliance Matrix: (Units=1/GPa)
#
#
# Indices 1 2 3 4 5 6 
#
# 1 0.010559 -0.011953 -0.003212 0.000001 -0.001697 0.000000
# 2 -0.011953 0.041446 -0.001986 0.000000 0.003551 0.000002
# 3 -0.003212 -0.001986 0.008157 -0.000004 -0.001764 -0.000001
# 4 0.000001 0.000000 -0.000004 0.089970 -0.000008 0.029139
# 5 -0.001697 0.003551 -0.001764 -0.000008 0.022892 -0.000003
# 6 0.000000 0.000002 -0.000001 0.029139 -0.000003 0.026396
#
#
# Mechanical properties :
#
#
# Convention : Reuss Voigt Hill
#
# Bulk Modulus (GPa) = 38.66742 85.62072 62.14407
# Shear Modulus (GPa) = 20.63193 39.03059 29.83126
#
# Velocity S-wave (km/s) = 3.24869 4.46828 3.90638
# Velocity P-wave (km/s) = 5.81823 8.39159 7.22048
#
# Compressibility (1/GPa) = 0.02586156
#
# Stress axis : x y z
#
# Youngs Moduli (GPa) = 94.70586 24.12767 122.59037
#
# Poissons Ratio (x) = 0.28840 0.39372
# Poissons Ratio (y) = 1.13201 0.24344
# Poissons Ratio (z) = 0.30417 0.04791
#
# Static dielectric constant tensor:
#      x y z
#    x 3.893280 -0.000100 0.143530 
#    y -0.000100 3.124480 -0.000030 
#    z 0.143530 -0.000030 3.654670 
# 
# 
# High freq. dielectric constant tensor:
#      x y z
#    x 1.785120 0.000000 0.003740 
#    y 0.000000 1.703600 0.000000 
#    z 0.003740 0.000000 1.780130 
# 
# From -- ./inp_files/208005.got.cif
#   From: 2010.06.25/outbox.cif.g09.slc.cpg/sg12_105_cif.got.tgz:208005.got - 2010.06.28 00:19:55.
