data_PCOD8093669
_publ_section_title
;
Structure prediction by ZEFSAII (Michael W. Deem and Ramdas Pophale) SiO2 
 PCOD8093669
Probable space group: C 2/M
;
_chemical_formula_sum "Si O2"
_cell_formula_units_Z 44
_cell_length_a 10.004963
_cell_length_b 23.078073
_cell_length_c 15.821219
_cell_angle_alpha 90.000000
_cell_angle_beta 139.827425
_cell_angle_gamma 90.000000
_cell_volume 2356.549897
_symmetry_space_group_name_H-M "C 2/M"
_symmetry_group_IT_number 12
_symmetry_cell_setting 'monoclinic'
loop_
_space_group_symop_operation_xyz
x,y,z
-x,y,-z
-x,-y,-z
x,-y,z
1/2+x,1/2+y,z
1/2-x,1/2+y,-z
1/2-x,1/2-y,-z
1/2+x,1/2-y,z
loop_
_atom_site_type_symbol
_atom_site_label
_atom_site_fract_x
_atom_site_fract_y
_atom_site_fract_z
Si Si1 0.382585 0.222102 0.785804
Si Si2 0.247154 0.000000 0.136040
Si Si3 0.000000 0.207354 0.000000
Si Si4 0.873882 0.622076 0.526412
Si Si5 0.929428 0.783013 0.634087
Si Si6 0.603667 0.128164 0.807070
Si Si7 0.961477 0.500000 0.578352
O O1 0.501918 0.249778 0.921591
O O2 0.454781 0.260419 0.740998
O O3 0.449045 0.154787 0.803293
O O4 0.137081 0.223067 0.680668
O O5 0.351922 0.940229 0.151327
O O6 0.310991 0.000000 0.265978
O O7 0.000000 0.000000 0.000000
O O8 0.189192 0.164216 0.086069
O O9 0.649558 0.650601 0.404715
O O10 0.000000 0.626848 0.500000
O O11 0.012654 0.646361 0.670784
O O12 0.827500 0.556499 0.534728
O O13 0.750000 0.750000 0.500000
O O14 0.000000 0.500000 0.500000
#
# Coordination Sequence:
#
# PCOD8093669 Si02
#       7
#     8   4   4   8   8   8   4
#     4  12  25  39  58  91 123 161 195 251 301 367
#     4  10  20  38  63  86 116 165 205 252 293 362
#     4  12  22  41  58  89 122 156 204 244 306 352
#     4  10  19  36  58  87 119 152 195 250 299 356
#     4  12  22  37  60  86 121 156 196 240 307 360
#     4  11  22  38  62  87 122 156 205 250 298 357
#     4   8  18  34  55  87 118 147 200 248 294 345
#
# _framework density 18.671364000000001
#
# number of rings (size 3 to 8) (size 9 to 14) (size 15 to 20)
#    0.000    1.091    4.545    3.273    0.000    0.000 
#    0.000    0.909    0.000    3.818    0.000    0.000 
#    0.000    0.000    0.000    0.000    0.000    0.000 
#
# Total GULP energy -272562.876935 kJ/mol
# GULP energy per Si atom -12389.221679 kJ/mol
# Density = 1.862887 g / cm^3
# Si number density = 18.671364 Si / 1000 Ang^3
#
#
#
# Elastic Constant Matrix: (Units=GPa)
#
#
# Indices 1 2 3 4 5 6 
#
# 1 99.6033 52.1550 35.8220 0.0001 6.0342 0.0000
# 2 52.1550 137.2622 61.4279 0.0000 1.5217 0.0000
# 3 35.8220 61.4279 95.1657 0.0004 -10.7049 0.0001
# 4 0.0001 0.0000 0.0004 32.8609 0.0001 3.5207
# 5 6.0342 1.5217 -10.7049 0.0001 28.1898 0.0000
# 6 0.0000 0.0000 0.0001 3.5207 0.0000 26.4967
#
#
#
# Elastic Compliance Matrix: (Units=1/GPa)
#
#
# Indices 1 2 3 4 5 6 
#
# 1 0.013278 -0.003619 -0.003092 0.000000 -0.003821 0.000000
# 2 -0.003619 0.011515 -0.006323 0.000000 -0.002248 0.000000
# 3 -0.003092 -0.006323 0.016574 0.000000 0.007297 0.000000
# 4 0.000000 0.000000 0.000000 0.030871 0.000000 -0.004102
# 5 -0.003821 -0.002248 0.007297 0.000000 0.039184 0.000000
# 6 0.000000 0.000000 0.000000 -0.004102 0.000000 0.038286
#
#
# Mechanical properties :
#
#
# Convention : Reuss Voigt Hill
#
# Bulk Modulus (GPa) = 65.36437 70.09345 67.72891
# Shear Modulus (GPa) = 27.64298 29.68457 28.66377
#
# Velocity S-wave (km/s) = 3.85190 3.99161 3.92238
# Velocity P-wave (km/s) = 7.40721 7.67242 7.54098
#
# Compressibility (1/GPa) = 0.01529886
#
# Stress axis : x y z
#
# Youngs Moduli (GPa) = 75.30985 86.84035 60.33412
#
# Poissons Ratio (x) = 0.31431 0.18654
# Poissons Ratio (y) = 0.27257 0.38152
# Poissons Ratio (z) = 0.23285 0.54913
#
# Static dielectric constant tensor:
#      x y z
#    x 3.464020 0.000000 0.048880 
#    y 0.000000 -1.841930 0.000020 
#    z 0.048880 0.000020 3.756530 
# 
# 
# High freq. dielectric constant tensor:
#      x y z
#    x 1.696270 0.000000 -0.004880 
#    y 0.000000 1.741520 0.000000 
#    z -0.004880 0.000000 1.739980 
# 
# From -- ./inp_files/198632.got.cif
#   From: 2010.06.25/outbox.cif.g09.slc.cpg/sg12_100_cif.got.tgz:198632.got - 2010.06.28 00:19:55.
