data_PCOD8093952
_publ_section_title
;
Structure prediction by ZEFSAII (Michael W. Deem and Ramdas Pophale) SiO2 
 PCOD8093952
Probable space group: C 2/M
;
_chemical_formula_sum "Si O2"
_cell_formula_units_Z 56
_cell_length_a 18.503500
_cell_length_b 8.816802
_cell_length_c 19.588968
_cell_angle_alpha 90.000000
_cell_angle_beta 66.223839
_cell_angle_gamma 90.000000
_cell_volume 2924.543809
_symmetry_space_group_name_H-M "C 2/M"
_symmetry_group_IT_number 12
_symmetry_cell_setting 'monoclinic'
loop_
_space_group_symop_operation_xyz
x,y,z
-x,y,-z
-x,-y,-z
x,-y,z
1/2+x,1/2+y,z
1/2-x,1/2+y,-z
1/2-x,1/2-y,-z
1/2+x,1/2-y,z
loop_
_atom_site_type_symbol
_atom_site_label
_atom_site_fract_x
_atom_site_fract_y
_atom_site_fract_z
Si Si1 0.869378 0.179768 0.736234
Si Si2 0.701249 0.667528 0.818982
Si Si3 0.020931 0.676415 0.201226
Si Si4 0.230933 0.320718 0.436399
Si Si5 0.450039 0.821190 0.083834
Si Si6 0.573483 0.180154 0.424539
Si Si7 0.625617 0.333278 0.703834
O O1 0.779622 0.238418 0.771985
O O2 0.906239 0.230057 0.794958
O O3 0.920934 0.246102 0.653115
O O4 0.868853 0.000000 0.730461
O O5 0.723975 0.500000 0.839299
O O6 0.638418 0.752566 0.891885
O O7 0.650121 0.645813 0.771633
O O8 0.041241 0.500000 0.197879
O O9 0.000118 0.728933 0.131962
O O10 0.945735 0.715411 0.277449
O O11 0.229054 0.500000 0.441739
O O12 0.250000 0.250000 0.500000
O O13 0.148861 0.261318 0.437803
O O14 0.300535 0.260758 0.362382
O O15 0.438175 0.000000 0.090688
O O16 0.500000 0.766373 0.000000
O O17 0.500000 0.232850 0.500000
O O18 0.572195 0.000000 0.413951
O O19 0.601376 0.500000 0.683756
#
# Coordination Sequence:
#
# PCOD8093952 Si02
#       7
#     8   8   8   8   8   8   8
#     4  12  24  38  58  84 117 153 195 243 289 340
#     4  10  19  36  61  85 113 150 193 233 280 340
#     4  10  21  36  58  85 114 150 190 229 282 343
#     4  10  21  36  53  78 110 144 185 235 287 338
#     4   9  19  38  63  92 123 151 186 234 285 340
#     4  10  22  41  60  80 111 153 196 240 294 346
#     4   9  18  35  55  77 108 143 184 236 283 331
#
# _framework density 19.148285999999999
#
# number of rings (size 3 to 8) (size 9 to 14) (size 15 to 20)
#    0.000    2.000    1.429    2.143    2.000    2.857 
#    0.000    0.714    0.000    0.000    0.000    0.000 
#    0.000    0.000    0.000    0.000    0.000    0.000 
#
# Total GULP energy -346999.896892 kJ/mol
# GULP energy per Si atom -12392.853460 kJ/mol
# Density = 1.910470 g / cm^3
# Si number density = 19.148286 Si / 1000 Ang^3
#
#
#
# Elastic Constant Matrix: (Units=GPa)
#
#
# Indices 1 2 3 4 5 6 
#
# 1 79.1346 34.4532 39.7697 0.0000 -0.5896 -0.0001
# 2 34.4532 76.2972 38.8133 -0.0001 -3.3997 -0.0003
# 3 39.7697 38.8133 123.8599 0.0000 -17.4184 0.0000
# 4 0.0000 -0.0001 0.0000 25.0289 0.0000 -1.6946
# 5 -0.5896 -3.3997 -17.4184 0.0000 27.6996 0.0000
# 6 -0.0001 -0.0003 0.0000 -1.6946 0.0000 31.7788
#
#
#
# Elastic Compliance Matrix: (Units=1/GPa)
#
#
# Indices 1 2 3 4 5 6 
#
# 1 0.017214 -0.005808 -0.004120 0.000000 -0.002937 0.000000
# 2 -0.005808 0.017593 -0.003688 0.000000 -0.000283 0.000000
# 3 -0.004120 -0.003688 0.011493 0.000000 0.006687 0.000000
# 4 0.000000 0.000000 0.000000 0.040099 0.000000 0.002138
# 5 -0.002937 -0.000283 0.006687 0.000000 0.040209 0.000000
# 6 0.000000 0.000000 0.000000 0.002138 0.000000 0.031582
#
#
# Mechanical properties :
#
#
# Convention : Reuss Voigt Hill
#
# Bulk Modulus (GPa) = 52.44676 56.15155 54.29916
# Shear Modulus (GPa) = 26.07191 27.98515 27.02853
#
# Velocity S-wave (km/s) = 3.69396 3.82710 3.76112
# Velocity P-wave (km/s) = 6.75596 6.99408 6.87605
#
# Compressibility (1/GPa) = 0.01906695
#
# Stress axis : x y z
#
# Youngs Moduli (GPa) = 58.09153 56.84110 87.01265
#
# Poissons Ratio (x) = 0.33015 0.35851
# Poissons Ratio (y) = 0.33741 0.32090
# Poissons Ratio (z) = 0.23935 0.20963
#
# Static dielectric constant tensor:
#      x y z
#    x 3.555240 0.000000 -0.088500 
#    y 0.000000 3.647120 0.000000 
#    z -0.088500 0.000000 3.472570 
# 
# 
# High freq. dielectric constant tensor:
#      x y z
#    x 1.745100 0.000000 -0.010920 
#    y 0.000000 1.741180 0.000000 
#    z -0.010920 0.000000 1.736990 
# 
# From -- ./inp_files/313809.got.cif
#   From: 2010.06.25/outbox.cif.g09.slc.cpg/sg12_157_cif.got.tgz:313809.got - 2010.06.28 00:19:55.
