data_PCOD8093266
_publ_section_title
;
Structure prediction by ZEFSAII (Michael W. Deem and Ramdas Pophale) SiO2 
 PCOD8093266
Probable space group: C 2/M
;
_chemical_formula_sum "Si O2"
_cell_formula_units_Z 48
_cell_length_a 16.572355
_cell_length_b 29.913059
_cell_length_c 9.261548
_cell_angle_alpha 90.000000
_cell_angle_beta 33.825922
_cell_angle_gamma 90.000000
_cell_volume 2555.804539
_symmetry_space_group_name_H-M "C 2/M"
_symmetry_group_IT_number 12
_symmetry_cell_setting 'monoclinic'
loop_
_space_group_symop_operation_xyz
x,y,z
-x,y,-z
-x,-y,-z
x,-y,z
1/2+x,1/2+y,z
1/2-x,1/2+y,-z
1/2-x,1/2-y,-z
1/2+x,1/2-y,z
loop_
_atom_site_type_symbol
_atom_site_label
_atom_site_fract_x
_atom_site_fract_y
_atom_site_fract_z
Si Si1 0.313741 0.077217 0.171077
Si Si2 0.162000 0.500000 0.321513
Si Si3 0.921298 0.338679 0.478926
Si Si4 0.863464 0.426018 0.411981
Si Si5 0.126540 0.678227 0.932282
Si Si6 0.666331 0.500000 0.223787
Si Si7 0.330792 0.750018 0.729609
O O1 0.276352 0.065333 0.393626
O O2 0.292195 0.130362 0.188310
O O3 0.212949 0.046775 0.224147
O O4 0.472556 0.064570 0.878459
O O5 0.189105 0.457273 0.381378
O O6 0.000000 0.500000 0.500000
O O7 0.283152 0.500000 0.017536
O O8 0.840156 0.375333 0.502243
O O9 0.812239 0.299589 0.689203
O O10 0.000000 0.361904 0.500000
O O11 0.048798 0.314568 0.200628
O O12 0.251866 0.715788 0.734920
O O13 0.000000 0.681240 0.000000
O O14 0.500000 0.500000 0.500000
O O15 0.500000 0.737296 0.500000
O O16 0.250000 0.750000 0.000000
#
# Coordination Sequence:
#
# PCOD8093266 Si02
#       7
#     8   4   8   8   8   4   8
#     4  10  20  40  62  87 127 160 195 253 317 359
#     4  12  21  33  65  99 110 148 215 248 282 365
#     4  10  19  35  60  89 126 157 201 259 308 360
#     4  10  19  36  62  96 113 152 211 263 287 353
#     4  11  21  39  63  95 123 163 211 261 316 369
#     4  12  27  41  59  93 134 163 193 248 323 374
#     4  11  22  39  60  87 123 168 207 256 319 367
#
# _framework density 18.780778999999999
#
# number of rings (size 3 to 8) (size 9 to 14) (size 15 to 20)
#    0.000    1.333    8.333    1.000    2.333    2.667 
#    0.000    1.667    0.000    0.000    0.000    0.000 
#    0.000    0.000    0.000    0.000    0.000    0.000 
#
# Total GULP energy -297388.268192 kJ/mol
# GULP energy per Si atom -12391.177841 kJ/mol
# Density = 1.873803 g / cm^3
# Si number density = 18.780779 Si / 1000 Ang^3
#
#
#
# Elastic Constant Matrix: (Units=GPa)
#
#
# Indices 1 2 3 4 5 6 
#
# 1 82.7917 60.5811 56.3465 0.0000 19.2740 0.0000
# 2 60.5811 136.6458 55.1390 0.0000 3.4470 0.0000
# 3 56.3465 55.1390 117.4480 0.0000 19.4360 0.0000
# 4 0.0000 0.0000 0.0000 32.5888 0.0000 3.1268
# 5 19.2740 3.4470 19.4360 0.0000 31.6778 0.0000
# 6 0.0000 0.0000 0.0000 3.1268 0.0000 24.7801
#
#
#
# Elastic Compliance Matrix: (Units=1/GPa)
#
#
# Indices 1 2 3 4 5 6 
#
# 1 0.024762 -0.008157 -0.006348 0.000000 -0.010283 0.000000
# 2 -0.008157 0.011809 -0.002492 0.000000 0.005207 0.000000
# 3 -0.006348 -0.002492 0.013407 0.000000 -0.004092 0.000000
# 4 0.000000 0.000000 0.000000 0.031061 0.000000 -0.003919
# 5 -0.010283 0.005207 -0.004092 0.000000 0.039769 0.000000
# 6 0.000000 0.000000 0.000000 -0.003919 0.000000 0.040850
#
#
# Mechanical properties :
#
#
# Convention : Reuss Voigt Hill
#
# Bulk Modulus (GPa) = 62.56767 75.66875 69.11821
# Shear Modulus (GPa) = 24.87802 28.79726 26.83764
#
# Velocity S-wave (km/s) = 3.64353 3.92003 3.78431
# Velocity P-wave (km/s) = 7.14755 7.80172 7.48179
#
# Compressibility (1/GPa) = 0.01598269
#
# Stress axis : x y z
#
# Youngs Moduli (GPa) = 40.38501 84.68236 74.58544
#
# Poissons Ratio (x) = 0.69074 0.47350
# Poissons Ratio (y) = 0.32941 0.18589
# Poissons Ratio (z) = 0.25638 0.21106
#
# Static dielectric constant tensor:
#      x y z
#    x 3.069030 0.000000 0.413400 
#    y 0.000000 3.905960 0.000000 
#    z 0.413400 0.000000 3.385240 
# 
# 
# High freq. dielectric constant tensor:
#      x y z
#    x 1.719170 0.000000 0.037330 
#    y 0.000000 1.741310 0.000000 
#    z 0.037330 0.000000 1.711370 
# 
# From -- ./inp_files/80668.got.cif
#   From: 2010.06.25/outbox.cif.g09.slc.cpg/sg12_41_cif.got.tgz:80668.got - 2010.06.28 00:19:55.
