data_PCOD8093713
_publ_section_title
;
Structure prediction by ZEFSAII (Michael W. Deem and Ramdas Pophale) SiO2 
 PCOD8093713
Probable space group: C 2/M
;
_chemical_formula_sum "Si O2"
_cell_formula_units_Z 56
_cell_length_a 29.268077
_cell_length_b 8.881531
_cell_length_c 11.802824
_cell_angle_alpha 90.000000
_cell_angle_beta 70.800499
_cell_angle_gamma 90.000000
_cell_volume 2897.439557
_symmetry_space_group_name_H-M "C 2/M"
_symmetry_group_IT_number 12
_symmetry_cell_setting 'monoclinic'
loop_
_space_group_symop_operation_xyz
x,y,z
-x,y,-z
-x,-y,-z
x,-y,z
1/2+x,1/2+y,z
1/2-x,1/2+y,-z
1/2-x,1/2-y,-z
1/2+x,1/2-y,z
loop_
_atom_site_type_symbol
_atom_site_label
_atom_site_fract_x
_atom_site_fract_y
_atom_site_fract_z
Si Si1 0.484320 0.324894 0.208338
Si Si2 0.911627 0.677470 0.890931
Si Si3 0.605436 0.675166 0.865991
Si Si4 0.317344 0.174374 0.354476
Si Si5 0.709112 0.327303 0.397894
Si Si6 0.546564 0.321855 0.524819
Si Si7 0.629458 0.675017 0.293969
O O1 0.498562 0.500000 0.206595
O O2 0.533540 0.233803 0.158723
O O3 0.449710 0.295106 0.129678
O O4 0.454640 0.270119 0.343513
O O5 0.911814 0.500000 0.891033
O O6 0.879198 0.733157 0.813002
O O7 0.885776 0.735181 0.025679
O O8 0.613757 0.500000 0.882021
O O9 0.642723 0.727791 0.740808
O O10 0.314672 0.222126 0.487569
O O11 0.265784 0.206920 0.336665
O O12 0.331666 0.000000 0.335484
O O13 0.700630 0.500000 0.443095
O O14 0.683574 0.297165 0.297390
O O15 0.500000 0.252669 0.500000
O O16 0.545541 0.500000 0.519174
O O17 0.594054 0.263251 0.421850
O O18 0.619659 0.500000 0.275336
#
# Coordination Sequence:
#
# PCOD8093713 Si02
#       7
#     8   8   8   8   8   8   8
#     4  10  20  37  59  82 107 145 193 232 271 332
#     4  12  25  38  53  79 116 150 185 233 290 339
#     4  11  23  39  60  81 106 148 199 236 273 333
#     4  10  20  36  59  89 121 145 178 233 288 331
#     4   9  19  36  61  89 115 150 188 224 274 339
#     4   9  15  27  53  82 106 134 174 224 268 309
#     4  10  19  36  59  81 111 151 195 231 268 326
#
# _framework density 19.327408999999999
#
# number of rings (size 3 to 8) (size 9 to 14) (size 15 to 20)
#    0.000    1.857    1.429    3.429    0.000    6.286 
#    0.000    2.143    0.000    0.000    0.000    0.000 
#    0.000    0.000    0.000    0.000    0.000    0.000 
#
# Total GULP energy -347232.267356 kJ/mol
# GULP energy per Si atom -12401.152406 kJ/mol
# Density = 1.928342 g / cm^3
# Si number density = 19.327409 Si / 1000 Ang^3
#
#
#
# Elastic Constant Matrix: (Units=GPa)
#
#
# Indices 1 2 3 4 5 6 
#
# 1 101.5716 47.5664 31.5148 0.0000 12.6506 0.0000
# 2 47.5664 90.9065 40.8920 0.0000 10.7022 0.0000
# 3 31.5148 40.8920 73.5031 0.0000 15.0929 0.0000
# 4 0.0000 0.0000 0.0000 27.3484 0.0000 -0.7090
# 5 12.6506 10.7022 15.0929 0.0000 25.0404 0.0000
# 6 0.0000 0.0000 0.0000 -0.7090 0.0000 23.2818
#
#
#
# Elastic Compliance Matrix: (Units=1/GPa)
#
#
# Indices 1 2 3 4 5 6 
#
# 1 0.013586 -0.005878 -0.001896 0.000000 -0.003209 0.000000
# 2 -0.005878 0.017268 -0.007054 0.000000 -0.000159 0.000000
# 3 -0.001896 -0.007054 0.020002 0.000000 -0.008083 0.000000
# 4 0.000000 0.000000 0.000000 0.036594 0.000000 0.001114
# 5 -0.003209 -0.000159 -0.008083 0.000000 0.046496 0.000000
# 6 0.000000 0.000000 0.000000 0.001114 0.000000 0.042986
#
#
# Mechanical properties :
#
#
# Convention : Reuss Voigt Hill
#
# Bulk Modulus (GPa) = 47.17026 56.21418 51.69222
# Shear Modulus (GPa) = 23.40233 24.86799 24.13516
#
# Velocity S-wave (km/s) = 3.48348 3.59091 3.53760
# Velocity P-wave (km/s) = 6.37483 6.80744 6.59468
#
# Compressibility (1/GPa) = 0.02119980
#
# Stress axis : x y z
#
# Youngs Moduli (GPa) = 73.60551 57.91181 49.99574
#
# Poissons Ratio (x) = 0.34042 0.09479
# Poissons Ratio (y) = 0.43267 0.35265
# Poissons Ratio (z) = 0.13955 0.40849
#
# Static dielectric constant tensor:
#      x y z
#    x 3.625690 0.000000 0.105570 
#    y 0.000000 3.341580 0.000000 
#    z 0.105570 0.000000 3.553520 
# 
# 
# High freq. dielectric constant tensor:
#      x y z
#    x 1.755970 0.000000 0.008290 
#    y 0.000000 1.733930 0.000000 
#    z 0.008290 0.000000 1.747920 
# 
# From -- ./inp_files/180846.got.cif
#   From: 2010.06.25/outbox.cif.g09.slc.cpg/sg12_91_cif.got.tgz:180846.got - 2010.06.28 00:19:55.
