data_PCOD8093186
_publ_section_title
;
Structure prediction by ZEFSAII (Michael W. Deem and Ramdas Pophale) SiO2 
 PCOD8093186
Probable space group: C 2/M
;
_chemical_formula_sum "Si O2"
_cell_formula_units_Z 40
_cell_length_a 13.778961
_cell_length_b 12.887686
_cell_length_c 11.945083
_cell_angle_alpha 90.000000
_cell_angle_beta 108.434651
_cell_angle_gamma 90.000000
_cell_volume 2012.345728
_symmetry_space_group_name_H-M "C 2/M"
_symmetry_group_IT_number 12
_symmetry_cell_setting 'monoclinic'
loop_
_space_group_symop_operation_xyz
x,y,z
-x,y,-z
-x,-y,-z
x,-y,z
1/2+x,1/2+y,z
1/2-x,1/2+y,-z
1/2-x,1/2-y,-z
1/2+x,1/2-y,z
loop_
_atom_site_type_symbol
_atom_site_label
_atom_site_fract_x
_atom_site_fract_y
_atom_site_fract_z
Si Si1 0.620598 0.879756 0.757420
Si Si2 0.306618 0.250446 0.762081
Si Si3 0.146221 0.119007 0.595779
Si Si4 0.029251 0.211590 0.351144
Si Si5 0.117553 0.615596 0.013861
O O1 0.725711 0.843374 0.738978
O O2 0.522122 0.825549 0.664982
O O3 0.604915 0.000000 0.731115
O O4 0.628986 0.849567 0.890375
O O5 0.259329 0.157127 0.669879
O O6 0.408479 0.298258 0.742431
O O7 0.328486 0.202614 0.891488
O O8 0.106809 0.193183 0.481722
O O9 0.066162 0.130480 0.671422
O O10 0.150988 0.000000 0.558279
O O11 0.165654 0.500000 0.050357
O O12 0.000000 0.610206 0.000000
#
# Coordination Sequence:
#
# PCOD8093186 Si02
#       5
#     8   8   8   8   8
#     4  10  22  37  56  85 117 146 183 228 277 330
#     4  11  21  36  60  86 112 144 187 233 277 323
#     4  10  22  39  58  82 112 148 188 229 275 334
#     4  10  20  37  56  80 112 147 185 227 273 326
#     4  10  19  35  60  85 110 147 186 225 276 333
#
# _framework density 19.877299000000001
#
# number of rings (size 3 to 8) (size 9 to 14) (size 15 to 20)
#    0.000    1.800    2.000    3.000    0.000    2.400 
#    0.000    8.000    0.000    1.800    0.000    0.000 
#    0.000    0.000    0.000    0.000    0.000    0.000 
#
# Total GULP energy -247912.612275 kJ/mol
# GULP energy per Si atom -12395.630614 kJ/mol
# Density = 1.983206 g / cm^3
# Si number density = 19.877299 Si / 1000 Ang^3
#
#
#
# Elastic Constant Matrix: (Units=GPa)
#
#
# Indices 1 2 3 4 5 6 
#
# 1 74.0485 24.5434 14.8766 0.0000 -15.3926 0.0000
# 2 24.5434 107.9304 61.8633 0.0000 1.5953 0.0000
# 3 14.8766 61.8633 76.8142 0.0000 3.4945 0.0000
# 4 0.0000 0.0000 0.0000 39.9617 0.0000 6.8589
# 5 -15.3926 1.5953 3.4945 0.0000 33.5252 0.0000
# 6 0.0000 0.0000 0.0000 6.8589 0.0000 20.2013
#
#
#
# Elastic Compliance Matrix: (Units=1/GPa)
#
#
# Indices 1 2 3 4 5 6 
#
# 1 0.016405 -0.003383 -0.000806 0.000000 0.007777 0.000000
# 2 -0.003383 0.017920 -0.013733 0.000000 -0.000975 0.000000
# 3 -0.000806 -0.013733 0.024337 0.000000 -0.002253 0.000000
# 4 0.000000 0.000000 0.000000 0.026572 0.000000 -0.009022
# 5 0.007777 -0.000975 -0.002253 0.000000 0.033680 0.000000
# 6 0.000000 0.000000 0.000000 -0.009022 0.000000 0.052565
#
#
# Mechanical properties :
#
#
# Convention : Reuss Voigt Hill
#
# Bulk Modulus (GPa) = 43.82600 51.26220 47.54410
# Shear Modulus (GPa) = 23.26343 29.23830 26.25087
#
# Velocity S-wave (km/s) = 3.42475 3.83944 3.63801
# Velocity P-wave (km/s) = 6.14286 6.74540 6.45117
#
# Compressibility (1/GPa) = 0.02281751
#
# Stress axis : x y z
#
# Youngs Moduli (GPa) = 60.95843 55.80264 41.08996
#
# Poissons Ratio (x) = 0.18880 0.03312
# Poissons Ratio (y) = 0.20624 0.56428
# Poissons Ratio (z) = 0.04913 0.76632
#
# Static dielectric constant tensor:
#      x y z
#    x 3.691770 0.000000 -0.084000 
#    y 0.000000 3.553520 0.000000 
#    z -0.084000 0.000000 3.839160 
# 
# 
# High freq. dielectric constant tensor:
#      x y z
#    x 1.781390 0.000000 -0.001890 
#    y 0.000000 1.763360 0.000000 
#    z -0.001890 0.000000 1.767030 
# 
# From -- ./inp_files/140496.got.cif
#   From: 2010.06.25/outbox.cif.g09.slc.cpg/sg12_71_cif.got.tgz:140496.got - 2010.06.28 00:19:55.
