data_PCOD8093811
_publ_section_title
;
Structure prediction by ZEFSAII (Michael W. Deem and Ramdas Pophale) SiO2 
 PCOD8093811
Probable space group: C 2/M
;
_chemical_formula_sum "Si O2"
_cell_formula_units_Z 64
_cell_length_a 24.005439
_cell_length_b 9.453506
_cell_length_c 28.462341
_cell_angle_alpha 90.000000
_cell_angle_beta 147.273746
_cell_angle_gamma 90.000000
_cell_volume 3491.965865
_symmetry_space_group_name_H-M "C 2/M"
_symmetry_group_IT_number 12
_symmetry_cell_setting 'monoclinic'
loop_
_space_group_symop_operation_xyz
x,y,z
-x,y,-z
-x,-y,-z
x,-y,z
1/2+x,1/2+y,z
1/2-x,1/2+y,-z
1/2-x,1/2-y,-z
1/2+x,1/2-y,z
loop_
_atom_site_type_symbol
_atom_site_label
_atom_site_fract_x
_atom_site_fract_y
_atom_site_fract_z
Si Si1 0.666387 0.660769 0.913314
Si Si2 0.463827 0.335473 0.335045
Si Si3 0.154063 0.831264 0.410616
Si Si4 0.799174 0.167768 0.745704
Si Si5 0.432860 0.332733 0.751218
Si Si6 0.232520 0.159972 0.853679
Si Si7 0.912049 0.835228 0.402112
Si Si8 0.119098 0.840780 0.095011
O O1 0.667818 0.500000 0.933317
O O2 0.550698 0.725798 0.836159
O O3 0.702451 0.667213 0.885889
O O4 0.750000 0.750000 0.000000
O O5 0.459072 0.500000 0.319057
O O6 0.562537 0.274084 0.378808
O O7 0.359483 0.267317 0.241064
O O8 0.467866 0.303662 0.392690
O O9 0.250000 0.750000 0.500000
O O10 0.128544 0.782433 0.339079
O O11 0.171557 0.000000 0.426276
O O12 0.872195 0.218566 0.754585
O O13 0.689719 0.243536 0.662491
O O14 0.852896 0.214847 0.832712
O O15 0.781995 0.000000 0.731046
O O16 0.441396 0.500000 0.754995
O O17 0.332958 0.248942 0.912652
O O18 0.254236 0.000000 0.852812
O O19 0.000000 0.786779 0.500000
O O20 0.881976 0.000000 0.386200
O O21 0.159957 0.000000 0.119253
O O22 0.000000 0.831445 0.000000
#
# Coordination Sequence:
#
# PCOD8093811 Si02
#       8
#     8   8   8   8   8   8   8   8
#     4  10  21  37  59  84 109 144 186 224 270 326
#     4   9  17  34  57  77 104 140 179 221 266 320
#     4  10  20  36  57  81 107 140 181 222 268 321
#     4  10  21  37  55  78 110 146 182 220 266 323
#     4   9  19  37  57  76 108 150 181 212 267 334
#     4  10  19  36  60  82 105 141 187 228 270 323
#     4  10  21  36  56  81 108 143 182 222 272 321
#     4  10  22  37  55  82 111 144 184 224 272 325
#
# _framework density 18.327784999999999
#
# number of rings (size 3 to 8) (size 9 to 14) (size 15 to 20)
#    0.000    2.250    2.500    0.000    3.500    1.000 
#    0.000    2.500    0.000    0.000    0.000    0.000 
#    0.000    0.000    0.000    0.000    0.000    0.000 
#
# Total GULP energy -396690.256574 kJ/mol
# GULP energy per Si atom -12396.570518 kJ/mol
# Density = 1.828607 g / cm^3
# Si number density = 18.327785 Si / 1000 Ang^3
#
#
#
# Elastic Constant Matrix: (Units=GPa)
#
#
# Indices 1 2 3 4 5 6 
#
# 1 110.6637 35.5098 42.8680 0.0000 12.0659 0.0000
# 2 35.5098 44.1853 41.0936 0.0000 7.0457 -0.0002
# 3 42.8680 41.0936 123.9357 0.0000 -3.5530 0.0000
# 4 0.0000 0.0000 0.0000 31.2329 0.0000 3.0120
# 5 12.0659 7.0457 -3.5530 0.0000 29.5586 0.0000
# 6 0.0000 -0.0002 0.0000 3.0120 0.0000 24.7865
#
#
#
# Elastic Compliance Matrix: (Units=1/GPa)
#
#
# Indices 1 2 3 4 5 6 
#
# 1 0.012675 -0.007886 -0.001870 0.000000 -0.003519 0.000000
# 2 -0.007886 0.040287 -0.010851 0.000000 -0.007688 0.000000
# 3 -0.001870 -0.010851 0.012452 0.000000 0.004847 0.000000
# 4 0.000000 0.000000 0.000000 0.032397 0.000000 -0.003937
# 5 -0.003519 -0.007688 0.004847 0.000000 0.037683 0.000000
# 6 0.000000 0.000000 0.000000 -0.003937 0.000000 0.040823
#
#
# Mechanical properties :
#
#
# Convention : Reuss Voigt Hill
#
# Bulk Modulus (GPa) = 41.32141 57.52526 49.42334
# Shear Modulus (GPa) = 22.16334 27.73649 24.94991
#
# Velocity S-wave (km/s) = 3.48124 3.89441 3.69360
# Velocity P-wave (km/s) = 6.22522 7.18867 6.72422
#
# Compressibility (1/GPa) = 0.02420053
#
# Stress axis : x y z
#
# Youngs Moduli (GPa) = 78.89567 24.82197 80.30569
#
# Poissons Ratio (x) = 0.19574 0.15020
# Poissons Ratio (y) = 0.62215 0.87138
# Poissons Ratio (z) = 0.14756 0.26934
#
# Static dielectric constant tensor:
#      x y z
#    x 3.652810 0.000000 0.034530 
#    y 0.000000 3.101500 0.000000 
#    z 0.034530 0.000000 3.400670 
# 
# 
# High freq. dielectric constant tensor:
#      x y z
#    x 1.724920 0.000000 -0.001530 
#    y 0.000000 1.676170 0.000000 
#    z -0.001530 0.000000 1.722740 
# 
# From -- ./inp_files/382463.got.cif
#   From: 2010.06.25/outbox.cif.g09.slc.cpg/sg12_192_cif.got.tgz:382463.got - 2010.06.28 00:19:55.
