data_PCOD8093437
_publ_section_title
;
Structure prediction by ZEFSAII (Michael W. Deem and Ramdas Pophale) SiO2 
 PCOD8093437
Probable space group: C 2/M
;
_chemical_formula_sum "Si O2"
_cell_formula_units_Z 56
_cell_length_a 21.095130
_cell_length_b 12.782975
_cell_length_c 18.475609
_cell_angle_alpha 90.000000
_cell_angle_beta 145.244734
_cell_angle_gamma 90.000000
_cell_volume 2840.160151
_symmetry_space_group_name_H-M "C 2/M"
_symmetry_group_IT_number 12
_symmetry_cell_setting 'monoclinic'
loop_
_space_group_symop_operation_xyz
x,y,z
-x,y,-z
-x,-y,-z
x,-y,z
1/2+x,1/2+y,z
1/2-x,1/2+y,-z
1/2-x,1/2-y,-z
1/2+x,1/2-y,z
loop_
_atom_site_type_symbol
_atom_site_label
_atom_site_fract_x
_atom_site_fract_y
_atom_site_fract_z
Si Si1 0.280090 0.746623 0.202189
Si Si2 0.620889 0.623149 0.578182
Si Si3 0.947097 0.379345 0.272832
Si Si4 0.783132 0.621052 0.989895
Si Si5 0.921429 0.123088 0.985367
Si Si6 0.364126 0.735932 0.561791
Si Si7 0.547714 0.376972 0.827220
O O1 0.295720 0.671886 0.285307
O O2 0.394654 0.797265 0.280732
O O3 0.207695 0.680482 0.076997
O O4 0.203898 0.844751 0.150275
O O5 0.500000 0.641807 0.500000
O O6 0.643411 0.500000 0.588194
O O7 0.647750 0.681413 0.527672
O O8 0.933381 0.500000 0.284787
O O9 0.078203 0.350476 0.391905
O O10 0.890357 0.361220 0.141304
O O11 0.768424 0.500000 0.958038
O O12 0.671426 0.664768 0.923842
O O13 0.921783 0.000000 0.980776
O O14 0.971237 0.159178 0.108727
O O15 0.000000 0.176208 0.000000
O O16 0.250000 0.750000 0.500000
O O17 0.450837 0.666162 0.686928
O O18 0.545779 0.500000 0.815566
#
# Coordination Sequence:
#
# PCOD8093437 Si02
#       7
#     8   8   8   8   8   8   8
#     4  12  20  37  64  91 122 160 201 258 321 373
#     4  11  24  44  67  91 119 160 218 269 303 363
#     4  11  22  38  61  94 128 158 204 264 323 381
#     4  10  19  35  65  98 120 148 198 264 322 372
#     4  10  22  37  58  90 124 156 196 249 314 381
#     4  12  26  42  62  87 127 176 217 255 314 377
#     4  10  19  37  64  90 115 153 206 259 304 363
#
# _framework density 19.717198
#
# number of rings (size 3 to 8) (size 9 to 14) (size 15 to 20)
#    0.000    1.143    4.286    2.571    2.000    3.429 
#    0.000    2.143    0.000    0.857    0.000    0.000 
#    0.000    0.000    0.000    0.000    0.000    0.000 
#
# Total GULP energy -347054.953131 kJ/mol
# GULP energy per Si atom -12394.819755 kJ/mol
# Density = 1.967232 g / cm^3
# Si number density = 19.717198 Si / 1000 Ang^3
#
#
#
# Elastic Constant Matrix: (Units=GPa)
#
#
# Indices 1 2 3 4 5 6 
#
# 1 126.6611 40.9395 56.6113 0.0000 -7.7264 0.0000
# 2 40.9395 67.4890 40.3952 0.0000 -18.6457 0.0000
# 3 56.6113 40.3952 97.3191 0.0000 -11.3020 0.0000
# 4 0.0000 0.0000 0.0000 33.4718 0.0000 -0.9128
# 5 -7.7264 -18.6457 -11.3020 0.0000 34.3632 0.0000
# 6 0.0000 0.0000 0.0000 -0.9128 0.0000 24.1001
#
#
#
# Elastic Compliance Matrix: (Units=1/GPa)
#
#
# Indices 1 2 3 4 5 6 
#
# 1 0.011458 -0.004333 -0.005032 0.000000 -0.001430 0.000000
# 2 -0.004333 0.023945 -0.006262 0.000000 0.009959 0.000000
# 3 -0.005032 -0.006262 0.015883 0.000000 0.000695 0.000000
# 4 0.000000 0.000000 0.000000 0.029907 0.000000 0.001133
# 5 -0.001430 0.009959 0.000695 0.000000 0.034412 0.000000
# 6 0.000000 0.000000 0.000000 0.001133 0.000000 0.041537
#
#
# Mechanical properties :
#
#
# Convention : Reuss Voigt Hill
#
# Bulk Modulus (GPa) = 49.92417 63.04014 56.48215
# Shear Modulus (GPa) = 25.63141 28.62189 27.12665
#
# Velocity S-wave (km/s) = 3.60940 3.81415 3.71318
# Velocity P-wave (km/s) = 6.53800 7.17207 6.86236
#
# Compressibility (1/GPa) = 0.02003038
#
# Stress axis : x y z
#
# Youngs Moduli (GPa) = 87.27728 41.76165 62.96136
#
# Poissons Ratio (x) = 0.18097 0.31685
# Poissons Ratio (y) = 0.37820 0.39426
# Poissons Ratio (z) = 0.43922 0.26151
#
# Static dielectric constant tensor:
#      x y z
#    x 3.889960 0.000000 -0.047470 
#    y 0.000000 3.774780 0.000000 
#    z -0.047470 0.000000 3.583630 
# 
# 
# High freq. dielectric constant tensor:
#      x y z
#    x 1.757930 0.000000 -0.011570 
#    y 0.000000 1.785020 0.000000 
#    z -0.011570 0.000000 1.762000 
# 
# From -- ./inp_files/284601.got.cif
#   From: 2010.06.25/outbox.cif.g09.slc.cpg/sg12_143_cif.got.tgz:284601.got - 2010.06.28 00:19:55.
