data_PCOD8093705
_publ_section_title
;
Structure prediction by ZEFSAII (Michael W. Deem and Ramdas Pophale) SiO2 
 PCOD8093705
Probable space group: C 2/M
;
_chemical_formula_sum "Si O2"
_cell_formula_units_Z 56
_cell_length_a 14.433250
_cell_length_b 8.632834
_cell_length_c 27.511794
_cell_angle_alpha 90.000000
_cell_angle_beta 120.583360
_cell_angle_gamma 90.000000
_cell_volume 2951.100580
_symmetry_space_group_name_H-M "C 2/M"
_symmetry_group_IT_number 12
_symmetry_cell_setting 'monoclinic'
loop_
_space_group_symop_operation_xyz
x,y,z
-x,y,-z
-x,-y,-z
x,-y,z
1/2+x,1/2+y,z
1/2-x,1/2+y,-z
1/2-x,1/2-y,-z
1/2+x,1/2-y,z
loop_
_atom_site_type_symbol
_atom_site_label
_atom_site_fract_x
_atom_site_fract_y
_atom_site_fract_z
Si Si1 0.313101 0.183362 0.562039
Si Si2 0.253216 0.317412 0.350576
Si Si3 0.339452 0.316577 0.927489
Si Si4 0.565981 0.683167 0.948114
Si Si5 0.037642 0.816060 0.648834
Si Si6 0.482973 0.817437 0.735008
Si Si7 0.380102 0.317690 0.143746
O O1 0.250000 0.250000 0.500000
O O2 0.250287 0.236622 0.594077
O O3 0.433996 0.247817 0.594095
O O4 0.319415 0.000000 0.560362
O O5 0.262121 0.500000 0.350379
O O6 0.356458 0.247495 0.350215
O O7 0.141707 0.263456 0.295530
O O8 0.319899 0.500000 0.918919
O O9 0.444474 0.263566 0.926071
O O10 0.242073 0.225913 0.875877
O O11 0.354235 0.260522 0.987580
O O12 0.569332 0.500000 0.948724
O O13 0.600708 0.749365 0.905342
O O14 0.043265 0.764802 0.706372
O O15 0.033242 0.000000 0.644677
O O16 0.538123 0.769607 0.799558
O O17 0.490994 0.000000 0.728514
O O18 0.399678 0.500000 0.153331
#
# Coordination Sequence:
#
# PCOD8093705 Si02
#       7
#     8   8   8   8   8   8   8
#     4  10  20  36  55  82 115 146 177 213 252 301
#     4   8  18  36  57  76 103 140 176 211 258 307
#     4   9  17  34  55  74  98 134 170 207 256 313
#     4   8  17  33  53  74 101 133 169 208 255 311
#     4  10  19  36  59  81 104 137 175 218 264 306
#     4  10  21  38  54  74 103 138 175 214 257 311
#     4  11  21  33  50  77 105 132 168 215 260 305
#
# _framework density 18.975971999999999
#
# number of rings (size 3 to 8) (size 9 to 14) (size 15 to 20)
#    0.000    2.571    0.000    3.857    0.000    1.714 
#    0.000   17.857    0.000    0.000    0.000    0.000 
#    0.000    0.000    0.000    0.000    0.000    0.000 
#
# Total GULP energy -347143.955898 kJ/mol
# GULP energy per Si atom -12397.998425 kJ/mol
# Density = 1.893278 g / cm^3
# Si number density = 18.975972 Si / 1000 Ang^3
#
#
#
# Elastic Constant Matrix: (Units=GPa)
#
#
# Indices 1 2 3 4 5 6 
#
# 1 132.9849 28.3716 52.9897 0.0000 7.5630 0.0000
# 2 28.3716 51.5790 25.0255 0.0000 3.7231 0.0000
# 3 52.9897 25.0255 115.2508 0.0000 13.3269 0.0000
# 4 0.0000 0.0000 0.0000 30.2937 0.0000 3.0017
# 5 7.5630 3.7231 13.3269 0.0000 19.5079 0.0000
# 6 0.0000 0.0000 0.0000 3.0017 0.0000 24.7522
#
#
#
# Elastic Compliance Matrix: (Units=1/GPa)
#
#
# Indices 1 2 3 4 5 6 
#
# 1 0.009767 -0.003559 -0.003647 0.000000 -0.000616 0.000000
# 2 -0.003559 0.022985 -0.003265 0.000000 -0.000777 0.000000
# 3 -0.003647 -0.003265 0.011755 0.000000 -0.005994 0.000000
# 4 0.000000 0.000000 0.000000 0.033412 0.000000 -0.004052
# 5 -0.000616 -0.000777 -0.005994 0.000000 0.055743 0.000000
# 6 0.000000 0.000000 0.000000 -0.004052 0.000000 0.040892
#
#
# Mechanical properties :
#
#
# Convention : Reuss Voigt Hill
#
# Bulk Modulus (GPa) = 42.43202 56.95427 49.69315
# Shear Modulus (GPa) = 24.58804 27.80595 26.19699
#
# Velocity S-wave (km/s) = 3.60355 3.83211 3.71959
# Velocity P-wave (km/s) = 6.30266 7.04692 6.68516
#
# Compressibility (1/GPa) = 0.02356711
#
# Stress axis : x y z
#
# Youngs Moduli (GPa) = 102.38581 43.50584 85.06686
#
# Poissons Ratio (x) = 0.15482 0.31021
# Poissons Ratio (y) = 0.36435 0.27775
# Poissons Ratio (z) = 0.37337 0.14205
#
# Static dielectric constant tensor:
#      x y z
#    x 3.795340 0.000000 -0.104580 
#    y 0.000000 3.222250 0.000000 
#    z -0.104580 0.000000 3.562090 
# 
# 
# High freq. dielectric constant tensor:
#      x y z
#    x 1.744350 0.000000 0.004050 
#    y 0.000000 1.719380 0.000000 
#    z 0.004050 0.000000 1.739360 
# 
# From -- ./inp_files/360037.got.cif
#   From: 2010.06.25/outbox.cif.g09.slc.cpg/sg12_181_cif.got.tgz:360037.got - 2010.06.28 00:19:55.
