data_PCOD8093073
_publ_section_title
;
Structure prediction by ZEFSAII (Michael W. Deem and Ramdas Pophale) SiO2 
 PCOD8093073
Probable space group: C 2/M
;
_chemical_formula_sum "Si O2"
_cell_formula_units_Z 56
_cell_length_a 18.843762
_cell_length_b 9.026677
_cell_length_c 20.414112
_cell_angle_alpha 90.000000
_cell_angle_beta 59.712295
_cell_angle_gamma 90.000000
_cell_volume 2998.404751
_symmetry_space_group_name_H-M "C 2/M"
_symmetry_group_IT_number 12
_symmetry_cell_setting 'monoclinic'
loop_
_space_group_symop_operation_xyz
x,y,z
-x,y,-z
-x,-y,-z
x,-y,z
1/2+x,1/2+y,z
1/2-x,1/2+y,-z
1/2-x,1/2-y,-z
1/2+x,1/2-y,z
loop_
_atom_site_type_symbol
_atom_site_label
_atom_site_fract_x
_atom_site_fract_y
_atom_site_fract_z
Si Si1 0.964290 0.673022 0.321527
Si Si2 0.123551 0.824427 0.755751
Si Si3 0.331854 0.837321 0.951822
Si Si4 0.507743 0.324991 0.072551
Si Si5 0.146500 0.659950 0.207434
Si Si6 0.790049 0.828116 0.711279
Si Si7 0.026852 0.826826 0.415172
O O1 0.940851 0.500000 0.335521
O O2 0.903685 0.756385 0.300714
O O3 0.052305 0.706666 0.250112
O O4 0.965936 0.740060 0.394167
O O5 0.068758 0.774195 0.844968
O O6 0.216533 0.769079 0.717697
O O7 0.121550 0.000000 0.751082
O O8 0.410258 0.747451 0.938616
O O9 0.327175 0.859647 0.877688
O O10 0.331785 0.000000 0.985831
O O11 0.250000 0.750000 0.000000
O O12 0.518006 0.500000 0.071905
O O13 0.500000 0.274873 0.000000
O O14 0.157766 0.500000 0.238589
O O15 0.201138 0.786336 0.216272
O O16 0.876905 0.783807 0.637246
O O17 0.768806 0.000000 0.712675
O O18 0.000000 0.780542 0.500000
O O19 0.014685 0.000000 0.407268
#
# Coordination Sequence:
#
# PCOD8093073 Si02
#       7
#     8   8   8   8   8   8   8
#     4  10  19  35  59  85 112 145 189 232 277 333
#     4  11  22  37  58  82 115 153 191 235 285 340
#     4  11  23  38  56  80 110 145 188 237 287 338
#     4  10  23  41  58  79 110 151 194 239 291 341
#     4   9  19  36  55  76 107 144 183 230 280 331
#     4  10  21  35  57  86 114 145 186 230 276 333
#     4   9  19  38  62  88 118 150 185 227 279 338
#
# _framework density 18.676597999999998
#
# number of rings (size 3 to 8) (size 9 to 14) (size 15 to 20)
#    0.000    2.000    1.429    1.714    2.000    3.429 
#    0.000    0.714    0.000    0.000    0.000    0.000 
#    0.000    0.000    0.000    0.000    0.000    0.000 
#
# Total GULP energy -347005.032242 kJ/mol
# GULP energy per Si atom -12393.036866 kJ/mol
# Density = 1.863409 g / cm^3
# Si number density = 18.676598 Si / 1000 Ang^3
#
#
#
# Elastic Constant Matrix: (Units=GPa)
#
#
# Indices 1 2 3 4 5 6 
#
# 1 128.0307 54.4153 63.4145 0.0000 2.2592 -0.0002
# 2 54.4153 65.4297 37.0029 0.0001 6.5209 -0.0005
# 3 63.4145 37.0029 85.1605 0.0000 18.5692 0.0001
# 4 0.0000 0.0001 0.0000 18.6499 0.0000 5.9348
# 5 2.2592 6.5209 18.5692 0.0000 22.8371 -0.0001
# 6 -0.0002 -0.0005 0.0001 5.9348 -0.0001 34.1408
#
#
#
# Elastic Compliance Matrix: (Units=1/GPa)
#
#
# Indices 1 2 3 4 5 6 
#
# 1 0.016653 -0.008765 -0.010670 0.000000 0.009532 0.000000
# 2 -0.008765 0.024928 -0.003576 0.000000 -0.003343 0.000000
# 3 -0.010670 -0.003576 0.025269 0.000000 -0.018470 0.000000
# 4 0.000000 0.000000 0.000000 0.056759 0.000000 -0.009867
# 5 0.009532 -0.003343 -0.018470 0.000000 0.058819 0.000000
# 6 0.000000 0.000000 0.000000 -0.009867 0.000000 0.031006
#
#
# Mechanical properties :
#
#
# Convention : Reuss Voigt Hill
#
# Bulk Modulus (GPa) = 48.01133 65.36513 56.68823
# Shear Modulus (GPa) = 18.76880 23.37810 21.07345
#
# Velocity S-wave (km/s) = 3.17351 3.54182 3.36271
# Velocity P-wave (km/s) = 6.26025 7.19725 6.74504
#
# Compressibility (1/GPa) = 0.02082842
#
# Stress axis : x y z
#
# Youngs Moduli (GPa) = 60.04992 40.11477 39.57353
#
# Poissons Ratio (x) = 0.35160 0.42227
# Poissons Ratio (y) = 0.52633 0.14151
# Poissons Ratio (z) = 0.64076 0.14344
#
# Static dielectric constant tensor:
#      x y z
#    x 3.358660 0.000000 0.240130 
#    y 0.000000 3.758580 -0.000010 
#    z 0.240130 -0.000010 3.286060 
# 
# 
# High freq. dielectric constant tensor:
#      x y z
#    x 1.728130 0.000000 0.005080 
#    y 0.000000 1.735110 0.000000 
#    z 0.005080 0.000000 1.714450 
# 
# From -- ./inp_files/275157.got.cif
#   From: 2010.06.25/outbox.cif.g09.slc.cpg/sg12_138_cif.got.tgz:275157.got - 2010.06.28 00:19:55.
