data_PCOD8093396
_publ_section_title
;
Structure prediction by ZEFSAII (Michael W. Deem and Ramdas Pophale) SiO2 
 PCOD8093396
Probable space group: C 2/M
;
_chemical_formula_sum "Si O2"
_cell_formula_units_Z 56
_cell_length_a 10.923815
_cell_length_b 22.269402
_cell_length_c 11.503634
_cell_angle_alpha 90.000000
_cell_angle_beta 110.926163
_cell_angle_gamma 90.000000
_cell_volume 2613.870759
_symmetry_space_group_name_H-M "C 2/M"
_symmetry_group_IT_number 12
_symmetry_cell_setting 'monoclinic'
loop_
_space_group_symop_operation_xyz
x,y,z
-x,y,-z
-x,-y,-z
x,-y,z
1/2+x,1/2+y,z
1/2-x,1/2+y,-z
1/2-x,1/2-y,-z
1/2+x,1/2-y,z
loop_
_atom_site_type_symbol
_atom_site_label
_atom_site_fract_x
_atom_site_fract_y
_atom_site_fract_z
Si Si1 0.907713 0.714167 0.267605
Si Si2 0.356744 0.881328 0.441840
Si Si3 0.108821 0.929243 0.234797
Si Si4 0.551780 0.931850 0.899984
Si Si5 0.113873 0.152511 0.777992
Si Si6 0.795514 0.144601 0.934753
Si Si7 0.141449 0.365448 0.299062
O O1 0.881282 0.681202 0.381570
O O2 0.931559 0.784742 0.294257
O O3 0.778356 0.702655 0.144525
O O4 0.041422 0.690811 0.251826
O O5 0.500000 0.913492 0.500000
O O6 0.252162 0.923535 0.342049
O O7 0.300591 0.868035 0.551399
O O8 0.100862 0.887426 0.116891
O O9 0.994843 0.899976 0.277443
O O10 0.079853 0.000000 0.202059
O O11 0.691467 0.907585 0.914209
O O12 0.448722 0.923364 0.759834
O O13 0.576818 0.000000 0.935814
O O14 0.500000 0.899386 0.000000
O O15 0.244724 0.133758 0.756442
O O16 0.138322 0.163734 0.922902
#
# Coordination Sequence:
#
# PCOD8093396 Si02
#       7
#     8   8   8   8   8   8   8
#     4   9  22  40  64  92 126 164 221 266 314 383
#     4   9  21  46  68  95 123 164 222 269 316 379
#     4  11  26  44  64  94 132 175 219 261 321 394
#     4  10  19  35  62  94 126 162 211 267 314 373
#     4  12  24  39  62  95 131 174 203 266 329 387
#     4  10  21  41  62  91 128 171 218 259 316 381
#     4  10  22  40  63  96 125 164 213 269 325 376
#
# _framework density 21.424166
#
# number of rings (size 3 to 8) (size 9 to 14) (size 15 to 20)
#    0.000    1.857    1.429    2.143    4.000    4.286 
#    7.714    0.714    0.000    0.000    0.000    0.000 
#    0.000    0.000    0.000    0.000    0.000    0.000 
#
# Total GULP energy -347014.420786 kJ/mol
# GULP energy per Si atom -12393.372171 kJ/mol
# Density = 2.137540 g / cm^3
# Si number density = 21.424166 Si / 1000 Ang^3
#
#
#
# Elastic Constant Matrix: (Units=GPa)
#
#
# Indices 1 2 3 4 5 6 
#
# 1 93.3431 29.2020 7.4472 0.0000 -0.0829 0.0000
# 2 29.2020 87.2467 2.0767 0.0000 -4.3216 0.0000
# 3 7.4472 2.0767 89.0562 0.0000 -0.8590 0.0000
# 4 0.0000 0.0000 0.0000 18.0373 0.0000 -7.2151
# 5 -0.0829 -4.3216 -0.8590 0.0000 26.9690 0.0000
# 6 0.0000 0.0000 0.0000 -7.2151 0.0000 2.5963
#
#
#
# Elastic Compliance Matrix: (Units=1/GPa)
#
#
# Indices 1 2 3 4 5 6 
#
# 1 0.012051 -0.004043 -0.000920 0.000000 -0.000640 0.000000
# 2 -0.004043 0.012916 0.000057 0.000000 0.002059 0.000000
# 3 -0.000920 0.000057 0.011308 0.000000 0.000366 0.000000
# 4 0.000000 0.000000 0.000000 -0.496578 0.000000 -1.380006
# 5 -0.000640 0.002059 0.000366 0.000000 0.037419 0.000000
# 6 0.000000 0.000000 0.000000 -1.380006 0.000000 -3.449915
#
#
# Mechanical properties :
#
#
# Convention : Reuss Voigt Hill
#
# Bulk Modulus (GPa) = 37.78961 38.56639 38.17800
# Shear Modulus (GPa) = -1.29730 24.91520 11.80895
#
# Velocity S-wave (km/s) = -0.77900 3.41390 2.35031
# Velocity P-wave (km/s) = 4.10706 5.79483 5.02235
#
# Compressibility (1/GPa) = 0.02646230
#
# Stress axis : x y z
#
# Youngs Moduli (GPa) = 82.98131 77.42509 88.43312
#
# Poissons Ratio (x) = 0.31305 0.08133
# Poissons Ratio (y) = 0.33552 -0.00502
# Poissons Ratio (z) = 0.07631 -0.00440
#
# Static dielectric constant tensor:
#      x y z
#    x 4.057870 0.000000 -0.200130 
#    y 0.000000 3.532150 0.000000 
#    z -0.200130 0.000000 4.576460 
# 
# 
# High freq. dielectric constant tensor:
#      x y z
#    x 1.851860 0.000000 -0.003370 
#    y 0.000000 1.813440 0.000000 
#    z -0.003370 0.000000 1.841200 
# 
# From -- ./inp_files/133983.got.cif
#   From: 2010.06.25/outbox.cif.g09.slc.cpg/sg12_67_cif.got.tgz:133983.got - 2010.06.28 00:19:55.
