data_PCOD8093647
_publ_section_title
;
Structure prediction by ZEFSAII (Michael W. Deem and Ramdas Pophale) SiO2 
 PCOD8093647
Probable space group: C 2/M
;
_chemical_formula_sum "Si O2"
_cell_formula_units_Z 56
_cell_length_a 31.796066
_cell_length_b 8.692630
_cell_length_c 13.654170
_cell_angle_alpha 90.000000
_cell_angle_beta 46.904379
_cell_angle_gamma 90.000000
_cell_volume 2755.753324
_symmetry_space_group_name_H-M "C 2/M"
_symmetry_group_IT_number 12
_symmetry_cell_setting 'monoclinic'
loop_
_space_group_symop_operation_xyz
x,y,z
-x,y,-z
-x,-y,-z
x,-y,z
1/2+x,1/2+y,z
1/2-x,1/2+y,-z
1/2-x,1/2-y,-z
1/2+x,1/2-y,z
loop_
_atom_site_type_symbol
_atom_site_label
_atom_site_fract_x
_atom_site_fract_y
_atom_site_fract_z
Si Si1 0.243357 0.319027 0.903486
Si Si2 0.310442 0.183908 0.369038
Si Si3 0.855414 0.319230 0.652356
Si Si4 0.943895 0.821016 0.649057
Si Si5 0.349974 0.180382 0.097012
Si Si6 0.594954 0.818735 0.631015
Si Si7 0.533341 0.819745 0.181224
O O1 0.242356 0.500000 0.917787
O O2 0.295119 0.268561 0.750839
O O3 0.185511 0.258004 0.941014
O O4 0.250000 0.250000 0.000000
O O5 0.250000 0.250000 0.500000
O O6 0.325887 0.250270 0.236765
O O7 0.360667 0.249014 0.360325
O O8 0.307765 0.000000 0.375386
O O9 0.843718 0.500000 0.668174
O O10 0.890938 0.278104 0.692914
O O11 0.889154 0.258750 0.502774
O O12 0.952948 0.781871 0.746919
O O13 0.000000 0.771680 0.500000
O O14 0.929586 0.000000 0.658991
O O15 0.340172 0.000000 0.118857
O O16 0.417835 0.218522 0.977104
O O17 0.529215 0.770720 0.761323
O O18 0.600688 0.000000 0.623331
O O19 0.534004 0.000000 0.209128
#
# Coordination Sequence:
#
# PCOD8093647 Si02
#       7
#     8   8   8   8   8   8   8
#     4  11  22  37  55  82 113 149 191 236 283 338
#     4  10  20  38  59  84 112 144 185 233 281 335
#     4  11  21  35  55  82 112 149 189 233 281 337
#     4  11  22  35  53  82 116 151 188 231 280 334
#     4   9  20  36  58  83 112 146 187 232 282 334
#     4   9  19  33  56  85 111 140 186 233 279 334
#     4  10  19  36  58  83 113 150 188 231 282 339
#
# _framework density 20.321121999999999
#
# number of rings (size 3 to 8) (size 9 to 14) (size 15 to 20)
#    0.000    1.857    1.429    3.000    0.000    2.286 
#    0.000    6.429    0.000    0.000    0.000    2.000 
#    0.000    0.000    0.000    0.000    0.000    0.000 
#
# Total GULP energy -347202.302710 kJ/mol
# GULP energy per Si atom -12400.082240 kJ/mol
# Density = 2.027487 g / cm^3
# Si number density = 20.321122 Si / 1000 Ang^3
#
#
#
# Elastic Constant Matrix: (Units=GPa)
#
#
# Indices 1 2 3 4 5 6 
#
# 1 170.0729 23.6382 77.8905 0.0000 -7.9431 0.0000
# 2 23.6382 34.4762 18.2177 0.0000 -0.7837 0.0002
# 3 77.8905 18.2177 146.3763 0.0000 -8.7770 0.0000
# 4 0.0000 0.0000 0.0000 26.3495 0.0000 -4.8286
# 5 -7.9431 -0.7837 -8.7770 0.0000 39.9457 0.0000
# 6 0.0000 0.0002 0.0000 -4.8286 0.0000 21.2762
#
#
#
# Elastic Compliance Matrix: (Units=1/GPa)
#
#
# Indices 1 2 3 4 5 6 
#
# 1 0.008177 -0.003547 -0.003867 0.000000 0.000707 0.000000
# 2 -0.003547 0.032588 -0.002201 0.000000 -0.000550 0.000000
# 3 -0.003867 -0.002201 0.009237 0.000000 0.001217 0.000000
# 4 0.000000 0.000000 0.000000 0.039598 0.000000 0.008987
# 5 0.000707 -0.000550 0.001217 0.000000 0.025431 0.000000
# 6 0.000000 0.000000 0.000000 0.008987 0.000000 0.049040
#
#
# Mechanical properties :
#
#
# Convention : Reuss Voigt Hill
#
# Bulk Modulus (GPa) = 32.49871 65.60202 49.05037
# Shear Modulus (GPa) = 25.83182 32.92622 29.37902
#
# Velocity S-wave (km/s) = 3.56923 4.02966 3.80641
# Velocity P-wave (km/s) = 5.74571 7.34871 6.59609
#
# Compressibility (1/GPa) = 0.03077045
#
# Stress axis : x y z
#
# Youngs Moduli (GPa) = 122.29430 30.68598 108.26474
#
# Poissons Ratio (x) = 0.10884 0.41870
# Poissons Ratio (y) = 0.43376 0.23834
# Poissons Ratio (z) = 0.47296 0.06755
#
# Static dielectric constant tensor:
#      x y z
#    x 4.054310 0.000000 -0.094980 
#    y 0.000000 3.353050 0.000000 
#    z -0.094980 0.000000 3.884550 
# 
# 
# High freq. dielectric constant tensor:
#      x y z
#    x 1.805310 0.000000 -0.009420 
#    y 0.000000 1.759930 0.000000 
#    z -0.009420 0.000000 1.801690 
# 
# From -- ./inp_files/187167.got.cif
#   From: 2010.06.25/outbox.cif.g09.slc.cpg/sg12_94_cif.got.tgz:187167.got - 2010.06.28 00:19:55.
