data_PCOD8093769
_publ_section_title
;
Structure prediction by ZEFSAII (Michael W. Deem and Ramdas Pophale) SiO2 
 PCOD8093769
Probable space group: C 2/M
;
_chemical_formula_sum "Si O2"
_cell_formula_units_Z 56
_cell_length_a 17.997859
_cell_length_b 13.519905
_cell_length_c 12.026394
_cell_angle_alpha 90.000000
_cell_angle_beta 99.329698
_cell_angle_gamma 90.000000
_cell_volume 2887.663952
_symmetry_space_group_name_H-M "C 2/M"
_symmetry_group_IT_number 12
_symmetry_cell_setting 'monoclinic'
loop_
_space_group_symop_operation_xyz
x,y,z
-x,y,-z
-x,-y,-z
x,-y,z
1/2+x,1/2+y,z
1/2-x,1/2+y,-z
1/2-x,1/2-y,-z
1/2+x,1/2-y,z
loop_
_atom_site_type_symbol
_atom_site_label
_atom_site_fract_x
_atom_site_fract_y
_atom_site_fract_z
Si Si1 0.327162 0.387507 0.053542
Si Si2 0.842495 0.386219 0.967739
Si Si3 0.078318 0.701264 0.216494
Si Si4 0.697472 0.884261 0.403428
Si Si5 0.096141 0.715175 0.813394
Si Si6 0.837580 0.887914 0.794569
Si Si7 0.798605 0.292676 0.360080
O O1 0.345394 0.500000 0.088351
O O2 0.244277 0.356456 0.078061
O O3 0.390744 0.322433 0.128053
O O4 0.328388 0.369954 0.922809
O O5 0.855078 0.500000 0.944773
O O6 0.898336 0.324332 0.903884
O O7 0.861258 0.365738 0.100926
O O8 0.123165 0.629873 0.310900
O O9 0.098487 0.816541 0.241040
O O10 0.990685 0.686193 0.213537
O O11 0.765928 0.817893 0.371997
O O12 0.677320 0.846283 0.521042
O O13 0.720851 0.000000 0.408243
O O14 0.126767 0.715741 0.695765
O O15 0.759665 0.863216 0.716409
O O16 0.861237 0.000000 0.773380
#
# Coordination Sequence:
#
# PCOD8093769 Si02
#       7
#     8   8   8   8   8   8   8
#     4  10  20  35  60  86 113 152 197 243 289 340
#     4  11  22  37  56  81 115 157 198 238 285 342
#     4  11  24  37  55  83 123 161 190 233 288 350
#     4  10  22  43  65  87 114 151 198 246 292 343
#     4  12  23  37  56  87 122 153 191 236 291 351
#     4  10  19  36  59  85 115 151 196 243 290 340
#     4  10  22  39  66  90 112 149 198 250 291 336
#
# _framework density 19.39284
#
# number of rings (size 3 to 8) (size 9 to 14) (size 15 to 20)
#    0.000    1.429    2.857    3.429    0.000    5.143 
#    0.000    2.143    0.000    0.000    0.000    7.000 
#    0.000    0.000    0.000    0.000    0.000    0.000 
#
# Total GULP energy -347261.445442 kJ/mol
# GULP energy per Si atom -12402.194480 kJ/mol
# Density = 1.934870 g / cm^3
# Si number density = 19.392840 Si / 1000 Ang^3
#
#
#
# Elastic Constant Matrix: (Units=GPa)
#
#
# Indices 1 2 3 4 5 6 
#
# 1 44.6309 28.9081 18.4925 0.0000 10.7808 0.0000
# 2 28.9081 116.8634 27.4622 0.0000 -0.3180 0.0000
# 3 18.4925 27.4622 81.9119 0.0000 -10.9406 0.0000
# 4 0.0000 0.0000 0.0000 21.2696 0.0000 -0.9273
# 5 10.7808 -0.3180 -10.9406 0.0000 17.5019 0.0000
# 6 0.0000 0.0000 0.0000 -0.9273 0.0000 16.3722
#
#
#
# Elastic Compliance Matrix: (Units=1/GPa)
#
#
# Indices 1 2 3 4 5 6 
#
# 1 0.038772 -0.007229 -0.010406 0.000000 -0.030519 0.000000
# 2 -0.007229 0.010697 -0.001455 0.000000 0.003737 0.000000
# 3 -0.010406 -0.001455 0.017346 0.000000 0.017227 0.000000
# 4 0.000000 0.000000 0.000000 0.047132 0.000000 0.002670
# 5 -0.030519 0.003737 0.017227 0.000000 0.086772 0.000000
# 6 0.000000 0.000000 0.000000 0.002670 0.000000 0.061231
#
#
# Mechanical properties :
#
#
# Convention : Reuss Voigt Hill
#
# Bulk Modulus (GPa) = 34.92147 43.68131 39.30139
# Shear Modulus (GPa) = 16.14601 22.26497 19.20549
#
# Velocity S-wave (km/s) = 2.88857 3.39204 3.15038
# Velocity P-wave (km/s) = 5.40107 6.15748 5.79164
#
# Compressibility (1/GPa) = 0.02863568
#
# Stress axis : x y z
#
# Youngs Moduli (GPa) = 25.79206 93.48191 57.64925
#
# Poissons Ratio (x) = 0.67574 0.59989
# Poissons Ratio (y) = 0.18644 0.08390
# Poissons Ratio (z) = 0.26839 0.13605
#
# Static dielectric constant tensor:
#      x y z
#    x 3.295880 0.000000 -0.099040 
#    y 0.000000 3.724550 0.000000 
#    z -0.099040 0.000000 3.590540 
# 
# 
# High freq. dielectric constant tensor:
#      x y z
#    x 1.731960 0.000000 -0.006030 
#    y 0.000000 1.768840 0.000000 
#    z -0.006030 0.000000 1.754330 
# 
# From -- ./inp_files/156179.got.cif
#   From: 2010.06.25/outbox.cif.g09.slc.cpg/sg12_79_cif.got.tgz:156179.got - 2010.06.28 00:19:55.
