data_PCOD8093521
_publ_section_title
;
Structure prediction by ZEFSAII (Michael W. Deem and Ramdas Pophale) SiO2 
 PCOD8093521
Probable space group: C 2/M
;
_chemical_formula_sum "Si O2"
_cell_formula_units_Z 56
_cell_length_a 16.447880
_cell_length_b 16.465870
_cell_length_c 24.684483
_cell_angle_alpha 90.000000
_cell_angle_beta 156.701274
_cell_angle_gamma 90.000000
_cell_volume 2644.190096
_symmetry_space_group_name_H-M "C 2/M"
_symmetry_group_IT_number 12
_symmetry_cell_setting 'monoclinic'
loop_
_space_group_symop_operation_xyz
x,y,z
-x,y,-z
-x,-y,-z
x,-y,z
1/2+x,1/2+y,z
1/2-x,1/2+y,-z
1/2-x,1/2-y,-z
1/2+x,1/2-y,z
loop_
_atom_site_type_symbol
_atom_site_label
_atom_site_fract_x
_atom_site_fract_y
_atom_site_fract_z
Si Si1 0.232906 0.240568 0.141523
Si Si2 0.994755 0.151627 0.159530
Si Si3 0.097460 0.326468 0.865701
Si Si4 0.675875 0.635872 0.645153
Si Si5 0.840001 0.910326 0.242287
Si Si6 0.301968 0.591511 0.611721
Si Si7 0.110823 0.310037 0.650220
O O1 0.352530 0.206330 0.163301
O O2 0.218078 0.338878 0.136300
O O3 0.369264 0.208853 0.274487
O O4 0.000000 0.206716 0.000000
O O5 0.953223 0.248300 0.128090
O O6 0.026440 0.118955 0.239350
O O7 0.200399 0.130659 0.251253
O O8 0.784268 0.117289 0.003648
O O9 0.888362 0.378554 0.741875
O O10 0.500000 0.596104 0.500000
O O11 0.687224 0.592507 0.709978
O O12 0.619213 0.730149 0.618839
O O13 0.082640 0.901001 0.375372
O O14 0.763688 0.000000 0.175889
O O15 0.229394 0.500000 0.579010
O O16 0.105284 0.648395 0.494206
#
# Coordination Sequence:
#
# PCOD8093521 Si02
#       7
#     8   8   8   8   8   8   8
#     4  11  21  38  65  95 120 161 203 263 318 363
#     4  10  19  36  56  85 120 156 203 250 300 374
#     4  10  20  36  60  89 123 156 202 257 310 362
#     4  10  22  37  62  93 123 165 208 260 309 367
#     4  10  24  40  57  89 126 164 209 254 314 380
#     4  11  23  39  61  88 125 167 202 257 321 371
#     4  10  21  35  60  91 121 152 210 260 306 370
#
# _framework density 21.178508000000001
#
# number of rings (size 3 to 8) (size 9 to 14) (size 15 to 20)
#    0.000    1.714    2.857    2.143    4.000    2.857 
#    0.000    2.143    0.000    1.286    0.000    0.000 
#    0.000    0.000    0.000    0.000    0.000    0.000 
#
# Total GULP energy -347018.705312 kJ/mol
# GULP energy per Si atom -12393.525190 kJ/mol
# Density = 2.113030 g / cm^3
# Si number density = 21.178508 Si / 1000 Ang^3
#
#
#
# Elastic Constant Matrix: (Units=GPa)
#
#
# Indices 1 2 3 4 5 6 
#
# 1 138.2992 22.9719 57.5758 -0.0214 10.3038 0.0049
# 2 22.9719 58.7043 25.6677 0.0401 2.3423 -0.0007
# 3 57.5758 25.6677 128.5169 0.0720 2.3954 -0.0019
# 4 -0.0214 0.0401 0.0720 10.1214 -0.0256 -0.7945
# 5 10.3038 2.3423 2.3954 -0.0256 35.5836 -0.0001
# 6 0.0049 -0.0007 -0.0019 -0.7945 -0.0001 13.4666
#
#
#
# Elastic Compliance Matrix: (Units=1/GPa)
#
#
# Indices 1 2 3 4 5 6 
#
# 1 0.009272 -0.001905 -0.003730 0.000048 -0.002308 -0.000001
# 2 -0.001905 0.019090 -0.002950 -0.000060 -0.000506 -0.000002
# 3 -0.003730 -0.002950 0.010030 -0.000066 0.000599 -0.000001
# 4 0.000048 -0.000060 -0.000066 0.099261 0.000066 0.005856
# 5 -0.002308 -0.000506 0.000599 0.000066 0.028764 0.000005
# 6 -0.000001 -0.000002 -0.000001 0.005856 0.000005 0.074603
#
#
# Mechanical properties :
#
#
# Convention : Reuss Voigt Hill
#
# Bulk Modulus (GPa) = 47.12127 59.77236 53.44681
# Shear Modulus (GPa) = 18.84899 26.45466 22.65183
#
# Velocity S-wave (km/s) = 2.98653 3.53813 3.27397
# Velocity P-wave (km/s) = 5.84725 6.70638 6.29150
#
# Compressibility (1/GPa) = 0.02122184
#
# Stress axis : x y z
#
# Youngs Moduli (GPa) = 107.84953 52.38337 99.69779
#
# Poissons Ratio (x) = 0.09980 0.37192
# Poissons Ratio (y) = 0.20547 0.29408
# Poissons Ratio (z) = 0.40233 0.15452
#
# Static dielectric constant tensor:
#      x y z
#    x 3.862010 0.000010 0.204640 
#    y 0.000010 3.469700 -0.000070 
#    z 0.204640 -0.000070 3.921570 
# 
# 
# High freq. dielectric constant tensor:
#      x y z
#    x 1.841120 0.000000 0.013020 
#    y 0.000000 1.786580 0.000000 
#    z 0.013020 0.000000 1.834410 
# 
# From -- ./inp_files/364497.got.cif
#   From: 2010.06.25/outbox.cif.g09.slc.cpg/sg12_183_cif.got.tgz:364497.got - 2010.06.28 00:19:55.
