data_PCOD8093317
_publ_section_title
;
Structure prediction by ZEFSAII (Michael W. Deem and Ramdas Pophale) SiO2 
 PCOD8093317
Probable space group: C 2/M
;
_chemical_formula_sum "Si O2"
_cell_formula_units_Z 64
_cell_length_a 29.145993
_cell_length_b 8.876042
_cell_length_c 17.597937
_cell_angle_alpha 90.000000
_cell_angle_beta 134.415147
_cell_angle_gamma 90.000000
_cell_volume 3251.869644
_symmetry_space_group_name_H-M "C 2/M"
_symmetry_group_IT_number 12
_symmetry_cell_setting 'monoclinic'
loop_
_space_group_symop_operation_xyz
x,y,z
-x,y,-z
-x,-y,-z
x,-y,z
1/2+x,1/2+y,z
1/2-x,1/2+y,-z
1/2-x,1/2-y,-z
1/2+x,1/2-y,z
loop_
_atom_site_type_symbol
_atom_site_label
_atom_site_fract_x
_atom_site_fract_y
_atom_site_fract_z
Si Si1 0.810749 0.324664 0.032961
Si Si2 0.858559 0.323805 0.497224
Si Si3 0.969154 0.178078 0.541792
Si Si4 0.211344 0.821495 0.301468
Si Si5 0.068154 0.831051 0.780387
Si Si6 0.113292 0.320974 0.298931
Si Si7 0.516606 0.670756 0.888930
Si Si8 0.856363 0.320893 0.920099
O O1 0.800424 0.500000 0.025066
O O2 0.822439 0.271971 0.959736
O O3 0.750000 0.250000 0.000000
O O4 0.871293 0.278508 0.154154
O O5 0.867629 0.500000 0.499184
O O6 0.899305 0.246353 0.477451
O O7 0.785146 0.276601 0.399566
O O8 0.883659 0.271312 0.609310
O O9 0.000000 0.240174 0.500000
O O10 0.016357 0.233677 0.662446
O O11 0.961274 0.000000 0.530222
O O12 0.174256 0.754078 0.330045
O O13 0.187330 0.746003 0.196335
O O14 0.201116 0.000000 0.285304
O O15 0.036558 0.829327 0.825350
O O16 0.089892 0.000000 0.783045
O O17 0.116629 0.500000 0.293730
O O18 0.049904 0.261311 0.182425
O O19 0.507237 0.500000 0.908287
O O20 0.571730 0.752387 0.002338
O O21 0.861885 0.500000 0.919131
#
# Coordination Sequence:
#
# PCOD8093317 Si02
#       8
#     8   8   8   8   8   8   8   8
#     4  10  21  36  58  84 112 150 194 240 291 350
#     4  10  23  41  61  86 120 158 200 248 296 351
#     4  10  21  37  59  88 119 154 196 242 295 352
#     4  11  24  41  60  87 122 159 199 245 298 357
#     4   9  18  34  55  81 113 148 189 238 289 345
#     4  11  22  38  62  90 118 155 201 246 296 356
#     4  10  19  35  61  88 115 152 193 242 295 348
#     4  10  22  40  59  85 119 155 196 245 299 353
#
# _framework density 19.680985
#
# number of rings (size 3 to 8) (size 9 to 14) (size 15 to 20)
#    0.000    1.875    1.250    2.250    0.000    5.750 
#    0.000    6.250    0.000    0.000    0.000    0.000 
#    0.000    0.000    0.000    0.000    0.000    0.000 
#
# Total GULP energy -396867.640954 kJ/mol
# GULP energy per Si atom -12402.113780 kJ/mol
# Density = 1.963619 g / cm^3
# Si number density = 19.680985 Si / 1000 Ang^3
#
#
#
# Elastic Constant Matrix: (Units=GPa)
#
#
# Indices 1 2 3 4 5 6 
#
# 1 120.5784 42.9862 47.6242 0.0000 20.7140 0.0000
# 2 42.9862 68.3340 39.0946 0.0000 5.7227 0.0000
# 3 47.6242 39.0946 103.6740 0.0000 11.6840 0.0000
# 4 0.0000 0.0000 0.0000 32.7618 0.0000 5.8309
# 5 20.7140 5.7227 11.6840 0.0000 27.4009 0.0000
# 6 0.0000 0.0000 0.0000 5.8309 0.0000 35.5730
#
#
#
# Elastic Compliance Matrix: (Units=1/GPa)
#
#
# Indices 1 2 3 4 5 6 
#
# 1 0.012709 -0.005759 -0.002857 0.000000 -0.007187 0.000000
# 2 -0.005759 0.021292 -0.005644 0.000000 0.002313 0.000000
# 3 -0.002857 -0.005644 0.013352 0.000000 -0.002355 0.000000
# 4 0.000000 0.000000 0.000000 0.031441 0.000000 -0.005154
# 5 -0.007187 0.002313 -0.002355 0.000000 0.042449 0.000000
# 6 0.000000 0.000000 0.000000 -0.005154 0.000000 0.028956
#
#
# Mechanical properties :
#
#
# Convention : Reuss Voigt Hill
#
# Bulk Modulus (GPa) = 53.09694 61.33295 57.21494
# Shear Modulus (GPa) = 27.02757 30.00589 28.51673
#
# Velocity S-wave (km/s) = 3.70980 3.90887 3.81064
# Velocity P-wave (km/s) = 6.73703 7.18356 6.96387
#
# Compressibility (1/GPa) = 0.01883348
#
# Stress axis : x y z
#
# Youngs Moduli (GPa) = 78.68291 46.96578 74.89652
#
# Poissons Ratio (x) = 0.27046 0.21395
# Poissons Ratio (y) = 0.45311 0.42275
# Poissons Ratio (z) = 0.22477 0.26510
#
# Static dielectric constant tensor:
#      x y z
#    x 3.615750 0.000000 0.244380 
#    y 0.000000 3.650420 0.000000 
#    z 0.244380 0.000000 2.974710 
# 
# 
# High freq. dielectric constant tensor:
#      x y z
#    x 1.768820 0.000000 0.005850 
#    y 0.000000 1.770070 0.000000 
#    z 0.005850 0.000000 1.773260 
# 
# From -- ./inp_files/295751.got.cif
#   From: 2010.06.25/outbox.cif.g09.slc.cpg/sg12_148_cif.got.tgz:295751.got - 2010.06.28 00:19:55.
