data_PCOD8093615
_publ_section_title
;
Structure prediction by ZEFSAII (Michael W. Deem and Ramdas Pophale) SiO2 
 PCOD8093615
Probable space group: C 2/M
;
_chemical_formula_sum "Si O2"
_cell_formula_units_Z 40
_cell_length_a 20.278321
_cell_length_b 9.056560
_cell_length_c 17.993518
_cell_angle_alpha 90.000000
_cell_angle_beta 137.296910
_cell_angle_gamma 90.000000
_cell_volume 2241.138437
_symmetry_space_group_name_H-M "C 2/M"
_symmetry_group_IT_number 12
_symmetry_cell_setting 'monoclinic'
loop_
_space_group_symop_operation_xyz
x,y,z
-x,y,-z
-x,-y,-z
x,-y,z
1/2+x,1/2+y,z
1/2-x,1/2+y,-z
1/2-x,1/2-y,-z
1/2+x,1/2-y,z
loop_
_atom_site_type_symbol
_atom_site_label
_atom_site_fract_x
_atom_site_fract_y
_atom_site_fract_z
Si Si1 0.346158 0.325154 0.049748
Si Si2 0.299333 0.170187 0.706507
Si Si3 0.972594 0.330256 0.740433
Si Si4 0.892045 0.670636 0.936618
Si Si5 0.181516 0.669969 0.501050
O O1 0.335441 0.500000 0.044935
O O2 0.434777 0.274641 0.175590
O O3 0.250000 0.250000 0.000000
O O4 0.363374 0.276482 0.979622
O O5 0.394131 0.217477 0.737765
O O6 0.317337 0.202908 0.807837
O O7 0.203032 0.259599 0.599917
O O8 0.277450 0.000000 0.673410
O O9 0.003771 0.500000 0.779939
O O10 0.928792 0.310363 0.620595
O O11 0.886582 0.500000 0.957657
O O12 0.000000 0.709841 0.000000
O O13 0.210503 0.500000 0.527984
O O14 0.250000 0.750000 0.500000
#
# Coordination Sequence:
#
# PCOD8093615 Si02
#       5
#     8   8   8   8   8
#     4  12  25  38  55  79 108 144 184 226 269 321
#     4   9  17  30  52  79 108 141 173 214 267 318
#     4   9  17  33  52  74 106 144 179 215 267 318
#     4  10  19  36  58  79 110 146 177 218 273 323
#     4   9  17  28  46  73 107 141 173 216 265 313
#
# _framework density 17.848071999999998
#
# number of rings (size 3 to 8) (size 9 to 14) (size 15 to 20)
#    0.000    2.200    2.000    3.600    0.000    5.200 
#    0.000    0.000    0.000    1.200    0.000    8.400 
#    0.000    0.000    0.000    0.000    0.000    0.000 
#
# Total GULP energy -247932.044512 kJ/mol
# GULP energy per Si atom -12396.602226 kJ/mol
# Density = 1.780745 g / cm^3
# Si number density = 17.848072 Si / 1000 Ang^3
#
#
#
# Elastic Constant Matrix: (Units=GPa)
#
#
# Indices 1 2 3 4 5 6 
#
# 1 59.1073 47.0215 46.7931 0.0000 4.3751 0.0000
# 2 47.0215 124.4071 77.6319 0.0000 4.6943 0.0000
# 3 46.7931 77.6319 148.6685 0.0000 -3.3789 0.0000
# 4 0.0000 0.0000 0.0000 38.0413 0.0000 -1.7245
# 5 4.3751 4.6943 -3.3789 0.0000 15.2054 0.0000
# 6 0.0000 0.0000 0.0000 -1.7245 0.0000 24.4368
#
#
#
# Elastic Compliance Matrix: (Units=1/GPa)
#
#
# Indices 1 2 3 4 5 6 
#
# 1 0.026766 -0.006687 -0.005086 0.000000 -0.006767 0.000000
# 2 -0.006687 0.013999 -0.005287 0.000000 -0.003573 0.000000
# 3 -0.005086 -0.005287 0.011215 0.000000 0.005588 0.000000
# 4 0.000000 0.000000 0.000000 0.026372 0.000000 0.001861
# 5 -0.006767 -0.003573 0.005588 0.000000 0.070058 0.000000
# 6 0.000000 0.000000 0.000000 0.001861 0.000000 0.041053
#
#
# Mechanical properties :
#
#
# Convention : Reuss Voigt Hill
#
# Bulk Modulus (GPa) = 55.99199 75.00842 65.50021
# Shear Modulus (GPa) = 21.78305 26.25248 24.01776
#
# Velocity S-wave (km/s) = 3.49731 3.83937 3.67233
# Velocity P-wave (km/s) = 6.90998 7.85950 7.39998
#
# Compressibility (1/GPa) = 0.01785970
#
# Stress axis : x y z
#
# Youngs Moduli (GPa) = 37.36105 71.43165 89.16739
#
# Poissons Ratio (x) = 0.47768 0.45354
# Poissons Ratio (y) = 0.24984 0.47139
# Poissons Ratio (z) = 0.19003 0.37763
#
# Static dielectric constant tensor:
#      x y z
#    x 2.865510 0.000000 -0.282550 
#    y 0.000000 3.440940 0.000000 
#    z -0.282550 0.000000 4.293020 
# 
# 
# High freq. dielectric constant tensor:
#      x y z
#    x 1.634680 0.000000 -0.010590 
#    y 0.000000 1.692090 0.000000 
#    z -0.010590 0.000000 1.715230 
# 
# From -- ./inp_files/221225.got.cif
#   From: 2010.06.25/outbox.cif.g09.slc.cpg/sg12_111_cif.got.tgz:221225.got - 2010.06.28 00:19:55.
