data_PCOD8093834
_publ_section_title
;
Structure prediction by ZEFSAII (Michael W. Deem and Ramdas Pophale) SiO2 
 PCOD8093834
Probable space group: C 2/M
;
_chemical_formula_sum "Si O2"
_cell_formula_units_Z 56
_cell_length_a 14.466351
_cell_length_b 8.715858
_cell_length_c 24.002043
_cell_angle_alpha 90.000000
_cell_angle_beta 99.252773
_cell_angle_gamma 90.000000
_cell_volume 2986.960531
_symmetry_space_group_name_H-M "C 2/M"
_symmetry_group_IT_number 12
_symmetry_cell_setting 'monoclinic'
loop_
_space_group_symop_operation_xyz
x,y,z
-x,y,-z
-x,-y,-z
x,-y,z
1/2+x,1/2+y,z
1/2-x,1/2+y,-z
1/2-x,1/2-y,-z
1/2+x,1/2-y,z
loop_
_atom_site_type_symbol
_atom_site_label
_atom_site_fract_x
_atom_site_fract_y
_atom_site_fract_z
Si Si1 0.141812 0.819463 0.149130
Si Si2 0.002722 0.675635 0.436439
Si Si3 0.932911 0.182604 0.148122
Si Si4 0.284460 0.174008 0.559265
Si Si5 0.181609 0.680768 0.766302
Si Si6 0.657420 0.679507 0.644840
Si Si7 0.729769 0.181759 0.938307
O O1 0.214936 0.764812 0.203911
O O2 0.184404 0.768633 0.093642
O O3 0.038276 0.750475 0.149065
O O4 0.132151 0.000000 0.150552
O O5 0.966185 0.500000 0.429424
O O6 0.105756 0.691452 0.421820
O O7 0.000000 0.732097 0.500000
O O8 0.942506 0.788146 0.392605
O O9 0.898120 0.234986 0.205465
O O10 0.867823 0.251753 0.093640
O O11 0.930250 0.000000 0.143940
O O12 0.250000 0.250000 0.500000
O O13 0.235482 0.242961 0.609367
O O14 0.251929 0.000000 0.550829
O O15 0.169326 0.500000 0.774472
O O16 0.168402 0.722534 0.701232
O O17 0.667802 0.500000 0.659654
O O18 0.720493 0.000000 0.940582
O O19 0.750000 0.250000 0.000000
#
# Coordination Sequence:
#
# PCOD8093834 Si02
#       7
#     8   8   8   8   8   8   8
#     4   8  18  36  58  80 109 148 187 225 275 331
#     4  10  20  36  57  79 106 140 175 213 268 330
#     4  10  19  36  60  84 110 145 188 234 279 324
#     4  10  21  36  55  79 107 138 175 217 266 323
#     4  10  21  39  58  79 109 145 183 226 277 333
#     4  11  23  37  55  82 111 140 180 228 273 324
#     4  10  20  36  55  83 119 155 192 229 274 325
#
# _framework density 18.748156000000002
#
# number of rings (size 3 to 8) (size 9 to 14) (size 15 to 20)
#    0.000    2.143    1.429    2.571    0.000    3.143 
#    0.000   14.286    0.000    0.000    0.000    0.000 
#    0.000    0.000    0.000    0.000    0.000    0.000 
#
# Total GULP energy -347199.809447 kJ/mol
# GULP energy per Si atom -12399.993195 kJ/mol
# Density = 1.870548 g / cm^3
# Si number density = 18.748156 Si / 1000 Ang^3
#
#
#
# Elastic Constant Matrix: (Units=GPa)
#
#
# Indices 1 2 3 4 5 6 
#
# 1 151.2505 34.1342 68.5032 0.0000 0.8356 0.0000
# 2 34.1342 56.3492 31.5104 0.0000 0.9794 0.0000
# 3 68.5032 31.5104 148.2876 0.0000 -6.4371 0.0000
# 4 0.0000 0.0000 0.0000 32.7309 0.0000 1.3952
# 5 0.8356 0.9794 -6.4371 0.0000 20.5504 0.0000
# 6 0.0000 0.0000 0.0000 1.3952 0.0000 26.2826
#
#
#
# Elastic Compliance Matrix: (Units=1/GPa)
#
#
# Indices 1 2 3 4 5 6 
#
# 1 0.008971 -0.003476 -0.003461 0.000000 -0.001283 0.000000
# 2 -0.003476 0.021598 -0.003064 0.000000 -0.001848 0.000000
# 3 -0.003461 -0.003064 0.009130 0.000000 0.003147 0.000000
# 4 0.000000 0.000000 0.000000 0.030621 0.000000 -0.001626
# 5 -0.001283 -0.001848 0.003147 0.000000 0.049787 0.000000
# 6 0.000000 0.000000 0.000000 -0.001626 0.000000 0.038134
#
#
# Mechanical properties :
#
#
# Convention : Reuss Voigt Hill
#
# Bulk Modulus (GPa) = 50.77111 69.35366 60.06239
# Shear Modulus (GPa) = 27.05499 30.69542 28.87520
#
# Velocity S-wave (km/s) = 3.80290 4.05068 3.92875
# Velocity P-wave (km/s) = 6.81338 7.67789 7.25852
#
# Compressibility (1/GPa) = 0.01969624
#
# Stress axis : x y z
#
# Youngs Moduli (GPa) = 111.47299 46.30137 109.52682
#
# Poissons Ratio (x) = 0.16096 0.37909
# Poissons Ratio (y) = 0.38752 0.33555
# Poissons Ratio (z) = 0.38583 0.14185
#
# Static dielectric constant tensor:
#      x y z
#    x 3.920720 0.000000 -0.122020 
#    y 0.000000 3.369450 0.000000 
#    z -0.122020 0.000000 3.389550 
# 
# 
# High freq. dielectric constant tensor:
#      x y z
#    x 1.737500 0.000000 -0.002500 
#    y 0.000000 1.720900 0.000000 
#    z -0.002500 0.000000 1.729310 
# 
# From -- ./inp_files/338169.got.cif
#   From: 2010.06.25/outbox.cif.g09.slc.cpg/sg12_170_cif.got.tgz:338169.got - 2010.06.28 00:19:55.
