data_PCOD8093152
_publ_section_title
;
Structure prediction by ZEFSAII (Michael W. Deem and Ramdas Pophale) SiO2 
 PCOD8093152
Probable space group: C 2/M
;
_chemical_formula_sum "Si O2"
_cell_formula_units_Z 56
_cell_length_a 20.030110
_cell_length_b 8.871031
_cell_length_c 30.412657
_cell_angle_alpha 90.000000
_cell_angle_beta 147.076377
_cell_angle_gamma 90.000000
_cell_volume 2937.161229
_symmetry_space_group_name_H-M "C 2/M"
_symmetry_group_IT_number 12
_symmetry_cell_setting 'monoclinic'
loop_
_space_group_symop_operation_xyz
x,y,z
-x,y,-z
-x,-y,-z
x,-y,z
1/2+x,1/2+y,z
1/2-x,1/2+y,-z
1/2-x,1/2-y,-z
1/2+x,1/2-y,z
loop_
_atom_site_type_symbol
_atom_site_label
_atom_site_fract_x
_atom_site_fract_y
_atom_site_fract_z
Si Si1 0.071531 0.322084 0.743558
Si Si2 0.909697 0.824829 0.339276
Si Si3 0.473301 0.822237 0.917612
Si Si4 0.424500 0.176321 0.500856
Si Si5 0.804780 0.321852 0.903447
Si Si6 0.354875 0.323474 0.673103
Si Si7 0.850287 0.675844 0.762295
O O1 0.067018 0.500000 0.741785
O O2 0.104593 0.265187 0.713527
O O3 0.175337 0.263798 0.834982
O O4 0.939995 0.259177 0.685042
O O5 0.790469 0.793104 0.302882
O O6 0.028892 0.768145 0.431273
O O7 0.923856 0.000000 0.335663
O O8 0.376955 0.761024 0.900366
O O9 0.438954 0.762172 0.850252
O O10 0.456693 0.000000 0.909128
O O11 0.612833 0.779301 0.008184
O O12 0.500000 0.228764 0.500000
O O13 0.283602 0.219303 0.415886
O O14 0.443987 0.000000 0.520652
O O15 0.780468 0.500000 0.887668
O O16 0.378761 0.500000 0.683489
O O17 0.385927 0.269274 0.739214
O O18 0.872878 0.500000 0.765380
#
# Coordination Sequence:
#
# PCOD8093152 Si02
#       7
#     8   8   8   8   8   8   8
#     4  12  25  40  58  84 121 157 194 243 292 342
#     4  11  22  37  63  90 117 153 195 237 284 349
#     4   8  15  30  58  89 117 149 190 238 284 340
#     4  10  21  39  61  88 119 149 190 243 293 340
#     4   9  16  33  59  86 116 153 193 234 288 345
#     4  11  24  41  61  83 116 158 194 236 293 352
#     4  10  19  35  59  90 119 149 192 238 284 341
#
# _framework density 19.066027999999999
#
# number of rings (size 3 to 8) (size 9 to 14) (size 15 to 20)
#    0.000    1.857    2.857    3.000    0.000    2.571 
#    0.000    2.857    0.000    0.000    0.000    0.000 
#    0.000    0.000    0.000    0.000    0.000    0.000 
#
# Total GULP energy -347251.489585 kJ/mol
# GULP energy per Si atom -12401.838914 kJ/mol
# Density = 1.902263 g / cm^3
# Si number density = 19.066028 Si / 1000 Ang^3
#
#
#
# Elastic Constant Matrix: (Units=GPa)
#
#
# Indices 1 2 3 4 5 6 
#
# 1 46.8236 27.8019 19.3550 0.0001 8.1384 -0.0002
# 2 27.8019 78.3131 39.1885 0.0002 6.5973 -0.0002
# 3 19.3550 39.1885 123.2116 0.0001 -1.1649 -0.0001
# 4 0.0001 0.0002 0.0001 21.6873 0.0000 -4.0595
# 5 8.1384 6.5973 -1.1649 0.0000 30.2282 0.0001
# 6 -0.0002 -0.0002 -0.0001 -4.0595 0.0001 30.0190
#
#
#
# Elastic Compliance Matrix: (Units=1/GPa)
#
#
# Indices 1 2 3 4 5 6 
#
# 1 0.028222 -0.008666 -0.001732 0.000000 -0.005773 0.000000
# 2 -0.008666 0.018227 -0.004453 0.000000 -0.001817 0.000000
# 3 -0.001732 -0.004453 0.009822 0.000000 0.001817 0.000000
# 4 0.000000 0.000000 0.000000 0.047307 0.000000 0.006397
# 5 -0.005773 -0.001817 0.001817 0.000000 0.035103 0.000000
# 6 0.000000 0.000000 0.000000 0.006397 0.000000 0.034177
#
#
# Mechanical properties :
#
#
# Convention : Reuss Voigt Hill
#
# Bulk Modulus (GPa) = 37.63799 46.78211 42.21005
# Shear Modulus (GPa) = 23.65012 27.18711 25.41861
#
# Velocity S-wave (km/s) = 3.52580 3.78027 3.65525
# Velocity P-wave (km/s) = 6.02982 6.60636 6.32466
#
# Compressibility (1/GPa) = 0.02656890
#
# Stress axis : x y z
#
# Youngs Moduli (GPa) = 35.43392 54.86292 101.81579
#
# Poissons Ratio (x) = 0.47545 0.17629
# Poissons Ratio (y) = 0.30707 0.45340
# Poissons Ratio (z) = 0.06135 0.24431
#
# Static dielectric constant tensor:
#      x y z
#    x 3.311180 0.000000 -0.037740 
#    y 0.000000 3.278100 0.000000 
#    z -0.037740 0.000000 3.844350 
# 
# 
# High freq. dielectric constant tensor:
#      x y z
#    x 1.722720 0.000000 -0.001840 
#    y 0.000000 1.725550 0.000000 
#    z -0.001840 0.000000 1.758670 
# 
# From -- ./inp_files/363250.got.cif
#   From: 2010.06.25/outbox.cif.g09.slc.cpg/sg12_182_cif.got.tgz:363250.got - 2010.06.28 00:19:55.
