data_PCOD8093101
_publ_section_title
;
Structure prediction by ZEFSAII (Michael W. Deem and Ramdas Pophale) SiO2 
 PCOD8093101
Probable space group: C 2/M
;
_chemical_formula_sum "Si O2"
_cell_formula_units_Z 48
_cell_length_a 13.093773
_cell_length_b 13.271949
_cell_length_c 28.702978
_cell_angle_alpha 90.000000
_cell_angle_beta 154.803391
_cell_angle_gamma 90.000000
_cell_volume 2123.520110
_symmetry_space_group_name_H-M "C 2/M"
_symmetry_group_IT_number 12
_symmetry_cell_setting 'monoclinic'
loop_
_space_group_symop_operation_xyz
x,y,z
-x,y,-z
-x,-y,-z
x,-y,z
1/2+x,1/2+y,z
1/2-x,1/2+y,-z
1/2-x,1/2-y,-z
1/2+x,1/2-y,z
loop_
_atom_site_type_symbol
_atom_site_label
_atom_site_fract_x
_atom_site_fract_y
_atom_site_fract_z
Si Si1 0.167789 0.384917 0.527674
Si Si2 0.237238 0.612329 0.710634
Si Si3 0.175691 0.618318 0.835971
Si Si4 0.770659 0.114228 0.133400
Si Si5 0.603532 0.254362 0.732773
Si Si6 0.170284 0.227568 0.018740
O O1 0.250565 0.500000 0.570331
O O2 0.401956 0.315613 0.622318
O O3 0.000000 0.347473 0.500000
O O4 0.023780 0.373967 0.420181
O O5 0.254012 0.500000 0.740034
O O6 0.442248 0.622005 0.755994
O O7 0.270670 0.697354 0.763920
O O8 0.147113 0.500000 0.825289
O O9 0.128863 0.665490 0.868103
O O10 0.993970 0.668479 0.722931
O O11 0.437803 0.655182 0.925820
O O12 0.725499 0.173588 0.164012
O O13 0.641115 0.164032 0.033836
O O14 0.683071 0.000000 0.101983
O O15 0.250000 0.250000 0.000000
#
# Coordination Sequence:
#
# PCOD8093101 Si02
#       6
#     8   8   8   8   8   8
#     4  10  19  35  59  86 114 149 189 232 278 331
#     4  10  20  35  59  87 113 152 195 228 275 336
#     4  10  22  40  60  83 112 149 191 231 279 340
#     4  10  21  37  58  85 116 149 190 235 280 333
#     4  11  20  34  59  88 112 146 192 237 276 329
#     4  10  20  35  59  88 110 146 192 234 280 331
#
# _framework density 22.603977
#
# number of rings (size 3 to 8) (size 9 to 14) (size 15 to 20)
#    0.000    1.833    1.667    3.500    0.000    2.667 
#    0.000    7.500    0.000   38.000    0.000    0.000 
#    0.000    0.000    0.000    0.000    0.000    0.000 
#
# Total GULP energy -297379.650471 kJ/mol
# GULP energy per Si atom -12390.818770 kJ/mol
# Density = 2.255253 g / cm^3
# Si number density = 22.603977 Si / 1000 Ang^3
#
#
#
# Elastic Constant Matrix: (Units=GPa)
#
#
# Indices 1 2 3 4 5 6 
#
# 1 101.7863 47.8033 20.4038 0.0005 -24.5399 0.0001
# 2 47.8033 175.6307 24.9319 -0.0003 -20.0976 0.0002
# 3 20.4038 24.9319 79.6389 0.0024 -15.2184 -0.0011
# 4 0.0005 -0.0003 0.0024 34.6467 0.0004 0.2525
# 5 -24.5399 -20.0976 -15.2184 0.0004 24.6977 0.0003
# 6 0.0001 0.0002 -0.0011 0.2525 0.0003 34.7592
#
#
#
# Elastic Compliance Matrix: (Units=1/GPa)
#
#
# Indices 1 2 3 4 5 6 
#
# 1 0.013812 -0.002365 -0.000616 0.000000 0.011419 0.000000
# 2 -0.002365 0.006773 -0.001032 0.000000 0.002526 0.000000
# 3 -0.000616 -0.001032 0.014463 -0.000001 0.007460 0.000000
# 4 0.000000 0.000000 -0.000001 0.028864 -0.000001 -0.000210
# 5 0.011419 0.002526 0.007460 -0.000001 0.058488 0.000000
# 6 0.000000 0.000000 0.000000 -0.000210 0.000000 0.028771
#
#
# Mechanical properties :
#
#
# Convention : Reuss Voigt Hill
#
# Bulk Modulus (GPa) = 37.00680 60.37044 48.68862
# Shear Modulus (GPa) = 29.72568 36.41517 33.07043
#
# Velocity S-wave (km/s) = 3.63032 4.01809 3.82911
# Velocity P-wave (km/s) = 5.82920 6.94929 6.41374
#
# Compressibility (1/GPa) = 0.02702206
#
# Stress axis : x y z
#
# Youngs Moduli (GPa) = 72.40136 147.64514 69.14135
#
# Poissons Ratio (x) = 0.34920 0.04260
# Poissons Ratio (y) = 0.17124 0.07134
# Poissons Ratio (z) = 0.04460 0.15234
#
# Static dielectric constant tensor:
#      x y z
#    x 3.870650 0.000000 -0.239840 
#    y 0.000000 4.232070 0.000000 
#    z -0.239840 0.000000 4.418780 
# 
# 
# High freq. dielectric constant tensor:
#      x y z
#    x 1.866200 0.000000 -0.023130 
#    y 0.000000 1.900140 0.000000 
#    z -0.023130 0.000000 1.901430 
# 
# From -- ./inp_files/376164.got.cif
#   From: 2010.06.25/outbox.cif.g09.slc.cpg/sg12_189_cif.got.tgz:376164.got - 2010.06.28 00:19:55.
