data_PCOD8093555
_publ_section_title
;
Structure prediction by ZEFSAII (Michael W. Deem and Ramdas Pophale) SiO2 
 PCOD8093555
Probable space group: C 2/M
;
_chemical_formula_sum "Si O2"
_cell_formula_units_Z 32
_cell_length_a 20.790089
_cell_length_b 8.579206
_cell_length_c 25.544632
_cell_angle_alpha 90.000000
_cell_angle_beta 157.857877
_cell_angle_gamma 90.000000
_cell_volume 1717.257318
_symmetry_space_group_name_H-M "C 2/M"
_symmetry_group_IT_number 12
_symmetry_cell_setting 'monoclinic'
loop_
_space_group_symop_operation_xyz
x,y,z
-x,y,-z
-x,-y,-z
x,-y,z
1/2+x,1/2+y,z
1/2-x,1/2+y,-z
1/2-x,1/2-y,-z
1/2+x,1/2-y,z
loop_
_atom_site_type_symbol
_atom_site_label
_atom_site_fract_x
_atom_site_fract_y
_atom_site_fract_z
Si Si1 0.115215 0.684026 0.938526
Si Si2 0.233164 0.182982 0.644028
Si Si3 0.169955 0.316025 0.097205
Si Si4 0.407940 0.181776 0.357853
O O1 0.125455 0.500000 0.946730
O O2 0.926407 0.737703 0.778592
O O3 0.250000 0.750000 0.000000
O O4 0.155290 0.746074 0.026935
O O5 0.189150 0.219809 0.671016
O O6 0.109015 0.275889 0.511008
O O7 0.209982 0.000000 0.617332
O O8 0.199968 0.500000 0.122713
O O9 0.331963 0.228963 0.244535
O O10 0.000000 0.267193 0.000000
O O11 0.383565 0.000000 0.350529
#
# Coordination Sequence:
#
# PCOD8093555 Si02
#       4
#     8   8   8   8
#     4  10  22  38  59  83 111 148 186 228 277 332
#     4  10  19  36  57  79 110 153 189 220 273 340
#     4  10  19  37  59  81 110 147 191 227 270 336
#     4  11  21  32  53  88 116 140 180 239 286 314
#
# _framework density 18.634364999999999
#
# number of rings (size 3 to 8) (size 9 to 14) (size 15 to 20)
#    0.000    1.750    2.500    4.500    0.000    3.500 
#    0.000    1.250    0.000    0.000    0.000    0.000 
#    0.000    0.000    0.000    0.000    0.000    0.000 
#
# Total GULP energy -198435.117576 kJ/mol
# GULP energy per Si atom -12402.194849 kJ/mol
# Density = 1.859195 g / cm^3
# Si number density = 18.634365 Si / 1000 Ang^3
#
#
#
# Elastic Constant Matrix: (Units=GPa)
#
#
# Indices 1 2 3 4 5 6 
#
# 1 112.5749 16.1248 74.9512 -0.0022 0.0252 0.0000
# 2 16.1248 39.2868 33.9170 -0.0028 -4.7912 0.0002
# 3 74.9512 33.9170 168.0086 -0.0080 -3.3674 0.0022
# 4 -0.0022 -0.0028 -0.0080 20.3565 0.0012 4.2590
# 5 0.0252 -4.7912 -3.3674 0.0012 31.3570 -0.0002
# 6 0.0000 0.0002 0.0022 4.2590 -0.0002 25.1314
#
#
#
# Elastic Compliance Matrix: (Units=1/GPa)
#
#
# Indices 1 2 3 4 5 6 
#
# 1 0.012655 -0.000474 -0.005564 -0.000001 -0.000680 0.000001
# 2 -0.000474 0.031366 -0.006038 0.000002 0.004145 0.000000
# 3 -0.005564 -0.006038 0.009655 0.000003 0.000119 -0.000001
# 4 -0.000001 0.000002 0.000003 0.050930 -0.000001 -0.008631
# 5 -0.000680 0.004145 0.000119 -0.000001 0.032537 0.000000
# 6 0.000001 0.000000 -0.000001 -0.008631 0.000000 0.041253
#
#
# Mechanical properties :
#
#
# Convention : Reuss Voigt Hill
#
# Bulk Modulus (GPa) = 33.86802 63.31736 48.59269
# Shear Modulus (GPa) = 23.54158 28.36081 25.95119
#
# Velocity S-wave (km/s) = 3.55821 3.90547 3.73587
# Velocity P-wave (km/s) = 5.92416 7.37492 6.68899
#
# Compressibility (1/GPa) = 0.02952638
#
# Stress axis : x y z
#
# Youngs Moduli (GPa) = 79.01868 31.88150 103.56970
#
# Poissons Ratio (x) = 0.01511 0.57623
# Poissons Ratio (y) = 0.03745 0.62531
# Poissons Ratio (z) = 0.43963 0.19249
#
# Static dielectric constant tensor:
#      x y z
#    x 3.023820 0.000000 -0.248000 
#    y 0.000000 3.275700 0.000000 
#    z -0.248000 0.000000 3.733520 
# 
# 
# High freq. dielectric constant tensor:
#      x y z
#    x 1.690850 0.000000 -0.012290 
#    y 0.000000 1.720510 0.000000 
#    z -0.012290 0.000000 1.742070 
# 
# From -- ./inp_files/92097.got.cif
#   From: 2010.06.25/outbox.cif.g09.slc.cpg/sg12_47_cif.got.tgz:92097.got - 2010.06.28 00:19:55.
