data_PCOD8093057
_publ_section_title
;
Structure prediction by ZEFSAII (Michael W. Deem and Ramdas Pophale) SiO2 
 PCOD8093057
Probable space group: C 2/M
;
_chemical_formula_sum "Si O2"
_cell_formula_units_Z 64
_cell_length_a 15.581656
_cell_length_b 8.817744
_cell_length_c 23.934365
_cell_angle_alpha 90.000000
_cell_angle_beta 98.350911
_cell_angle_gamma 90.000000
_cell_volume 3253.596211
_symmetry_space_group_name_H-M "C 2/M"
_symmetry_group_IT_number 12
_symmetry_cell_setting 'monoclinic'
loop_
_space_group_symop_operation_xyz
x,y,z
-x,y,-z
-x,-y,-z
x,-y,z
1/2+x,1/2+y,z
1/2-x,1/2+y,-z
1/2-x,1/2-y,-z
1/2+x,1/2-y,z
loop_
_atom_site_type_symbol
_atom_site_label
_atom_site_fract_x
_atom_site_fract_y
_atom_site_fract_z
Si Si1 0.190134 0.326706 0.823933
Si Si2 0.393907 0.679655 0.431445
Si Si3 0.411950 0.679542 0.558828
Si Si4 0.676419 0.821030 0.244087
Si Si5 0.954205 0.680006 0.940520
Si Si6 0.773751 0.820213 0.634741
Si Si7 0.998749 0.679255 0.174755
Si Si8 0.277728 0.327118 0.945694
O O1 0.204969 0.500000 0.805010
O O2 0.253468 0.215801 0.796875
O O3 0.202741 0.316753 0.892026
O O4 0.090777 0.273099 0.803398
O O5 0.381748 0.500000 0.425158
O O6 0.383930 0.735053 0.494592
O O7 0.489206 0.730516 0.418267
O O8 0.322103 0.761436 0.387659
O O9 0.409426 0.500000 0.559197
O O10 0.344405 0.746767 0.597507
O O11 0.700580 0.734208 0.302074
O O12 0.581958 0.758609 0.216355
O O13 0.676240 0.000000 0.254832
O O14 0.951748 0.500000 0.943904
O O15 0.002161 0.739195 0.889283
O O16 0.857670 0.740029 0.926807
O O17 0.000000 0.748059 0.000000
O O18 0.773050 0.000000 0.632775
O O19 0.006595 0.500000 0.172843
O O20 0.301977 0.500000 0.961183
O O21 0.250000 0.250000 0.000000
#
# Coordination Sequence:
#
# PCOD8093057 Si02
#       8
#     8   8   8   8   8   8   8   8
#     4  10  21  40  62  84 111 147 186 234 290 343
#     4   9  17  35  60  86 116 153 194 235 283 340
#     4   8  17  34  58  85 118 155 190 234 287 339
#     4  11  23  40  59  81 110 150 196 242 284 340
#     4  10  19  35  59  84 114 149 185 229 286 348
#     4  11  22  36  55  83 117 152 192 238 288 339
#     4   9  19  37  60  82 109 145 186 229 285 347
#     4  11  22  35  56  85 119 150 186 231 284 347
#
# _framework density 19.670541
#
# number of rings (size 3 to 8) (size 9 to 14) (size 15 to 20)
#    0.000    2.125    1.250    3.000    0.000    3.750 
#    0.000    7.500    0.000    0.000    0.000    0.000 
#    0.000    0.000    0.000    0.000    0.000    0.000 
#
# Total GULP energy -396749.455448 kJ/mol
# GULP energy per Si atom -12398.420483 kJ/mol
# Density = 1.962577 g / cm^3
# Si number density = 19.670541 Si / 1000 Ang^3
#
#
#
# Elastic Constant Matrix: (Units=GPa)
#
#
# Indices 1 2 3 4 5 6 
#
# 1 133.9186 17.3765 45.4789 0.0000 16.8703 0.0000
# 2 17.3765 26.5105 19.6352 0.0000 6.3397 0.0000
# 3 45.4789 19.6352 96.4454 0.0000 17.6284 0.0000
# 4 0.0000 0.0000 0.0000 16.1130 0.0000 -3.4843
# 5 16.8703 6.3397 17.6284 0.0000 31.7081 0.0000
# 6 0.0000 0.0000 0.0000 -3.4843 0.0000 25.4764
#
#
#
# Elastic Compliance Matrix: (Units=1/GPa)
#
#
# Indices 1 2 3 4 5 6 
#
# 1 0.009301 -0.003048 -0.003308 0.000000 -0.002500 0.000000
# 2 -0.003048 0.045948 -0.007273 0.000000 -0.003521 0.000000
# 3 -0.003308 -0.007273 0.014272 0.000000 -0.004720 0.000000
# 4 0.000000 0.000000 0.000000 0.063953 0.000000 0.008747
# 5 -0.002500 -0.003521 -0.004720 0.000000 0.036196 0.000000
# 6 0.000000 0.000000 0.000000 0.008747 0.000000 0.040448
#
#
# Mechanical properties :
#
#
# Convention : Reuss Voigt Hill
#
# Bulk Modulus (GPa) = 23.66243 46.87285 35.26764
# Shear Modulus (GPa) = 19.88337 26.28511 23.08424
#
# Velocity S-wave (km/s) = 3.18279 3.65947 3.42942
# Velocity P-wave (km/s) = 5.05592 6.46036 5.80080
#
# Compressibility (1/GPa) = 0.04226109
#
# Stress axis : x y z
#
# Youngs Moduli (GPa) = 107.51269 21.76368 70.06603
#
# Poissons Ratio (x) = 0.06634 0.23181
# Poissons Ratio (y) = 0.32773 0.50962
# Poissons Ratio (z) = 0.35570 0.15830
#
# Static dielectric constant tensor:
#      x y z
#    x 3.881160 0.000000 -0.010860 
#    y 0.000000 3.259710 0.000000 
#    z -0.010860 0.000000 3.654210 
# 
# 
# High freq. dielectric constant tensor:
#      x y z
#    x 1.780910 0.000000 0.002170 
#    y 0.000000 1.738720 0.000000 
#    z 0.002170 0.000000 1.766820 
# 
# From -- ./inp_files/338829.got.cif
#   From: 2010.06.25/outbox.cif.g09.slc.cpg/sg12_170_cif.got.tgz:338829.got - 2010.06.28 00:19:55.
