data_PCOD8093531
_publ_section_title
;
Structure prediction by ZEFSAII (Michael W. Deem and Ramdas Pophale) SiO2 
 PCOD8093531
Probable space group: C 2/M
;
_chemical_formula_sum "Si O2"
_cell_formula_units_Z 48
_cell_length_a 23.377030
_cell_length_b 8.915910
_cell_length_c 12.756345
_cell_angle_alpha 90.000000
_cell_angle_beta 90.223088
_cell_angle_gamma 90.000000
_cell_volume 2658.752887
_symmetry_space_group_name_H-M "C 2/M"
_symmetry_group_IT_number 12
_symmetry_cell_setting 'monoclinic'
loop_
_space_group_symop_operation_xyz
x,y,z
-x,y,-z
-x,-y,-z
x,-y,z
1/2+x,1/2+y,z
1/2-x,1/2+y,-z
1/2-x,1/2-y,-z
1/2+x,1/2-y,z
loop_
_atom_site_type_symbol
_atom_site_label
_atom_site_fract_x
_atom_site_fract_y
_atom_site_fract_z
Si Si1 0.313545 0.177034 0.886676
Si Si2 0.005699 0.324377 0.622193
Si Si3 0.880468 0.824650 0.309518
Si Si4 0.381501 0.822849 0.688682
Si Si5 0.183846 0.174076 0.900368
Si Si6 0.811235 0.321955 0.490273
O O1 0.352323 0.244772 0.793026
O O2 0.247725 0.226617 0.867486
O O3 0.319678 0.000000 0.889159
O O4 0.337105 0.239644 0.996474
O O5 0.020258 0.500000 0.634225
O O6 0.054448 0.226402 0.676753
O O7 0.000000 0.283038 0.500000
O O8 0.947975 0.278380 0.682570
O O9 0.860876 0.789084 0.191299
O O10 0.839725 0.729378 0.383337
O O11 0.873985 0.000000 0.335412
O O12 0.349419 0.760013 0.586210
O O13 0.374727 0.000000 0.688348
O O14 0.185043 0.000000 0.928195
O O15 0.806008 0.500000 0.491327
O O16 0.750000 0.250000 0.500000
#
# Coordination Sequence:
#
# PCOD8093531 Si02
#       6
#     8   8   8   8   8   8
#     4   9  17  33  57  79 100 135 180 220 263 323
#     4  10  19  36  57  77 104 145 185 222 269 322
#     4  11  22  36  54  79 110 144 181 222 270 322
#     4   9  18  34  55  77 106 140 176 220 273 321
#     4   9  19  35  53  76 109 141 172 219 276 321
#     4  11  21  35  54  80 112 143 175 219 273 326
#
# _framework density 18.053578000000002
#
# number of rings (size 3 to 8) (size 9 to 14) (size 15 to 20)
#    0.000    2.167    1.667    2.000    0.000    4.333 
#    0.000    6.667    0.000    5.000    0.000    0.000 
#    0.000    0.000    0.000    0.000    0.000    0.000 
#
# Total GULP energy -297631.348824 kJ/mol
# GULP energy per Si atom -12401.306201 kJ/mol
# Density = 1.801249 g / cm^3
# Si number density = 18.053578 Si / 1000 Ang^3
#
#
#
# Elastic Constant Matrix: (Units=GPa)
#
#
# Indices 1 2 3 4 5 6 
#
# 1 110.2819 35.3670 51.6225 0.0000 9.1454 0.0000
# 2 35.3670 46.2898 37.1606 0.0000 5.2089 0.0000
# 3 51.6225 37.1606 108.2574 0.0000 5.8124 0.0000
# 4 0.0000 0.0000 0.0000 28.2208 0.0000 2.4626
# 5 9.1454 5.2089 5.8124 0.0000 31.5019 0.0000
# 6 0.0000 0.0000 0.0000 2.4626 0.0000 30.9939
#
#
#
# Elastic Compliance Matrix: (Units=1/GPa)
#
#
# Indices 1 2 3 4 5 6 
#
# 1 0.013215 -0.006762 -0.003873 0.000000 -0.002004 0.000000
# 2 -0.006762 0.033578 -0.008190 0.000000 -0.002078 0.000000
# 3 -0.003873 -0.008190 0.013900 0.000000 -0.000086 0.000000
# 4 0.000000 0.000000 0.000000 0.035682 0.000000 -0.002835
# 5 -0.002004 -0.002078 -0.000086 0.000000 0.032685 0.000000
# 6 0.000000 0.000000 0.000000 -0.002835 0.000000 0.032490
#
#
# Mechanical properties :
#
#
# Convention : Reuss Voigt Hill
#
# Bulk Modulus (GPa) = 43.39685 57.01436 50.20561
# Shear Modulus (GPa) = 24.16830 27.52191 25.84511
#
# Velocity S-wave (km/s) = 3.66279 3.90867 3.78772
# Velocity P-wave (km/s) = 6.47905 7.21245 6.85556
#
# Compressibility (1/GPa) = 0.02304314
#
# Stress axis : x y z
#
# Youngs Moduli (GPa) = 75.66915 29.78113 71.94279
#
# Poissons Ratio (x) = 0.20139 0.27863
# Poissons Ratio (y) = 0.51171 0.58920
# Poissons Ratio (z) = 0.29306 0.24390
#
# Static dielectric constant tensor:
#      x y z
#    x 3.244320 0.000000 0.022650 
#    y 0.000000 3.162720 0.000000 
#    z 0.022650 0.000000 3.416340 
# 
# 
# High freq. dielectric constant tensor:
#      x y z
#    x 1.701460 0.000000 -0.001210 
#    y 0.000000 1.683030 0.000000 
#    z -0.001210 0.000000 1.702310 
# 
# From -- ./inp_files/172202.got.cif
#   From: 2010.06.25/outbox.cif.g09.slc.cpg/sg12_87_cif.got.tgz:172202.got - 2010.06.28 00:19:55.
