data_PCOD8093137
_publ_section_title
;
Structure prediction by ZEFSAII (Michael W. Deem and Ramdas Pophale) SiO2 
 PCOD8093137
Probable space group: C 2/M
;
_chemical_formula_sum "Si O2"
_cell_formula_units_Z 44
_cell_length_a 25.350972
_cell_length_b 10.466702
_cell_length_c 11.941930
_cell_angle_alpha 90.000000
_cell_angle_beta 47.832319
_cell_angle_gamma 90.000000
_cell_volume 2348.576263
_symmetry_space_group_name_H-M "C 2/M"
_symmetry_group_IT_number 12
_symmetry_cell_setting 'monoclinic'
loop_
_space_group_symop_operation_xyz
x,y,z
-x,y,-z
-x,-y,-z
x,-y,z
1/2+x,1/2+y,z
1/2-x,1/2+y,-z
1/2-x,1/2-y,-z
1/2+x,1/2-y,z
loop_
_atom_site_type_symbol
_atom_site_label
_atom_site_fract_x
_atom_site_fract_y
_atom_site_fract_z
Si Si1 0.674868 0.000000 0.196769
Si Si2 0.533437 0.242105 0.069377
Si Si3 0.395252 0.352318 0.364403
Si Si4 0.399303 0.000000 0.916419
Si Si5 0.307558 0.250702 0.684944
Si Si6 0.759140 0.000000 0.866783
Si Si7 0.669930 0.354259 0.777732
O O1 0.606702 0.000000 0.210617
O O2 0.671845 0.873545 0.274866
O O3 0.747525 0.000000 0.018348
O O4 0.477035 0.321328 0.222242
O O5 0.557287 0.122067 0.106937
O O6 0.500000 0.193919 0.000000
O O7 0.599609 0.335266 0.952533
O O8 0.387957 0.500000 0.406728
O O9 0.368937 0.268198 0.505617
O O10 0.346266 0.319475 0.327551
O O11 0.318914 0.000000 0.082363
O O12 0.303402 0.374127 0.770938
O O13 0.232053 0.237415 0.731148
O O14 0.695120 0.500000 0.754949
#
# Coordination Sequence:
#
# PCOD8093137 Si02
#       7
#     4   8   8   4   8   4   8
#     4  10  24  38  64  89 112 157 203 239 302 342
#     4  10  20  37  60  85 119 159 194 235 289 357
#     4  10  22  36  57  88 122 155 192 240 299 348
#     4  10  21  39  59  86 111 151 204 246 287 343
#     4  12  20  40  60  90 119 154 192 251 295 346
#     4  10  22  37  63  82 116 151 198 242 292 337
#     4  10  19  35  59  88 120 156 195 234 288 360
#
# _framework density 18.734753999999999
#
# number of rings (size 3 to 8) (size 9 to 14) (size 15 to 20)
#    0.545    1.091    3.636    1.909    0.000    2.909 
#    0.000    2.727    2.000    1.091    0.000    0.000 
#    0.000    0.000    0.000    0.000    0.000    0.000 
#
# Total GULP energy -272812.898428 kJ/mol
# GULP energy per Si atom -12400.586292 kJ/mol
# Density = 1.869211 g / cm^3
# Si number density = 18.734754 Si / 1000 Ang^3
#
#
#
# Elastic Constant Matrix: (Units=GPa)
#
#
# Indices 1 2 3 4 5 6 
#
# 1 64.0399 33.1127 36.0928 0.0000 6.4880 0.0000
# 2 33.1127 115.0378 49.9605 0.0000 20.2723 0.0000
# 3 36.0928 49.9605 140.5327 0.0000 10.0309 0.0000
# 4 0.0000 0.0000 0.0000 28.6501 0.0000 10.8368
# 5 6.4880 20.2723 10.0309 0.0000 24.1559 0.0000
# 6 0.0000 0.0000 0.0000 10.8368 0.0000 17.7173
#
#
#
# Elastic Compliance Matrix: (Units=1/GPa)
#
#
# Indices 1 2 3 4 5 6 
#
# 1 0.019789 -0.004055 -0.003611 0.000000 -0.000412 0.000000
# 2 -0.004055 0.012545 -0.002828 0.000000 -0.008264 0.000000
# 3 -0.003611 -0.002828 0.009079 0.000000 -0.000427 0.000000
# 4 0.000000 0.000000 0.000000 0.045410 0.000000 -0.027775
# 5 -0.000412 -0.008264 -0.000427 0.000000 0.048621 0.000000
# 6 0.000000 0.000000 0.000000 -0.027775 0.000000 0.073430
#
#
# Mechanical properties :
#
#
# Convention : Reuss Voigt Hill
#
# Bulk Modulus (GPa) = 48.96341 61.99360 55.47851
# Shear Modulus (GPa) = 21.12628 27.46761 24.29694
#
# Velocity S-wave (km/s) = 3.36170 3.83316 3.60514
# Velocity P-wave (km/s) = 6.42338 7.26312 6.85612
#
# Compressibility (1/GPa) = 0.02042341
#
# Stress axis : x y z
#
# Youngs Moduli (GPa) = 50.53276 79.71467 110.14118
#
# Poissons Ratio (x) = 0.32325 0.39776
# Poissons Ratio (y) = 0.20491 0.31153
# Poissons Ratio (z) = 0.18249 0.22547
#
# Static dielectric constant tensor:
#      x y z
#    x 3.312100 0.000000 0.033120 
#    y 0.000000 3.506710 0.000000 
#    z 0.033120 0.000000 3.368700 
# 
# 
# High freq. dielectric constant tensor:
#      x y z
#    x 1.713360 0.000000 0.002590 
#    y 0.000000 1.734290 0.000000 
#    z 0.002590 0.000000 1.725240 
# 
# From -- ./inp_files/175144.got.cif
#   From: 2010.06.25/outbox.cif.g09.slc.cpg/sg12_88_cif.got.tgz:175144.got - 2010.06.28 00:19:55.
