data_PCOD8093891
_publ_section_title
;
Structure prediction by ZEFSAII (Michael W. Deem and Ramdas Pophale) SiO2 
 PCOD8093891
Probable space group: C 2/M
;
_chemical_formula_sum "Si O2"
_cell_formula_units_Z 64
_cell_length_a 29.305610
_cell_length_b 17.073232
_cell_length_c 11.366310
_cell_angle_alpha 90.000000
_cell_angle_beta 33.058286
_cell_angle_gamma 90.000000
_cell_volume 3102.232366
_symmetry_space_group_name_H-M "C 2/M"
_symmetry_group_IT_number 12
_symmetry_cell_setting 'monoclinic'
loop_
_space_group_symop_operation_xyz
x,y,z
-x,y,-z
-x,-y,-z
x,-y,z
1/2+x,1/2+y,z
1/2-x,1/2+y,-z
1/2-x,1/2-y,-z
1/2+x,1/2-y,z
loop_
_atom_site_type_symbol
_atom_site_label
_atom_site_fract_x
_atom_site_fract_y
_atom_site_fract_z
Si Si1 0.995162 0.653653 0.212274
Si Si2 0.890859 0.782070 0.997151
Si Si3 0.578532 0.590177 0.250452
Si Si4 0.079254 0.408230 0.403723
Si Si5 0.879416 0.735662 0.285229
Si Si6 0.236772 0.091316 0.070165
Si Si7 0.154000 0.586943 0.768349
Si Si8 0.758864 0.821722 0.710377
O O1 0.928227 0.612632 0.441656
O O2 0.958998 0.703296 0.182328
O O3 0.046857 0.713966 0.182445
O O4 0.057293 0.590166 0.019256
O O5 0.918568 0.863510 0.879290
O O6 0.898047 0.783121 0.124419
O O7 0.798815 0.755672 0.153522
O O8 0.500000 0.618516 0.500000
O O9 0.565185 0.500000 0.245696
O O10 0.667740 0.604421 0.119157
O O11 0.079296 0.500000 0.388573
O O12 0.000000 0.374231 0.500000
O O13 0.170478 0.377618 0.166272
O O14 0.825744 0.656554 0.369093
O O15 0.835810 0.797192 0.463824
O O16 0.206487 0.147222 0.241013
O O17 0.238959 0.000000 0.101751
O O18 0.172160 0.500000 0.677704
O O19 0.211261 0.603616 0.757604
#
# Coordination Sequence:
#
# PCOD8093891 Si02
#       8
#     8   8   8   8   8   8   8   8
#     4  10  21  35  58  90 124 157 199 245 306 372
#     4  10  21  39  62  85 120 159 197 248 304 363
#     4  10  24  44  63  86 116 156 208 264 311 356
#     4  10  20  36  59  92 132 164 196 244 303 378
#     4  10  22  39  57  90 127 158 201 252 297 366
#     4  10  22  40  61  89 122 158 205 253 304 367
#     4  10  19  36  60  86 121 163 201 240 302 373
#     4  10  21  38  59  88 123 159 201 249 300 364
#
# _framework density 20.630305
#
# number of rings (size 3 to 8) (size 9 to 14) (size 15 to 20)
#    0.000    2.250    0.000    5.250    3.500    4.500 
#    0.000    3.125    0.000    1.500    0.000    0.000 
#    0.000    0.000    0.000    0.000    0.000    0.000 
#
# Total GULP energy -396478.190745 kJ/mol
# GULP energy per Si atom -12389.943461 kJ/mol
# Density = 2.058335 g / cm^3
# Si number density = 20.630305 Si / 1000 Ang^3
#
#
#
# Elastic Constant Matrix: (Units=GPa)
#
#
# Indices 1 2 3 4 5 6 
#
# 1 64.7594 16.5601 12.8235 0.0000 2.2614 0.0000
# 2 16.5601 56.9856 16.0514 0.0000 9.0759 0.0000
# 3 12.8235 16.0514 57.6574 0.0000 -2.6343 0.0000
# 4 0.0000 0.0000 0.0000 25.5621 0.0000 12.4884
# 5 2.2614 9.0759 -2.6343 0.0000 31.9994 0.0000
# 6 0.0000 0.0000 0.0000 12.4884 0.0000 22.1004
#
#
#
# Elastic Compliance Matrix: (Units=1/GPa)
#
#
# Indices 1 2 3 4 5 6 
#
# 1 0.017039 -0.004170 -0.002640 0.000000 -0.000239 0.000000
# 2 -0.004170 0.021223 -0.005262 0.000000 -0.006158 0.000000
# 3 -0.002640 -0.005262 0.019546 0.000000 0.003288 0.000000
# 4 0.000000 0.000000 0.000000 0.054039 0.000000 -0.030536
# 5 -0.000239 -0.006158 0.003288 0.000000 0.033285 0.000000
# 6 0.000000 0.000000 0.000000 -0.030536 0.000000 0.062503
#
#
# Mechanical properties :
#
#
# Convention : Reuss Voigt Hill
#
# Bulk Modulus (GPa) = 29.70489 30.03025 29.86757
# Shear Modulus (GPa) = 20.57607 24.86353 22.71980
#
# Velocity S-wave (km/s) = 3.16154 3.47536 3.32216
# Velocity P-wave (km/s) = 5.26850 5.54005 5.40598
#
# Compressibility (1/GPa) = 0.03366449
#
# Stress axis : x y z
#
# Youngs Moduli (GPa) = 58.68831 47.11843 51.16105
#
# Poissons Ratio (x) = 0.19649 0.13505
# Poissons Ratio (y) = 0.24473 0.26922
# Poissons Ratio (z) = 0.15492 0.24795
#
# Static dielectric constant tensor:
#      x y z
#    x 3.715100 0.000000 -0.153460 
#    y 0.000000 3.515540 0.000000 
#    z -0.153460 0.000000 3.735810 
# 
# 
# High freq. dielectric constant tensor:
#      x y z
#    x 1.806500 0.000000 -0.004480 
#    y 0.000000 1.788600 0.000000 
#    z -0.004480 0.000000 1.801540 
# 
# From -- ./inp_files/190025.got.cif
#   From: 2010.06.25/outbox.cif.g09.slc.cpg/sg12_96_cif.got.tgz:190025.got - 2010.06.28 00:19:55.
