data_PCOD8093947
_publ_section_title
;
Structure prediction by ZEFSAII (Michael W. Deem and Ramdas Pophale) SiO2 
 PCOD8093947
Probable space group: C 2/M
;
_chemical_formula_sum "Si O2"
_cell_formula_units_Z 48
_cell_length_a 23.187075
_cell_length_b 8.983184
_cell_length_c 19.409350
_cell_angle_alpha 90.000000
_cell_angle_beta 35.645649
_cell_angle_gamma 90.000000
_cell_volume 2356.052101
_symmetry_space_group_name_H-M "C 2/M"
_symmetry_group_IT_number 12
_symmetry_cell_setting 'monoclinic'
loop_
_space_group_symop_operation_xyz
x,y,z
-x,y,-z
-x,-y,-z
x,-y,z
1/2+x,1/2+y,z
1/2-x,1/2+y,-z
1/2-x,1/2-y,-z
1/2+x,1/2-y,z
loop_
_atom_site_type_symbol
_atom_site_label
_atom_site_fract_x
_atom_site_fract_y
_atom_site_fract_z
Si Si1 0.164991 0.326029 0.037717
Si Si2 0.951697 0.167210 0.620704
Si Si3 0.132134 0.826238 0.528768
Si Si4 0.234498 0.324655 0.820193
Si Si5 0.962262 0.170380 0.240649
Si Si6 0.190631 0.825771 0.722976
O O1 0.173965 0.500000 0.042571
O O2 0.056789 0.271550 0.164952
O O3 0.250000 0.250000 0.000000
O O4 0.175164 0.287388 0.947019
O O5 0.844653 0.245953 0.722533
O O6 0.000000 0.172354 0.500000
O O7 0.029104 0.240655 0.598338
O O8 0.931833 0.000000 0.665789
O O9 0.123952 0.801762 0.618697
O O10 0.222144 0.738930 0.408367
O O11 0.144273 0.000000 0.496836
O O12 0.239143 0.500000 0.799928
O O13 0.182027 0.247234 0.806400
O O14 0.913134 0.207511 0.214712
O O15 0.998302 0.000000 0.209072
O O16 0.209397 0.000000 0.712951
#
# Coordination Sequence:
#
# PCOD8093947 Si02
#       6
#     8   8   8   8   8   8
#     4  11  24  42  66  91 118 153 196 247 297 353
#     4   9  15  28  55  84 106 139 188 236 282 338
#     4  10  19  36  61  84 115 159 201 246 297 360
#     4  10  21  39  61  86 117 157 202 240 288 361
#     4  10  23  41  60  84 119 163 204 242 296 358
#     4  11  23  37  56  88 124 156 196 252 306 348
#
# _framework density 20.373062999999998
#
# number of rings (size 3 to 8) (size 9 to 14) (size 15 to 20)
#    0.000    1.833    1.667    2.500    0.000    6.667 
#    0.000    5.000    0.000    0.000    0.000    0.000 
#    0.000    0.000    0.000    0.000    0.000    0.000 
#
# Total GULP energy -297566.974168 kJ/mol
# GULP energy per Si atom -12398.623924 kJ/mol
# Density = 2.032669 g / cm^3
# Si number density = 20.373063 Si / 1000 Ang^3
#
#
#
# Elastic Constant Matrix: (Units=GPa)
#
#
# Indices 1 2 3 4 5 6 
#
# 1 129.4661 58.3123 38.8810 0.0000 8.4252 0.0001
# 2 58.3123 84.4870 43.4345 0.0016 4.9640 -0.0013
# 3 38.8810 43.4345 83.5453 0.0009 3.2150 -0.0003
# 4 0.0000 0.0016 0.0009 27.3298 -0.0003 -0.0101
# 5 8.4252 4.9640 3.2150 -0.0003 27.6496 0.0000
# 6 0.0001 -0.0013 -0.0003 -0.0101 0.0000 33.3672
#
#
#
# Elastic Compliance Matrix: (Units=1/GPa)
#
#
# Indices 1 2 3 4 5 6 
#
# 1 0.011488 -0.006961 -0.001648 0.000000 -0.002059 0.000000
# 2 -0.006961 0.020474 -0.007378 -0.000001 -0.000697 0.000001
# 3 -0.001648 -0.007378 0.016576 0.000000 -0.000100 0.000000
# 4 0.000000 -0.000001 0.000000 0.036590 0.000000 0.000011
# 5 -0.002059 -0.000697 -0.000100 0.000000 0.036931 0.000000
# 6 0.000000 0.000001 0.000000 0.000011 0.000000 0.029970
#
#
# Mechanical properties :
#
#
# Convention : Reuss Voigt Hill
#
# Bulk Modulus (GPa) = 60.37039 64.30601 62.33820
# Shear Modulus (GPa) = 26.38160 28.12736 27.25448
#
# Velocity S-wave (km/s) = 3.60241 3.71969 3.66152
# Velocity P-wave (km/s) = 6.85565 7.07679 6.96710
#
# Compressibility (1/GPa) = 0.01656441
#
# Stress axis : x y z
#
# Youngs Moduli (GPa) = 87.04578 48.84155 60.32642
#
# Poissons Ratio (x) = 0.33997 0.09945
# Poissons Ratio (y) = 0.60589 0.44510
# Poissons Ratio (z) = 0.14349 0.36036
#
# Static dielectric constant tensor:
#      x y z
#    x 3.944320 0.000000 0.045680 
#    y 0.000000 3.460590 0.000000 
#    z 0.045680 0.000000 3.611570 
# 
# 
# High freq. dielectric constant tensor:
#      x y z
#    x 1.814570 0.000000 0.003810 
#    y 0.000000 1.767760 0.000000 
#    z 0.003810 0.000000 1.795590 
# 
# From -- ./inp_files/327158.got.cif
#   From: 2010.06.25/outbox.cif.g09.slc.cpg/sg12_164_cif.got.tgz:327158.got - 2010.06.28 00:19:55.
