data_PCOD8093455
_publ_section_title
;
Structure prediction by ZEFSAII (Michael W. Deem and Ramdas Pophale) SiO2 
 PCOD8093455
Probable space group: C 2/M
;
_chemical_formula_sum "Si O2"
_cell_formula_units_Z 64
_cell_length_a 15.175112
_cell_length_b 19.131233
_cell_length_c 12.023296
_cell_angle_alpha 90.000000
_cell_angle_beta 112.736344
_cell_angle_gamma 90.000000
_cell_volume 3219.343900
_symmetry_space_group_name_H-M "C 2/M"
_symmetry_group_IT_number 12
_symmetry_cell_setting 'monoclinic'
loop_
_space_group_symop_operation_xyz
x,y,z
-x,y,-z
-x,-y,-z
x,-y,z
1/2+x,1/2+y,z
1/2-x,1/2+y,-z
1/2-x,1/2-y,-z
1/2+x,1/2-y,z
loop_
_atom_site_type_symbol
_atom_site_label
_atom_site_fract_x
_atom_site_fract_y
_atom_site_fract_z
Si Si1 0.346030 0.694650 0.230828
Si Si2 0.306682 0.841634 0.144638
Si Si3 0.157259 0.643459 0.077079
Si Si4 0.635786 0.920896 0.289897
Si Si5 0.449621 0.297594 0.678301
Si Si6 0.292298 0.310885 0.444721
Si Si7 0.898331 0.200621 0.903136
Si Si8 0.514891 0.143236 0.636040
O O1 0.328694 0.759089 0.138338
O O2 0.268562 0.636283 0.165768
O O3 0.450290 0.660896 0.262896
O O4 0.331440 0.722694 0.349792
O O5 0.191594 0.849674 0.106847
O O6 0.372350 0.867320 0.279576
O O7 0.344994 0.882007 0.052289
O O8 0.105000 0.597300 0.146199
O O9 0.115874 0.721417 0.059603
O O10 0.717630 0.871593 0.381873
O O11 0.542410 0.913439 0.319910
O O12 0.673008 0.000000 0.312482
O O13 0.383501 0.339220 0.558412
O O14 0.396240 0.294577 0.769222
O O15 0.475773 0.219818 0.648907
O O16 0.250000 0.250000 0.500000
O O17 0.000000 0.171397 0.000000
O O18 0.500000 0.127271 0.500000
#
# Coordination Sequence:
#
# PCOD8093455 Si02
#       8
#     8   8   8   8   8   8   8   8
#     4   9  18  30  48  86 118 149 187 245 307 352
#     4  10  20  32  53  84 115 158 193 245 301 358
#     4  10  19  36  53  75 119 154 196 238 298 363
#     4  11  25  41  59  84 119 163 206 252 300 355
#     4  11  18  29  54  87 118 153 189 246 303 365
#     4  11  19  33  57  85 117 154 201 250 304 357
#     4  11  19  30  53  90 124 149 191 249 317 356
#     4  11  22  37  58  81 124 159 203 247 303 359
#
# _framework density 19.879826999999999
#
# number of rings (size 3 to 8) (size 9 to 14) (size 15 to 20)
#    0.000    1.500    2.500    7.125    1.750    0.250 
#    0.000    1.250    0.000    6.000    0.000    0.000 
#    0.000    5.500    0.000    0.000    0.000    0.000 
#
# Total GULP energy -396476.350615 kJ/mol
# GULP energy per Si atom -12389.885957 kJ/mol
# Density = 1.983458 g / cm^3
# Si number density = 19.879827 Si / 1000 Ang^3
#
#
#
# Elastic Constant Matrix: (Units=GPa)
#
#
# Indices 1 2 3 4 5 6 
#
# 1 124.0528 17.0053 62.9234 0.0000 2.6195 0.0000
# 2 17.0053 42.8578 22.6369 0.0000 -8.4396 0.0000
# 3 62.9234 22.6369 147.8543 0.0000 -7.8628 0.0000
# 4 0.0000 0.0000 0.0000 9.0330 0.0000 0.6563
# 5 2.6195 -8.4396 -7.8628 0.0000 48.5794 0.0000
# 6 0.0000 0.0000 0.0000 0.6563 0.0000 9.4377
#
#
#
# Elastic Compliance Matrix: (Units=1/GPa)
#
#
# Indices 1 2 3 4 5 6 
#
# 1 0.010554 -0.002278 -0.004231 0.000000 -0.001650 0.000000
# 2 -0.002278 0.026598 -0.002875 0.000000 0.004278 0.000000
# 3 -0.004231 -0.002875 0.009068 0.000000 0.001196 0.000000
# 4 0.000000 0.000000 0.000000 0.111267 0.000000 -0.007738
# 5 -0.001650 0.004278 0.001196 0.000000 0.021611 0.000000
# 6 0.000000 0.000000 0.000000 -0.007738 0.000000 0.106496
#
#
# Mechanical properties :
#
#
# Convention : Reuss Voigt Hill
#
# Bulk Modulus (GPa) = 36.42702 57.76622 47.09662
# Shear Modulus (GPa) = 15.94835 27.55665 21.75250
#
# Velocity S-wave (km/s) = 2.83545 3.72716 3.31146
# Velocity P-wave (km/s) = 5.39288 6.90240 6.19379
#
# Compressibility (1/GPa) = 0.02745215
#
# Stress axis : x y z
#
# Youngs Moduli (GPa) = 94.75048 37.59684 110.28224
#
# Poissons Ratio (x) = 0.08565 0.46655
# Poissons Ratio (y) = 0.21584 0.31709
# Poissons Ratio (z) = 0.40084 0.10810
#
# Static dielectric constant tensor:
#      x y z
#    x 4.242570 0.000000 0.152210 
#    y 0.000000 2.826090 0.000000 
#    z 0.152210 0.000000 4.079820 
# 
# 
# High freq. dielectric constant tensor:
#      x y z
#    x 1.799060 0.000000 -0.001050 
#    y 0.000000 1.671640 0.000000 
#    z -0.001050 0.000000 1.803030 
# 
# From -- ./inp_files/147657.got.cif
#   From: 2010.06.25/outbox.cif.g09.slc.cpg/sg12_74_cif.got.tgz:147657.got - 2010.06.28 00:19:55.
