data_PCOD8093357
_publ_section_title
;
Structure prediction by ZEFSAII (Michael W. Deem and Ramdas Pophale) SiO2 
 PCOD8093357
Probable space group: C 2/M
;
_chemical_formula_sum "Si O2"
_cell_formula_units_Z 48
_cell_length_a 16.406418
_cell_length_b 19.159235
_cell_length_c 8.870322
_cell_angle_alpha 90.000000
_cell_angle_beta 60.428943
_cell_angle_gamma 90.000000
_cell_volume 2425.062467
_symmetry_space_group_name_H-M "C 2/M"
_symmetry_group_IT_number 12
_symmetry_cell_setting 'monoclinic'
loop_
_space_group_symop_operation_xyz
x,y,z
-x,y,-z
-x,-y,-z
x,-y,z
1/2+x,1/2+y,z
1/2-x,1/2+y,-z
1/2-x,1/2-y,-z
1/2+x,1/2-y,z
loop_
_atom_site_type_symbol
_atom_site_label
_atom_site_fract_x
_atom_site_fract_y
_atom_site_fract_z
Si Si1 0.100499 0.924329 0.832785
Si Si2 0.662920 0.218949 0.491470
Si Si3 0.754030 0.922781 0.035002
Si Si4 0.109161 0.579528 0.405717
Si Si5 0.321721 0.294598 0.837538
Si Si6 0.981071 0.208328 0.189955
O O1 0.910622 0.859134 0.271505
O O2 0.124012 0.000000 0.734435
O O3 0.177943 0.906072 0.886279
O O4 0.000000 0.929880 0.000000
O O5 0.750000 0.250000 0.500000
O O6 0.665334 0.135343 0.458987
O O7 0.658798 0.261358 0.340368
O O8 0.569411 0.229560 0.675213
O O9 0.649004 0.914603 0.198474
O O10 0.771237 0.000000 0.955431
O O11 0.772825 0.871116 0.877626
O O12 0.124849 0.500000 0.452589
O O13 0.000000 0.599090 0.500000
O O14 0.419926 0.306697 0.827521
O O15 0.250000 0.250000 0.000000
O O16 0.000000 0.229837 0.000000
#
# Coordination Sequence:
#
# PCOD8093357 Si02
#       6
#     8   8   8   8   8   8
#     4   9  16  31  57  87 119 157 199 234 287 376
#     4  12  25  41  60  90 126 164 206 260 311 368
#     4  10  19  35  61  91 122 159 199 248 309 373
#     4  10  21  40  65  91 118 159 216 261 305 372
#     4  12  22  37  59  87 122 156 202 257 308 365
#     4  11  21  37  60  90 122 159 203 248 310 363
#
# _framework density 19.793303999999999
#
# number of rings (size 3 to 8) (size 9 to 14) (size 15 to 20)
#    0.000    1.333    5.000    3.500    0.000    0.000 
#    0.000    1.667    0.000    2.500    0.000    0.000 
#    0.000    0.000    0.000    0.000    0.000    0.000 
#
# Total GULP energy -297359.628414 kJ/mol
# GULP energy per Si atom -12389.984517 kJ/mol
# Density = 1.974825 g / cm^3
# Si number density = 19.793304 Si / 1000 Ang^3
#
#
#
# Elastic Constant Matrix: (Units=GPa)
#
#
# Indices 1 2 3 4 5 6 
#
# 1 61.8520 24.1413 23.7071 0.0000 -6.4120 0.0000
# 2 24.1413 156.0055 48.6080 0.0000 5.5324 0.0000
# 3 23.7071 48.6080 101.7246 0.0000 -2.4559 0.0000
# 4 0.0000 0.0000 0.0000 31.5229 0.0000 -1.2085
# 5 -6.4120 5.5324 -2.4559 0.0000 29.8771 0.0000
# 6 0.0000 0.0000 0.0000 -1.2085 0.0000 34.2390
#
#
#
# Elastic Compliance Matrix: (Units=1/GPa)
#
#
# Indices 1 2 3 4 5 6 
#
# 1 0.018635 -0.002005 -0.003286 0.000000 0.004101 0.000000
# 2 -0.002005 0.007834 -0.003328 0.000000 -0.002154 0.000000
# 3 -0.003286 -0.003328 0.012208 0.000000 0.000915 0.000000
# 4 0.000000 0.000000 0.000000 0.031766 0.000000 0.001121
# 5 0.004101 -0.002154 0.000915 0.000000 0.034825 0.000000
# 6 0.000000 0.000000 0.000000 0.001121 0.000000 0.029246
#
#
# Mechanical properties :
#
#
# Convention : Reuss Voigt Hill
#
# Bulk Modulus (GPa) = 46.64366 56.94386 51.79376
# Shear Modulus (GPa) = 31.46680 34.00284 32.73482
#
# Velocity S-wave (km/s) = 3.99152 4.14925 4.07115
# Velocity P-wave (km/s) = 6.69772 7.19630 6.95148
#
# Compressibility (1/GPa) = 0.02143914
#
# Stress axis : x y z
#
# Youngs Moduli (GPa) = 53.66315 127.65429 81.91032
#
# Poissons Ratio (x) = 0.25599 0.26913
# Poissons Ratio (y) = 0.10761 0.27259
# Poissons Ratio (z) = 0.17632 0.42482
#
# Static dielectric constant tensor:
#      x y z
#    x 4.578170 0.000000 -0.429010 
#    y 0.000000 4.696000 0.000000 
#    z -0.429010 0.000000 3.646730 
# 
# 
# High freq. dielectric constant tensor:
#      x y z
#    x 1.769220 0.000000 -0.037690 
#    y 0.000000 1.790330 0.000000 
#    z -0.037690 0.000000 1.742860 
# 
# From -- ./inp_files/63335.got.cif
#   From: 2010.06.25/outbox.cif.g09.slc.cpg/sg12_32_cif.got.tgz:63335.got - 2010.06.28 00:19:55.
