data_PCOD8093724
_publ_section_title
;
Structure prediction by ZEFSAII (Michael W. Deem and Ramdas Pophale) SiO2 
 PCOD8093724
Probable space group: C 2/M
;
_chemical_formula_sum "Si O2"
_cell_formula_units_Z 48
_cell_length_a 29.636054
_cell_length_b 8.445514
_cell_length_c 19.338231
_cell_angle_alpha 90.000000
_cell_angle_beta 31.471198
_cell_angle_gamma 90.000000
_cell_volume 2526.922077
_symmetry_space_group_name_H-M "C 2/M"
_symmetry_group_IT_number 12
_symmetry_cell_setting 'monoclinic'
loop_
_space_group_symop_operation_xyz
x,y,z
-x,y,-z
-x,-y,-z
x,-y,z
1/2+x,1/2+y,z
1/2-x,1/2+y,-z
1/2-x,1/2-y,-z
1/2+x,1/2-y,z
loop_
_atom_site_type_symbol
_atom_site_label
_atom_site_fract_x
_atom_site_fract_y
_atom_site_fract_z
Si Si1 0.856724 0.683869 0.553129
Si Si2 0.401459 0.314981 0.129539
Si Si3 0.714563 0.184376 0.832534
Si Si4 0.522727 0.313696 0.392502
Si Si5 0.285582 0.312806 0.882472
Si Si6 0.255986 0.813569 0.415290
O O1 0.839194 0.500000 0.590065
O O2 0.806637 0.787892 0.675576
O O3 0.822135 0.728959 0.522787
O O4 0.957839 0.724612 0.425293
O O5 0.397527 0.500000 0.151198
O O6 0.360491 0.282413 0.107578
O O7 0.347979 0.225728 0.259245
O O8 0.500000 0.253279 0.000000
O O9 0.723992 0.242634 0.899607
O O10 0.691168 0.000000 0.858459
O O11 0.500000 0.266922 0.500000
O O12 0.515324 0.500000 0.389285
O O13 0.617832 0.246474 0.252821
O O14 0.289202 0.500000 0.877599
O O15 0.250000 0.250000 0.000000
O O16 0.250000 0.750000 0.500000
O O17 0.241912 0.000000 0.432443
#
# Coordination Sequence:
#
# PCOD8093724 Si02
#       6
#     8   8   8   8   8   8
#     4  11  21  34  57  89 116 145 189 237 282 332
#     4  10  21  38  60  87 116 149 191 235 282 341
#     4  10  19  36  59  82 110 151 193 231 281 339
#     4  10  19  37  60  81 111 149 191 231 276 336
#     4  10  22  38  57  81 113 151 185 231 286 335
#     4  11  22  39  62  86 117 152 188 235 290 340
#
# _framework density 18.995442000000001
#
# number of rings (size 3 to 8) (size 9 to 14) (size 15 to 20)
#    0.000    1.667    1.667    6.000    0.000    3.667 
#    3.000    0.000    0.000    0.000    0.000    0.000 
#    0.000    0.000    0.000    0.000    0.000    0.000 
#
# Total GULP energy -297646.035812 kJ/mol
# GULP energy per Si atom -12401.918159 kJ/mol
# Density = 1.895221 g / cm^3
# Si number density = 18.995442 Si / 1000 Ang^3
#
#
#
# Elastic Constant Matrix: (Units=GPa)
#
#
# Indices 1 2 3 4 5 6 
#
# 1 145.1164 20.1409 79.3495 -0.0047 2.8046 0.0026
# 2 20.1409 50.1033 15.7638 -0.0010 -3.3056 0.0031
# 3 79.3495 15.7638 114.3561 0.0014 -4.1580 0.0001
# 4 -0.0047 -0.0010 0.0014 29.5468 0.0004 1.0642
# 5 2.8046 -3.3056 -4.1580 0.0004 40.2658 -0.0011
# 6 0.0026 0.0031 0.0001 1.0642 -0.0011 31.5040
#
#
#
# Elastic Compliance Matrix: (Units=1/GPa)
#
#
# Indices 1 2 3 4 5 6 
#
# 1 0.011452 -0.002300 -0.007694 0.000002 -0.001781 -0.000001
# 2 -0.002300 0.021407 -0.001290 0.000000 0.001784 -0.000002
# 3 -0.007694 -0.001290 0.014330 -0.000002 0.001910 0.000001
# 4 0.000002 0.000000 -0.000002 0.033886 -0.000001 -0.001145
# 5 -0.001781 0.001784 0.001910 -0.000001 0.025303 0.000001
# 6 -0.000001 -0.000002 0.000001 -0.001145 0.000001 0.031781
#
#
# Mechanical properties :
#
#
# Convention : Reuss Voigt Hill
#
# Bulk Modulus (GPa) = 40.61544 60.00937 50.31240
# Shear Modulus (GPa) = 29.59751 33.21810 31.40781
#
# Velocity S-wave (km/s) = 3.95161 4.18633 4.07066
# Velocity P-wave (km/s) = 6.49987 7.41803 6.97408
#
# Compressibility (1/GPa) = 0.02462118
#
# Stress axis : x y z
#
# Youngs Moduli (GPa) = 87.32385 46.71368 69.78164
#
# Poissons Ratio (x) = 0.10745 0.53688
# Poissons Ratio (y) = 0.20087 0.09001
# Poissons Ratio (z) = 0.67185 0.06026
#
# Static dielectric constant tensor:
#      x y z
#    x 3.689510 -0.000020 -0.174740 
#    y -0.000020 3.427650 0.000010 
#    z -0.174740 0.000010 3.323210 
# 
# 
# High freq. dielectric constant tensor:
#      x y z
#    x 1.751140 0.000000 -0.006720 
#    y 0.000000 1.741750 0.000000 
#    z -0.006720 0.000000 1.719830 
# 
# From -- ./inp_files/295351.got.cif
#   From: 2010.06.25/outbox.cif.g09.slc.cpg/sg12_148_cif.got.tgz:295351.got - 2010.06.28 00:19:55.
