data_PCOD8093240
_publ_section_title
;
Structure prediction by ZEFSAII (Michael W. Deem and Ramdas Pophale) SiO2 
 PCOD8093240
Probable space group: C 2/M
;
_chemical_formula_sum "Si O2"
_cell_formula_units_Z 48
_cell_length_a 19.030649
_cell_length_b 13.911460
_cell_length_c 18.421075
_cell_angle_alpha 90.000000
_cell_angle_beta 27.104178
_cell_angle_gamma 90.000000
_cell_volume 2221.950387
_symmetry_space_group_name_H-M "C 2/M"
_symmetry_group_IT_number 12
_symmetry_cell_setting 'monoclinic'
loop_
_space_group_symop_operation_xyz
x,y,z
-x,y,-z
-x,-y,-z
x,-y,z
1/2+x,1/2+y,z
1/2-x,1/2+y,-z
1/2-x,1/2-y,-z
1/2+x,1/2-y,z
loop_
_atom_site_type_symbol
_atom_site_label
_atom_site_fract_x
_atom_site_fract_y
_atom_site_fract_z
Si Si1 0.195849 0.500000 0.757061
Si Si2 0.794219 0.606422 0.479609
Si Si3 0.261702 0.201713 0.092063
Si Si4 0.849947 0.603884 0.587970
Si Si5 0.861761 0.500000 0.019428
Si Si6 0.510960 0.267795 0.760567
Si Si7 0.182073 0.799646 0.330638
O O1 0.179215 0.500000 0.858452
O O2 0.280345 0.398702 0.660853
O O3 0.045377 0.500000 0.846401
O O4 0.786532 0.500000 0.452084
O O5 0.893007 0.605603 0.463241
O O6 0.618182 0.638122 0.659701
O O7 0.876532 0.675335 0.345965
O O8 0.293208 0.091357 0.040298
O O9 0.100275 0.234911 0.207247
O O10 0.257105 0.206178 0.182599
O O11 0.404489 0.265755 0.930672
O O12 0.765222 0.500000 0.681851
O O13 0.750782 0.701943 0.693069
O O14 0.000000 0.608121 0.500000
O O15 0.000000 0.793296 0.500000
#
# Coordination Sequence:
#
# PCOD8093240 Si02
#       7
#     4   8   8   8   4   8   8
#     4   9  19  34  54  88 117 156 191 244 298 354
#     4  10  22  40  63  90 117 152 202 251 296 353
#     4  10  22  39  58  86 120 161 200 240 295 359
#     4   9  18  34  58  84 113 148 189 240 297 349
#     4   9  20  36  56  82 118 157 195 237 300 352
#     4  10  22  40  60  86 120 157 200 245 295 348
#     4  10  19  35  60  87 122 156 197 250 302 356
#
# _framework density 21.602641999999999
#
# number of rings (size 3 to 8) (size 9 to 14) (size 15 to 20)
#    0.000    2.333    0.000    2.250    4.667    0.000 
#    0.000    0.833    0.000    2.000    0.000    0.000 
#    0.000    0.000    0.000    0.000    0.000    0.000 
#
# Total GULP energy -297340.998166 kJ/mol
# GULP energy per Si atom -12389.208257 kJ/mol
# Density = 2.155347 g / cm^3
# Si number density = 21.602642 Si / 1000 Ang^3
#
#
#
# Elastic Constant Matrix: (Units=GPa)
#
#
# Indices 1 2 3 4 5 6 
#
# 1 11.5200 10.3713 15.8075 -0.0007 -1.1192 0.0009
# 2 10.3713 199.5218 36.6159 -0.0035 -3.6924 0.0012
# 3 15.8075 36.6159 81.6395 -0.0121 -11.8825 0.0033
# 4 -0.0007 -0.0035 -0.0121 22.3200 0.0035 2.5037
# 5 -1.1192 -3.6924 -11.8825 0.0035 22.5677 -0.0010
# 6 0.0009 0.0012 0.0033 2.5037 -0.0010 24.8464
#
#
#
# Elastic Compliance Matrix: (Units=1/GPa)
#
#
# Indices 1 2 3 4 5 6 
#
# 1 0.119952 -0.002090 -0.023254 -0.000008 -0.006637 -0.000001
# 2 -0.002090 0.005502 -0.002108 0.000000 -0.000314 0.000000
# 3 -0.023254 -0.002108 0.018930 0.000008 0.008469 -0.000002
# 4 -0.000008 0.000000 0.000008 0.045315 -0.000003 -0.004566
# 5 -0.006637 -0.000314 0.008469 -0.000003 0.048390 0.000001
# 6 -0.000001 0.000000 -0.000002 -0.004566 0.000001 0.040707
#
#
# Mechanical properties :
#
#
# Convention : Reuss Voigt Hill
#
# Bulk Modulus (GPa) = 11.17601 46.47451 28.82526
# Shear Modulus (GPa) = 13.75409 29.27262 21.51335
#
# Velocity S-wave (km/s) = 2.52600 3.68509 3.15916
# Velocity P-wave (km/s) = 3.70030 6.29814 5.16521
#
# Compressibility (1/GPa) = 0.08947736
#
# Stress axis : x y z
#
# Youngs Moduli (GPa) = 8.33666 181.75915 52.82641
#
# Poissons Ratio (x) = 0.37995 1.22844
# Poissons Ratio (y) = 0.01743 0.11138
# Poissons Ratio (z) = 0.19386 0.38324
#
# Static dielectric constant tensor:
#      x y z
#    x 3.662200 -0.000010 -0.020690 
#    y -0.000010 4.829370 0.000010 
#    z -0.020690 0.000010 3.643790 
# 
# 
# High freq. dielectric constant tensor:
#      x y z
#    x 1.839700 0.000000 0.001710 
#    y 0.000000 1.869960 0.000000 
#    z 0.001710 0.000000 1.818720 
# 
# From -- ./inp_files/278066.got.cif
#   From: 2010.06.25/outbox.cif.g09.slc.cpg/sg12_140_cif.got.tgz:278066.got - 2010.06.28 00:19:55.
