data_PCOD8093909
_publ_section_title
;
Structure prediction by ZEFSAII (Michael W. Deem and Ramdas Pophale) SiO2 
 PCOD8093909
Probable space group: C 2/M
;
_chemical_formula_sum "Si O2"
_cell_formula_units_Z 56
_cell_length_a 18.350627
_cell_length_b 17.243956
_cell_length_c 9.638387
_cell_angle_alpha 90.000000
_cell_angle_beta 66.182222
_cell_angle_gamma 90.000000
_cell_volume 2790.195701
_symmetry_space_group_name_H-M "C 2/M"
_symmetry_group_IT_number 12
_symmetry_cell_setting 'monoclinic'
loop_
_space_group_symop_operation_xyz
x,y,z
-x,y,-z
-x,-y,-z
x,-y,z
1/2+x,1/2+y,z
1/2-x,1/2+y,-z
1/2-x,1/2-y,-z
1/2+x,1/2-y,z
loop_
_atom_site_type_symbol
_atom_site_label
_atom_site_fract_x
_atom_site_fract_y
_atom_site_fract_z
Si Si1 0.862699 0.675992 0.943718
Si Si2 0.535586 0.583626 0.121211
Si Si3 0.948159 0.826910 0.411224
Si Si4 0.307528 0.590694 0.638755
Si Si5 0.689642 0.651443 0.062901
Si Si6 0.014713 0.346052 0.641319
Si Si7 0.125925 0.588069 0.786098
O O1 0.835630 0.764773 0.976027
O O2 0.928758 0.665336 0.776667
O O3 0.781932 0.630154 0.960185
O O4 0.893894 0.644940 0.069287
O O5 0.515687 0.500000 0.203702
O O6 0.497340 0.652680 0.236919
O O7 0.631193 0.591281 0.032609
O O8 0.500000 0.590654 0.000000
O O9 0.863175 0.871093 0.477353
O O10 0.938023 0.734382 0.418728
O O11 0.000000 0.856836 0.500000
O O12 0.328594 0.500000 0.646233
O O13 0.324822 0.642317 0.761346
O O14 0.215988 0.600599 0.663529
O O15 0.068312 0.398844 0.699539
O O16 0.000000 0.384226 0.500000
O O17 0.113802 0.500000 0.848120
#
# Coordination Sequence:
#
# PCOD8093909 Si02
#       7
#     8   8   8   8   8   8   8
#     4  10  21  38  64  88 116 156 205 252 295 360
#     4  11  23  36  54  88 126 159 198 244 295 356
#     4  11  21  36  62  88 119 162 204 234 295 367
#     4  10  20  38  63  93 125 159 203 250 294 360
#     4  10  19  36  60  88 120 157 203 245 298 345
#     4  11  23  40  61  90 124 154 200 254 307 361
#     4  10  24  43  65  90 116 156 209 257 305 362
#
# _framework density 20.070277000000001
#
# number of rings (size 3 to 8) (size 9 to 14) (size 15 to 20)
#    0.000    1.571    2.857    2.143    2.000    3.143 
#    2.571    0.000    0.000    0.000    0.000    0.000 
#    0.000    0.000    0.000    0.000    0.000    0.000 
#
# Total GULP energy -347119.058217 kJ/mol
# GULP energy per Si atom -12397.109222 kJ/mol
# Density = 2.002460 g / cm^3
# Si number density = 20.070277 Si / 1000 Ang^3
#
#
#
# Elastic Constant Matrix: (Units=GPa)
#
#
# Indices 1 2 3 4 5 6 
#
# 1 118.0229 29.0447 50.1624 0.0000 2.6369 0.0000
# 2 29.0447 66.1592 39.9953 0.0000 10.0156 0.0000
# 3 50.1624 39.9953 78.8789 0.0000 -7.8905 0.0000
# 4 0.0000 0.0000 0.0000 32.9127 0.0000 4.6408
# 5 2.6369 10.0156 -7.8905 0.0000 32.7214 0.0000
# 6 0.0000 0.0000 0.0000 4.6408 0.0000 39.4738
#
#
#
# Elastic Compliance Matrix: (Units=1/GPa)
#
#
# Indices 1 2 3 4 5 6 
#
# 1 0.011864 -0.000075 -0.007788 0.000000 -0.002811 0.000000
# 2 -0.000075 0.025172 -0.013819 0.000000 -0.011031 0.000000
# 3 -0.007788 -0.013819 0.025745 0.000000 0.011066 0.000000
# 4 0.000000 0.000000 0.000000 0.030896 0.000000 -0.003632
# 5 -0.002811 -0.011031 0.011066 0.000000 0.036833 0.000000
# 6 0.000000 0.000000 0.000000 -0.003632 0.000000 0.025760
#
#
# Mechanical properties :
#
#
# Convention : Reuss Voigt Hill
#
# Bulk Modulus (GPa) = 51.50364 55.71841 53.61103
# Shear Modulus (GPa) = 24.25927 30.61215 27.43571
#
# Velocity S-wave (km/s) = 3.48043 3.90968 3.70128
# Velocity P-wave (km/s) = 6.47059 6.94282 6.71086
#
# Compressibility (1/GPa) = 0.01941610
#
# Stress axis : x y z
#
# Youngs Moduli (GPa) = 84.28591 39.72651 38.84294
#
# Poissons Ratio (x) = 0.00297 0.30253
# Poissons Ratio (y) = 0.00629 0.53679
# Poissons Ratio (z) = 0.65645 0.54900
#
# Static dielectric constant tensor:
#      x y z
#    x 3.927630 0.000000 -0.162040 
#    y 0.000000 3.706830 0.000000 
#    z -0.162040 0.000000 3.427850 
# 
# 
# High freq. dielectric constant tensor:
#      x y z
#    x 1.795630 0.000000 -0.009690 
#    y 0.000000 1.778430 0.000000 
#    z -0.009690 0.000000 1.765500 
# 
# From -- ./inp_files/75840.got.cif
#   From: 2010.06.25/outbox.cif.g09.slc.cpg/sg12_38_cif.got.tgz:75840.got - 2010.06.28 00:19:55.
