data_PCOD8093468
_publ_section_title
;
Structure prediction by ZEFSAII (Michael W. Deem and Ramdas Pophale) SiO2 
 PCOD8093468
Probable space group: C 2/M
;
_chemical_formula_sum "Si O2"
_cell_formula_units_Z 56
_cell_length_a 20.685750
_cell_length_b 18.234509
_cell_length_c 13.537130
_cell_angle_alpha 90.000000
_cell_angle_beta 144.100411
_cell_angle_gamma 90.000000
_cell_volume 2994.064344
_symmetry_space_group_name_H-M "C 2/M"
_symmetry_group_IT_number 12
_symmetry_cell_setting 'monoclinic'
loop_
_space_group_symop_operation_xyz
x,y,z
-x,y,-z
-x,-y,-z
x,-y,z
1/2+x,1/2+y,z
1/2-x,1/2+y,-z
1/2-x,1/2-y,-z
1/2+x,1/2-y,z
loop_
_atom_site_type_symbol
_atom_site_label
_atom_site_fract_x
_atom_site_fract_y
_atom_site_fract_z
Si Si1 0.079798 0.583223 0.342550
Si Si2 0.099352 0.156787 0.496853
Si Si3 0.316469 0.081115 0.740109
Si Si4 0.364372 0.321089 0.230392
Si Si5 0.875037 0.314819 0.113218
Si Si6 0.610675 0.774559 0.083166
Si Si7 0.710133 0.216727 0.553731
O O1 0.083350 0.500000 0.388026
O O2 0.105312 0.584819 0.258207
O O3 0.176981 0.631514 0.511645
O O4 0.961716 0.618643 0.221681
O O5 0.187276 0.100290 0.556865
O O6 0.140697 0.174084 0.658410
O O7 0.102164 0.234684 0.443587
O O8 0.971976 0.129980 0.331183
O O9 0.366711 0.138357 0.878914
O O10 0.321098 0.000000 0.792633
O O11 0.382806 0.236450 0.219546
O O12 0.248743 0.350422 0.043295
O O13 0.892920 0.261779 0.039024
O O14 0.702832 0.726296 0.250835
O O15 0.500000 0.750203 0.000000
O O16 0.750000 0.250000 0.500000
#
# Coordination Sequence:
#
# PCOD8093468 Si02
#       7
#     8   8   8   8   8   8   8
#     4  11  22  36  58  86 119 150 179 234 299 341
#     4  10  19  36  54  80 106 149 196 224 273 327
#     4  10  20  33  52  80 116 144 172 223 290 350
#     4  10  21  33  55  76 109 147 191 234 260 323
#     4  11  20  35  51  85 110 143 189 232 284 325
#     4  11  20  32  55  87 111 141 182 234 291 326
#     4  11  18  35  57  80 112 144 190 236 270 339
#
# _framework density 18.703672999999998
#
# number of rings (size 3 to 8) (size 9 to 14) (size 15 to 20)
#    0.000    1.429    8.571    0.000    0.000    0.857 
#    0.000    2.143    0.000    2.143    0.000    2.000 
#    0.000    0.000    0.000    0.000    0.000    0.000 
#
# Total GULP energy -346881.045915 kJ/mol
# GULP energy per Si atom -12388.608783 kJ/mol
# Density = 1.866110 g / cm^3
# Si number density = 18.703673 Si / 1000 Ang^3
#
#
#
# Elastic Constant Matrix: (Units=GPa)
#
#
# Indices 1 2 3 4 5 6 
#
# 1 77.3365 26.0191 16.1045 0.0000 29.4832 0.0000
# 2 26.0191 106.4583 35.1425 0.0000 9.6268 0.0000
# 3 16.1045 35.1425 61.6854 0.0000 19.5481 0.0000
# 4 0.0000 0.0000 0.0000 21.0262 0.0000 4.3299
# 5 29.4832 9.6268 19.5481 0.0000 33.7837 0.0000
# 6 0.0000 0.0000 0.0000 4.3299 0.0000 17.8215
#
#
#
# Elastic Compliance Matrix: (Units=1/GPa)
#
#
# Indices 1 2 3 4 5 6 
#
# 1 0.020937 -0.004408 0.002984 0.000000 -0.018743 0.000000
# 2 -0.004408 0.012508 -0.007426 0.000000 0.004579 0.000000
# 3 0.002984 -0.007426 0.024268 0.000000 -0.014530 0.000000
# 4 0.000000 0.000000 0.000000 0.050064 0.000000 -0.012164
# 5 -0.018743 0.004579 -0.014530 0.000000 0.053060 0.000000
# 6 0.000000 0.000000 0.000000 -0.012164 0.000000 0.059067
#
#
# Mechanical properties :
#
#
# Convention : Reuss Voigt Hill
#
# Bulk Modulus (GPa) = 24.99122 44.44583 34.71852
# Shear Modulus (GPa) = 19.92497 25.74055 22.83276
#
# Velocity S-wave (km/s) = 3.26743 3.71378 3.49773
# Velocity P-wave (km/s) = 5.25599 6.49648 5.90888
#
# Compressibility (1/GPa) = 0.04001406
#
# Stress axis : x y z
#
# Youngs Moduli (GPa) = 47.76157 79.94914 41.20718
#
# Poissons Ratio (x) = 0.35238 -0.12298
# Poissons Ratio (y) = 0.21051 0.30602
# Poissons Ratio (z) = -0.14254 0.59373
#
# Static dielectric constant tensor:
#      x y z
#    x 3.821880 0.000000 0.272940 
#    y 0.000000 3.282570 0.000000 
#    z 0.272940 0.000000 3.428430 
# 
# 
# High freq. dielectric constant tensor:
#      x y z
#    x 1.749670 0.000000 0.024150 
#    y 0.000000 1.679330 0.000000 
#    z 0.024150 0.000000 1.716970 
# 
# From -- ./inp_files/169500.got.cif
#   From: 2010.06.25/outbox.cif.g09.slc.cpg/sg12_85_cif.got.tgz:169500.got - 2010.06.28 00:19:55.
