data_PCOD8093136
_publ_section_title
;
Structure prediction by ZEFSAII (Michael W. Deem and Ramdas Pophale) SiO2 
 PCOD8093136
Probable space group: C 2/M
;
_chemical_formula_sum "Si O2"
_cell_formula_units_Z 64
_cell_length_a 26.063876
_cell_length_b 8.975685
_cell_length_c 15.003384
_cell_angle_alpha 90.000000
_cell_angle_beta 63.754935
_cell_angle_gamma 90.000000
_cell_volume 3148.075200
_symmetry_space_group_name_H-M "C 2/M"
_symmetry_group_IT_number 12
_symmetry_cell_setting 'monoclinic'
loop_
_space_group_symop_operation_xyz
x,y,z
-x,y,-z
-x,-y,-z
x,-y,z
1/2+x,1/2+y,z
1/2-x,1/2+y,-z
1/2-x,1/2-y,-z
1/2+x,1/2-y,z
loop_
_atom_site_type_symbol
_atom_site_label
_atom_site_fract_x
_atom_site_fract_y
_atom_site_fract_z
Si Si1 0.147159 0.662773 0.414511
Si Si2 0.119206 0.826380 0.088791
Si Si3 0.190689 0.827010 0.534646
Si Si4 0.314280 0.673410 0.142311
Si Si5 0.623107 0.824385 0.740824
Si Si6 0.521449 0.835028 0.571983
Si Si7 0.685318 0.828149 0.196023
Si Si8 0.501789 0.823955 0.215742
O O1 0.178505 0.500000 0.399852
O O2 0.178675 0.797570 0.439536
O O3 0.088378 0.649408 0.511290
O O4 0.143073 0.698872 0.312550
O O5 0.160200 0.765852 0.134578
O O6 0.057086 0.751105 0.130316
O O7 0.110549 0.000000 0.111720
O O8 0.149554 0.791044 0.972867
O O9 0.250000 0.750000 0.500000
O O10 0.144539 0.751934 0.634290
O O11 0.193367 0.000000 0.553554
O O12 0.315902 0.500000 0.166651
O O13 0.342433 0.764187 0.201063
O O14 0.249005 0.725436 0.174865
O O15 0.554924 0.788504 0.799393
O O16 0.633587 0.000000 0.725120
O O17 0.500000 0.745293 0.500000
O O18 0.505613 0.757696 0.677900
O O19 0.492635 0.000000 0.594120
O O20 0.686802 0.000000 0.164694
O O21 0.511577 0.000000 0.212435
#
# Coordination Sequence:
#
# PCOD8093136 Si02
#       8
#     8   8   8   8   8   8   8   8
#     4  10  19  35  59  88 119 153 198 245 297 358
#     4  11  24  40  61  89 125 163 206 262 316 369
#     4  12  24  38  59  87 124 164 203 247 297 359
#     4  10  23  42  62  90 124 163 207 257 319 378
#     4  11  23  41  65  92 123 161 207 263 313 367
#     4   9  16  30  55  84 115 151 191 239 292 352
#     4  10  21  39  65  91 120 159 205 256 313 377
#     4  10  21  39  61  87 123 162 208 256 304 373
#
# _framework density 20.329882999999999
#
# number of rings (size 3 to 8) (size 9 to 14) (size 15 to 20)
#    0.000    1.625    1.250    3.750    0.000    6.500 
#    0.000    2.500    0.000    1.500    0.000    0.000 
#    0.000    0.000    0.000    0.000    0.000    0.000 
#
# Total GULP energy -396631.519717 kJ/mol
# GULP energy per Si atom -12394.734991 kJ/mol
# Density = 2.028361 g / cm^3
# Si number density = 20.329883 Si / 1000 Ang^3
#
#
#
# Elastic Constant Matrix: (Units=GPa)
#
#
# Indices 1 2 3 4 5 6 
#
# 1 97.1535 44.4696 23.4762 0.0000 6.1615 0.0000
# 2 44.4696 86.4807 39.7249 0.0000 5.3738 0.0000
# 3 23.4762 39.7249 83.6519 0.0000 -0.7766 0.0000
# 4 0.0000 0.0000 0.0000 30.8220 0.0000 2.8572
# 5 6.1615 5.3738 -0.7766 0.0000 36.0551 0.0000
# 6 0.0000 0.0000 0.0000 2.8572 0.0000 33.5669
#
#
#
# Elastic Compliance Matrix: (Units=1/GPa)
#
#
# Indices 1 2 3 4 5 6 
#
# 1 0.013552 -0.006563 -0.000699 0.000000 -0.001353 0.000000
# 2 -0.006563 0.018171 -0.006803 0.000000 -0.001733 0.000000
# 3 -0.000699 -0.006803 0.015395 0.000000 0.001465 0.000000
# 4 0.000000 0.000000 0.000000 0.032702 0.000000 -0.002784
# 5 -0.001353 -0.001733 0.001465 0.000000 0.028256 0.000000
# 6 0.000000 0.000000 0.000000 -0.002784 0.000000 0.030028
#
#
# Mechanical properties :
#
#
# Convention : Reuss Voigt Hill
#
# Bulk Modulus (GPa) = 52.66894 53.62528 53.14711
# Shear Modulus (GPa) = 28.97462 30.72984 29.85223
#
# Velocity S-wave (km/s) = 3.77931 3.89210 3.83612
# Velocity P-wave (km/s) = 6.70877 6.82881 6.76906
#
# Compressibility (1/GPa) = 0.01898652
#
# Stress axis : x y z
#
# Youngs Moduli (GPa) = 73.79019 55.03254 64.95706
#
# Poissons Ratio (x) = 0.36121 0.04540
# Poissons Ratio (y) = 0.48432 0.44192
# Poissons Ratio (z) = 0.05157 0.37440
#
# Static dielectric constant tensor:
#      x y z
#    x 3.768330 0.000000 -0.049020 
#    y 0.000000 9.693490 0.000000 
#    z -0.049020 0.000000 3.721350 
# 
# 
# High freq. dielectric constant tensor:
#      x y z
#    x 1.806310 0.000000 0.000060 
#    y 0.000000 1.770410 0.000000 
#    z 0.000060 0.000000 1.803440 
# 
# From -- ./inp_files/243829.got.cif
#   From: 2010.06.25/outbox.cif.g09.slc.cpg/sg12_122_cif.got.tgz:243829.got - 2010.06.28 00:19:55.
