data_PCOD8093421
_publ_section_title
;
Structure prediction by ZEFSAII (Michael W. Deem and Ramdas Pophale) SiO2 
 PCOD8093421
Probable space group: C 2/M
;
_chemical_formula_sum "Si O2"
_cell_formula_units_Z 64
_cell_length_a 17.989243
_cell_length_b 13.482404
_cell_length_c 26.146049
_cell_angle_alpha 90.000000
_cell_angle_beta 30.206302
_cell_angle_gamma 90.000000
_cell_volume 3190.461927
_symmetry_space_group_name_H-M "C 2/M"
_symmetry_group_IT_number 12
_symmetry_cell_setting 'monoclinic'
loop_
_space_group_symop_operation_xyz
x,y,z
-x,y,-z
-x,-y,-z
x,-y,z
1/2+x,1/2+y,z
1/2-x,1/2+y,-z
1/2-x,1/2-y,-z
1/2+x,1/2-y,z
loop_
_atom_site_type_symbol
_atom_site_label
_atom_site_fract_x
_atom_site_fract_y
_atom_site_fract_z
Si Si1 0.327254 0.800393 0.113722
Si Si2 0.827446 0.885650 0.592939
Si Si3 0.361225 0.391939 0.044868
Si Si4 0.752270 0.753497 0.726685
Si Si5 0.992453 0.387980 0.444366
Si Si6 0.060108 0.888398 0.222382
Si Si7 0.277451 0.274714 0.425081
Si Si8 0.997126 0.112592 0.856717
O O1 0.265567 0.697266 0.125060
O O2 0.310108 0.795891 0.184095
O O3 0.219623 0.883500 0.155044
O O4 0.500000 0.822257 0.000000
O O5 0.754729 0.848440 0.688557
O O6 0.767784 0.822004 0.580803
O O7 0.000000 0.871107 0.500000
O O8 0.785290 0.000000 0.607938
O O9 0.280216 0.500000 0.092594
O O10 0.500000 0.399769 0.000000
O O11 0.401453 0.358715 0.963295
O O12 0.906075 0.694927 0.643372
O O13 0.644976 0.674895 0.764421
O O14 0.037517 0.500000 0.401647
O O15 0.000000 0.371995 0.500000
O O16 0.824364 0.368329 0.528381
O O17 0.945764 0.808970 0.314279
O O18 0.090755 0.869275 0.143771
O O19 0.999101 0.000000 0.266918
O O20 0.250000 0.250000 0.500000
O O21 0.049089 0.000000 0.832228
#
# Coordination Sequence:
#
# PCOD8093421 Si02
#       8
#     8   8   8   8   8   8   8   8
#     4  11  24  41  63  91 126 173 214 268 317 374
#     4  11  24  43  66  93 129 174 216 253 304 382
#     4   9  17  34  59  91 123 159 203 250 311 370
#     4  12  19  39  64  96 124 168 214 255 313 373
#     4  11  21  36  63  97 127 157 205 262 313 372
#     4  11  25  42  64  91 124 165 211 264 324 384
#     4  12  23  42  63  92 129 167 205 258 324 382
#     4  10  19  35  64  93 123 161 204 258 319 371
#
# _framework density 20.05979
#
# number of rings (size 3 to 8) (size 9 to 14) (size 15 to 20)
#    0.000    1.125    6.250    1.500    0.000    4.750 
#    0.000    0.625    0.000    0.000    0.000    0.000 
#    0.000    0.000    0.000    0.000    0.000    0.000 
#
# Total GULP energy -396675.389299 kJ/mol
# GULP energy per Si atom -12396.105916 kJ/mol
# Density = 2.001413 g / cm^3
# Si number density = 20.059790 Si / 1000 Ang^3
#
#
#
# Elastic Constant Matrix: (Units=GPa)
#
#
# Indices 1 2 3 4 5 6 
#
# 1 113.3953 49.7464 67.0902 0.0015 12.7061 -0.0003
# 2 49.7464 96.2357 35.8319 0.0011 14.9182 0.0003
# 3 67.0902 35.8319 92.6496 -0.0004 25.7260 -0.0005
# 4 0.0015 0.0011 -0.0004 24.4043 0.0000 -5.6164
# 5 12.7061 14.9182 25.7260 0.0000 39.1196 0.0003
# 6 -0.0003 0.0003 -0.0005 -5.6164 0.0003 20.5468
#
#
#
# Elastic Compliance Matrix: (Units=1/GPa)
#
#
# Indices 1 2 3 4 5 6 
#
# 1 0.017785 -0.005387 -0.011942 -0.000001 0.004131 0.000000
# 2 -0.005387 0.013886 -0.000593 0.000000 -0.003156 0.000000
# 3 -0.011942 -0.000593 0.022670 0.000001 -0.010803 0.000001
# 4 -0.000001 0.000000 0.000001 0.043727 0.000000 0.011953
# 5 0.004131 -0.003156 -0.010803 0.000000 0.032529 -0.000001
# 6 0.000000 0.000000 0.000001 0.011953 -0.000001 0.051937
#
#
# Mechanical properties :
#
#
# Convention : Reuss Voigt Hill
#
# Bulk Modulus (GPa) = 54.06579 67.51309 60.78944
# Shear Modulus (GPa) = 22.26744 26.78828 24.52786
#
# Velocity S-wave (km/s) = 3.33536 3.65831 3.50056
# Velocity P-wave (km/s) = 6.46867 7.18145 6.83436
#
# Compressibility (1/GPa) = 0.01849599
#
# Stress axis : x y z
#
# Youngs Moduli (GPa) = 56.22829 72.01533 44.11106
#
# Poissons Ratio (x) = 0.38797 0.52677
# Poissons Ratio (y) = 0.30292 0.02616
# Poissons Ratio (z) = 0.67148 0.04271
#
# Static dielectric constant tensor:
#      x y z
#    x 3.631910 0.000000 0.137780 
#    y 0.000000 3.919720 0.000000 
#    z 0.137780 0.000000 3.569530 
# 
# 
# High freq. dielectric constant tensor:
#      x y z
#    x 1.781790 0.000000 0.017990 
#    y 0.000000 1.785870 0.000000 
#    z 0.017990 0.000000 1.770570 
# 
# From -- ./inp_files/343998.got.cif
#   From: 2010.06.25/outbox.cif.g09.slc.cpg/sg12_172_cif.got.tgz:343998.got - 2010.06.28 00:19:55.
