data_PCOD8093723
_publ_section_title
;
Structure prediction by ZEFSAII (Michael W. Deem and Ramdas Pophale) SiO2 
 PCOD8093723
Probable space group: C 2/M
;
_chemical_formula_sum "Si O2"
_cell_formula_units_Z 56
_cell_length_a 29.575916
_cell_length_b 8.839540
_cell_length_c 21.780168
_cell_angle_alpha 90.000000
_cell_angle_beta 149.007719
_cell_angle_gamma 90.000000
_cell_volume 2932.047763
_symmetry_space_group_name_H-M "C 2/M"
_symmetry_group_IT_number 12
_symmetry_cell_setting 'monoclinic'
loop_
_space_group_symop_operation_xyz
x,y,z
-x,y,-z
-x,-y,-z
x,-y,z
1/2+x,1/2+y,z
1/2-x,1/2+y,-z
1/2-x,1/2-y,-z
1/2+x,1/2-y,z
loop_
_atom_site_type_symbol
_atom_site_label
_atom_site_fract_x
_atom_site_fract_y
_atom_site_fract_z
Si Si1 0.616821 0.820823 0.278887
Si Si2 0.468664 0.323435 0.030934
Si Si3 0.225965 0.173365 0.883822
Si Si4 0.776196 0.821911 0.382510
Si Si5 0.283967 0.824280 0.818425
Si Si6 0.076887 0.178614 0.356811
Si Si7 0.390095 0.824662 0.156229
O O1 0.523025 0.771852 0.143305
O O2 0.693837 0.754908 0.324905
O O3 0.627898 0.750286 0.358891
O O4 0.619761 0.000000 0.288034
O O5 0.482529 0.500000 0.059904
O O6 0.500000 0.276357 0.000000
O O7 0.367882 0.281329 0.921735
O O8 0.224177 0.201320 0.808801
O O9 0.151595 0.278196 0.827013
O O10 0.203803 0.000000 0.874365
O O11 0.321815 0.214846 0.022419
O O12 0.771330 0.771351 0.305662
O O13 0.868651 0.769100 0.519287
O O14 0.768469 0.000000 0.378126
O O15 0.312988 0.000000 0.846977
O O16 0.977586 0.232206 0.246006
O O17 0.077524 0.000000 0.349618
O O18 0.414502 0.000000 0.185909
#
# Coordination Sequence:
#
# PCOD8093723 Si02
#       7
#     8   8   8   8   8   8   8
#     4  11  21  36  57  80 108 147 192 230 275 326
#     4  11  22  34  51  81 116 146 180 225 276 324
#     4   9  19  35  59  85 107 136 176 225 278 330
#     4   9  20  36  55  79 109 148 189 230 271 324
#     4  10  19  36  59  82 110 147 189 227 273 330
#     4  11  22  37  56  80 111 145 186 232 279 324
#     4  10  20  36  57  84 112 139 178 224 277 336
#
# _framework density 19.099278000000002
#
# number of rings (size 3 to 8) (size 9 to 14) (size 15 to 20)
#    0.000    1.857    1.429    3.000    0.000    2.857 
#    0.000    4.286    0.000    4.286    0.000    0.000 
#    0.000    0.000    0.000    0.000    0.000    0.000 
#
# Total GULP energy -347270.558351 kJ/mol
# GULP energy per Si atom -12402.519941 kJ/mol
# Density = 1.905581 g / cm^3
# Si number density = 19.099278 Si / 1000 Ang^3
#
#
#
# Elastic Constant Matrix: (Units=GPa)
#
#
# Indices 1 2 3 4 5 6 
#
# 1 111.8026 29.1043 49.6825 0.0000 -21.3230 0.0000
# 2 29.1043 60.7207 27.9569 0.0000 -6.4685 0.0000
# 3 49.6825 27.9569 94.6474 0.0000 -16.9100 0.0000
# 4 0.0000 0.0000 0.0000 7.7174 0.0000 3.0482
# 5 -21.3230 -6.4685 -16.9100 0.0000 26.3248 0.0000
# 6 0.0000 0.0000 0.0000 3.0482 0.0000 32.1019
#
#
#
# Elastic Compliance Matrix: (Units=1/GPa)
#
#
# Indices 1 2 3 4 5 6 
#
# 1 0.013241 -0.003449 -0.004707 0.000000 0.006854 0.000000
# 2 -0.003449 0.019994 -0.004198 0.000000 -0.000578 0.000000
# 3 -0.004707 -0.004198 0.015150 0.000000 0.004887 0.000000
# 4 0.000000 0.000000 0.000000 0.134626 0.000000 -0.012783
# 5 0.006854 -0.000578 0.004887 0.000000 0.046536 0.000000
# 6 0.000000 0.000000 0.000000 -0.012783 0.000000 0.032365
#
#
# Mechanical properties :
#
#
# Convention : Reuss Voigt Hill
#
# Bulk Modulus (GPa) = 42.23892 53.40644 47.82268
# Shear Modulus (GPa) = 16.97723 23.92396 20.45060
#
# Velocity S-wave (km/s) = 2.98467 3.54306 3.27579
# Velocity P-wave (km/s) = 5.83448 6.69036 6.27703
#
# Compressibility (1/GPa) = 0.02367485
#
# Stress axis : x y z
#
# Youngs Moduli (GPa) = 75.52169 50.01612 66.00791
#
# Poissons Ratio (x) = 0.17252 0.31071
# Poissons Ratio (y) = 0.26050 0.27712
# Poissons Ratio (z) = 0.35550 0.20998
#
# Static dielectric constant tensor:
#      x y z
#    x 3.587720 0.000000 -0.231770 
#    y 0.000000 3.384690 0.000000 
#    z -0.231770 0.000000 3.601300 
# 
# 
# High freq. dielectric constant tensor:
#      x y z
#    x 1.744330 0.000000 -0.010170 
#    y 0.000000 1.734010 0.000000 
#    z -0.010170 0.000000 1.737950 
# 
# From -- ./inp_files/237906.got.cif
#   From: 2010.06.25/outbox.cif.g09.slc.cpg/sg12_119_cif.got.tgz:237906.got - 2010.06.28 00:19:55.
