data_PCOD8093987
_publ_section_title
;
Structure prediction by ZEFSAII (Michael W. Deem and Ramdas Pophale) SiO2 
 PCOD8093987
Probable space group: C 2/M
;
_chemical_formula_sum "Si O2"
_cell_formula_units_Z 56
_cell_length_a 16.047193
_cell_length_b 8.916019
_cell_length_c 22.853233
_cell_angle_alpha 90.000000
_cell_angle_beta 57.887928
_cell_angle_gamma 90.000000
_cell_volume 2769.530901
_symmetry_space_group_name_H-M "C 2/M"
_symmetry_group_IT_number 12
_symmetry_cell_setting 'monoclinic'
loop_
_space_group_symop_operation_xyz
x,y,z
-x,y,-z
-x,-y,-z
x,-y,z
1/2+x,1/2+y,z
1/2-x,1/2+y,-z
1/2-x,1/2-y,-z
1/2+x,1/2-y,z
loop_
_atom_site_type_symbol
_atom_site_label
_atom_site_fract_x
_atom_site_fract_y
_atom_site_fract_z
Si Si1 0.560609 0.329621 0.199624
Si Si2 0.198517 0.174884 0.346647
Si Si3 0.112379 0.328727 0.789777
Si Si4 0.599588 0.170979 0.929518
Si Si5 0.768415 0.674706 0.931347
Si Si6 0.302552 0.821161 0.425303
Si Si7 0.514202 0.325884 0.346929
O O1 0.581293 0.500000 0.173047
O O2 0.449249 0.284362 0.226866
O O3 0.630320 0.223860 0.135828
O O4 0.574292 0.309535 0.263842
O O5 0.273565 0.208254 0.265282
O O6 0.243362 0.240813 0.390319
O O7 0.090019 0.236216 0.368718
O O8 0.184969 0.000000 0.360775
O O9 0.089358 0.500000 0.779600
O O10 0.083884 0.301381 0.867237
O O11 0.681307 0.285490 0.920053
O O12 0.633412 0.000000 0.929306
O O13 0.500000 0.209445 0.000000
O O14 0.773700 0.500000 0.940598
O O15 0.750000 0.750000 0.000000
O O16 0.250000 0.750000 0.500000
O O17 0.416090 0.772092 0.382528
O O18 0.299125 0.000000 0.429661
O O19 0.485673 0.500000 0.368158
#
# Coordination Sequence:
#
# PCOD8093987 Si02
#       7
#     8   8   8   8   8   8   8
#     4  11  22  37  61  91 124 157 200 255 310 367
#     4   9  19  37  62  88 120 166 211 248 301 375
#     4  10  19  36  61  87 121 162 205 247 301 373
#     4  10  21  37  58  85 117 155 198 249 309 372
#     4  12  25  40  59  83 117 158 205 257 310 371
#     4  11  23  41  64  91 126 164 208 259 313 374
#     4  10  21  40  65  93 124 163 208 253 304 369
#
# _framework density 20.220032
#
# number of rings (size 3 to 8) (size 9 to 14) (size 15 to 20)
#    0.000    1.571    1.429    3.857    0.000    5.429 
#    0.000    5.000    0.000    0.000    0.000    0.000 
#    0.000    0.000    0.000    0.000    0.000    0.000 
#
# Total GULP energy -347196.241810 kJ/mol
# GULP energy per Si atom -12399.865779 kJ/mol
# Density = 2.017401 g / cm^3
# Si number density = 20.220032 Si / 1000 Ang^3
#
#
#
# Elastic Constant Matrix: (Units=GPa)
#
#
# Indices 1 2 3 4 5 6 
#
# 1 145.6590 42.4822 42.7578 0.0002 1.0046 0.0003
# 2 42.4822 92.1960 35.6613 0.0006 -2.1494 0.0007
# 3 42.7578 35.6613 106.0412 -0.0001 1.7061 0.0000
# 4 0.0002 0.0006 -0.0001 -60.2045 -0.0001 -89.4268
# 5 1.0046 -2.1494 1.7061 -0.0001 23.9304 -0.0001
# 6 0.0003 0.0007 0.0000 -89.4268 -0.0001 -44.2243
#
#
#
# Elastic Compliance Matrix: (Units=1/GPa)
#
#
# Indices 1 2 3 4 5 6 
#
# 1 0.008439 -0.002972 -0.002396 0.000000 -0.000450 0.000000
# 2 -0.002972 0.013564 -0.003388 0.000000 0.001585 0.000000
# 3 -0.002396 -0.003388 0.011552 0.000000 -0.001027 0.000000
# 4 0.000000 0.000000 0.000000 0.008290 0.000000 -0.016763
# 5 -0.000450 0.001585 -0.001027 0.000000 0.042022 0.000000
# 6 0.000000 0.000000 0.000000 -0.016763 0.000000 0.011286
#
#
# Mechanical properties :
#
#
# Convention : Reuss Voigt Hill
#
# Bulk Modulus (GPa) = 62.33757 65.07766 63.70762
# Shear Modulus (GPa) = 42.36838 -1.23335 20.56751
#
# Velocity S-wave (km/s) = 4.58248 -0.78185 3.19279
# Velocity P-wave (km/s) = 7.67433 5.60710 6.72068
#
# Compressibility (1/GPa) = 0.01604169
#
# Stress axis : x y z
#
# Youngs Moduli (GPa) = 118.50324 73.72697 86.56214
#
# Poissons Ratio (x) = 0.21913 0.20739
# Poissons Ratio (y) = 0.35221 0.29331
# Poissons Ratio (z) = 0.28391 0.24982
#
# Static dielectric constant tensor:
#      x y z
#    x 3.933740 0.000000 0.101600 
#    y 0.000000 3.425070 0.000000 
#    z 0.101600 0.000000 3.697310 
# 
# 
# High freq. dielectric constant tensor:
#      x y z
#    x 1.801070 0.000000 0.000750 
#    y 0.000000 1.770160 0.000000 
#    z 0.000750 0.000000 1.797710 
# 
# From -- ./inp_files/338488.got.cif
#   From: 2010.06.25/outbox.cif.g09.slc.cpg/sg12_170_cif.got.tgz:338488.got - 2010.06.28 00:19:55.
