data_PCOD8093966
_publ_section_title
;
Structure prediction by ZEFSAII (Michael W. Deem and Ramdas Pophale) SiO2 
 PCOD8093966
Probable space group: C 2/M
;
_chemical_formula_sum "Si O2"
_cell_formula_units_Z 64
_cell_length_a 12.885205
_cell_length_b 23.699013
_cell_length_c 12.286111
_cell_angle_alpha 90.000000
_cell_angle_beta 113.757549
_cell_angle_gamma 90.000000
_cell_volume 3433.837611
_symmetry_space_group_name_H-M "C 2/M"
_symmetry_group_IT_number 12
_symmetry_cell_setting 'monoclinic'
loop_
_space_group_symop_operation_xyz
x,y,z
-x,y,-z
-x,-y,-z
x,-y,z
1/2+x,1/2+y,z
1/2-x,1/2+y,-z
1/2-x,1/2-y,-z
1/2+x,1/2-y,z
loop_
_atom_site_type_symbol
_atom_site_label
_atom_site_fract_x
_atom_site_fract_y
_atom_site_fract_z
Si Si1 0.187362 0.200483 0.412576
Si Si2 0.381542 0.345177 0.009361
Si Si3 0.272710 0.936606 0.963461
Si Si4 0.692449 0.829229 0.753621
Si Si5 0.378030 0.372216 0.417919
Si Si6 0.063154 0.564508 0.771518
Si Si7 0.326221 0.934433 0.753587
Si Si8 0.566456 0.716097 0.747918
O O1 0.250000 0.250000 0.500000
O O2 0.262626 0.175568 0.348670
O O3 0.171691 0.152521 0.493616
O O4 0.068626 0.220094 0.312162
O O5 0.336557 0.404321 0.036714
O O6 0.394058 0.301836 0.114783
O O7 0.500000 0.356347 0.000000
O O8 0.292130 0.322143 0.884001
O O9 0.317492 0.908005 0.870871
O O10 0.228757 0.000000 0.924479
O O11 0.380341 0.935554 0.086717
O O12 0.630861 0.890379 0.727214
O O13 0.605768 0.779264 0.741226
O O14 0.500000 0.398304 0.500000
O O15 0.293059 0.422481 0.354133
O O16 0.385614 0.326038 0.324465
O O17 0.067896 0.500000 0.724486
O O18 0.934803 0.588312 0.732281
O O19 0.347834 0.000000 0.774040
#
# Coordination Sequence:
#
# PCOD8093966 Si02
#       8
#     8   8   8   8   8   8   8   8
#     4  11  23  40  60  84 114 158 202 240 280 344
#     4  11  21  38  59  85 128 152 185 248 301 350
#     4   9  18  34  59  87 116 155 197 236 291 354
#     4  11  23  38  62  88 118 160 192 237 303 352
#     4  10  22  38  59  83 118 153 198 248 279 333
#     4   9  20  37  58  90 121 148 191 242 294 354
#     4  10  19  36  61  86 117 155 194 243 289 338
#     4  11  22  40  59  87 119 151 196 242 292 347
#
# _framework density 18.63804
#
# number of rings (size 3 to 8) (size 9 to 14) (size 15 to 20)
#    0.000    1.750    3.750    0.750    1.750    2.000 
#    0.000    0.625    0.000    2.250    0.000    0.000 
#    0.000    0.000    0.000    0.000    0.000    0.000 
#
# Total GULP energy -396672.144507 kJ/mol
# GULP energy per Si atom -12396.004516 kJ/mol
# Density = 1.859562 g / cm^3
# Si number density = 18.638040 Si / 1000 Ang^3
#
#
#
# Elastic Constant Matrix: (Units=GPa)
#
#
# Indices 1 2 3 4 5 6 
#
# 1 133.3408 57.4105 53.5044 0.0000 -10.5989 0.0000
# 2 57.4105 56.4391 29.2372 0.0000 -2.6296 0.0000
# 3 53.5044 29.2372 91.6949 0.0000 -14.4079 0.0000
# 4 0.0000 0.0000 0.0000 28.9794 0.0000 4.7148
# 5 -10.5989 -2.6296 -14.4079 0.0000 31.2678 0.0000
# 6 0.0000 0.0000 0.0000 4.7148 0.0000 25.5604
#
#
#
# Elastic Compliance Matrix: (Units=1/GPa)
#
#
# Indices 1 2 3 4 5 6 
#
# 1 0.014915 -0.012857 -0.004290 0.000000 0.001998 0.000000
# 2 -0.012857 0.032366 -0.003315 0.000000 -0.003164 0.000000
# 3 -0.004290 -0.003315 0.015302 0.000000 0.005318 0.000000
# 4 0.000000 0.000000 0.000000 0.035575 0.000000 -0.006562
# 5 0.001998 -0.003164 0.005318 0.000000 0.034843 0.000000
# 6 0.000000 0.000000 0.000000 -0.006562 0.000000 0.040334
#
#
# Mechanical properties :
#
#
# Convention : Reuss Voigt Hill
#
# Bulk Modulus (GPa) = 46.16906 62.41989 54.29447
# Shear Modulus (GPa) = 22.57566 26.58302 24.57934
#
# Velocity S-wave (km/s) = 3.48410 3.78071 3.63543
# Velocity P-wave (km/s) = 6.40394 7.25408 6.84223
#
# Compressibility (1/GPa) = 0.02165953
#
# Stress axis : x y z
#
# Youngs Moduli (GPa) = 67.04596 30.89659 65.35295
#
# Poissons Ratio (x) = 0.39722 0.28035
# Poissons Ratio (y) = 0.86198 0.21666
# Poissons Ratio (z) = 0.28761 0.10243
#
# Static dielectric constant tensor:
#      x y z
#    x 3.559140 0.000000 0.012540 
#    y 0.000000 3.325150 0.000000 
#    z 0.012540 0.000000 3.618850 
# 
# 
# High freq. dielectric constant tensor:
#      x y z
#    x 1.736210 0.000000 0.001640 
#    y 0.000000 1.709250 0.000000 
#    z 0.001640 0.000000 1.729150 
# 
# From -- ./inp_files/135978.got.cif
#   From: 2010.06.25/outbox.cif.g09.slc.cpg/sg12_68_cif.got.tgz:135978.got - 2010.06.28 00:19:55.
