data_PCOD8093184
_publ_section_title
;
Structure prediction by ZEFSAII (Michael W. Deem and Ramdas Pophale) SiO2 
 PCOD8093184
Probable space group: C 2/M
;
_chemical_formula_sum "Si O2"
_cell_formula_units_Z 40
_cell_length_a 17.994707
_cell_length_b 14.191851
_cell_length_c 7.642489
_cell_angle_alpha 90.000000
_cell_angle_beta 63.589567
_cell_angle_gamma 90.000000
_cell_volume 1748.025067
_symmetry_space_group_name_H-M "C 2/M"
_symmetry_group_IT_number 12
_symmetry_cell_setting 'monoclinic'
loop_
_space_group_symop_operation_xyz
x,y,z
-x,y,-z
-x,-y,-z
x,-y,z
1/2+x,1/2+y,z
1/2-x,1/2+y,-z
1/2-x,1/2-y,-z
1/2+x,1/2-y,z
loop_
_atom_site_type_symbol
_atom_site_label
_atom_site_fract_x
_atom_site_fract_y
_atom_site_fract_z
Si Si1 0.988408 0.605764 0.218562
Si Si2 0.312551 0.391415 0.710088
Si Si3 0.174454 0.702589 0.682840
Si Si4 0.901710 0.771397 0.901240
Si Si5 0.538272 0.602429 0.653268
O O1 0.992111 0.500000 0.296069
O O2 0.898499 0.654162 0.357011
O O3 0.066306 0.669034 0.206409
O O4 0.000000 0.601300 0.000000
O O5 0.331268 0.500000 0.744968
O O6 0.216791 0.379505 0.758875
O O7 0.335335 0.320515 0.843510
O O8 0.366967 0.363035 0.478989
O O9 0.250000 0.750000 0.500000
O O10 0.135240 0.774029 0.865133
O O11 0.987286 0.829233 0.830696
O O12 0.500000 0.599956 0.500000
O O13 0.537021 0.500000 0.742731
#
# Coordination Sequence:
#
# PCOD8093184 Si02
#       5
#     8   8   8   8   8
#     4   9  19  36  57  79 107 148 193 232 279 343
#     4  10  20  37  62  88 115 150 194 246 298 345
#     4  11  22  36  56  84 122 159 190 233 293 354
#     4  10  19  35  60  85 109 149 199 241 284 342
#     4   8  15  30  54  81 108 140 180 229 282 334
#
# _framework density 22.882966
#
# number of rings (size 3 to 8) (size 9 to 14) (size 15 to 20)
#    0.000    2.400    0.000    4.200    0.000    0.800 
#    0.000    4.000    0.000   40.200    0.000    0.000 
#    0.000    0.000    0.000    0.000    0.000    0.000 
#
# Total GULP energy -247776.503510 kJ/mol
# GULP energy per Si atom -12388.825176 kJ/mol
# Density = 2.283088 g / cm^3
# Si number density = 22.882966 Si / 1000 Ang^3
#
#
#
# Elastic Constant Matrix: (Units=GPa)
#
#
# Indices 1 2 3 4 5 6 
#
# 1 73.9522 20.0488 18.6380 0.0000 -12.3177 0.0000
# 2 20.0488 113.8515 57.7592 0.0000 -11.9888 0.0000
# 3 18.6380 57.7592 119.1049 0.0000 -18.8993 0.0000
# 4 0.0000 0.0000 0.0000 25.3649 0.0000 -10.5304
# 5 -12.3177 -11.9888 -18.8993 0.0000 21.7067 0.0000
# 6 0.0000 0.0000 0.0000 -10.5304 0.0000 29.4523
#
#
#
# Elastic Compliance Matrix: (Units=1/GPa)
#
#
# Indices 1 2 3 4 5 6 
#
# 1 0.015320 -0.001721 -0.000387 0.000000 0.007405 0.000000
# 2 -0.001721 0.011901 -0.005354 0.000000 0.000935 0.000000
# 3 -0.000387 -0.005354 0.012240 0.000000 0.007480 0.000000
# 4 0.000000 0.000000 0.000000 0.046297 0.000000 0.016553
# 5 0.007405 0.000935 0.007480 0.000000 0.057300 0.000000
# 6 0.000000 0.000000 0.000000 0.016553 0.000000 0.039872
#
#
# Mechanical properties :
#
#
# Convention : Reuss Voigt Hill
#
# Bulk Modulus (GPa) = 40.75680 55.53339 48.14509
# Shear Modulus (GPa) = 24.26802 29.33562 26.80182
#
# Velocity S-wave (km/s) = 3.26011 3.58437 3.42607
# Velocity P-wave (km/s) = 5.65868 6.43827 6.06103
#
# Compressibility (1/GPa) = 0.02453579
#
# Stress axis : x y z
#
# Youngs Moduli (GPa) = 65.27391 84.02705 81.70143
#
# Poissons Ratio (x) = 0.14465 0.03166
# Poissons Ratio (y) = 0.11236 0.43739
# Poissons Ratio (z) = 0.02529 0.44984
#
# Static dielectric constant tensor:
#      x y z
#    x 4.375140 0.000000 -0.728780 
#    y 0.000000 4.427790 0.000000 
#    z -0.728780 0.000000 4.196110 
# 
# 
# High freq. dielectric constant tensor:
#      x y z
#    x 1.894070 0.000000 -0.033780 
#    y 0.000000 1.908960 0.000000 
#    z -0.033780 0.000000 1.887540 
# 
# From -- ./inp_files/85513.got.cif
#   From: 2010.06.25/outbox.cif.g09.slc.cpg/sg12_43_cif.got.tgz:85513.got - 2010.06.28 00:19:55.
