data_PCOD8093867
_publ_section_title
;
Structure prediction by ZEFSAII (Michael W. Deem and Ramdas Pophale) SiO2 
 PCOD8093867
Probable space group: C 2/M
;
_chemical_formula_sum "Si O2"
_cell_formula_units_Z 64
_cell_length_a 28.589097
_cell_length_b 8.606925
_cell_length_c 14.416092
_cell_angle_alpha 90.000000
_cell_angle_beta 120.950283
_cell_angle_gamma 90.000000
_cell_volume 3042.200322
_symmetry_space_group_name_H-M "C 2/M"
_symmetry_group_IT_number 12
_symmetry_cell_setting 'monoclinic'
loop_
_space_group_symop_operation_xyz
x,y,z
-x,y,-z
-x,-y,-z
x,-y,z
1/2+x,1/2+y,z
1/2-x,1/2+y,-z
1/2-x,1/2-y,-z
1/2+x,1/2-y,z
loop_
_atom_site_type_symbol
_atom_site_label
_atom_site_fract_x
_atom_site_fract_y
_atom_site_fract_z
Si Si1 0.481029 0.685110 0.878707
Si Si2 0.871656 0.316271 0.800829
Si Si3 0.241042 0.815000 0.389295
Si Si4 0.844260 0.179862 0.953609
Si Si5 0.167577 0.682898 0.663459
Si Si6 0.762795 0.820253 0.112333
Si Si7 0.557555 0.684484 0.599544
Si Si8 0.566220 0.318862 0.815262
O O1 0.476214 0.500000 0.870201
O O2 0.423235 0.763607 0.791965
O O3 0.522409 0.750490 0.842717
O O4 0.500000 0.740957 0.000000
O O5 0.868827 0.500000 0.807841
O O6 0.815660 0.253399 0.702772
O O7 0.884249 0.231418 0.912052
O O8 0.250000 0.750000 0.500000
O O9 0.291075 0.758187 0.374542
O O10 0.237852 0.000000 0.386928
O O11 0.791584 0.287821 0.884124
O O12 0.827345 0.000000 0.925999
O O13 0.872986 0.209944 0.081994
O O14 0.164530 0.500000 0.659816
O O15 0.186861 0.740372 0.784542
O O16 0.106775 0.750187 0.586136
O O17 0.776501 0.000000 0.116589
O O18 0.750000 0.750000 0.000000
O O19 0.500000 0.741505 0.500000
O O20 0.561906 0.500000 0.603449
O O21 0.561860 0.754588 0.708454
O O22 0.554387 0.500000 0.795269
#
# Coordination Sequence:
#
# PCOD8093867 Si02
#       8
#     8   8   8   8   8   8   8   8
#     4  10  19  36  60  85 119 169 217 261 321 385
#     4  12  24  38  59  91 128 166 210 260 320 383
#     4  11  25  45  69  95 128 168 214 265 320 382
#     4  11  20  36  60  87 122 165 211 261 318 381
#     4  11  24  43  67  94 127 167 213 264 320 384
#     4  12  24  38  60  93 130 170 212 260 320 388
#     4  10  22  41  65  93 125 164 213 267 319 379
#     4   9  19  36  60  89 121 162 212 263 318 381
#
# _framework density 21.037405
#
# number of rings (size 3 to 8) (size 9 to 14) (size 15 to 20)
#    0.000    1.250    2.500    4.125    0.000    4.000 
#    0.000    2.500    0.000    0.000    0.000    0.000 
#    0.000    0.000    0.000    0.000    0.000    0.000 
#
# Total GULP energy -396796.423338 kJ/mol
# GULP energy per Si atom -12399.888229 kJ/mol
# Density = 2.098952 g / cm^3
# Si number density = 21.037405 Si / 1000 Ang^3
#
#
#
# Elastic Constant Matrix: (Units=GPa)
#
#
# Indices 1 2 3 4 5 6 
#
# 1 112.3448 27.5652 51.2284 0.0000 19.1819 0.0000
# 2 27.5652 54.6209 34.9248 0.0000 6.7751 0.0000
# 3 51.2284 34.9248 113.7002 0.0000 5.5822 0.0000
# 4 0.0000 0.0000 0.0000 27.8459 0.0000 3.0627
# 5 19.1819 6.7751 5.5822 0.0000 38.0383 0.0000
# 6 0.0000 0.0000 0.0000 3.0627 0.0000 32.5086
#
#
#
# Elastic Compliance Matrix: (Units=1/GPa)
#
#
# Indices 1 2 3 4 5 6 
#
# 1 0.012535 -0.002783 -0.004539 0.000000 -0.005159 0.000000
# 2 -0.002783 0.023758 -0.005948 0.000000 -0.001955 0.000000
# 3 -0.004539 -0.005948 0.012594 0.000000 0.001500 0.000000
# 4 0.000000 0.000000 0.000000 0.036288 0.000000 -0.003419
# 5 -0.005159 -0.001955 0.001500 0.000000 0.029019 0.000000
# 6 0.000000 0.000000 0.000000 -0.003419 0.000000 0.031083
#
#
# Mechanical properties :
#
#
# Convention : Reuss Voigt Hill
#
# Bulk Modulus (GPa) = 44.75138 56.45585 50.60361
# Shear Modulus (GPa) = 27.89147 30.80841 29.34994
#
# Velocity S-wave (km/s) = 3.64511 3.83098 3.73920
# Velocity P-wave (km/s) = 6.24774 6.81636 6.53823
#
# Compressibility (1/GPa) = 0.02234568
#
# Stress axis : x y z
#
# Youngs Moduli (GPa) = 79.77693 42.09084 79.40566
#
# Poissons Ratio (x) = 0.11716 0.36046
# Poissons Ratio (y) = 0.22206 0.47227
# Poissons Ratio (z) = 0.36214 0.25034
#
# Static dielectric constant tensor:
#      x y z
#    x 4.281700 0.000000 -0.072000 
#    y 0.000000 3.628940 0.000000 
#    z -0.072000 0.000000 3.860860 
# 
# 
# High freq. dielectric constant tensor:
#      x y z
#    x 1.843830 0.000000 0.006520 
#    y 0.000000 1.805110 0.000000 
#    z 0.006520 0.000000 1.819460 
# 
# From -- ./inp_files/249956.got.cif
#   From: 2010.06.25/outbox.cif.g09.slc.cpg/sg12_125_cif.got.tgz:249956.got - 2010.06.28 00:19:55.
