data_PCOD8093997
_publ_section_title
;
Structure prediction by ZEFSAII (Michael W. Deem and Ramdas Pophale) SiO2 
 PCOD8093997
Probable space group: C 2/M
;
_chemical_formula_sum "Si O2"
_cell_formula_units_Z 52
_cell_length_a 24.227902
_cell_length_b 14.873527
_cell_length_c 12.860861
_cell_angle_alpha 90.000000
_cell_angle_beta 32.757186
_cell_angle_gamma 90.000000
_cell_volume 2507.617314
_symmetry_space_group_name_H-M "C 2/M"
_symmetry_group_IT_number 12
_symmetry_cell_setting 'monoclinic'
loop_
_space_group_symop_operation_xyz
x,y,z
-x,y,-z
-x,-y,-z
x,-y,z
1/2+x,1/2+y,z
1/2-x,1/2+y,-z
1/2-x,1/2-y,-z
1/2+x,1/2-y,z
loop_
_atom_site_type_symbol
_atom_site_label
_atom_site_fract_x
_atom_site_fract_y
_atom_site_fract_z
Si Si1 0.787096 0.247111 0.057860
Si Si2 0.114894 0.596003 0.999970
Si Si3 0.391203 0.096930 0.385973
Si Si4 0.000000 0.186312 0.000000
Si Si5 0.453497 0.392250 0.851757
Si Si6 0.630709 0.726746 0.485323
Si Si7 0.314714 0.822734 0.314043
O O1 0.870138 0.325657 0.939397
O O2 0.692024 0.278553 0.280320
O O3 0.750000 0.250000 0.000000
O O4 0.842531 0.152958 0.001552
O O5 0.149198 0.500000 0.993995
O O6 0.176395 0.610098 0.796895
O O7 0.996785 0.593140 0.155495
O O8 0.406398 0.169782 0.452911
O O9 0.307754 0.120587 0.430799
O O10 0.363688 0.000000 0.479985
O O11 0.902112 0.247805 0.174033
O O12 0.019286 0.124740 0.070797
O O13 0.448762 0.500000 0.838186
O O14 0.539056 0.345994 0.640515
O O15 0.703162 0.720991 0.473570
#
# Coordination Sequence:
#
# PCOD8093997 Si02
#       7
#     8   8   8   4   8   8   8
#     4  11  25  47  71  91 126 173 223 289 343 391
#     4  10  19  36  61  88 121 160 209 265 321 378
#     4  11  20  33  58  90 128 165 208 260 317 387
#     4  12  19  42  67  96 142 184 215 270 333 408
#     4  12  26  45  68 103 142 181 223 274 338 413
#     4  11  23  42  62  93 132 176 223 275 332 411
#     4  11  18  34  61  90 134 174 215 259 323 391
#
# _framework density 20.736816000000001
#
# number of rings (size 3 to 8) (size 9 to 14) (size 15 to 20)
#    0.000    0.923    7.692    1.154    0.000    6.154 
#    0.000    0.769    0.000    1.846    0.000    0.000 
#    0.000    0.000    0.000    0.000    0.000    0.000 
#
# Total GULP energy -322133.299231 kJ/mol
# GULP energy per Si atom -12389.742278 kJ/mol
# Density = 2.068962 g / cm^3
# Si number density = 20.736816 Si / 1000 Ang^3
#
#
#
# Elastic Constant Matrix: (Units=GPa)
#
#
# Indices 1 2 3 4 5 6 
#
# 1 100.1803 41.1415 20.2651 0.0000 8.7068 0.0000
# 2 41.1415 160.9285 25.5933 0.0000 8.5574 0.0000
# 3 20.2651 25.5933 75.4020 0.0000 7.6952 0.0000
# 4 0.0000 0.0000 0.0000 24.2688 0.0000 -3.3922
# 5 8.7068 8.5574 7.6952 0.0000 16.4605 0.0000
# 6 0.0000 0.0000 0.0000 -3.3922 0.0000 13.7393
#
#
#
# Elastic Compliance Matrix: (Units=1/GPa)
#
#
# Indices 1 2 3 4 5 6 
#
# 1 0.011737 -0.002484 -0.001900 0.000000 -0.004028 0.000000
# 2 -0.002484 0.007193 -0.001603 0.000000 -0.001676 0.000000
# 3 -0.001900 -0.001603 0.014837 0.000000 -0.005098 0.000000
# 4 0.000000 0.000000 0.000000 0.042678 0.000000 0.010537
# 5 -0.004028 -0.001676 -0.005098 0.000000 0.066137 0.000000
# 6 0.000000 0.000000 0.000000 0.010537 0.000000 0.075385
#
#
# Mechanical properties :
#
#
# Convention : Reuss Voigt Hill
#
# Bulk Modulus (GPa) = 45.88634 56.72342 51.30488
# Shear Modulus (GPa) = 21.07877 27.52778 24.30328
#
# Velocity S-wave (km/s) = 3.19170 3.64742 3.42714
# Velocity P-wave (km/s) = 5.97985 6.71949 6.36043
#
# Compressibility (1/GPa) = 0.02179298
#
# Stress axis : x y z
#
# Youngs Moduli (GPa) = 85.20334 139.02342 67.39801
#
# Poissons Ratio (x) = 0.34535 0.12806
# Poissons Ratio (y) = 0.21165 0.10803
# Poissons Ratio (z) = 0.16189 0.22283
#
# Static dielectric constant tensor:
#      x y z
#    x 3.454820 0.000000 -0.159260 
#    y 0.000000 4.062860 0.000000 
#    z -0.159260 0.000000 3.951720 
# 
# 
# High freq. dielectric constant tensor:
#      x y z
#    x 1.772460 0.000000 -0.003630 
#    y 0.000000 1.820630 0.000000 
#    z -0.003630 0.000000 1.815400 
# 
# From -- ./inp_files/240917.got.cif
#   From: 2010.06.25/outbox.cif.g09.slc.cpg/sg12_121_cif.got.tgz:240917.got - 2010.06.28 00:19:55.
