data_PCOD8093957
_publ_section_title
;
Structure prediction by ZEFSAII (Michael W. Deem and Ramdas Pophale) SiO2 
 PCOD8093957
Probable space group: C 2/M
;
_chemical_formula_sum "Si O2"
_cell_formula_units_Z 40
_cell_length_a 13.211171
_cell_length_b 13.546439
_cell_length_c 19.643838
_cell_angle_alpha 90.000000
_cell_angle_beta 31.014528
_cell_angle_gamma 90.000000
_cell_volume 1811.404148
_symmetry_space_group_name_H-M "C 2/M"
_symmetry_group_IT_number 12
_symmetry_cell_setting 'monoclinic'
loop_
_space_group_symop_operation_xyz
x,y,z
-x,y,-z
-x,-y,-z
x,-y,z
1/2+x,1/2+y,z
1/2-x,1/2+y,-z
1/2-x,1/2-y,-z
1/2+x,1/2-y,z
loop_
_atom_site_type_symbol
_atom_site_label
_atom_site_fract_x
_atom_site_fract_y
_atom_site_fract_z
Si Si1 0.569593 0.713802 0.224137
Si Si2 0.827686 0.112884 0.699595
Si Si3 0.310709 0.804455 0.640989
Si Si4 0.705848 0.614457 0.845309
Si Si5 0.592815 0.892154 0.020953
O O1 0.596693 0.631483 0.267428
O O2 0.349098 0.708713 0.325689
O O3 0.617997 0.824075 0.221866
O O4 0.728656 0.685017 0.073812
O O5 0.910927 0.198753 0.603708
O O6 0.592380 0.132664 0.824474
O O7 0.882988 0.000000 0.646972
O O8 0.500000 0.862664 0.500000
O O9 0.209351 0.861216 0.762757
O O10 0.748791 0.500000 0.832977
O O11 0.500000 0.645422 0.000000
O O12 0.677433 0.000000 0.990363
O O13 0.500000 0.890802 0.000000
#
# Coordination Sequence:
#
# PCOD8093957 Si02
#       5
#     8   8   8   8   8
#     4  10  19  36  61  85 117 161 198 235 293 355
#     4   9  19  36  59  88 118 148 191 246 297 349
#     4  11  25  41  58  86 122 159 201 244 288 347
#     4  10  23  42  62  89 123 154 192 246 301 352
#     4   8  14  28  54  86 112 138 182 236 286 340
#
# _framework density 22.082315000000001
#
# number of rings (size 3 to 8) (size 9 to 14) (size 15 to 20)
#    0.000    2.400    0.000    4.800    0.000    9.600 
#    0.000    6.000    0.000    0.000    0.000    0.000 
#    0.000    0.000    0.000    0.000    0.000    0.000 
#
# Total GULP energy -247782.621885 kJ/mol
# GULP energy per Si atom -12389.131094 kJ/mol
# Density = 2.203205 g / cm^3
# Si number density = 22.082315 Si / 1000 Ang^3
#
#
#
# Elastic Constant Matrix: (Units=GPa)
#
#
# Indices 1 2 3 4 5 6 
#
# 1 93.9810 19.0747 50.2892 -0.0008 -25.4599 0.0002
# 2 19.0747 87.5627 18.3650 -0.0031 -3.7364 0.0012
# 3 50.2892 18.3650 112.9346 -0.0074 -2.9983 0.0031
# 4 -0.0008 -0.0031 -0.0074 10.7608 0.0028 0.7988
# 5 -25.4599 -3.7364 -2.9983 0.0028 27.8408 -0.0009
# 6 0.0002 0.0012 0.0031 0.7988 -0.0009 9.7836
#
#
#
# Elastic Compliance Matrix: (Units=1/GPa)
#
#
# Indices 1 2 3 4 5 6 
#
# 1 0.020061 -0.001924 -0.008163 -0.000009 0.017208 0.000005
# 2 -0.001924 0.012061 -0.001112 0.000003 -0.000260 -0.000001
# 3 -0.008163 -0.001112 0.012504 0.000010 -0.006268 -0.000005
# 4 -0.000009 0.000003 0.000010 0.093497 -0.000017 -0.007634
# 5 0.017208 -0.000260 -0.006268 -0.000017 0.050945 0.000008
# 6 0.000005 -0.000001 -0.000005 -0.007634 0.000008 0.102835
#
#
# Mechanical properties :
#
#
# Convention : Reuss Voigt Hill
#
# Bulk Modulus (GPa) = 44.98608 52.21513 48.60060
# Shear Modulus (GPa) = 15.54193 23.46032 19.50112
#
# Velocity S-wave (km/s) = 2.65583 3.26299 2.97494
# Velocity P-wave (km/s) = 5.46085 6.15574 5.81868
#
# Compressibility (1/GPa) = 0.02222910
#
# Stress axis : x y z
#
# Youngs Moduli (GPa) = 49.84863 82.90845 79.97359
#
# Poissons Ratio (x) = 0.15949 0.65285
# Poissons Ratio (y) = 0.09589 0.08891
# Poissons Ratio (z) = 0.40693 0.09217
#
# Static dielectric constant tensor:
#      x y z
#    x 3.544900 0.000000 0.070520 
#    y 0.000000 4.005930 0.000010 
#    z 0.070520 0.000010 4.109370 
# 
# 
# High freq. dielectric constant tensor:
#      x y z
#    x 1.839820 0.000000 0.003580 
#    y 0.000000 1.869650 0.000000 
#    z 0.003580 0.000000 1.861910 
# 
# From -- ./inp_files/310484.got.cif
#   From: 2010.06.25/outbox.cif.g09.slc.cpg/sg12_156_cif.got.tgz:310484.got - 2010.06.28 00:19:55.
