data_PCOD8093972
_publ_section_title
;
Structure prediction by ZEFSAII (Michael W. Deem and Ramdas Pophale) SiO2 
 PCOD8093972
Probable space group: C 2/M
;
_chemical_formula_sum "Si O2"
_cell_formula_units_Z 52
_cell_length_a 26.967483
_cell_length_b 11.785966
_cell_length_c 18.411050
_cell_angle_alpha 90.000000
_cell_angle_beta 151.462362
_cell_angle_gamma 90.000000
_cell_volume 2795.581038
_symmetry_space_group_name_H-M "C 2/M"
_symmetry_group_IT_number 12
_symmetry_cell_setting 'monoclinic'
loop_
_space_group_symop_operation_xyz
x,y,z
-x,y,-z
-x,-y,-z
x,-y,z
1/2+x,1/2+y,z
1/2-x,1/2+y,-z
1/2-x,1/2-y,-z
1/2+x,1/2-y,z
loop_
_atom_site_type_symbol
_atom_site_label
_atom_site_fract_x
_atom_site_fract_y
_atom_site_fract_z
Si Si1 0.575525 0.718082 0.878308
Si Si2 0.251330 0.367979 0.163645
Si Si3 0.226623 0.500000 0.658160
Si Si4 0.136460 0.000000 0.302835
Si Si5 0.346628 0.248409 0.417595
Si Si6 0.913534 0.000000 0.008216
Si Si7 0.846977 0.210024 0.580369
Si Si8 0.942582 0.867989 0.304149
O O1 0.601276 0.613823 0.964334
O O2 0.458915 0.773034 0.733106
O O3 0.595852 0.672269 0.823635
O O4 0.651080 0.822262 0.992620
O O5 0.234791 0.500000 0.159897
O O6 0.264190 0.298587 0.254886
O O7 0.351322 0.347299 0.243096
O O8 0.263061 0.500000 0.620000
O O9 0.157659 0.610824 0.586210
O O10 0.330506 0.500000 0.837901
O O11 0.129217 0.907950 0.354829
O O12 0.028389 0.000000 0.118707
O O13 0.313656 0.296310 0.453682
O O14 0.461292 0.291631 0.544688
O O15 0.750000 0.250000 0.500000
O O16 0.976612 0.000000 0.346022
#
# Coordination Sequence:
#
# PCOD8093972 Si02
#       8
#     8   8   4   4   8   4   8   8
#     4  10  20  38  63  86 116 150 198 239 288 348
#     4  11  23  40  60  87 118 154 195 246 296 344
#     4  12  21  38  58  88 124 150 192 248 295 340
#     4  10  21  36  62  86 108 159 205 234 283 349
#     4  11  23  37  60  88 120 153 197 241 294 342
#     4  10  19  36  61  87 114 151 193 246 285 346
#     4  10  21  39  59  87 117 152 194 240 288 351
#     4  10  21  40  64  85 113 157 203 238 284 353
#
# _framework density 18.600784000000001
#
# number of rings (size 3 to 8) (size 9 to 14) (size 15 to 20)
#    0.000    1.538    3.846    1.615    4.308    1.231 
#    6.923    3.077    0.000    0.923    0.000    0.000 
#    0.000    0.000    0.000    0.000    0.000    0.000 
#
# Total GULP energy -322184.146226 kJ/mol
# GULP energy per Si atom -12391.697932 kJ/mol
# Density = 1.855845 g / cm^3
# Si number density = 18.600784 Si / 1000 Ang^3
#
#
#
# Elastic Constant Matrix: (Units=GPa)
#
#
# Indices 1 2 3 4 5 6 
#
# 1 94.6315 46.8292 51.2538 0.0000 3.5557 0.0000
# 2 46.8292 114.2282 61.7300 0.0000 8.0824 0.0000
# 3 51.2538 61.7300 108.4664 0.0000 0.6430 0.0000
# 4 0.0000 0.0000 0.0000 32.3476 0.0000 1.1576
# 5 3.5557 8.0824 0.6430 0.0000 28.7679 0.0000
# 6 0.0000 0.0000 0.0000 1.1576 0.0000 28.7142
#
#
#
# Elastic Compliance Matrix: (Units=1/GPa)
#
#
# Indices 1 2 3 4 5 6 
#
# 1 0.015063 -0.003283 -0.005245 0.000000 -0.000822 0.000000
# 2 -0.003283 0.013698 -0.006225 0.000000 -0.003304 0.000000
# 3 -0.005245 -0.006225 0.015228 0.000000 0.002057 0.000000
# 4 0.000000 0.000000 0.000000 0.030959 0.000000 -0.001248
# 5 -0.000822 -0.003304 0.002057 0.000000 0.035745 0.000000
# 6 0.000000 0.000000 0.000000 -0.001248 0.000000 0.034876
#
#
# Mechanical properties :
#
#
# Convention : Reuss Voigt Hill
#
# Bulk Modulus (GPa) = 69.03883 70.77244 69.90564
# Shear Modulus (GPa) = 27.79279 28.46682 28.12981
#
# Velocity S-wave (km/s) = 3.86965 3.91629 3.89304
# Velocity P-wave (km/s) = 7.56057 7.65379 7.60732
#
# Compressibility (1/GPa) = 0.01448460
#
# Stress axis : x y z
#
# Youngs Moduli (GPa) = 66.38606 73.00318 65.66762
#
# Poissons Ratio (x) = 0.23967 0.34441
# Poissons Ratio (y) = 0.21794 0.40877
# Poissons Ratio (z) = 0.34817 0.45444
#
# Static dielectric constant tensor:
#      x y z
#    x 3.606390 0.000000 0.116270 
#    y 0.000000 3.393410 0.000000 
#    z 0.116270 0.000000 3.625260 
# 
# 
# High freq. dielectric constant tensor:
#      x y z
#    x 1.726930 0.000000 -0.006940 
#    y 0.000000 1.717340 0.000000 
#    z -0.006940 0.000000 1.730690 
# 
# From -- ./inp_files/223467.got.cif
#   From: 2010.06.25/outbox.cif.g09.slc.cpg/sg12_112_cif.got.tgz:223467.got - 2010.06.28 00:19:55.
