data_PCOD8093770
_publ_section_title
;
Structure prediction by ZEFSAII (Michael W. Deem and Ramdas Pophale) SiO2 
 PCOD8093770
Probable space group: C 2/M
;
_chemical_formula_sum "Si O2"
_cell_formula_units_Z 64
_cell_length_a 15.454657
_cell_length_b 8.910214
_cell_length_c 25.315275
_cell_angle_alpha 90.000000
_cell_angle_beta 107.921236
_cell_angle_gamma 90.000000
_cell_volume 3316.881919
_symmetry_space_group_name_H-M "C 2/M"
_symmetry_group_IT_number 12
_symmetry_cell_setting 'monoclinic'
loop_
_space_group_symop_operation_xyz
x,y,z
-x,y,-z
-x,-y,-z
x,-y,z
1/2+x,1/2+y,z
1/2-x,1/2+y,-z
1/2-x,1/2-y,-z
1/2+x,1/2-y,z
loop_
_atom_site_type_symbol
_atom_site_label
_atom_site_fract_x
_atom_site_fract_y
_atom_site_fract_z
Si Si1 0.003635 0.676365 0.939011
Si Si2 0.189332 0.178501 0.943229
Si Si3 0.248732 0.822031 0.741593
Si Si4 0.193357 0.677990 0.133935
Si Si5 0.573957 0.829667 0.556975
Si Si6 0.747991 0.324813 0.556008
Si Si7 0.627691 0.822042 0.328742
Si Si8 0.065368 0.671002 0.675619
O O1 0.018520 0.500000 0.932404
O O2 0.086074 0.763144 0.926322
O O3 0.908819 0.735835 0.896804
O O4 0.000000 0.714507 0.000000
O O5 0.234395 0.231154 0.896516
O O6 0.190741 0.000000 0.949672
O O7 0.250000 0.250000 0.000000
O O8 0.274363 0.755964 0.803762
O O9 0.320316 0.755271 0.712506
O O10 0.147684 0.776943 0.706480
O O11 0.253653 0.000000 0.743695
O O12 0.190491 0.500000 0.134036
O O13 0.500000 0.781841 0.500000
O O14 0.655050 0.712406 0.568164
O O15 0.535256 0.815500 0.608795
O O16 0.607167 0.000000 0.551823
O O17 0.758124 0.500000 0.549150
O O18 0.750000 0.250000 0.500000
O O19 0.827758 0.260857 0.608651
O O20 0.521915 0.775977 0.306731
O O21 0.638457 0.000000 0.330774
O O22 0.092439 0.500000 0.694004
#
# Coordination Sequence:
#
# PCOD8093770 Si02
#       8
#     8   8   8   8   8   8   8   8
#     4  10  19  36  59  85 116 152 190 234 286 341
#     4  11  21  36  57  86 118 154 194 237 288 340
#     4  10  20  39  61  81 110 152 195 232 276 336
#     4   9  20  37  58  82 115 154 189 230 287 343
#     4  10  20  35  55  80 114 149 183 230 290 342
#     4  11  21  35  55  82 112 144 186 233 284 342
#     4   9  19  36  58  80 108 147 187 226 277 339
#     4  10  20  36  58  83 112 146 185 234 287 334
#
# _framework density 19.295231999999999
#
# number of rings (size 3 to 8) (size 9 to 14) (size 15 to 20)
#    0.000    2.000    2.500    1.500    0.000    3.500 
#    0.000    6.250    0.000    0.000    0.000    0.000 
#    0.000    0.000    0.000    0.000    0.000    0.000 
#
# Total GULP energy -396777.941294 kJ/mol
# GULP energy per Si atom -12399.310665 kJ/mol
# Density = 1.925131 g / cm^3
# Si number density = 19.295232 Si / 1000 Ang^3
#
#
#
# Elastic Constant Matrix: (Units=GPa)
#
#
# Indices 1 2 3 4 5 6 
#
# 1 159.1470 25.8048 71.4104 0.0000 -9.0779 0.0000
# 2 25.8048 34.5862 25.7187 0.0000 -5.2461 0.0000
# 3 71.4104 25.7187 143.9028 0.0000 -4.6597 0.0000
# 4 0.0000 0.0000 0.0000 17.5702 0.0000 -1.2145
# 5 -9.0779 -5.2461 -4.6597 0.0000 32.4439 0.0000
# 6 0.0000 0.0000 0.0000 -1.2145 0.0000 32.9141
#
#
#
# Elastic Compliance Matrix: (Units=1/GPa)
#
#
# Indices 1 2 3 4 5 6 
#
# 1 0.008525 -0.003515 -0.003560 0.000000 0.001306 0.000000
# 2 -0.003515 0.035479 -0.004463 0.000000 0.004112 0.000000
# 3 -0.003560 -0.004463 0.009502 0.000000 -0.000353 0.000000
# 4 0.000000 0.000000 0.000000 0.057060 0.000000 0.002106
# 5 0.001306 0.004112 -0.000353 0.000000 0.031802 0.000000
# 6 0.000000 0.000000 0.000000 0.002106 0.000000 0.030460
#
#
# Mechanical properties :
#
#
# Convention : Reuss Voigt Hill
#
# Bulk Modulus (GPa) = 32.86366 64.83377 48.84871
# Shear Modulus (GPa) = 24.26612 30.89910 27.58261
#
# Velocity S-wave (km/s) = 3.55014 4.00607 3.78498
# Velocity P-wave (km/s) = 5.82011 7.42105 6.66880
#
# Compressibility (1/GPa) = 0.03042875
#
# Stress axis : x y z
#
# Youngs Moduli (GPa) = 117.29618 28.18587 105.24058
#
# Poissons Ratio (x) = 0.09909 0.37467
# Poissons Ratio (y) = 0.41235 0.46971
# Poissons Ratio (z) = 0.41759 0.12580
#
# Static dielectric constant tensor:
#      x y z
#    x 3.945320 0.000000 -0.261940 
#    y 0.000000 3.371110 0.000000 
#    z -0.261940 0.000000 3.878130 
# 
# 
# High freq. dielectric constant tensor:
#      x y z
#    x 1.763480 0.000000 -0.003460 
#    y 0.000000 1.718660 0.000000 
#    z -0.003460 0.000000 1.755780 
# 
# From -- ./inp_files/359894.got.cif
#   From: 2010.06.25/outbox.cif.g09.slc.cpg/sg12_180_cif.got.tgz:359894.got - 2010.06.28 00:19:55.
