data_PCOD8093415
_publ_section_title
;
Structure prediction by ZEFSAII (Michael W. Deem and Ramdas Pophale) SiO2 
 PCOD8093415
Probable space group: C 2/M
;
_chemical_formula_sum "Si O2"
_cell_formula_units_Z 64
_cell_length_a 26.005445
_cell_length_b 14.401654
_cell_length_c 12.084994
_cell_angle_alpha 90.000000
_cell_angle_beta 136.313699
_cell_angle_gamma 90.000000
_cell_volume 3126.212916
_symmetry_space_group_name_H-M "C 2/M"
_symmetry_group_IT_number 12
_symmetry_cell_setting 'monoclinic'
loop_
_space_group_symop_operation_xyz
x,y,z
-x,y,-z
-x,-y,-z
x,-y,z
1/2+x,1/2+y,z
1/2-x,1/2+y,-z
1/2-x,1/2-y,-z
1/2+x,1/2-y,z
loop_
_atom_site_type_symbol
_atom_site_label
_atom_site_fract_x
_atom_site_fract_y
_atom_site_fract_z
Si Si1 0.150276 0.101365 0.908262
Si Si2 0.415693 0.267595 0.364537
Si Si3 0.082716 0.600812 0.164740
Si Si4 0.674569 0.144021 0.104240
Si Si5 0.584929 0.325713 0.003698
Si Si6 0.681751 0.104608 0.862388
Si Si7 0.157283 0.889003 0.566900
Si Si8 0.915356 0.204043 0.747373
O O1 0.096930 0.173864 0.765639
O O2 0.147289 0.000000 0.846329
O O3 0.117540 0.089484 0.982098
O O4 0.234249 0.138863 0.029509
O O5 0.500000 0.234456 0.500000
O O6 0.368438 0.173010 0.288795
O O7 0.399014 0.334514 0.441533
O O8 0.083412 0.500000 0.227985
O O9 0.131088 0.585744 0.129586
O O10 0.110121 0.686696 0.283830
O O11 0.000000 0.630322 0.000000
O O12 0.642224 0.246418 0.055840
O O13 0.760934 0.140068 0.269282
O O14 0.662531 0.104122 0.962848
O O15 0.591263 0.345483 0.143584
O O16 0.500156 0.302409 0.836967
O O17 0.670142 0.000000 0.799342
O O18 0.140994 0.851833 0.418226
O O19 0.145215 0.000000 0.554127
#
# Coordination Sequence:
#
# PCOD8093415 Si02
#       8
#     8   8   8   8   8   8   8   8
#     4  11  22  39  65  94 123 162 213 260 308 368
#     4  12  25  40  63  92 129 162 205 262 315 372
#     4  10  19  35  63  95 123 158 210 263 310 367
#     4  11  20  40  66  92 123 164 211 264 307 372
#     4  10  20  39  65  90 124 166 209 259 314 368
#     4  11  23  42  67  94 123 162 209 259 317 380
#     4  12  26  41  61  91 128 171 213 257 311 372
#     4  10  22  41  60  91 131 165 211 258 313 374
#
# _framework density 20.472055000000001
#
# number of rings (size 3 to 8) (size 9 to 14) (size 15 to 20)
#    0.000    1.125    5.000    3.375    0.000    5.250 
#    0.000    1.875    0.000    2.250    0.000    0.000 
#    0.000    0.000    0.000    0.000    0.000    0.000 
#
# Total GULP energy -396648.065916 kJ/mol
# GULP energy per Si atom -12395.252060 kJ/mol
# Density = 2.042546 g / cm^3
# Si number density = 20.472055 Si / 1000 Ang^3
#
#
#
# Elastic Constant Matrix: (Units=GPa)
#
#
# Indices 1 2 3 4 5 6 
#
# 1 101.7389 25.0538 19.2088 0.0000 2.3551 0.0000
# 2 25.0538 98.0006 44.2478 0.0000 0.6688 0.0000
# 3 19.2088 44.2478 75.6667 0.0000 4.3016 0.0000
# 4 0.0000 0.0000 0.0000 15.6676 0.0000 -4.2956
# 5 2.3551 0.6688 4.3016 0.0000 26.2688 0.0000
# 6 0.0000 0.0000 0.0000 -4.2956 0.0000 16.4946
#
#
#
# Elastic Compliance Matrix: (Units=1/GPa)
#
#
# Indices 1 2 3 4 5 6 
#
# 1 0.010625 -0.002053 -0.001459 0.000000 -0.000661 0.000000
# 2 -0.002053 0.014287 -0.007897 0.000000 0.001113 0.000000
# 3 -0.001459 -0.007897 0.018356 0.000000 -0.002674 0.000000
# 4 0.000000 0.000000 0.000000 0.068734 0.000000 0.017900
# 5 -0.000661 0.001113 -0.002674 0.000000 0.038537 0.000000
# 6 0.000000 0.000000 0.000000 0.017900 0.000000 0.065288
#
#
# Mechanical properties :
#
#
# Convention : Reuss Voigt Hill
#
# Bulk Modulus (GPa) = 48.89863 50.26968 49.58415
# Shear Modulus (GPa) = 20.36988 24.14591 22.25790
#
# Velocity S-wave (km/s) = 3.15780 3.43805 3.30090
# Velocity P-wave (km/s) = 6.10188 6.35365 6.22904
#
# Compressibility (1/GPa) = 0.02045047
#
# Stress axis : x y z
#
# Youngs Moduli (GPa) = 94.11348 69.99564 54.47821
#
# Poissons Ratio (x) = 0.14370 0.07950
# Poissons Ratio (y) = 0.19322 0.43019
# Poissons Ratio (z) = 0.13733 0.55272
#
# Static dielectric constant tensor:
#      x y z
#    x 4.067990 0.000000 -0.046450 
#    y 0.000000 3.758290 0.000000 
#    z -0.046450 0.000000 3.537250 
# 
# 
# High freq. dielectric constant tensor:
#      x y z
#    x 1.815940 0.000000 0.007050 
#    y 0.000000 1.808640 0.000000 
#    z 0.007050 0.000000 1.774420 
# 
# From -- ./inp_files/183821.got.cif
#   From: 2010.06.25/outbox.cif.g09.slc.cpg/sg12_92_cif.got.tgz:183821.got - 2010.06.28 00:19:55.
