data_PCOD8093411
_publ_section_title
;
Structure prediction by ZEFSAII (Michael W. Deem and Ramdas Pophale) SiO2 
 PCOD8093411
Probable space group: C 2/M
;
_chemical_formula_sum "Si O2"
_cell_formula_units_Z 48
_cell_length_a 22.973757
_cell_length_b 14.943057
_cell_length_c 14.854078
_cell_angle_alpha 90.000000
_cell_angle_beta 154.325159
_cell_angle_gamma 90.000000
_cell_volume 2209.373562
_symmetry_space_group_name_H-M "C 2/M"
_symmetry_group_IT_number 12
_symmetry_cell_setting 'monoclinic'
loop_
_space_group_symop_operation_xyz
x,y,z
-x,y,-z
-x,-y,-z
x,-y,z
1/2+x,1/2+y,z
1/2-x,1/2+y,-z
1/2-x,1/2-y,-z
1/2+x,1/2-y,z
loop_
_atom_site_type_symbol
_atom_site_label
_atom_site_fract_x
_atom_site_fract_y
_atom_site_fract_z
Si Si1 0.422365 0.326792 0.976746
Si Si2 0.103286 0.897242 0.506658
Si Si3 0.821313 0.897628 0.579348
Si Si4 0.557149 0.776749 0.719472
Si Si5 0.754063 0.791998 0.151052
Si Si6 0.677201 0.100168 0.548582
O O1 0.335360 0.248098 0.895795
O O2 0.319581 0.403716 0.799430
O O3 0.500000 0.285554 0.000000
O O4 0.527802 0.361921 0.196419
O O5 0.207913 0.884744 0.567859
O O6 0.175310 0.877208 0.702707
O O7 0.979829 0.828466 0.318100
O O8 0.050512 0.000000 0.434717
O O9 0.707708 0.857525 0.489914
O O10 0.822778 0.000000 0.611113
O O11 0.632609 0.778235 0.727601
O O12 0.423057 0.835753 0.536026
O O13 0.658818 0.818042 0.934889
O O14 0.616279 0.000000 0.459643
#
# Coordination Sequence:
#
# PCOD8093411 Si02
#       6
#     8   8   8   8   8   8
#     4  10  19  35  63  93 123 163 206 259 314 371
#     4  11  23  41  68  94 124 168 216 264 318 377
#     4   9  19  37  62  97 126 159 216 267 308 376
#     4  11  24  42  63  87 130 168 211 260 318 383
#     4  11  24  41  60  92 127 160 210 268 312 378
#     4  10  21  38  63  94 130 167 207 261 321 379
#
# _framework density 21.725615000000001
#
# number of rings (size 3 to 8) (size 9 to 14) (size 15 to 20)
#    0.000    1.667    3.333    1.000    0.000    6.000 
#    0.000    5.000    0.000    3.500    0.000    0.000 
#    0.000    0.000    0.000    0.000    0.000    0.000 
#
# Total GULP energy -297319.434451 kJ/mol
# GULP energy per Si atom -12388.309769 kJ/mol
# Density = 2.167617 g / cm^3
# Si number density = 21.725615 Si / 1000 Ang^3
#
#
#
# Elastic Constant Matrix: (Units=GPa)
#
#
# Indices 1 2 3 4 5 6 
#
# 1 144.7237 42.8017 41.8308 0.0000 6.8719 0.0000
# 2 42.8017 65.1021 29.9122 0.0000 3.3034 0.0000
# 3 41.8308 29.9122 85.6440 0.0000 1.6913 0.0000
# 4 0.0000 0.0000 0.0000 18.8737 0.0000 -4.9041
# 5 6.8719 3.3034 1.6913 0.0000 36.8305 0.0000
# 6 0.0000 0.0000 0.0000 -4.9041 0.0000 25.3948
#
#
#
# Elastic Compliance Matrix: (Units=1/GPa)
#
#
# Indices 1 2 3 4 5 6 
#
# 1 0.009161 -0.004668 -0.002821 0.000000 -0.001161 0.000000
# 2 -0.004668 0.020742 -0.004950 0.000000 -0.000762 0.000000
# 3 -0.002821 -0.004950 0.014777 0.000000 0.000292 0.000000
# 4 0.000000 0.000000 0.000000 0.055783 0.000000 0.010772
# 5 -0.001161 -0.000762 0.000292 0.000000 0.027423 0.000000
# 6 0.000000 0.000000 0.000000 0.010772 0.000000 0.041458
#
#
# Mechanical properties :
#
#
# Convention : Reuss Voigt Hill
#
# Bulk Modulus (GPa) = 50.49699 58.28433 54.39066
# Shear Modulus (GPa) = 24.89770 28.28150 26.58960
#
# Velocity S-wave (km/s) = 3.38894 3.61190 3.50220
# Velocity P-wave (km/s) = 6.21344 6.65433 6.43766
#
# Compressibility (1/GPa) = 0.01980316
#
# Stress axis : x y z
#
# Youngs Moduli (GPa) = 109.16181 48.21120 67.67217
#
# Poissons Ratio (x) = 0.22503 0.19092
# Poissons Ratio (y) = 0.50952 0.33495
# Poissons Ratio (z) = 0.30797 0.23862
#
# Static dielectric constant tensor:
#      x y z
#    x 4.401360 0.000000 -0.027110 
#    y 0.000000 3.508740 0.000000 
#    z -0.027110 0.000000 3.962830 
# 
# 
# High freq. dielectric constant tensor:
#      x y z
#    x 1.882760 0.000000 -0.006100 
#    y 0.000000 1.818980 0.000000 
#    z -0.006100 0.000000 1.838720 
# 
# From -- ./inp_files/240762.got.cif
#   From: 2010.06.25/outbox.cif.g09.slc.cpg/sg12_121_cif.got.tgz:240762.got - 2010.06.28 00:19:55.
