data_PCOD8093254
_publ_section_title
;
Structure prediction by ZEFSAII (Michael W. Deem and Ramdas Pophale) SiO2 
 PCOD8093254
Probable space group: C 2/M
;
_chemical_formula_sum "Si O2"
_cell_formula_units_Z 56
_cell_length_a 21.564860
_cell_length_b 15.019688
_cell_length_c 13.904693
_cell_angle_alpha 90.000000
_cell_angle_beta 39.648200
_cell_angle_gamma 90.000000
_cell_volume 2873.681401
_symmetry_space_group_name_H-M "C 2/M"
_symmetry_group_IT_number 12
_symmetry_cell_setting 'monoclinic'
loop_
_space_group_symop_operation_xyz
x,y,z
-x,y,-z
-x,-y,-z
x,-y,z
1/2+x,1/2+y,z
1/2-x,1/2+y,-z
1/2-x,1/2-y,-z
1/2+x,1/2-y,z
loop_
_atom_site_type_symbol
_atom_site_label
_atom_site_fract_x
_atom_site_fract_y
_atom_site_fract_z
Si Si1 0.000000 0.188451 0.000000
Si Si2 0.000000 0.322746 0.500000
Si Si3 0.147850 0.760802 0.977413
Si Si4 0.293132 0.102583 0.713438
Si Si5 0.149173 0.897063 0.500502
Si Si6 0.944727 0.822501 0.715235
Si Si7 0.828421 0.103246 0.319036
Si Si8 0.278141 0.396325 0.787818
O O1 0.934449 0.247034 0.006475
O O2 0.929666 0.129146 0.148942
O O3 0.907586 0.384862 0.589469
O O4 0.981142 0.263888 0.615739
O O5 0.232085 0.832857 0.855389
O O6 0.191648 0.662004 0.935530
O O7 0.105294 0.788217 0.129374
O O8 0.263431 0.125889 0.638697
O O9 0.265546 0.000000 0.769985
O O10 0.186761 0.852993 0.556344
O O11 0.201879 0.855898 0.343480
O O12 0.033957 0.885434 0.634175
O O13 0.174617 0.000000 0.464505
O O14 0.874425 0.883116 0.735327
O O15 0.838013 0.000000 0.328008
O O16 0.248392 0.500000 0.824292
#
# Coordination Sequence:
#
# PCOD8093254 Si02
#       8
#     4   4   8   8   8   8   8   8
#     4  10  19  36  59  84 120 148 192 244 300 352
#     4  12  23  40  59  86 122 156 197 238 287 354
#     4  11  23  41  60  91 116 155 197 245 295 350
#     4  10  22  40  62  88 121 156 194 240 294 354
#     4  10  19  35  60  89 117 149 195 247 301 346
#     4  12  21  38  60  85 120 152 197 248 291 351
#     4   9  18  34  58  89 118 150 192 242 298 348
#     4  11  23  40  60  84 120 158 199 245 290 345
#
# _framework density 19.487199
#
# number of rings (size 3 to 8) (size 9 to 14) (size 15 to 20)
#    0.000    1.429    4.286    1.286    0.000    2.857 
#    2.571    3.214    0.000    0.000    0.000    0.000 
#    0.000    0.000    0.000    0.000    0.000    0.000 
#
# Total GULP energy -347136.698774 kJ/mol
# GULP energy per Si atom -12397.739242 kJ/mol
# Density = 1.944284 g / cm^3
# Si number density = 19.487199 Si / 1000 Ang^3
#
#
#
# Elastic Constant Matrix: (Units=GPa)
#
#
# Indices 1 2 3 4 5 6 
#
# 1 83.9945 18.9860 26.2506 0.0000 -0.7385 0.0000
# 2 18.9860 59.8520 10.9520 0.0000 -1.8165 0.0000
# 3 26.2506 10.9520 58.0199 0.0000 7.3322 0.0000
# 4 0.0000 0.0000 0.0000 23.4103 0.0000 -7.3078
# 5 -0.7385 -1.8165 7.3322 0.0000 40.5278 0.0000
# 6 0.0000 0.0000 0.0000 -7.3078 0.0000 4.2639
#
#
#
# Elastic Compliance Matrix: (Units=1/GPa)
#
#
# Indices 1 2 3 4 5 6 
#
# 1 0.014612 -0.003481 -0.006108 0.000000 0.001215 0.000000
# 2 -0.003481 0.018213 -0.002004 0.000000 0.001115 0.000000
# 3 -0.006108 -0.002004 0.020880 0.000000 -0.003979 0.000000
# 4 0.000000 0.000000 0.000000 0.091864 0.000000 0.157443
# 5 0.001215 0.001115 -0.003979 0.000000 0.025466 0.000000
# 6 0.000000 0.000000 0.000000 0.157443 0.000000 0.504366
#
#
# Mechanical properties :
#
#
# Convention : Reuss Voigt Hill
#
# Bulk Modulus (GPa) = 32.76561 34.91595 33.84078
# Shear Modulus (GPa) = 7.05460 23.35226 15.20343
#
# Velocity S-wave (km/s) = 1.90472 3.46546 2.79619
# Velocity P-wave (km/s) = 4.65701 5.82828 5.27525
#
# Compressibility (1/GPa) = 0.03051980
#
# Stress axis : x y z
#
# Youngs Moduli (GPa) = 68.43805 54.90719 47.89313
#
# Poissons Ratio (x) = 0.19111 0.29251
# Poissons Ratio (y) = 0.23821 0.09598
# Poissons Ratio (z) = 0.41799 0.11004
#
# Static dielectric constant tensor:
#      x y z
#    x 3.910140 0.000000 0.222190 
#    y 0.000000 3.330240 0.000000 
#    z 0.222190 0.000000 3.694610 
# 
# 
# High freq. dielectric constant tensor:
#      x y z
#    x 1.775230 0.000000 0.012510 
#    y 0.000000 1.744350 0.000000 
#    z 0.012510 0.000000 1.755770 
# 
# From -- ./inp_files/240431.got.cif
#   From: 2010.06.25/outbox.cif.g09.slc.cpg/sg12_121_cif.got.tgz:240431.got - 2010.06.28 00:19:55.
