data_PCOD8093765
_publ_section_title
;
Structure prediction by ZEFSAII (Michael W. Deem and Ramdas Pophale) SiO2 
 PCOD8093765
Probable space group: C 2/M
;
_chemical_formula_sum "Si O2"
_cell_formula_units_Z 56
_cell_length_a 27.552178
_cell_length_b 15.791227
_cell_length_c 9.296947
_cell_angle_alpha 90.000000
_cell_angle_beta 43.963595
_cell_angle_gamma 90.000000
_cell_volume 2808.002623
_symmetry_space_group_name_H-M "C 2/M"
_symmetry_group_IT_number 12
_symmetry_cell_setting 'monoclinic'
loop_
_space_group_symop_operation_xyz
x,y,z
-x,y,-z
-x,-y,-z
x,-y,z
1/2+x,1/2+y,z
1/2-x,1/2+y,-z
1/2-x,1/2-y,-z
1/2+x,1/2-y,z
loop_
_atom_site_type_symbol
_atom_site_label
_atom_site_fract_x
_atom_site_fract_y
_atom_site_fract_z
Si Si1 0.324949 0.313085 0.652661
Si Si2 0.424012 0.401034 0.913540
Si Si3 0.454938 0.902982 0.238967
Si Si4 0.476253 0.253207 0.389706
Si Si5 0.795501 0.353566 0.574165
Si Si6 0.820276 0.096807 0.379622
Si Si7 0.703644 0.407350 0.016608
O O1 0.395439 0.275114 0.564949
O O2 0.283770 0.241594 0.654517
O O3 0.337348 0.387038 0.509765
O O4 0.280031 0.345128 0.884894
O O5 0.449750 0.500000 0.857112
O O6 0.486630 0.334757 0.760961
O O7 0.369786 0.384045 0.900718
O O8 0.387912 0.376920 0.141878
O O9 0.487787 0.835292 0.280269
O O10 0.374966 0.879097 0.371940
O O11 0.458797 0.000000 0.290571
O O12 0.500000 0.895368 0.000000
O O13 0.500000 0.236128 0.500000
O O14 0.750557 0.358104 0.524181
O O15 0.764993 0.410849 0.767870
O O16 0.804572 0.000000 0.385341
O O17 0.697752 0.500000 0.097948
#
# Coordination Sequence:
#
# PCOD8093765 Si02
#       7
#     8   8   8   8   8   8   8
#     4  11  22  35  57  91 118 155 199 248 287 354
#     4   9  20  36  58  85 122 166 196 237 299 363
#     4  10  23  43  67  90 115 156 207 255 304 354
#     4  11  23  39  59  88 127 164 199 247 295 355
#     4  10  21  39  62  84 118 157 192 245 307 355
#     4  10  21  38  59  86 119 154 199 246 299 359
#     4  10  19  36  59  84 120 157 194 237 291 360
#
# _framework density 19.943000000000001
#
# number of rings (size 3 to 8) (size 9 to 14) (size 15 to 20)
#    0.000    1.857    1.429    3.429    4.000    1.714 
#    0.000    1.429    0.000    3.429    0.000    0.000 
#    0.000    0.000    0.000    0.000    0.000    0.000 
#
# Total GULP energy -347088.124861 kJ/mol
# GULP energy per Si atom -12396.004459 kJ/mol
# Density = 1.989761 g / cm^3
# Si number density = 19.943000 Si / 1000 Ang^3
#
#
#
# Elastic Constant Matrix: (Units=GPa)
#
#
# Indices 1 2 3 4 5 6 
#
# 1 62.9984 29.7054 24.1006 0.0000 14.1627 0.0000
# 2 29.7054 89.5711 36.0971 0.0000 -2.4035 0.0000
# 3 24.1006 36.0971 67.0395 0.0000 17.3967 0.0000
# 4 0.0000 0.0000 0.0000 32.4072 0.0000 4.2386
# 5 14.1627 -2.4035 17.3967 0.0000 25.9177 0.0000
# 6 0.0000 0.0000 0.0000 4.2386 0.0000 29.1318
#
#
#
# Elastic Compliance Matrix: (Units=1/GPa)
#
#
# Indices 1 2 3 4 5 6 
#
# 1 0.022506 -0.007451 -0.000857 0.000000 -0.012414 0.000000
# 2 -0.007451 0.018175 -0.010416 0.000000 0.012749 0.000000
# 3 -0.000857 -0.010416 0.025384 0.000000 -0.017536 0.000000
# 4 0.000000 0.000000 0.000000 0.031456 0.000000 -0.004577
# 5 -0.012414 0.012749 -0.017536 0.000000 0.058320 0.000000
# 6 0.000000 0.000000 0.000000 -0.004577 0.000000 0.034993
#
#
# Mechanical properties :
#
#
# Convention : Reuss Voigt Hill
#
# Bulk Modulus (GPa) = 34.94610 44.37948 39.66279
# Shear Modulus (GPa) = 21.02427 26.13841 23.58134
#
# Velocity S-wave (km/s) = 3.25039 3.62423 3.44239
# Velocity P-wave (km/s) = 5.62564 6.30990 5.97757
#
# Compressibility (1/GPa) = 0.02861550
#
# Stress axis : x y z
#
# Youngs Moduli (GPa) = 44.43332 55.01996 39.39546
#
# Poissons Ratio (x) = 0.40998 0.03377
# Poissons Ratio (y) = 0.33109 0.41034
# Poissons Ratio (z) = 0.03809 0.57308
#
# Static dielectric constant tensor:
#      x y z
#    x 3.460380 0.000000 0.080640 
#    y 0.000000 3.908840 0.000000 
#    z 0.080640 0.000000 3.681990 
# 
# 
# High freq. dielectric constant tensor:
#      x y z
#    x 1.765560 0.000000 0.006250 
#    y 0.000000 1.791930 0.000000 
#    z 0.006250 0.000000 1.777140 
# 
# From -- ./inp_files/111556.got.cif
#   From: 2010.06.25/outbox.cif.g09.slc.cpg/sg12_56_cif.got.tgz:111556.got - 2010.06.28 00:19:55.
