data_PCOD8093321
_publ_section_title
;
Structure prediction by ZEFSAII (Michael W. Deem and Ramdas Pophale) SiO2 
 PCOD8093321
Probable space group: C 2/M
;
_chemical_formula_sum "Si O2"
_cell_formula_units_Z 56
_cell_length_a 18.635242
_cell_length_b 8.526951
_cell_length_c 18.595603
_cell_angle_alpha 90.000000
_cell_angle_beta 68.299386
_cell_angle_gamma 90.000000
_cell_volume 2745.458623
_symmetry_space_group_name_H-M "C 2/M"
_symmetry_group_IT_number 12
_symmetry_cell_setting 'monoclinic'
loop_
_space_group_symop_operation_xyz
x,y,z
-x,y,-z
-x,-y,-z
x,-y,z
1/2+x,1/2+y,z
1/2-x,1/2+y,-z
1/2-x,1/2-y,-z
1/2+x,1/2-y,z
loop_
_atom_site_type_symbol
_atom_site_label
_atom_site_fract_x
_atom_site_fract_y
_atom_site_fract_z
Si Si1 0.064243 0.816313 0.288111
Si Si2 0.198344 0.819419 0.457443
Si Si3 0.172190 0.186329 0.994007
Si Si4 0.716030 0.183608 0.295096
Si Si5 0.636585 0.314495 0.848154
Si Si6 0.971088 0.813737 0.859510
Si Si7 0.953206 0.327155 0.445054
O O1 0.152640 0.779682 0.274233
O O2 0.045840 0.757316 0.214914
O O3 0.007914 0.722327 0.360407
O O4 0.049203 0.000000 0.303070
O O5 0.250000 0.750000 0.500000
O O6 0.212336 0.720916 0.380445
O O7 0.111828 0.802624 0.518699
O O8 0.216883 0.000000 0.435176
O O9 0.097946 0.250142 0.065002
O O10 0.175702 0.000000 0.994872
O O11 0.250000 0.250000 0.000000
O O12 0.163069 0.250114 0.916056
O O13 0.799827 0.234625 0.234438
O O14 0.700657 0.000000 0.289097
O O15 0.628896 0.500000 0.855443
O O16 0.553289 0.243949 0.855994
O O17 0.973524 0.000000 0.862175
O O18 0.918248 0.500000 0.440503
O O19 0.000000 0.338660 0.500000
#
# Coordination Sequence:
#
# PCOD8093321 Si02
#       7
#     8   8   8   8   8   8   8
#     4  11  22  36  59  87 118 157 200 249 304 359
#     4  12  26  43  64  89 121 158 201 248 303 362
#     4  10  19  35  61  88 118 154 195 240 291 351
#     4  11  22  38  59  85 119 157 200 250 299 356
#     4   9  19  35  58  86 116 155 200 245 293 347
#     4   9  19  35  57  88 118 151 198 248 292 349
#     4  11  23  41  64  89 119 156 202 252 302 355
#
# _framework density 20.397321000000002
#
# number of rings (size 3 to 8) (size 9 to 14) (size 15 to 20)
#    0.000    1.571    1.429    3.857    2.000    2.286 
#    0.000    1.429    0.000    5.143    0.000    0.000 
#    0.000    0.000    0.000    0.000    0.000    0.000 
#
# Total GULP energy -347251.958124 kJ/mol
# GULP energy per Si atom -12401.855647 kJ/mol
# Density = 2.035090 g / cm^3
# Si number density = 20.397321 Si / 1000 Ang^3
#
#
#
# Elastic Constant Matrix: (Units=GPa)
#
#
# Indices 1 2 3 4 5 6 
#
# 1 159.9718 10.8579 81.3494 0.0000 3.2403 0.0000
# 2 10.8579 46.4895 19.2273 0.0000 2.1404 0.0000
# 3 81.3494 19.2273 128.5480 0.0000 -4.7701 0.0000
# 4 0.0000 0.0000 0.0000 45.4861 0.0000 -1.5899
# 5 3.2403 2.1404 -4.7701 0.0000 44.2691 0.0000
# 6 0.0000 0.0000 0.0000 -1.5899 0.0000 32.1175
#
#
#
# Elastic Compliance Matrix: (Units=1/GPa)
#
#
# Indices 1 2 3 4 5 6 
#
# 1 0.009299 0.000367 -0.005990 0.000000 -0.001344 0.000000
# 2 0.000367 0.023041 -0.003736 0.000000 -0.001543 0.000000
# 3 -0.005990 -0.003736 0.012200 0.000000 0.001934 0.000000
# 4 0.000000 0.000000 0.000000 0.022023 0.000000 0.001090
# 5 -0.001344 -0.001543 0.001934 0.000000 0.022970 0.000000
# 6 0.000000 0.000000 0.000000 0.001090 0.000000 0.031190
#
#
# Mechanical properties :
#
#
# Convention : Reuss Voigt Hill
#
# Bulk Modulus (GPa) = 38.72464 61.98651 50.35557
# Shear Modulus (GPa) = 33.77291 39.27952 36.52621
#
# Velocity S-wave (km/s) = 4.07351 4.39306 4.23630
# Velocity P-wave (km/s) = 6.41490 7.49583 6.97634
#
# Compressibility (1/GPa) = 0.02582335
#
# Stress axis : x y z
#
# Youngs Moduli (GPa) = 107.53505 43.40156 81.96575
#
# Poissons Ratio (x) = -0.01594 0.49095
# Poissons Ratio (y) = -0.03949 0.30622
# Poissons Ratio (z) = 0.64410 0.16214
#
# Static dielectric constant tensor:
#      x y z
#    x 3.930540 0.000000 0.039980 
#    y 0.000000 3.731910 0.000000 
#    z 0.039980 0.000000 3.877830 
# 
# 
# High freq. dielectric constant tensor:
#      x y z
#    x 1.809890 0.000000 -0.001050 
#    y 0.000000 1.772070 0.000000 
#    z -0.001050 0.000000 1.813830 
# 
# From -- ./inp_files/275193.got.cif
#   From: 2010.06.25/outbox.cif.g09.slc.cpg/sg12_138_cif.got.tgz:275193.got - 2010.06.28 00:19:55.
