data_PCOD8093550
_publ_section_title
;
Structure prediction by ZEFSAII (Michael W. Deem and Ramdas Pophale) SiO2 
 PCOD8093550
Probable space group: C 2/M
;
_chemical_formula_sum "Si O2"
_cell_formula_units_Z 56
_cell_length_a 18.616901
_cell_length_b 11.100676
_cell_length_c 17.582770
_cell_angle_alpha 90.000000
_cell_angle_beta 55.958941
_cell_angle_gamma 90.000000
_cell_volume 3010.982565
_symmetry_space_group_name_H-M "C 2/M"
_symmetry_group_IT_number 12
_symmetry_cell_setting 'monoclinic'
loop_
_space_group_symop_operation_xyz
x,y,z
-x,y,-z
-x,-y,-z
x,-y,z
1/2+x,1/2+y,z
1/2-x,1/2+y,-z
1/2-x,1/2-y,-z
1/2+x,1/2-y,z
loop_
_atom_site_type_symbol
_atom_site_label
_atom_site_fract_x
_atom_site_fract_y
_atom_site_fract_z
Si Si1 0.370337 0.000000 0.551807
Si Si2 0.404014 0.359547 0.023824
Si Si3 0.220203 0.357901 0.863840
Si Si4 0.485899 0.748992 0.669369
Si Si5 0.958198 0.500000 0.646334
Si Si6 0.171658 0.745421 0.489821
Si Si7 0.154200 0.134634 0.346396
Si Si8 0.884574 0.860734 0.860215
O O1 0.373391 0.000000 0.642299
O O2 0.463940 0.000000 0.459127
O O3 0.319764 0.883112 0.555024
O O4 0.368950 0.500000 0.056454
O O5 0.351884 0.248481 0.093165
O O6 0.500000 0.353568 0.000000
O O7 0.403221 0.324985 0.935420
O O8 0.188336 0.500000 0.894945
O O9 0.262271 0.345766 0.755974
O O10 0.290256 0.317343 0.886568
O O11 0.463743 0.887726 0.699197
O O12 0.585263 0.728874 0.589092
O O13 0.427292 0.714430 0.631290
O O14 0.463287 0.684549 0.761180
O O15 0.250000 0.750000 0.500000
O O16 0.180351 0.843078 0.417946
O O17 0.120079 0.000000 0.357879
O O18 0.885635 0.000000 0.846443
#
# Coordination Sequence:
#
# PCOD8093550 Si02
#       8
#     4   8   8   8   4   8   8   8
#     4   9  18  36  50  72 105 142 180 232 279 312
#     4  10  21  38  60  86 119 149 178 224 281 338
#     4   9  19  38  60  82 113 145 185 235 278 325
#     4  10  19  36  57  79 107 144 188 230 273 328
#     4   9  16  32  58  72 101 140 180 234 277 310
#     4  11  23  35  53  78 113 151 186 226 275 331
#     4  10  21  37  57  81 108 143 186 234 276 317
#     4   9  19  37  59  83 112 142 180 235 279 319
#
# _framework density 18.598579000000001
#
# number of rings (size 3 to 8) (size 9 to 14) (size 15 to 20)
#    0.000    2.286    1.429    2.143    1.000    3.143 
#    7.714    0.000    0.000    0.000    0.000    0.000 
#    0.000    0.000    0.000    0.000    0.000    0.000 
#
# Total GULP energy -346922.989387 kJ/mol
# GULP energy per Si atom -12390.106764 kJ/mol
# Density = 1.855625 g / cm^3
# Si number density = 18.598579 Si / 1000 Ang^3
#
#
#
# Elastic Constant Matrix: (Units=GPa)
#
#
# Indices 1 2 3 4 5 6 
#
# 1 102.5316 34.9968 42.7015 0.0000 -1.7026 0.0000
# 2 34.9968 65.0133 31.9978 0.0000 -14.8602 0.0000
# 3 42.7015 31.9978 59.7872 0.0000 -6.3566 0.0000
# 4 0.0000 0.0000 0.0000 34.4586 0.0000 -0.1705
# 5 -1.7026 -14.8602 -6.3566 0.0000 17.7379 0.0000
# 6 0.0000 0.0000 0.0000 -0.1705 0.0000 30.5509
#
#
#
# Elastic Compliance Matrix: (Units=1/GPa)
#
#
# Indices 1 2 3 4 5 6 
#
# 1 0.015004 -0.005244 -0.008549 0.000000 -0.006017 0.000000
# 2 -0.005244 0.026713 -0.008551 0.000000 0.018811 0.000000
# 3 -0.008549 -0.008551 0.027611 0.000000 0.001911 0.000000
# 4 0.000000 0.000000 0.000000 0.029021 0.000000 0.000162
# 5 -0.006017 0.018811 0.001911 0.000000 0.072243 0.000000
# 6 0.000000 0.000000 0.000000 0.000162 0.000000 0.032733
#
#
# Mechanical properties :
#
#
# Convention : Reuss Voigt Hill
#
# Bulk Modulus (GPa) = 40.58528 49.63604 45.11066
# Shear Modulus (GPa) = 19.51397 24.39186 21.95291
#
# Velocity S-wave (km/s) = 3.24268 3.62538 3.43936
# Velocity P-wave (km/s) = 5.99074 6.65361 6.33086
#
# Compressibility (1/GPa) = 0.02463948
#
# Stress axis : x y z
#
# Youngs Moduli (GPa) = 66.65081 37.43538 36.21686
#
# Poissons Ratio (x) = 0.19632 0.30962
# Poissons Ratio (y) = 0.34953 0.30969
# Poissons Ratio (z) = 0.56980 0.32011
#
# Static dielectric constant tensor:
#      x y z
#    x 3.657210 0.000000 -0.071020 
#    y 0.000000 5.117570 0.000000 
#    z -0.071020 0.000000 3.588740 
# 
# 
# High freq. dielectric constant tensor:
#      x y z
#    x 1.706130 0.000000 0.011170 
#    y 0.000000 1.738330 0.000000 
#    z 0.011170 0.000000 1.708960 
# 
# From -- ./inp_files/223763.got.cif
#   From: 2010.06.25/outbox.cif.g09.slc.cpg/sg12_112_cif.got.tgz:223763.got - 2010.06.28 00:19:55.
