data_PCOD8093628
_publ_section_title
;
Structure prediction by ZEFSAII (Michael W. Deem and Ramdas Pophale) SiO2 
 PCOD8093628
Probable space group: C 2/M
;
_chemical_formula_sum "Si O2"
_cell_formula_units_Z 56
_cell_length_a 32.307660
_cell_length_b 8.553033
_cell_length_c 20.452639
_cell_angle_alpha 90.000000
_cell_angle_beta 29.942762
_cell_angle_gamma 90.000000
_cell_volume 2820.932402
_symmetry_space_group_name_H-M "C 2/M"
_symmetry_group_IT_number 12
_symmetry_cell_setting 'monoclinic'
loop_
_space_group_symop_operation_xyz
x,y,z
-x,y,-z
-x,-y,-z
x,-y,z
1/2+x,1/2+y,z
1/2-x,1/2+y,-z
1/2-x,1/2-y,-z
1/2+x,1/2-y,z
loop_
_atom_site_type_symbol
_atom_site_label
_atom_site_fract_x
_atom_site_fract_y
_atom_site_fract_z
Si Si1 0.095634 0.814406 0.052992
Si Si2 0.423944 0.316426 0.651536
Si Si3 0.490047 0.314173 0.699476
Si Si4 0.708247 0.683411 0.621068
Si Si5 0.676161 0.316848 0.428999
Si Si6 0.780471 0.316912 0.768144
Si Si7 0.975616 0.813473 0.104386
O O1 0.059838 0.746424 0.170114
O O2 0.040801 0.748261 0.068231
O O3 0.089480 0.000000 0.063166
O O4 0.189930 0.759737 0.914954
O O5 0.500000 0.276977 0.500000
O O6 0.403339 0.500000 0.678190
O O7 0.446383 0.255120 0.693087
O O8 0.343586 0.219157 0.740227
O O9 0.490908 0.500000 0.697639
O O10 0.584774 0.254636 0.572884
O O11 0.704649 0.500000 0.618871
O O12 0.750000 0.750000 0.500000
O O13 0.757352 0.726168 0.619001
O O14 0.615290 0.750846 0.753269
O O15 0.684318 0.500000 0.431658
O O16 0.692621 0.283383 0.330876
O O17 0.780467 0.500000 0.750674
O O18 0.976753 0.000000 0.101974
O O19 0.000000 0.747150 0.000000
#
# Coordination Sequence:
#
# PCOD8093628 Si02
#       7
#     8   8   8   8   8   8   8
#     4   9  18  33  53  80 110 144 186 229 276 333
#     4  10  19  36  58  81 108 146 191 229 271 332
#     4   9  18  34  57  79 105 147 194 230 267 332
#     4  11  22  36  57  86 115 146 187 237 286 331
#     4  11  21  37  60  83 109 148 193 232 275 330
#     4  11  22  35  56  86 115 140 177 232 286 333
#     4   9  17  32  55  79 107 146 192 233 270 327
#
# _framework density 19.851593000000001
#
# number of rings (size 3 to 8) (size 9 to 14) (size 15 to 20)
#    0.000    2.000    1.429    3.000    0.000    5.429 
#    0.000    0.000    0.000   18.857    0.000    0.000 
#    0.000    0.000    0.000    0.000    0.000    0.000 
#
# Total GULP energy -347273.367918 kJ/mol
# GULP energy per Si atom -12402.620283 kJ/mol
# Density = 1.980641 g / cm^3
# Si number density = 19.851593 Si / 1000 Ang^3
#
#
#
# Elastic Constant Matrix: (Units=GPa)
#
#
# Indices 1 2 3 4 5 6 
#
# 1 154.0404 10.2974 77.4471 -0.0144 -5.5360 0.0062
# 2 10.2974 24.7635 22.6454 0.0025 -2.7807 0.0076
# 3 77.4471 22.6454 178.6608 -0.0310 -4.9104 0.0101
# 4 -0.0144 0.0025 -0.0310 22.0529 0.0022 -4.7853
# 5 -5.5360 -2.7807 -4.9104 0.0022 45.6547 0.0007
# 6 0.0062 0.0076 0.0101 -4.7853 0.0007 27.0308
#
#
#
# Elastic Compliance Matrix: (Units=1/GPa)
#
#
# Indices 1 2 3 4 5 6 
#
# 1 0.008319 -0.000122 -0.003574 0.000000 0.000617 -0.000001
# 2 -0.000122 0.045893 -0.005705 -0.000016 0.002167 -0.000014
# 3 -0.003574 -0.005705 0.007871 0.000010 0.000066 0.000001
# 4 0.000000 -0.000016 0.000010 0.047157 -0.000002 0.008348
# 5 0.000617 0.002167 0.000066 -0.000002 0.022117 -0.000002
# 6 -0.000001 -0.000014 0.000001 0.008348 -0.000002 0.038473
#
#
# Mechanical properties :
#
#
# Convention : Reuss Voigt Hill
#
# Bulk Modulus (GPa) = 23.10403 64.24939 43.67671
# Shear Modulus (GPa) = 24.62353 35.41935 30.02144
#
# Velocity S-wave (km/s) = 3.52572 4.22857 3.89304
# Velocity P-wave (km/s) = 5.31394 7.50175 6.50054
#
# Compressibility (1/GPa) = 0.04328250
#
# Stress axis : x y z
#
# Youngs Moduli (GPa) = 120.20835 21.78995 127.04497
#
# Poissons Ratio (x) = 0.00266 0.45402
# Poissons Ratio (y) = 0.01465 0.72473
# Poissons Ratio (z) = 0.42959 0.12430
#
# Static dielectric constant tensor:
#      x y z
#    x 3.827050 -0.000040 0.078400 
#    y -0.000040 3.191230 0.000070 
#    z 0.078400 0.000070 3.767360 
# 
# 
# High freq. dielectric constant tensor:
#      x y z
#    x 1.791130 0.000000 -0.002490 
#    y 0.000000 1.731170 0.000000 
#    z -0.002490 0.000000 1.786970 
# 
# From -- ./inp_files/281008.got.cif
#   From: 2010.06.25/outbox.cif.g09.slc.cpg/sg12_141_cif.got.tgz:281008.got - 2010.06.28 00:19:55.
