data_PCOD8093380
_publ_section_title
;
Structure prediction by ZEFSAII (Michael W. Deem and Ramdas Pophale) SiO2 
 PCOD8093380
Probable space group: C 2/M
;
_chemical_formula_sum "Si O2"
_cell_formula_units_Z 56
_cell_length_a 27.127466
_cell_length_b 8.856144
_cell_length_c 12.537889
_cell_angle_alpha 90.000000
_cell_angle_beta 66.846437
_cell_angle_gamma 90.000000
_cell_volume 2769.545313
_symmetry_space_group_name_H-M "C 2/M"
_symmetry_group_IT_number 12
_symmetry_cell_setting 'monoclinic'
loop_
_space_group_symop_operation_xyz
x,y,z
-x,y,-z
-x,-y,-z
x,-y,z
1/2+x,1/2+y,z
1/2-x,1/2+y,-z
1/2-x,1/2-y,-z
1/2+x,1/2-y,z
loop_
_atom_site_type_symbol
_atom_site_label
_atom_site_fract_x
_atom_site_fract_y
_atom_site_fract_z
Si Si1 0.695979 0.174675 0.583279
Si Si2 0.149817 0.325258 0.843593
Si Si3 0.462885 0.170649 0.133090
Si Si4 0.192580 0.320763 0.029757
Si Si5 0.110881 0.321961 0.284086
Si Si6 0.997807 0.174685 0.693310
Si Si7 0.112348 0.175446 0.503671
O O1 0.750000 0.250000 0.500000
O O2 0.693033 0.199133 0.713185
O O3 0.644232 0.247299 0.572514
O O4 0.697026 0.000000 0.551725
O O5 0.138284 0.500000 0.875913
O O6 0.093463 0.254142 0.853892
O O7 0.170987 0.253480 0.935654
O O8 0.489629 0.277220 0.197387
O O9 0.455145 0.000000 0.185868
O O10 0.500000 0.165358 0.000000
O O11 0.198741 0.500000 0.020265
O O12 0.151251 0.269972 0.156570
O O13 0.250000 0.250000 0.000000
O O14 0.112108 0.500000 0.298124
O O15 0.130762 0.245372 0.376026
O O16 0.050749 0.272879 0.309236
O O17 0.049181 0.203240 0.574546
O O18 0.980946 0.000000 0.705718
O O19 0.126902 0.000000 0.491109
#
# Coordination Sequence:
#
# PCOD8093380 Si02
#       7
#     8   8   8   8   8   8   8
#     4  11  23  40  64  93 124 162 206 254 309 369
#     4   9  19  38  62  88 120 157 198 244 302 363
#     4  10  19  35  62  90 120 161 204 250 302 366
#     4  10  23  43  64  91 122 159 205 254 306 365
#     4  11  24  41  64  92 125 165 211 258 305 370
#     4  11  23  39  60  91 128 163 202 254 313 371
#     4  11  24  42  63  91 128 166 206 257 313 370
#
# _framework density 20.219926000000001
#
# number of rings (size 3 to 8) (size 9 to 14) (size 15 to 20)
#    0.000    1.571    1.429    3.000    2.000    7.143 
#    0.000    1.429    0.000    0.000    0.000    0.000 
#    0.000    0.000    0.000    0.000    0.000    0.000 
#
# Total GULP energy -347303.442349 kJ/mol
# GULP energy per Si atom -12403.694370 kJ/mol
# Density = 2.017390 g / cm^3
# Si number density = 20.219926 Si / 1000 Ang^3
#
#
#
# Elastic Constant Matrix: (Units=GPa)
#
#
# Indices 1 2 3 4 5 6 
#
# 1 89.6811 32.3769 38.9158 0.0000 0.6254 0.0000
# 2 32.3769 80.3959 50.7709 0.0000 -5.3160 0.0000
# 3 38.9158 50.7709 128.4498 0.0000 7.8012 0.0000
# 4 0.0000 0.0000 0.0000 26.9183 0.0000 -0.5626
# 5 0.6254 -5.3160 7.8012 0.0000 39.4491 0.0000
# 6 0.0000 0.0000 0.0000 -0.5626 0.0000 35.9232
#
#
#
# Elastic Compliance Matrix: (Units=1/GPa)
#
#
# Indices 1 2 3 4 5 6 
#
# 1 0.013681 -0.003886 -0.002595 0.000000 -0.000227 0.000000
# 2 -0.003886 0.018192 -0.006241 0.000000 0.003747 0.000000
# 3 -0.002595 -0.006241 0.011222 0.000000 -0.003019 0.000000
# 4 0.000000 0.000000 0.000000 0.037162 0.000000 0.000582
# 5 -0.000227 0.003747 -0.003019 0.000000 0.026455 0.000000
# 6 0.000000 0.000000 0.000000 0.000582 0.000000 0.027846
#
#
# Mechanical properties :
#
#
# Convention : Reuss Voigt Hill
#
# Bulk Modulus (GPa) = 56.65374 60.29488 58.47431
# Shear Modulus (GPa) = 30.14126 32.22234 31.18180
#
# Velocity S-wave (km/s) = 3.86511 3.99631 3.93126
# Velocity P-wave (km/s) = 6.92808 7.15390 7.04190
#
# Compressibility (1/GPa) = 0.01765108
#
# Stress axis : x y z
#
# Youngs Moduli (GPa) = 73.09287 54.96810 89.11402
#
# Poissons Ratio (x) = 0.21359 0.23127
# Poissons Ratio (y) = 0.28402 0.55616
# Poissons Ratio (z) = 0.18969 0.34306
#
# Static dielectric constant tensor:
#      x y z
#    x 3.705580 0.000000 0.085140 
#    y 0.000000 3.669970 0.000000 
#    z 0.085140 0.000000 3.884550 
# 
# 
# High freq. dielectric constant tensor:
#      x y z
#    x 1.797670 0.000000 0.001520 
#    y 0.000000 1.776340 0.000000 
#    z 0.001520 0.000000 1.805430 
# 
# From -- ./inp_files/180797.got.cif
#   From: 2010.06.25/outbox.cif.g09.slc.cpg/sg12_91_cif.got.tgz:180797.got - 2010.06.28 00:19:55.
