data_PCOD8093776
_publ_section_title
;
Structure prediction by ZEFSAII (Michael W. Deem and Ramdas Pophale) SiO2 
 PCOD8093776
Probable space group: C 2/M
;
_chemical_formula_sum "Si O2"
_cell_formula_units_Z 64
_cell_length_a 12.657889
_cell_length_b 19.181533
_cell_length_c 14.019043
_cell_angle_alpha 90.000000
_cell_angle_beta 88.822482
_cell_angle_gamma 90.000000
_cell_volume 3403.072816
_symmetry_space_group_name_H-M "C 2/M"
_symmetry_group_IT_number 12
_symmetry_cell_setting 'monoclinic'
loop_
_space_group_symop_operation_xyz
x,y,z
-x,y,-z
-x,-y,-z
x,-y,z
1/2+x,1/2+y,z
1/2-x,1/2+y,-z
1/2-x,1/2-y,-z
1/2+x,1/2-y,z
loop_
_atom_site_type_symbol
_atom_site_label
_atom_site_fract_x
_atom_site_fract_y
_atom_site_fract_z
Si Si1 0.076862 0.668288 0.414793
Si Si2 0.724629 0.417442 0.583258
Si Si3 0.581190 0.652610 0.223858
Si Si4 0.786818 0.335278 0.899600
Si Si5 0.107852 0.823514 0.442081
Si Si6 0.508383 0.806457 0.209291
Si Si7 0.787152 0.321633 0.116919
Si Si8 0.126124 0.079919 0.782556
O O1 0.156305 0.604807 0.394296
O O2 0.137155 0.741035 0.439956
O O3 0.000000 0.644796 0.500000
O O4 0.007032 0.678919 0.321723
O O5 0.716685 0.500000 0.561235
O O6 0.694345 0.371357 0.492116
O O7 0.653399 0.394657 0.674742
O O8 0.600347 0.648628 0.335665
O O9 0.528211 0.724822 0.190574
O O10 0.692279 0.636543 0.170027
O O11 0.497178 0.593872 0.195092
O O12 0.745129 0.258329 0.881798
O O13 0.698034 0.385275 0.860710
O O14 0.898111 0.348801 0.844836
O O15 0.802575 0.351021 0.010692
O O16 0.000000 0.835117 0.500000
O O17 0.396252 0.831436 0.171232
O O18 0.152353 0.000000 0.790991
#
# Coordination Sequence:
#
# PCOD8093776 Si02
#       8
#     8   8   8   8   8   8   8   8
#     4  10  22  35  58  89 114 150 193 243 297 342
#     4  11  23  38  58  82 116 162 201 235 285 356
#     4  10  21  35  56  89 119 150 192 240 295 344
#     4  10  20  37  58  88 115 149 199 238 294 350
#     4  10  20  35  57  85 116 149 187 243 289 347
#     4  10  19  36  59  86 121 148 185 248 295 350
#     4  10  21  34  61  88 117 147 187 255 299 339
#     4  11  22  39  61  82 120 160 198 237 281 359
#
# _framework density 18.806533000000002
#
# number of rings (size 3 to 8) (size 9 to 14) (size 15 to 20)
#    0.000    1.750    3.750    0.750    1.750    1.500 
#    0.000    1.250    0.000    3.000    0.000    0.000 
#    0.000    0.000    0.000    0.000    0.000    0.000 
#
# Total GULP energy -396826.826770 kJ/mol
# GULP energy per Si atom -12400.838337 kJ/mol
# Density = 1.876373 g / cm^3
# Si number density = 18.806533 Si / 1000 Ang^3
#
#
#
# Elastic Constant Matrix: (Units=GPa)
#
#
# Indices 1 2 3 4 5 6 
#
# 1 120.6793 25.9903 58.3094 0.0000 1.3040 0.0000
# 2 25.9903 42.2732 32.4650 0.0000 7.0806 0.0000
# 3 58.3094 32.4650 117.4702 0.0000 -4.3215 0.0000
# 4 0.0000 0.0000 0.0000 15.2252 0.0000 -2.1474
# 5 1.3040 7.0806 -4.3215 0.0000 33.8294 0.0000
# 6 0.0000 0.0000 0.0000 -2.1474 0.0000 13.8555
#
#
#
# Elastic Compliance Matrix: (Units=1/GPa)
#
#
# Indices 1 2 3 4 5 6 
#
# 1 0.011264 -0.003252 -0.004706 0.000000 -0.000355 0.000000
# 2 -0.003252 0.032921 -0.007769 0.000000 -0.007758 0.000000
# 3 -0.004706 -0.007769 0.013124 0.000000 0.003484 0.000000
# 4 0.000000 0.000000 0.000000 0.067148 0.000000 0.010407
# 5 -0.000355 -0.007758 0.003484 0.000000 0.031642 0.000000
# 6 0.000000 0.000000 0.000000 0.010407 0.000000 0.073786
#
#
# Mechanical properties :
#
#
# Convention : Reuss Voigt Hill
#
# Bulk Modulus (GPa) = 38.67720 57.10579 47.89150
# Shear Modulus (GPa) = 18.52128 23.49257 21.00692
#
# Velocity S-wave (km/s) = 3.14161 3.53820 3.34578
# Velocity P-wave (km/s) = 5.81120 6.86459 6.35974
#
# Compressibility (1/GPa) = 0.02585502
#
# Stress axis : x y z
#
# Youngs Moduli (GPa) = 88.77604 30.37536 76.19682
#
# Poissons Ratio (x) = 0.09879 0.35855
# Poissons Ratio (y) = 0.28873 0.59201
# Poissons Ratio (z) = 0.41774 0.23600
#
# Static dielectric constant tensor:
#      x y z
#    x 3.443090 0.000000 -0.109920 
#    y 0.000000 3.156300 0.000000 
#    z -0.109920 0.000000 3.573030 
# 
# 
# High freq. dielectric constant tensor:
#      x y z
#    x 1.735370 0.000000 -0.001000 
#    y 0.000000 1.695220 0.000000 
#    z -0.001000 0.000000 1.740830 
# 
# From -- ./inp_files/184686.got.cif
#   From: 2010.06.25/outbox.cif.g09.slc.cpg/sg12_93_cif.got.tgz:184686.got - 2010.06.28 00:19:55.
