data_PCOD8093648
_publ_section_title
;
Structure prediction by ZEFSAII (Michael W. Deem and Ramdas Pophale) SiO2 
 PCOD8093648
Probable space group: C 2/M
;
_chemical_formula_sum "Si O2"
_cell_formula_units_Z 64
_cell_length_a 30.081381
_cell_length_b 8.710380
_cell_length_c 15.059849
_cell_angle_alpha 90.000000
_cell_angle_beta 52.020862
_cell_angle_gamma 90.000000
_cell_volume 3110.363402
_symmetry_space_group_name_H-M "C 2/M"
_symmetry_group_IT_number 12
_symmetry_cell_setting 'monoclinic'
loop_
_space_group_symop_operation_xyz
x,y,z
-x,y,-z
-x,-y,-z
x,-y,z
1/2+x,1/2+y,z
1/2-x,1/2+y,-z
1/2-x,1/2-y,-z
1/2+x,1/2-y,z
loop_
_atom_site_type_symbol
_atom_site_label
_atom_site_fract_x
_atom_site_fract_y
_atom_site_fract_z
Si Si1 0.496548 0.318783 0.736897
Si Si2 0.625048 0.682108 0.169554
Si Si3 0.531612 0.171359 0.869220
Si Si4 0.317217 0.682296 0.722410
Si Si5 0.304040 0.680467 0.083831
Si Si6 0.306828 0.318273 0.398440
Si Si7 0.857357 0.319118 0.178982
Si Si8 0.882907 0.181717 0.468721
O O1 0.494872 0.500000 0.731472
O O2 0.437808 0.249278 0.771037
O O3 0.500743 0.276586 0.835450
O O4 0.551847 0.257937 0.614546
O O5 0.621567 0.500000 0.167754
O O6 0.644602 0.738176 0.242111
O O7 0.672294 0.738620 0.040478
O O8 0.591292 0.242648 0.823735
O O9 0.537525 0.000000 0.821741
O O10 0.500000 0.164623 0.000000
O O11 0.313303 0.500000 0.722680
O O12 0.253907 0.740706 0.815152
O O13 0.347528 0.749194 0.596218
O O14 0.294446 0.500000 0.096217
O O15 0.353207 0.729351 0.091592
O O16 0.305586 0.500000 0.385960
O O17 0.250000 0.250000 0.500000
O O18 0.306678 0.230985 0.304190
O O19 0.355024 0.268704 0.409806
O O20 0.860635 0.500000 0.155608
O O21 0.882521 0.000000 0.478995
#
# Coordination Sequence:
#
# PCOD8093648 Si02
#       8
#     8   8   8   8   8   8   8   8
#     4  10  19  36  58  83 114 149 188 236 287 342
#     4   9  20  36  59  87 114 146 191 240 293 347
#     4  10  21  36  54  80 113 148 188 232 282 343
#     4  10  20  38  60  84 114 151 190 237 290 347
#     4  11  22  37  56  85 117 148 191 242 289 349
#     4  11  21  35  54  82 116 152 191 234 280 338
#     4  11  22  36  55  81 111 149 190 230 284 344
#     4   9  19  34  56  83 113 146 189 234 279 336
#
# _framework density 20.576374000000001
#
# number of rings (size 3 to 8) (size 9 to 14) (size 15 to 20)
#    0.000    1.875    1.250    3.000    0.000    2.250 
#    0.000    5.625    0.000    0.000    0.000    1.750 
#    0.000    0.000    0.000    0.000    0.000    0.000 
#
# Total GULP energy -396559.391441 kJ/mol
# GULP energy per Si atom -12392.480983 kJ/mol
# Density = 2.052954 g / cm^3
# Si number density = 20.576374 Si / 1000 Ang^3
#
#
#
# Elastic Constant Matrix: (Units=GPa)
#
#
# Indices 1 2 3 4 5 6 
#
# 1 101.1475 17.9127 35.3843 0.0000 -0.4405 0.0000
# 2 17.9127 19.8349 15.8227 -0.0002 1.3343 0.0000
# 3 35.3843 15.8227 107.1580 0.0000 2.8173 0.0001
# 4 0.0000 -0.0002 0.0000 26.3165 0.0000 1.5051
# 5 -0.4405 1.3343 2.8173 0.0000 39.4723 0.0000
# 6 0.0000 0.0000 0.0001 1.5051 0.0000 24.0333
#
#
#
# Elastic Compliance Matrix: (Units=1/GPa)
#
#
# Indices 1 2 3 4 5 6 
#
# 1 0.012475 -0.009080 -0.002796 0.000000 0.000646 0.000000
# 2 -0.009080 0.063826 -0.006379 0.000000 -0.001804 0.000000
# 3 -0.002796 -0.006379 0.011213 0.000000 -0.000616 0.000000
# 4 0.000000 0.000000 0.000000 0.038136 0.000000 -0.002388
# 5 0.000646 -0.001804 -0.000616 0.000000 0.025446 0.000000
# 6 0.000000 0.000000 0.000000 -0.002388 0.000000 0.041758
#
#
# Mechanical properties :
#
#
# Convention : Reuss Voigt Hill
#
# Bulk Modulus (GPa) = 19.60547 40.70886 30.15717
# Shear Modulus (GPa) = 20.29508 28.56579 24.43044
#
# Velocity S-wave (km/s) = 3.14399 3.73001 3.44947
# Velocity P-wave (km/s) = 4.76744 6.19498 5.52749
#
# Compressibility (1/GPa) = 0.05100616
#
# Stress axis : x y z
#
# Youngs Moduli (GPa) = 80.15813 15.66764 89.18006
#
# Poissons Ratio (x) = 0.14226 0.24933
# Poissons Ratio (y) = 0.72780 0.56886
# Poissons Ratio (z) = 0.22410 0.09994
#
# Static dielectric constant tensor:
#      x y z
#    x 4.735220 0.000000 -0.256210 
#    y 0.000000 3.618460 0.000000 
#    z -0.256210 0.000000 3.768770 
# 
# 
# High freq. dielectric constant tensor:
#      x y z
#    x 1.812050 0.000000 -0.005200 
#    y 0.000000 1.768770 0.000000 
#    z -0.005200 0.000000 1.822120 
# 
# From -- ./inp_files/249734.got.cif
#   From: 2010.06.25/outbox.cif.g09.slc.cpg/sg12_125_cif.got.tgz:249734.got - 2010.06.28 00:19:55.
