data_PCOD8093695
_publ_section_title
;
Structure prediction by ZEFSAII (Michael W. Deem and Ramdas Pophale) SiO2 
 PCOD8093695
Probable space group: C 2/M
;
_chemical_formula_sum "Si O2"
_cell_formula_units_Z 56
_cell_length_a 14.430852
_cell_length_b 8.628372
_cell_length_c 27.944816
_cell_angle_alpha 90.000000
_cell_angle_beta 122.048342
_cell_angle_gamma 90.000000
_cell_volume 2949.262223
_symmetry_space_group_name_H-M "C 2/M"
_symmetry_group_IT_number 12
_symmetry_cell_setting 'monoclinic'
loop_
_space_group_symop_operation_xyz
x,y,z
-x,y,-z
-x,-y,-z
x,-y,z
1/2+x,1/2+y,z
1/2-x,1/2+y,-z
1/2-x,1/2-y,-z
1/2+x,1/2-y,z
loop_
_atom_site_type_symbol
_atom_site_label
_atom_site_fract_x
_atom_site_fract_y
_atom_site_fract_z
Si Si1 0.046833 0.815977 0.648621
Si Si2 0.407101 0.682350 0.143829
Si Si3 0.830421 0.316756 0.948159
Si Si4 0.984338 0.683541 0.072544
Si Si5 0.743405 0.182770 0.350262
Si Si6 0.497417 0.817299 0.735000
Si Si7 0.817417 0.683388 0.562028
O O1 0.152971 0.747418 0.649727
O O2 0.055349 0.764181 0.705955
O O3 0.940065 0.748239 0.593692
O O4 0.042439 0.000000 0.644568
O O5 0.406620 0.500000 0.153646
O O6 0.289863 0.748986 0.094555
O O7 0.490051 0.725964 0.124194
O O8 0.438694 0.770598 0.200290
O O9 0.828769 0.500000 0.948949
O O10 0.907704 0.263480 0.925973
O O11 0.879166 0.260257 0.012457
O O12 0.982009 0.500000 0.081192
O O13 0.628967 0.237851 0.295133
O O14 0.742914 0.236336 0.405580
O O15 0.751462 0.000000 0.349512
O O16 0.503320 0.000000 0.728072
O O17 0.823780 0.500000 0.560306
O O18 0.750000 0.750000 0.500000
#
# Coordination Sequence:
#
# PCOD8093695 Si02
#       7
#     8   8   8   8   8   8   8
#     4  10  19  36  59  80 101 135 176 218 261 303
#     4  11  21  33  50  77 105 131 165 214 264 306
#     4   8  17  33  53  73  99 133 170 206 255 318
#     4   9  17  34  55  73  95 133 174 208 250 314
#     4   8  18  36  57  75 101 140 177 208 255 312
#     4  10  21  38  54  74 103 138 175 213 254 310
#     4  10  20  36  55  82 115 146 177 213 252 301
#
# _framework density 18.987798000000002
#
# number of rings (size 3 to 8) (size 9 to 14) (size 15 to 20)
#    0.000    2.571    0.000    3.857    0.000    1.714 
#    0.000   20.714    0.000    0.000    0.000    0.000 
#    0.000    0.000    0.000    0.000    0.000    0.000 
#
# Total GULP energy -347141.334453 kJ/mol
# GULP energy per Si atom -12397.904802 kJ/mol
# Density = 1.894458 g / cm^3
# Si number density = 18.987798 Si / 1000 Ang^3
#
#
#
# Elastic Constant Matrix: (Units=GPa)
#
#
# Indices 1 2 3 4 5 6 
#
# 1 127.1619 26.0557 47.1375 0.0000 -8.2591 0.0000
# 2 26.0557 50.4977 21.6120 0.0000 0.0951 0.0000
# 3 47.1375 21.6120 110.5200 0.0000 -9.4321 0.0000
# 4 0.0000 0.0000 0.0000 33.3504 0.0000 -2.7682
# 5 -8.2591 0.0951 -9.4321 0.0000 18.4612 0.0000
# 6 0.0000 0.0000 0.0000 -2.7682 0.0000 26.3707
#
#
#
# Elastic Compliance Matrix: (Units=1/GPa)
#
#
# Indices 1 2 3 4 5 6 
#
# 1 0.010046 -0.003774 -0.003306 0.000000 0.002825 0.000000
# 2 -0.003774 0.023129 -0.003207 0.000000 -0.003446 0.000000
# 3 -0.003306 -0.003207 0.011460 0.000000 0.004393 0.000000
# 4 0.000000 0.000000 0.000000 0.030248 0.000000 0.003175
# 5 0.002825 -0.003446 0.004393 0.000000 0.057694 0.000000
# 6 0.000000 0.000000 0.000000 0.003175 0.000000 0.038254
#
#
# Mechanical properties :
#
#
# Convention : Reuss Voigt Hill
#
# Bulk Modulus (GPa) = 41.56031 53.08778 47.32405
# Shear Modulus (GPa) = 25.07190 28.52808 26.79999
#
# Velocity S-wave (km/s) = 3.63770 3.88034 3.76098
# Velocity P-wave (km/s) = 6.29121 6.93510 6.62099
#
# Compressibility (1/GPa) = 0.02406142
#
# Stress axis : x y z
#
# Youngs Moduli (GPa) = 99.54042 43.23496 87.25932
#
# Poissons Ratio (x) = 0.16318 0.28845
# Poissons Ratio (y) = 0.37568 0.27987
# Poissons Ratio (z) = 0.32904 0.13867
#
# Static dielectric constant tensor:
#      x y z
#    x 3.818950 0.000000 0.094530 
#    y 0.000000 3.225260 0.000000 
#    z 0.094530 0.000000 3.549470 
# 
# 
# High freq. dielectric constant tensor:
#      x y z
#    x 1.744690 0.000000 -0.003550 
#    y 0.000000 1.719470 0.000000 
#    z -0.003550 0.000000 1.740300 
# 
# From -- ./inp_files/360040.got.cif
#   From: 2010.06.25/outbox.cif.g09.slc.cpg/sg12_181_cif.got.tgz:360040.got - 2010.06.28 00:19:55.
