data_PCOD8093223
_publ_section_title
;
Structure prediction by ZEFSAII (Michael W. Deem and Ramdas Pophale) SiO2 
 PCOD8093223
Probable space group: C 2/M
;
_chemical_formula_sum "Si O2"
_cell_formula_units_Z 56
_cell_length_a 12.167257
_cell_length_b 29.045011
_cell_length_c 8.847212
_cell_angle_alpha 90.000000
_cell_angle_beta 58.478331
_cell_angle_gamma 90.000000
_cell_volume 2665.236507
_symmetry_space_group_name_H-M "C 2/M"
_symmetry_group_IT_number 12
_symmetry_cell_setting 'monoclinic'
loop_
_space_group_symop_operation_xyz
x,y,z
-x,y,-z
-x,-y,-z
x,-y,z
1/2+x,1/2+y,z
1/2-x,1/2+y,-z
1/2-x,1/2-y,-z
1/2+x,1/2-y,z
loop_
_atom_site_type_symbol
_atom_site_label
_atom_site_fract_x
_atom_site_fract_y
_atom_site_fract_z
Si Si1 0.404417 0.211292 0.706348
Si Si2 0.965751 0.375323 0.857711
Si Si3 0.187370 0.886423 0.121021
Si Si4 0.782784 0.201323 0.404329
Si Si5 0.556761 0.703816 0.122951
Si Si6 0.765172 0.388721 0.401763
Si Si7 0.462200 0.448449 0.352631
O O1 0.500000 0.225353 0.500000
O O2 0.459018 0.166653 0.747766
O O3 0.262448 0.202284 0.738779
O O4 0.382349 0.251115 0.845169
O O5 0.087432 0.408362 0.722577
O O6 0.828456 0.402798 0.957985
O O7 0.000000 0.355919 0.000000
O O8 0.156514 0.838465 0.058977
O O9 0.194383 0.878976 0.294939
O O10 0.074345 0.923759 0.172350
O O11 0.750000 0.250000 0.500000
O O12 0.709273 0.160527 0.541055
O O13 0.932986 0.189650 0.312225
O O14 0.500000 0.715428 0.000000
O O15 0.675648 0.422462 0.566537
O O16 0.500000 0.450492 0.500000
O O17 0.446164 0.500000 0.299796
#
# Coordination Sequence:
#
# PCOD8093223 Si02
#       7
#     8   8   8   8   8   8   8
#     4  12  23  36  55  81 116 161 202 249 288 344
#     4  10  21  38  56  84 117 156 194 242 296 347
#     4  10  21  36  60  84 118 155 193 246 300 346
#     4  12  22  35  55  83 113 155 205 243 286 346
#     4  12  25  38  55  82 117 158 203 247 297 349
#     4  10  19  35  60  86 118 154 198 240 294 355
#     4   9  18  35  62  94 120 148 193 247 299 353
#
# _framework density 21.011267
#
# number of rings (size 3 to 8) (size 9 to 14) (size 15 to 20)
#    0.000    1.286    4.286    2.143    0.000    4.571 
#    0.000    0.714    0.000    4.714    0.000    2.000 
#    0.000    0.000    0.000    0.000    0.000    0.143 
#
# Total GULP energy -347021.517748 kJ/mol
# GULP energy per Si atom -12393.625634 kJ/mol
# Density = 2.096344 g / cm^3
# Si number density = 21.011267 Si / 1000 Ang^3
#
#
#
# Elastic Constant Matrix: (Units=GPa)
#
#
# Indices 1 2 3 4 5 6 
#
# 1 117.2353 43.2707 45.5642 0.0000 -28.1479 0.0000
# 2 43.2707 111.9397 40.9233 0.0000 -12.9270 0.0000
# 3 45.5642 40.9233 73.7958 0.0000 -22.1269 0.0000
# 4 0.0000 0.0000 0.0000 15.9555 0.0000 -1.4174
# 5 -28.1479 -12.9270 -22.1269 0.0000 50.0663 0.0000
# 6 0.0000 0.0000 0.0000 -1.4174 0.0000 19.8180
#
#
#
# Elastic Compliance Matrix: (Units=1/GPa)
#
#
# Indices 1 2 3 4 5 6 
#
# 1 0.012388 -0.002469 -0.005052 0.000000 0.004094 0.000000
# 2 -0.002469 0.011698 -0.005157 0.000000 -0.000647 0.000000
# 3 -0.005052 -0.005157 0.021071 0.000000 0.005141 0.000000
# 4 0.000000 0.000000 0.000000 0.063075 0.000000 0.004511
# 5 0.004094 -0.000647 0.005141 0.000000 0.024380 0.000000
# 6 0.000000 0.000000 0.000000 0.004511 0.000000 0.050782
#
#
# Mechanical properties :
#
#
# Convention : Reuss Voigt Hill
#
# Bulk Modulus (GPa) = 50.49946 62.49856 56.49901
# Shear Modulus (GPa) = 23.21808 28.71549 25.96678
#
# Velocity S-wave (km/s) = 3.32781 3.70086 3.51928
# Velocity P-wave (km/s) = 6.23317 6.93337 6.59257
#
# Compressibility (1/GPa) = 0.01980219
#
# Stress axis : x y z
#
# Youngs Moduli (GPa) = 80.72653 85.48279 47.45823
#
# Poissons Ratio (x) = 0.21104 0.23975
# Poissons Ratio (y) = 0.19929 0.24473
# Poissons Ratio (z) = 0.40781 0.44082
#
# Static dielectric constant tensor:
#      x y z
#    x 4.395690 0.000000 -0.416940 
#    y 0.000000 3.463690 0.000000 
#    z -0.416940 0.000000 3.906940 
# 
# 
# High freq. dielectric constant tensor:
#      x y z
#    x 1.838860 0.000000 -0.025170 
#    y 0.000000 1.769900 0.000000 
#    z -0.025170 0.000000 1.828790 
# 
# From -- ./inp_files/54566.got.cif
#   From: 2010.06.25/outbox.cif.g09.slc.cpg/sg12_28_cif.got.tgz:54566.got - 2010.06.28 00:19:55.
