data_PCOD8093962
_publ_section_title
;
Structure prediction by ZEFSAII (Michael W. Deem and Ramdas Pophale) SiO2 
 PCOD8093962
Probable space group: C 2/M
;
_chemical_formula_sum "Si O2"
_cell_formula_units_Z 64
_cell_length_a 29.369175
_cell_length_b 8.632915
_cell_length_c 12.791858
_cell_angle_alpha 90.000000
_cell_angle_beta 80.842089
_cell_angle_gamma 90.000000
_cell_volume 3201.927543
_symmetry_space_group_name_H-M "C 2/M"
_symmetry_group_IT_number 12
_symmetry_cell_setting 'monoclinic'
loop_
_space_group_symop_operation_xyz
x,y,z
-x,y,-z
-x,-y,-z
x,-y,z
1/2+x,1/2+y,z
1/2-x,1/2+y,-z
1/2-x,1/2-y,-z
1/2+x,1/2-y,z
loop_
_atom_site_type_symbol
_atom_site_label
_atom_site_fract_x
_atom_site_fract_y
_atom_site_fract_z
Si Si1 0.440226 0.816845 0.188869
Si Si2 0.825919 0.179080 0.717097
Si Si3 0.203314 0.320023 0.476817
Si Si4 0.964568 0.181358 0.805100
Si Si5 0.296334 0.819305 0.938367
Si Si6 0.894338 0.678420 0.990212
Si Si7 0.920765 0.318081 0.634129
Si Si8 0.605150 0.817205 0.582957
O O1 0.489378 0.736643 0.153330
O O2 0.417236 0.748228 0.303608
O O3 0.447394 0.000000 0.194500
O O4 0.408354 0.771447 0.102271
O O5 0.799160 0.284788 0.644357
O O6 0.804059 0.215528 0.835079
O O7 0.879353 0.222716 0.700443
O O8 0.819359 0.000000 0.690996
O O9 0.204974 0.500000 0.497233
O O10 0.250000 0.250000 0.500000
O O11 0.157149 0.250095 0.549172
O O12 0.921166 0.222139 0.893966
O O13 0.963645 0.266766 0.691081
O O14 0.965691 0.000000 0.784934
O O15 0.339421 0.794989 0.001268
O O16 0.290644 0.000000 0.912516
O O17 0.250000 0.750000 0.000000
O O18 0.907427 0.500000 0.964699
O O19 0.911154 0.500000 0.649421
O O20 0.925791 0.275461 0.508919
O O21 0.608462 0.000000 0.593237
#
# Coordination Sequence:
#
# PCOD8093962 Si02
#       8
#     8   8   8   8   8   8   8   8
#     4  10  21  40  62  85 115 156 201 244 297 361
#     4  11  21  36  58  85 116 154 196 245 301 355
#     4  10  20  36  59  88 119 156 201 247 298 362
#     4  12  24  37  58  88 119 155 199 248 303 358
#     4  11  23  39  60  89 122 157 200 248 303 360
#     4  10  22  40  63  86 116 159 203 246 294 359
#     4  10  19  36  61  86 114 152 197 244 293 354
#     4   8  18  36  59  85 116 153 195 244 297 357
#
# _framework density 19.987960999999999
#
# number of rings (size 3 to 8) (size 9 to 14) (size 15 to 20)
#    0.000    1.750    1.250    4.500    0.000    4.000 
#    0.000    8.750    0.000    0.000    0.000    0.000 
#    0.000    0.000    0.000    0.000    0.000    0.000 
#
# Total GULP energy -396763.784193 kJ/mol
# GULP energy per Si atom -12398.868256 kJ/mol
# Density = 1.994247 g / cm^3
# Si number density = 19.987961 Si / 1000 Ang^3
#
#
#
# Elastic Constant Matrix: (Units=GPa)
#
#
# Indices 1 2 3 4 5 6 
#
# 1 104.7793 25.5939 45.6115 0.0000 13.8870 0.0000
# 2 25.5939 64.1636 22.3147 0.0000 -0.7241 0.0000
# 3 45.6115 22.3147 120.8436 0.0000 5.0229 0.0000
# 4 0.0000 0.0000 0.0000 21.1667 0.0000 2.4288
# 5 13.8870 -0.7241 5.0229 0.0000 28.3466 0.0000
# 6 0.0000 0.0000 0.0000 2.4288 0.0000 31.4680
#
#
#
# Elastic Compliance Matrix: (Units=1/GPa)
#
#
# Indices 1 2 3 4 5 6 
#
# 1 0.012966 -0.003866 -0.003941 0.000000 -0.005753 0.000000
# 2 -0.003866 0.017835 -0.001946 0.000000 0.002695 0.000000
# 3 -0.003941 -0.001946 0.010118 0.000000 0.000088 0.000000
# 4 0.000000 0.000000 0.000000 0.047666 0.000000 -0.003679
# 5 -0.005753 0.002695 0.000088 0.000000 0.038149 0.000000
# 6 0.000000 0.000000 0.000000 -0.003679 0.000000 0.032062
#
#
# Mechanical properties :
#
#
# Convention : Reuss Voigt Hill
#
# Bulk Modulus (GPa) = 46.70153 52.98074 49.84114
# Shear Modulus (GPa) = 26.96277 29.28066 28.12172
#
# Velocity S-wave (km/s) = 3.67679 3.83157 3.75498
# Velocity P-wave (km/s) = 6.43744 6.79253 6.61737
#
# Compressibility (1/GPa) = 0.02141257
#
# Stress axis : x y z
#
# Youngs Moduli (GPa) = 77.12324 56.07085 98.83068
#
# Poissons Ratio (x) = 0.21679 0.38949
# Poissons Ratio (y) = 0.29819 0.19232
# Poissons Ratio (z) = 0.30394 0.10911
#
# Static dielectric constant tensor:
#      x y z
#    x 3.791690 0.000000 0.074680 
#    y 0.000000 3.458840 0.000000 
#    z 0.074680 0.000000 3.685530 
# 
# 
# High freq. dielectric constant tensor:
#      x y z
#    x 1.778750 0.000000 0.010870 
#    y 0.000000 1.767170 0.000000 
#    z 0.010870 0.000000 1.786110 
# 
# From -- ./inp_files/187447.got.cif
#   From: 2010.06.25/outbox.cif.g09.slc.cpg/sg12_94_cif.got.tgz:187447.got - 2010.06.28 00:19:55.
