data_PCOD8093362
_publ_section_title
;
Structure prediction by ZEFSAII (Michael W. Deem and Ramdas Pophale) SiO2 
 PCOD8093362
Probable space group: C 2/M
;
_chemical_formula_sum "Si O2"
_cell_formula_units_Z 64
_cell_length_a 15.123815
_cell_length_b 14.013246
_cell_length_c 18.662066
_cell_angle_alpha 90.000000
_cell_angle_beta 50.611905
_cell_angle_gamma 90.000000
_cell_volume 3056.776684
_symmetry_space_group_name_H-M "C 2/M"
_symmetry_group_IT_number 12
_symmetry_cell_setting 'monoclinic'
loop_
_space_group_symop_operation_xyz
x,y,z
-x,y,-z
-x,-y,-z
x,-y,z
1/2+x,1/2+y,z
1/2-x,1/2+y,-z
1/2-x,1/2-y,-z
1/2+x,1/2-y,z
loop_
_atom_site_type_symbol
_atom_site_label
_atom_site_fract_x
_atom_site_fract_y
_atom_site_fract_z
Si Si1 0.553210 0.886363 0.253127
Si Si2 0.520520 0.607955 0.908216
Si Si3 0.731544 0.108216 0.275256
Si Si4 0.701868 0.112877 0.581723
Si Si5 0.361617 0.735210 0.894615
Si Si6 0.681691 0.613548 0.621270
Si Si7 0.887649 0.113371 0.595883
Si Si8 0.918161 0.112372 0.740775
O O1 0.629507 0.847014 0.280373
O O2 0.426089 0.852014 0.338427
O O3 0.593591 0.837041 0.158322
O O4 0.563530 0.000000 0.236283
O O5 0.477672 0.500000 0.911646
O O6 0.655247 0.614971 0.829799
O O7 0.458733 0.685321 0.891548
O O8 0.500000 0.635133 0.000000
O O9 0.753937 0.156567 0.341566
O O10 0.695356 0.000000 0.308778
O O11 0.752521 0.155390 0.481580
O O12 0.776775 0.149695 0.609960
O O13 0.707255 0.000000 0.573059
O O14 0.336685 0.666135 0.839524
O O15 0.250000 0.750000 0.000000
O O16 0.684253 0.500000 0.621949
O O17 0.549107 0.644873 0.687841
O O18 0.879748 0.147393 0.681908
O O19 0.000000 0.156574 0.500000
O O20 0.896307 0.000000 0.589521
O O21 0.902219 0.000000 0.758565
#
# Coordination Sequence:
#
# PCOD8093362 Si02
#       8
#     8   8   8   8   8   8   8   8
#     4  10  23  42  60  84 126 171 206 242 300 375
#     4  10  20  38  67  96 118 148 199 263 321 362
#     4   9  17  33  59  87 116 156 204 256 304 348
#     4   9  17  32  56  87 122 166 205 236 295 372
#     4  12  25  41  61  90 121 156 205 259 316 366
#     4   9  15  28  58  91 118 152 201 257 306 354
#     4   9  15  28  57  91 123 163 201 239 296 368
#     4  10  19  35  61  93 125 154 200 260 312 363
#
# _framework density 20.937086000000001
#
# number of rings (size 3 to 8) (size 9 to 14) (size 15 to 20)
#    0.000    2.250    2.500    1.125    0.000    2.500 
#    4.500    3.125    2.750    0.375    0.000    0.000 
#    0.000    0.000    0.000    0.000    0.000    0.000 
#
# Total GULP energy -396658.891208 kJ/mol
# GULP energy per Si atom -12395.590350 kJ/mol
# Density = 2.088943 g / cm^3
# Si number density = 20.937086 Si / 1000 Ang^3
#
#
#
# Elastic Constant Matrix: (Units=GPa)
#
#
# Indices 1 2 3 4 5 6 
#
# 1 178.3748 20.5006 80.1535 0.0000 18.4080 0.0000
# 2 20.5006 59.5381 35.4826 0.0000 11.9513 0.0000
# 3 80.1535 35.4826 175.0117 0.0000 19.2736 0.0000
# 4 0.0000 0.0000 0.0000 10.6578 0.0000 8.5586
# 5 18.4080 11.9513 19.2736 0.0000 31.1640 0.0000
# 6 0.0000 0.0000 0.0000 8.5586 0.0000 1.7517
#
#
#
# Elastic Compliance Matrix: (Units=1/GPa)
#
#
# Indices 1 2 3 4 5 6 
#
# 1 0.007223 -0.000230 -0.003006 0.000000 -0.002319 0.000000
# 2 -0.000230 0.019961 -0.003341 0.000000 -0.005453 0.000000
# 3 -0.003006 -0.003341 0.007974 0.000000 -0.001875 0.000000
# 4 0.000000 0.000000 0.000000 -0.032094 0.000000 0.156809
# 5 -0.002319 -0.005453 -0.001875 0.000000 0.036709 0.000000
# 6 0.000000 0.000000 0.000000 0.156809 0.000000 -0.195272
#
#
# Mechanical properties :
#
#
# Convention : Reuss Voigt Hill
#
# Bulk Modulus (GPa) = 45.44635 76.13310 60.78972
# Shear Modulus (GPa) = -37.03419 27.16723 -4.93348
#
# Velocity S-wave (km/s) = -4.21031 3.60608 -1.53670
# Velocity P-wave (km/s) = 1.37199 7.33350 5.09401
#
# Compressibility (1/GPa) = 0.02200397
#
# Stress axis : x y z
#
# Youngs Moduli (GPa) = 138.45379 50.09790 125.40077
#
# Poissons Ratio (x) = 0.01153 0.37694
# Poissons Ratio (y) = 0.03185 0.41898
# Poissons Ratio (z) = 0.41617 0.16738
#
# Static dielectric constant tensor:
#      x y z
#    x 4.066160 0.000000 0.264920 
#    y 0.000000 3.545350 0.000000 
#    z 0.264920 0.000000 3.977320 
# 
# 
# High freq. dielectric constant tensor:
#      x y z
#    x 1.822140 0.000000 0.013590 
#    y 0.000000 1.809950 0.000000 
#    z 0.013590 0.000000 1.818570 
# 
# From -- ./inp_files/270627.got.cif
#   From: 2010.06.25/outbox.cif.g09.slc.cpg/sg12_136_cif.got.tgz:270627.got - 2010.06.28 00:19:55.
