data_PCOD8093069
_publ_section_title
;
Structure prediction by ZEFSAII (Michael W. Deem and Ramdas Pophale) SiO2 
 PCOD8093069
Probable space group: C 2/M
;
_chemical_formula_sum "Si O2"
_cell_formula_units_Z 56
_cell_length_a 13.414783
_cell_length_b 14.217357
_cell_length_c 17.669771
_cell_angle_alpha 90.000000
_cell_angle_beta 129.669977
_cell_angle_gamma 90.000000
_cell_volume 2594.025281
_symmetry_space_group_name_H-M "C 2/M"
_symmetry_group_IT_number 12
_symmetry_cell_setting 'monoclinic'
loop_
_space_group_symop_operation_xyz
x,y,z
-x,y,-z
-x,-y,-z
x,-y,z
1/2+x,1/2+y,z
1/2-x,1/2+y,-z
1/2-x,1/2-y,-z
1/2+x,1/2-y,z
loop_
_atom_site_type_symbol
_atom_site_label
_atom_site_fract_x
_atom_site_fract_y
_atom_site_fract_z
Si Si1 0.707049 0.889229 0.879235
Si Si2 0.856941 0.294619 0.302764
Si Si3 0.124466 0.108966 0.904600
Si Si4 0.628796 0.235073 0.387990
Si Si5 0.355537 0.609281 0.710277
Si Si6 0.917991 0.394945 0.768040
Si Si7 0.286322 0.606686 0.214081
O O1 0.720407 0.835351 0.806896
O O2 0.567360 0.864968 0.847515
O O3 0.725425 0.000000 0.871916
O O4 0.813408 0.847071 0.989374
O O5 0.782868 0.343235 0.336588
O O6 0.855424 0.181019 0.303551
O O7 0.010909 0.317157 0.375548
O O8 0.197255 0.145195 0.863719
O O9 0.969218 0.126289 0.827611
O O10 0.157359 0.000000 0.924967
O O11 0.750000 0.250000 0.500000
O O12 0.591957 0.340041 0.340332
O O13 0.658934 0.172987 0.327544
O O14 0.333870 0.500000 0.683277
O O15 0.905662 0.500000 0.728601
O O16 0.861322 0.391294 0.826177
O O17 0.344126 0.500000 0.249426
#
# Coordination Sequence:
#
# PCOD8093069 Si02
#       7
#     8   8   8   8   8   8   8
#     4   9  19  36  58  88 124 161 200 248 301 358
#     4  11  22  39  62  88 122 159 201 249 302 363
#     4   9  19  36  59  88 123 161 204 248 296 356
#     4  11  24  42  64  89 117 153 201 254 310 368
#     4  11  23  42  65  92 126 162 201 252 309 364
#     4   9  19  38  60  85 121 157 197 249 306 358
#     4  10  19  35  59  84 118 162 202 246 297 356
#
# _framework density 21.588070999999999
#
# number of rings (size 3 to 8) (size 9 to 14) (size 15 to 20)
#    0.000    2.000    2.857    0.429    0.000    3.429 
#    0.000    7.143    0.000    1.714    0.000    0.000 
#    0.000    0.000    0.000    0.000    0.000    0.000 
#
# Total GULP energy -346872.528606 kJ/mol
# GULP energy per Si atom -12388.304593 kJ/mol
# Density = 2.153894 g / cm^3
# Si number density = 21.588071 Si / 1000 Ang^3
#
#
#
# Elastic Constant Matrix: (Units=GPa)
#
#
# Indices 1 2 3 4 5 6 
#
# 1 91.4858 17.5885 10.9382 0.0000 14.8835 0.0000
# 2 17.5885 87.7355 29.9101 0.0000 3.0759 0.0000
# 3 10.9382 29.9101 108.7745 0.0000 10.7464 0.0000
# 4 0.0000 0.0000 0.0000 21.5528 0.0000 0.2607
# 5 14.8835 3.0759 10.7464 0.0000 16.6639 0.0000
# 6 0.0000 0.0000 0.0000 0.2607 0.0000 27.4695
#
#
#
# Elastic Compliance Matrix: (Units=1/GPa)
#
#
# Indices 1 2 3 4 5 6 
#
# 1 0.013238 -0.002410 0.000487 0.000000 -0.011693 0.000000
# 2 -0.002410 0.013016 -0.003537 0.000000 0.002031 0.000000
# 3 0.000487 -0.003537 0.010782 0.000000 -0.006735 0.000000
# 4 0.000000 0.000000 0.000000 0.046403 0.000000 -0.000440
# 5 -0.011693 0.002031 -0.006735 0.000000 0.074422 0.000000
# 6 0.000000 0.000000 0.000000 -0.000440 0.000000 0.036408
#
#
# Mechanical properties :
#
#
# Convention : Reuss Voigt Hill
#
# Bulk Modulus (GPa) = 38.29193 44.98550 41.63871
# Shear Modulus (GPa) = 23.37594 28.44117 25.90856
#
# Velocity S-wave (km/s) = 3.29419 3.63361 3.46805
# Velocity P-wave (km/s) = 5.67846 6.20383 5.94695
#
# Compressibility (1/GPa) = 0.02611516
#
# Stress axis : x y z
#
# Youngs Moduli (GPa) = 75.54016 76.83035 92.74316
#
# Poissons Ratio (x) = 0.18515 -0.04513
# Poissons Ratio (y) = 0.18204 0.32806
# Poissons Ratio (z) = -0.03676 0.27177
#
# Static dielectric constant tensor:
#      x y z
#    x 4.052900 0.000000 0.047330 
#    y 0.000000 4.101860 0.000000 
#    z 0.047330 0.000000 3.527890 
# 
# 
# High freq. dielectric constant tensor:
#      x y z
#    x 1.854660 0.000000 0.010990 
#    y 0.000000 1.858970 0.000000 
#    z 0.010990 0.000000 1.798800 
# 
# From -- ./inp_files/310868.got.cif
#   From: 2010.06.25/outbox.cif.g09.slc.cpg/sg12_156_cif.got.tgz:310868.got - 2010.06.28 00:19:55.
