data_PCOD8093407
_publ_section_title
;
Structure prediction by ZEFSAII (Michael W. Deem and Ramdas Pophale) SiO2 
 PCOD8093407
Probable space group: C 2/M
;
_chemical_formula_sum "Si O2"
_cell_formula_units_Z 64
_cell_length_a 8.964906
_cell_length_b 27.071724
_cell_length_c 23.952189
_cell_angle_alpha 90.000000
_cell_angle_beta 33.454480
_cell_angle_gamma 90.000000
_cell_volume 3204.605832
_symmetry_space_group_name_H-M "C 2/M"
_symmetry_group_IT_number 12
_symmetry_cell_setting 'monoclinic'
loop_
_space_group_symop_operation_xyz
x,y,z
-x,y,-z
-x,-y,-z
x,-y,z
1/2+x,1/2+y,z
1/2-x,1/2+y,-z
1/2-x,1/2-y,-z
1/2+x,1/2-y,z
loop_
_atom_site_type_symbol
_atom_site_label
_atom_site_fract_x
_atom_site_fract_y
_atom_site_fract_z
Si Si1 0.263976 0.559088 0.732300
Si Si2 0.829370 0.056526 0.103142
Si Si3 0.261426 0.218548 0.237042
Si Si4 0.901405 0.879920 0.907776
Si Si5 0.686854 0.130619 0.856915
Si Si6 0.555481 0.378463 0.421294
Si Si7 0.751172 0.700607 0.535632
Si Si8 0.594226 0.815202 0.231242
O O1 0.301091 0.500000 0.729828
O O2 0.299372 0.588629 0.779500
O O3 0.455744 0.578345 0.622358
O O4 0.972466 0.577577 0.801726
O O5 0.981892 0.065444 0.114449
O O6 0.799867 0.000000 0.098684
O O7 0.000000 0.082258 0.000000
O O8 0.312343 0.186178 0.166203
O O9 0.519799 0.214104 0.197478
O O10 0.182648 0.274850 0.249636
O O11 0.010692 0.193397 0.345128
O O12 0.891142 0.871370 0.845292
O O13 0.130651 0.845744 0.865360
O O14 0.614910 0.877468 0.027444
O O15 0.500000 0.401652 0.500000
O O16 0.286021 0.344739 0.495519
O O17 0.837684 0.347132 0.332840
O O18 0.750000 0.750000 0.500000
O O19 0.000000 0.697041 0.500000
#
# Coordination Sequence:
#
# PCOD8093407 Si02
#       8
#     8   8   8   8   8   8   8   8
#     4  11  22  42  66  90 123 166 207 258 316 371
#     4  10  19  35  63  91 116 155 206 258 316 366
#     4  11  22  38  60  86 130 160 209 248 314 362
#     4  11  23  37  62  88 130 161 211 256 310 369
#     4  11  23  40  58  93 124 170 205 257 311 372
#     4  11  23  41  63  95 124 158 210 256 313 367
#     4  11  21  37  62  94 122 160 204 257 310 361
#     4  11  22  39  60  92 122 169 204 258 306 374
#
# _framework density 19.971253999999998
#
# number of rings (size 3 to 8) (size 9 to 14) (size 15 to 20)
#    0.000    1.125    5.000    3.375    0.000    2.250 
#    0.000    1.250    0.000    0.375    0.000    0.000 
#    0.000    0.000    0.000    0.000    0.000    0.000 
#
# Total GULP energy -396451.434953 kJ/mol
# GULP energy per Si atom -12389.107342 kJ/mol
# Density = 1.992580 g / cm^3
# Si number density = 19.971254 Si / 1000 Ang^3
#
#
#
# Elastic Constant Matrix: (Units=GPa)
#
#
# Indices 1 2 3 4 5 6 
#
# 1 133.8658 30.5474 42.5258 -0.0007 -1.3209 0.0004
# 2 30.5474 71.3226 25.8707 0.0000 4.5456 -0.0001
# 3 42.5258 25.8707 55.4636 -0.0058 10.7187 0.0050
# 4 -0.0007 0.0000 -0.0058 24.6695 0.0016 0.9697
# 5 -1.3209 4.5456 10.7187 0.0016 35.5587 -0.0013
# 6 0.0004 -0.0001 0.0050 0.9697 -0.0013 27.6232
#
#
#
# Elastic Compliance Matrix: (Units=1/GPa)
#
#
# Indices 1 2 3 4 5 6 
#
# 1 0.010346 -0.001848 -0.007636 -0.000002 0.002922 0.000001
# 2 -0.001848 0.017208 -0.006553 -0.000002 -0.000293 0.000001
# 3 -0.007636 -0.006553 0.028494 0.000007 -0.008035 -0.000006
# 4 -0.000002 -0.000002 0.000007 0.040592 -0.000004 -0.001425
# 5 0.002922 -0.000293 -0.008035 -0.000004 0.030691 0.000003
# 6 0.000001 0.000001 -0.000006 -0.001425 0.000003 0.036252
#
#
# Mechanical properties :
#
#
# Convention : Reuss Voigt Hill
#
# Bulk Modulus (GPa) = 41.71047 50.94888 46.32967
# Shear Modulus (GPa) = 24.55227 28.35080 26.45153
#
# Velocity S-wave (km/s) = 3.51006 3.77182 3.64329
# Velocity P-wave (km/s) = 6.11211 6.67348 6.39895
#
# Compressibility (1/GPa) = 0.02397480
#
# Stress axis : x y z
#
# Youngs Moduli (GPa) = 96.65240 58.11283 35.09526
#
# Poissons Ratio (x) = 0.10739 0.26798
# Poissons Ratio (y) = 0.17860 0.22998
# Poissons Ratio (z) = 0.73801 0.38082
#
# Static dielectric constant tensor:
#      x y z
#    x 3.406790 0.000080 -0.159820 
#    y 0.000080 3.551310 0.000020 
#    z -0.159820 0.000020 3.652180 
# 
# 
# High freq. dielectric constant tensor:
#      x y z
#    x 1.789860 0.000000 0.002600 
#    y 0.000000 1.769720 0.000000 
#    z 0.002600 0.000000 1.771400 
# 
# From -- ./inp_files/334348.got.cif
#   From: 2010.06.25/outbox.cif.g09.slc.cpg/sg12_168_cif.got.tgz:334348.got - 2010.06.28 00:19:55.
