data_PCOD8093040
_publ_section_title
;
Structure prediction by ZEFSAII (Michael W. Deem and Ramdas Pophale) SiO2 
 PCOD8093040
Probable space group: C 2/M
;
_chemical_formula_sum "Si O2"
_cell_formula_units_Z 64
_cell_length_a 30.083185
_cell_length_b 8.838002
_cell_length_c 11.972529
_cell_angle_alpha 90.000000
_cell_angle_beta 86.521699
_cell_angle_gamma 90.000000
_cell_volume 3177.335192
_symmetry_space_group_name_H-M "C 2/M"
_symmetry_group_IT_number 12
_symmetry_cell_setting 'monoclinic'
loop_
_space_group_symop_operation_xyz
x,y,z
-x,y,-z
-x,-y,-z
x,-y,z
1/2+x,1/2+y,z
1/2-x,1/2+y,-z
1/2-x,1/2-y,-z
1/2+x,1/2-y,z
loop_
_atom_site_type_symbol
_atom_site_label
_atom_site_fract_x
_atom_site_fract_y
_atom_site_fract_z
Si Si1 0.756130 0.826578 0.311686
Si Si2 0.336291 0.677049 0.639359
Si Si3 0.000629 0.819880 0.626781
Si Si4 0.210602 0.827848 0.940170
Si Si5 0.588918 0.678159 0.741477
Si Si6 0.164494 0.321466 0.589279
Si Si7 0.418433 0.322741 0.779710
Si Si8 0.611869 0.679191 0.982036
O O1 0.710537 0.735569 0.308204
O O2 0.782278 0.813877 0.192428
O O3 0.786793 0.751453 0.401683
O O4 0.746055 0.000000 0.346317
O O5 0.334011 0.500000 0.612352
O O6 0.352946 0.765123 0.527442
O O7 0.371784 0.714139 0.729183
O O8 0.045094 0.766598 0.683321
O O9 0.000000 0.755802 0.500000
O O10 0.959074 0.750468 0.702771
O O11 0.997812 0.000000 0.623108
O O12 0.162281 0.753634 0.973442
O O13 0.211013 0.000000 0.979961
O O14 0.250000 0.750000 0.000000
O O15 0.597288 0.500000 0.723211
O O16 0.630971 0.767473 0.689091
O O17 0.584911 0.720173 0.873329
O O18 0.168921 0.500000 0.591611
O O19 0.427581 0.500000 0.784093
O O20 0.415403 0.256745 0.906753
O O21 0.616608 0.500000 0.991443
#
# Coordination Sequence:
#
# PCOD8093040 Si02
#       8
#     8   8   8   8   8   8   8   8
#     4  11  22  38  57  81 115 151 193 239 289 344
#     4  11  22  37  58  82 114 152 191 238 293 345
#     4   9  17  30  52  85 118 150 191 236 284 341
#     4  10  20  34  53  77 111 151 193 239 284 337
#     4  10  19  35  59  83 115 152 188 237 294 343
#     4  12  24  38  57  82 114 149 194 240 287 352
#     4   9  18  32  54  85 117 147 187 238 286 339
#     4   9  17  32  52  79 114 148 186 233 286 338
#
# _framework density 20.142665999999998
#
# number of rings (size 3 to 8) (size 9 to 14) (size 15 to 20)
#    0.000    1.875    1.250    3.750    0.000    4.500 
#    0.000    2.500    0.000    4.875    0.000    0.875 
#    0.000    0.000    0.000    0.000    0.000    0.000 
#
# Total GULP energy -396807.830946 kJ/mol
# GULP energy per Si atom -12400.244717 kJ/mol
# Density = 2.009682 g / cm^3
# Si number density = 20.142666 Si / 1000 Ang^3
#
#
#
# Elastic Constant Matrix: (Units=GPa)
#
#
# Indices 1 2 3 4 5 6 
#
# 1 134.1372 25.3942 65.1889 0.0000 -0.5580 0.0000
# 2 25.3942 42.4348 22.5356 0.0000 8.5550 0.0000
# 3 65.1889 22.5356 147.5197 0.0000 -0.3058 0.0000
# 4 0.0000 0.0000 0.0000 19.1199 0.0000 -0.8502
# 5 -0.5580 8.5550 -0.3058 0.0000 36.9392 0.0000
# 6 0.0000 0.0000 0.0000 -0.8502 0.0000 21.0855
#
#
#
# Elastic Compliance Matrix: (Units=1/GPa)
#
#
# Indices 1 2 3 4 5 6 
#
# 1 0.010121 -0.004251 -0.003821 0.000000 0.001106 0.000000
# 2 -0.004251 0.028820 -0.002538 0.000000 -0.006760 0.000000
# 3 -0.003821 -0.002538 0.008856 0.000000 0.000603 0.000000
# 4 0.000000 0.000000 0.000000 0.052395 0.000000 0.002113
# 5 0.001106 -0.006760 0.000603 0.000000 0.028659 0.000000
# 6 0.000000 0.000000 0.000000 0.002113 0.000000 0.047511
#
#
# Mechanical properties :
#
#
# Convention : Reuss Voigt Hill
#
# Bulk Modulus (GPa) = 37.62531 61.14767 49.38649
# Shear Modulus (GPa) = 24.21986 29.49379 26.85683
#
# Velocity S-wave (km/s) = 3.47135 3.83070 3.65544
# Velocity P-wave (km/s) = 5.89805 7.07028 6.51060
#
# Compressibility (1/GPa) = 0.02657786
#
# Stress axis : x y z
#
# Youngs Moduli (GPa) = 98.80157 34.69801 112.91458
#
# Poissons Ratio (x) = 0.14749 0.43144
# Poissons Ratio (y) = 0.41997 0.28661
# Poissons Ratio (z) = 0.37752 0.08807
#
# Static dielectric constant tensor:
#      x y z
#    x 3.728370 0.000000 -0.071000 
#    y 0.000000 3.256150 0.000000 
#    z -0.071000 0.000000 3.997370 
# 
# 
# High freq. dielectric constant tensor:
#      x y z
#    x 1.791390 0.000000 -0.000900 
#    y 0.000000 1.737440 0.000000 
#    z -0.000900 0.000000 1.805330 
# 
# From -- ./inp_files/187618.got.cif
#   From: 2010.06.25/outbox.cif.g09.slc.cpg/sg12_94_cif.got.tgz:187618.got - 2010.06.28 00:19:55.
