data_PCOD8093033
_publ_section_title
;
Structure prediction by ZEFSAII (Michael W. Deem and Ramdas Pophale) SiO2 
 PCOD8093033
Probable space group: C 2/M
;
_chemical_formula_sum "Si O2"
_cell_formula_units_Z 56
_cell_length_a 17.228337
_cell_length_b 14.447979
_cell_length_c 12.865924
_cell_angle_alpha 90.000000
_cell_angle_beta 118.890830
_cell_angle_gamma 90.000000
_cell_volume 2803.937689
_symmetry_space_group_name_H-M "C 2/M"
_symmetry_group_IT_number 12
_symmetry_cell_setting 'monoclinic'
loop_
_space_group_symop_operation_xyz
x,y,z
-x,y,-z
-x,-y,-z
x,-y,z
1/2+x,1/2+y,z
1/2-x,1/2+y,-z
1/2-x,1/2-y,-z
1/2+x,1/2-y,z
loop_
_atom_site_type_symbol
_atom_site_label
_atom_site_fract_x
_atom_site_fract_y
_atom_site_fract_z
Si Si1 0.451706 0.607809 0.205495
Si Si2 0.099165 0.209592 0.022699
Si Si3 0.476401 0.894281 0.666543
Si Si4 0.300957 0.816192 0.457541
Si Si5 0.559176 0.899700 0.938240
Si Si6 0.142081 0.895242 0.244823
Si Si7 0.924826 0.234874 0.376999
O O1 0.438839 0.500000 0.218448
O O2 0.555561 0.634696 0.256336
O O3 0.409757 0.662392 0.275131
O O4 0.395492 0.636919 0.068015
O O5 0.158136 0.171419 0.155538
O O6 0.127216 0.313337 0.000794
O O7 0.000000 0.217001 0.000000
O O8 0.376535 0.867404 0.572149
O O9 0.493956 0.875778 0.799821
O O10 0.545575 0.834970 0.645550
O O11 0.493684 0.000000 0.647380
O O12 0.250000 0.750000 0.500000
O O13 0.230347 0.891117 0.370649
O O14 0.336354 0.753232 0.385401
O O15 0.607892 0.000000 0.949871
O O16 0.500000 0.912378 0.000000
O O17 0.126730 0.000000 0.195506
O O18 0.000000 0.191751 0.500000
#
# Coordination Sequence:
#
# PCOD8093033 Si02
#       7
#     8   8   8   8   8   8   8
#     4  10  19  35  59  83 111 149 194 237 276 327
#     4   9  17  30  57  82 114 144 188 234 275 325
#     4  10  20  37  61  86 112 147 190 235 281 334
#     4  11  24  37  56  81 118 153 187 231 289 343
#     4   9  17  29  54  87 115 142 183 232 280 331
#     4  10  20  35  57  88 116 149 191 234 280 331
#     4  10  21  37  56  81 110 147 193 234 282 335
#
# _framework density 19.971914000000002
#
# number of rings (size 3 to 8) (size 9 to 14) (size 15 to 20)
#    0.000    2.143    1.429    2.571    4.000    5.143 
#    0.000    2.143    0.000    0.857    0.000    0.000 
#    0.000    0.000    0.000    0.000    0.000    0.000 
#
# Total GULP energy -347066.316880 kJ/mol
# GULP energy per Si atom -12395.225603 kJ/mol
# Density = 1.992646 g / cm^3
# Si number density = 19.971914 Si / 1000 Ang^3
#
#
#
# Elastic Constant Matrix: (Units=GPa)
#
#
# Indices 1 2 3 4 5 6 
#
# 1 73.5445 33.2580 32.8781 0.0000 -16.1418 0.0000
# 2 33.2580 137.4521 50.5545 0.0000 -10.1074 0.0000
# 3 32.8781 50.5545 106.7584 0.0000 -17.4816 0.0000
# 4 0.0000 0.0000 0.0000 141.3594 0.0000 -176.0480
# 5 -16.1418 -10.1074 -17.4816 0.0000 24.6029 0.0000
# 6 0.0000 0.0000 0.0000 -176.0480 0.0000 289.3094
#
#
#
# Elastic Compliance Matrix: (Units=1/GPa)
#
#
# Indices 1 2 3 4 5 6 
#
# 1 0.017982 -0.002662 -0.002857 0.000000 0.008674 0.000000
# 2 -0.002662 0.009216 -0.003633 0.000000 -0.000542 0.000000
# 3 -0.002857 -0.003633 0.012919 0.000000 0.005813 0.000000
# 4 0.000000 0.000000 0.000000 0.029212 0.000000 0.017776
# 5 0.008674 -0.000542 0.005813 0.000000 0.050244 0.000000
# 6 0.000000 0.000000 0.000000 0.017776 0.000000 0.014273
#
#
# Mechanical properties :
#
#
# Convention : Reuss Voigt Hill
#
# Bulk Modulus (GPa) = 45.84472 61.23736 53.54104
# Shear Modulus (GPa) = 31.36331 104.45862 67.91097
#
# Velocity S-wave (km/s) = 3.96709 7.23991 5.83756
# Velocity P-wave (km/s) = 6.63236 10.03079 8.50308
#
# Compressibility (1/GPa) = 0.02181276
#
# Stress axis : x y z
#
# Youngs Moduli (GPa) = 55.61054 108.50981 77.40608
#
# Poissons Ratio (x) = 0.28890 0.22113
# Poissons Ratio (y) = 0.14806 0.28121
# Poissons Ratio (z) = 0.15887 0.39420
#
# Static dielectric constant tensor:
#      x y z
#    x 3.169200 0.000000 -0.269740 
#    y 0.000000 4.002490 0.000000 
#    z -0.269740 0.000000 3.820560 
# 
# 
# High freq. dielectric constant tensor:
#      x y z
#    x 1.734770 0.000000 -0.021360 
#    y 0.000000 1.791350 0.000000 
#    z -0.021360 0.000000 1.789340 
# 
# From -- ./inp_files/156764.got.cif
#   From: 2010.06.25/outbox.cif.g09.slc.cpg/sg12_79_cif.got.tgz:156764.got - 2010.06.28 00:19:55.
