data_PCOD8093646
_publ_section_title
;
Structure prediction by ZEFSAII (Michael W. Deem and Ramdas Pophale) SiO2 
 PCOD8093646
Probable space group: C 2/M
;
_chemical_formula_sum "Si O2"
_cell_formula_units_Z 48
_cell_length_a 9.404040
_cell_length_b 15.973115
_cell_length_c 16.471726
_cell_angle_alpha 90.000000
_cell_angle_beta 79.483658
_cell_angle_gamma 90.000000
_cell_volume 2432.687603
_symmetry_space_group_name_H-M "C 2/M"
_symmetry_group_IT_number 12
_symmetry_cell_setting 'monoclinic'
loop_
_space_group_symop_operation_xyz
x,y,z
-x,y,-z
-x,-y,-z
x,-y,z
1/2+x,1/2+y,z
1/2-x,1/2+y,-z
1/2-x,1/2-y,-z
1/2+x,1/2-y,z
loop_
_atom_site_type_symbol
_atom_site_label
_atom_site_fract_x
_atom_site_fract_y
_atom_site_fract_z
Si Si1 0.169072 0.169934 0.975330
Si Si2 0.365134 0.905480 0.071108
Si Si3 0.830782 0.757629 0.186134
Si Si4 0.047843 0.222131 0.297295
Si Si5 0.871725 0.311968 0.451296
Si Si6 0.388899 0.595968 0.577036
O O1 0.204119 0.169370 0.875582
O O2 0.250000 0.250000 0.000000
O O3 0.227754 0.092946 0.023036
O O4 0.000000 0.179956 0.000000
O O5 0.350012 0.835605 0.143760
O O6 0.377881 0.000000 0.106828
O O7 0.500000 0.882393 0.000000
O O8 0.705304 0.761274 0.266213
O O9 0.976163 0.787315 0.216385
O O10 0.075149 0.134512 0.339219
O O11 0.947807 0.280568 0.362244
O O12 0.750000 0.250000 0.500000
O O13 0.777333 0.392504 0.434312
O O14 0.000000 0.335937 0.500000
O O15 0.500000 0.637999 0.500000
O O16 0.426009 0.500000 0.582081
#
# Coordination Sequence:
#
# PCOD8093646 Si02
#       6
#     8   8   8   8   8   8
#     4  10  19  36  58  83 112 152 205 247 285 359
#     4  10  21  39  60  83 119 164 204 249 303 357
#     4  11  21  34  59  89 118 153 201 252 299 360
#     4  12  21  36  60  90 120 158 195 251 304 359
#     4  12  20  39  66  90 116 160 214 246 283 368
#     4  11  24  42  63  89 123 160 202 254 305 356
#
# _framework density 19.731263999999999
#
# number of rings (size 3 to 8) (size 9 to 14) (size 15 to 20)
#    0.000    1.000    5.000    5.000    0.000    1.333 
#    0.000    0.833    0.000    1.000    0.000    0.000 
#    0.000    0.000    0.000    0.000    0.000    0.000 
#
# Total GULP energy -297375.751411 kJ/mol
# GULP energy per Si atom -12390.656309 kJ/mol
# Density = 1.968635 g / cm^3
# Si number density = 19.731264 Si / 1000 Ang^3
#
#
#
# Elastic Constant Matrix: (Units=GPa)
#
#
# Indices 1 2 3 4 5 6 
#
# 1 143.9085 33.0857 43.9120 0.0000 10.6935 0.0000
# 2 33.0857 51.0753 30.9379 0.0000 5.7694 0.0000
# 3 43.9120 30.9379 104.4952 0.0000 6.9687 0.0000
# 4 0.0000 0.0000 0.0000 19.7939 0.0000 6.0539
# 5 10.6935 5.7694 6.9687 0.0000 55.4428 0.0000
# 6 0.0000 0.0000 0.0000 6.0539 0.0000 24.1730
#
#
#
# Elastic Compliance Matrix: (Units=1/GPa)
#
#
# Indices 1 2 3 4 5 6 
#
# 1 0.008682 -0.004076 -0.002378 0.000000 -0.000952 0.000000
# 2 -0.004076 0.025914 -0.005881 0.000000 -0.001171 0.000000
# 3 -0.002378 -0.005881 0.012343 0.000000 -0.000481 0.000000
# 4 0.000000 0.000000 0.000000 0.054711 0.000000 -0.013702
# 5 -0.000952 -0.001171 -0.000481 0.000000 0.018402 0.000000
# 6 0.000000 0.000000 0.000000 -0.013702 0.000000 0.044800
#
#
# Mechanical properties :
#
#
# Convention : Reuss Voigt Hill
#
# Bulk Modulus (GPa) = 44.90855 57.26115 51.08485
# Shear Modulus (GPa) = 25.38747 32.65150 29.01949
#
# Velocity S-wave (km/s) = 3.59090 4.07235 3.83918
# Velocity P-wave (km/s) = 6.32473 7.15511 6.75270
#
# Compressibility (1/GPa) = 0.02226747
#
# Stress axis : x y z
#
# Youngs Moduli (GPa) = 115.17501 38.58877 81.02022
#
# Poissons Ratio (x) = 0.15730 0.19269
# Poissons Ratio (y) = 0.46948 0.47651
# Poissons Ratio (z) = 0.27392 0.22695
#
# Static dielectric constant tensor:
#      x y z
#    x 4.224910 0.000000 0.184540 
#    y 0.000000 3.397120 0.000000 
#    z 0.184540 0.000000 3.884930 
# 
# 
# High freq. dielectric constant tensor:
#      x y z
#    x 1.794480 0.000000 -0.000800 
#    y 0.000000 1.728660 0.000000 
#    z -0.000800 0.000000 1.778930 
# 
# From -- ./inp_files/256149.got.cif
#   From: 2010.06.25/outbox.cif.g09.slc.cpg/sg12_129_cif.got.tgz:256149.got - 2010.06.28 00:19:55.
