data_PCOD8093538
_publ_section_title
;
Structure prediction by ZEFSAII (Michael W. Deem and Ramdas Pophale) SiO2 
 PCOD8093538
Probable space group: C 2/M
;
_chemical_formula_sum "Si O2"
_cell_formula_units_Z 56
_cell_length_a 18.532054
_cell_length_b 13.179543
_cell_length_c 22.562516
_cell_angle_alpha 90.000000
_cell_angle_beta 35.514455
_cell_angle_gamma 90.000000
_cell_volume 3201.245924
_symmetry_space_group_name_H-M "C 2/M"
_symmetry_group_IT_number 12
_symmetry_cell_setting 'monoclinic'
loop_
_space_group_symop_operation_xyz
x,y,z
-x,y,-z
-x,-y,-z
x,-y,z
1/2+x,1/2+y,z
1/2-x,1/2+y,-z
1/2-x,1/2-y,-z
1/2+x,1/2-y,z
loop_
_atom_site_type_symbol
_atom_site_label
_atom_site_fract_x
_atom_site_fract_y
_atom_site_fract_z
Si Si1 0.487191 0.884172 0.369171
Si Si2 0.502034 0.745702 0.750587
Si Si3 0.240819 0.117801 0.604483
Si Si4 0.736745 0.380943 0.104249
Si Si5 0.012988 0.383209 0.127464
Si Si6 0.772808 0.616465 0.215276
Si Si7 0.879195 0.281112 0.616704
O O1 0.517983 0.813661 0.293539
O O2 0.346923 0.865197 0.484618
O O3 0.583166 0.860401 0.357599
O O4 0.506470 0.000000 0.336842
O O5 0.618874 0.672986 0.661949
O O6 0.380993 0.678028 0.842631
O O7 0.526168 0.816398 0.790628
O O8 0.280387 0.162728 0.641273
O O9 0.210966 0.000000 0.633276
O O10 0.710355 0.500000 0.117321
O O11 0.764065 0.348493 0.153313
O O12 0.853859 0.349185 0.986197
O O13 0.014810 0.500000 0.146680
O O14 0.913914 0.366225 0.141448
O O15 0.732549 0.500000 0.249651
O O16 0.678247 0.679708 0.318174
O O17 0.000000 0.245607 0.500000
#
# Coordination Sequence:
#
# PCOD8093538 Si02
#       7
#     8   8   8   8   8   8   8
#     4  10  21  36  55  79 107 142 179 214 259 316
#     4  12  20  34  56  80 112 138 168 220 268 316
#     4  10  21  36  55  79 107 142 179 214 259 316
#     4  10  21  36  55  79 105 138 179 219 263 314
#     4  10  21  36  55  79 105 138 179 219 263 314
#     4  10  19  36  57  78 104 138 179 222 262 310
#     4  10  19  36  57  78 104 138 181 222 256 310
#
# _framework density 17.493189999999998
#
# number of rings (size 3 to 8) (size 9 to 14) (size 15 to 20)
#    0.000    1.714    2.857    2.571    0.000    3.714 
#    0.000    0.000    0.000    0.000    0.000    2.000 
#    0.000    0.000    0.000    0.000    0.000    0.000 
#
# Total GULP energy -347318.597255 kJ/mol
# GULP energy per Si atom -12404.235616 kJ/mol
# Density = 1.745337 g / cm^3
# Si number density = 17.493190 Si / 1000 Ang^3
#
#
#
# Elastic Constant Matrix: (Units=GPa)
#
#
# Indices 1 2 3 4 5 6 
#
# 1 55.6464 16.1748 11.3848 0.0000 -5.9974 0.0000
# 2 16.1748 69.1743 35.8873 0.0000 -3.3874 0.0000
# 3 11.3848 35.8873 64.4938 -0.0002 -6.9241 0.0001
# 4 0.0000 0.0000 -0.0002 26.6426 0.0001 -1.9474
# 5 -5.9974 -3.3874 -6.9241 0.0001 31.8155 0.0000
# 6 0.0000 0.0000 0.0001 -1.9474 0.0000 29.7115
#
#
#
# Elastic Compliance Matrix: (Units=1/GPa)
#
#
# Indices 1 2 3 4 5 6 
#
# 1 0.019644 -0.003957 -0.000935 0.000000 0.003078 0.000000
# 2 -0.003957 0.021123 -0.011155 0.000000 -0.000925 0.000000
# 3 -0.000935 -0.011155 0.022251 0.000000 0.003479 0.000000
# 4 0.000000 0.000000 0.000000 0.037715 0.000000 0.002472
# 5 0.003078 -0.000925 0.003479 0.000000 0.032670 0.000000
# 6 0.000000 0.000000 0.000000 0.002472 0.000000 0.033819
#
#
# Mechanical properties :
#
#
# Convention : Reuss Voigt Hill
#
# Bulk Modulus (GPa) = 32.33757 35.13426 33.73592
# Shear Modulus (GPa) = 23.85223 26.02511 24.93867
#
# Velocity S-wave (km/s) = 3.69659 3.86129 3.77984
# Velocity P-wave (km/s) = 6.06182 6.32515 6.19488
#
# Compressibility (1/GPa) = 0.03092379
#
# Stress axis : x y z
#
# Youngs Moduli (GPa) = 50.90616 47.34113 44.94206
#
# Poissons Ratio (x) = 0.18735 0.04203
# Poissons Ratio (y) = 0.20146 0.50131
# Poissons Ratio (z) = 0.04760 0.52807
#
# Static dielectric constant tensor:
#      x y z
#    x 3.279500 0.000000 -0.018600 
#    y 0.000000 3.225460 0.000000 
#    z -0.018600 0.000000 3.207550 
# 
# 
# High freq. dielectric constant tensor:
#      x y z
#    x 1.684800 0.000000 -0.002330 
#    y 0.000000 1.678010 0.000000 
#    z -0.002330 0.000000 1.675080 
# 
# From -- ./inp_files/143749.got.cif
#   From: 2010.06.25/outbox.cif.g09.slc.cpg/sg12_72_cif.got.tgz:143749.got - 2010.06.28 00:19:55.
