data_PCOD8093948
_publ_section_title
;
Structure prediction by ZEFSAII (Michael W. Deem and Ramdas Pophale) SiO2 
 PCOD8093948
Probable space group: C 2/M
;
_chemical_formula_sum "Si O2"
_cell_formula_units_Z 56
_cell_length_a 18.781342
_cell_length_b 14.339808
_cell_length_c 14.860717
_cell_angle_alpha 90.000000
_cell_angle_beta 47.899765
_cell_angle_gamma 90.000000
_cell_volume 2969.599467
_symmetry_space_group_name_H-M "C 2/M"
_symmetry_group_IT_number 12
_symmetry_cell_setting 'monoclinic'
loop_
_space_group_symop_operation_xyz
x,y,z
-x,y,-z
-x,-y,-z
x,-y,z
1/2+x,1/2+y,z
1/2-x,1/2+y,-z
1/2-x,1/2-y,-z
1/2+x,1/2-y,z
loop_
_atom_site_type_symbol
_atom_site_label
_atom_site_fract_x
_atom_site_fract_y
_atom_site_fract_z
Si Si1 0.000000 0.670275 0.500000
Si Si2 0.037763 0.755164 0.278635
Si Si3 0.811274 0.601663 0.595196
Si Si4 0.897851 0.604607 0.915396
Si Si5 0.842657 0.303624 0.393733
Si Si6 0.199836 0.891880 0.179874
Si Si7 0.805068 0.275559 0.236789
Si Si8 0.000000 0.317873 0.000000
O O1 0.015618 0.736266 0.401275
O O2 0.093348 0.605731 0.425918
O O3 0.087657 0.670380 0.182851
O O4 0.104481 0.847255 0.215495
O O5 0.933757 0.767580 0.320023
O O6 0.763512 0.500000 0.645885
O O7 0.849581 0.613016 0.459793
O O8 0.735256 0.677029 0.695012
O O9 0.917384 0.500000 0.865373
O O10 0.787203 0.616338 0.036853
O O11 0.970207 0.621183 0.938124
O O12 0.750000 0.250000 0.500000
O O13 0.829931 0.340078 0.302534
O O14 0.226935 0.831900 0.245355
O O15 0.179852 0.000000 0.222150
O O16 0.905474 0.255562 0.100256
#
# Coordination Sequence:
#
# PCOD8093948 Si02
#       8
#     4   8   8   8   8   8   8   4
#     4  10  21  36  57  82 118 146 191 232 291 342
#     4  11  20  39  61  85 121 153 192 240 295 347
#     4  10  20  35  57  83 114 149 191 242 293 345
#     4  10  21  36  61  92 116 148 198 245 298 351
#     4   9  20  36  58  79 114 154 199 238 285 342
#     4  10  22  39  61  88 119 156 195 244 296 354
#     4  10  19  39  58  84 118 154 197 244 294 349
#     4  10  19  36  61  84 118 156 191 244 297 340
#
# _framework density 18.857762000000001
#
# number of rings (size 3 to 8) (size 9 to 14) (size 15 to 20)
#    0.000    2.000    2.857    0.857    0.000    4.000 
#    0.000    3.571    0.000    0.000    0.000    0.000 
#    0.000    0.000    0.000    0.000    0.000    0.000 
#
# Total GULP energy -346891.993886 kJ/mol
# GULP energy per Si atom -12388.999782 kJ/mol
# Density = 1.881484 g / cm^3
# Si number density = 18.857762 Si / 1000 Ang^3
#
#
#
# Elastic Constant Matrix: (Units=GPa)
#
#
# Indices 1 2 3 4 5 6 
#
# 1 81.4229 37.7503 32.9362 0.0000 -13.0090 0.0000
# 2 37.7503 113.0698 45.7938 0.0000 -12.6163 0.0000
# 3 32.9362 45.7938 87.4761 0.0000 -8.2135 0.0000
# 4 0.0000 0.0000 0.0000 21.4398 0.0000 -1.6230
# 5 -13.0090 -12.6163 -8.2135 0.0000 37.4718 0.0000
# 6 0.0000 0.0000 0.0000 -1.6230 0.0000 13.2061
#
#
#
# Elastic Compliance Matrix: (Units=1/GPa)
#
#
# Indices 1 2 3 4 5 6 
#
# 1 0.015995 -0.003349 -0.003935 0.000000 0.003563 0.000000
# 2 -0.003349 0.012168 -0.004935 0.000000 0.001852 0.000000
# 3 -0.003935 -0.004935 0.015532 0.000000 0.000377 0.000000
# 4 0.000000 0.000000 0.000000 0.047080 0.000000 0.005786
# 5 0.003563 0.001852 0.000377 0.000000 0.028630 0.000000
# 6 0.000000 0.000000 0.000000 0.005786 0.000000 0.076434
#
#
# Mechanical properties :
#
#
# Convention : Reuss Voigt Hill
#
# Bulk Modulus (GPa) = 51.92789 57.21440 54.57114
# Shear Modulus (GPa) = 22.05608 25.45610 23.75609
#
# Velocity S-wave (km/s) = 3.42365 3.67809 3.55315
# Velocity P-wave (km/s) = 6.57457 6.96014 6.77010
#
# Compressibility (1/GPa) = 0.01925747
#
# Stress axis : x y z
#
# Youngs Moduli (GPa) = 62.51883 82.18574 64.38362
#
# Poissons Ratio (x) = 0.27525 0.25333
# Poissons Ratio (y) = 0.20939 0.31772
# Poissons Ratio (z) = 0.24599 0.40557
#
# Static dielectric constant tensor:
#      x y z
#    x 4.067870 0.000000 0.287950 
#    y 0.000000 3.159470 0.000000 
#    z 0.287950 0.000000 3.933250 
# 
# 
# High freq. dielectric constant tensor:
#      x y z
#    x 1.745840 0.000000 -0.002910 
#    y 0.000000 1.693680 0.000000 
#    z -0.002910 0.000000 1.746570 
# 
# From -- ./inp_files/225216.got.cif
#   From: 2010.06.25/outbox.cif.g09.slc.cpg/sg12_113_cif.got.tgz:225216.got - 2010.06.28 00:19:55.
