data_PCOD8093704
_publ_section_title
;
Structure prediction by ZEFSAII (Michael W. Deem and Ramdas Pophale) SiO2 
 PCOD8093704
Probable space group: C 2/M
;
_chemical_formula_sum "Si O2"
_cell_formula_units_Z 52
_cell_length_a 5.056917
_cell_length_b 27.508592
_cell_length_c 22.081794
_cell_angle_alpha 90.000000
_cell_angle_beta 120.959422
_cell_angle_gamma 90.000000
_cell_volume 2634.139670
_symmetry_space_group_name_H-M "C 2/M"
_symmetry_group_IT_number 12
_symmetry_cell_setting 'monoclinic'
loop_
_space_group_symop_operation_xyz
x,y,z
-x,y,-z
-x,-y,-z
x,-y,z
1/2+x,1/2+y,z
1/2-x,1/2+y,-z
1/2-x,1/2-y,-z
1/2+x,1/2-y,z
loop_
_atom_site_type_symbol
_atom_site_label
_atom_site_fract_x
_atom_site_fract_y
_atom_site_fract_z
Si Si1 0.189912 0.279258 0.579345
Si Si2 0.765047 0.423343 0.663195
Si Si3 0.366528 0.500000 0.549848
Si Si4 0.311117 0.219225 0.916372
Si Si5 0.209100 0.865032 0.323447
Si Si6 0.395770 0.380631 0.165043
Si Si7 0.913267 0.445186 0.179324
O O1 0.523949 0.267382 0.590562
O O2 0.182123 0.315633 0.634275
O O3 0.000000 0.300608 0.500000
O O4 0.494529 0.453563 0.600108
O O5 0.591162 0.379018 0.674001
O O6 0.011291 0.404362 0.642341
O O7 0.945863 0.452376 0.736753
O O8 0.500000 0.500000 0.500000
O O9 0.000000 0.500000 0.500000
O O10 0.496506 0.251068 0.889275
O O11 0.255739 0.164456 0.887415
O O12 0.500000 0.214041 0.000000
O O13 0.113804 0.857538 0.242443
O O14 0.601102 0.413406 0.144050
O O15 0.143082 0.417217 0.161887
O O16 0.848992 0.500000 0.147272
#
# Coordination Sequence:
#
# PCOD8093704 Si02
#       7
#     8   8   4   8   8   8   8
#     4  10  21  36  52  71  97 134 174 215 271 333
#     4  10  21  37  52  76 105 138 176 223 276 335
#     4  12  24  36  52  76 106 140 179 224 275 332
#     4  10  21  38  60  86 122 162 189 227 289 344
#     4  10  21  35  56  78 104 136 178 229 280 319
#     4  10  21  34  57  90 110 143 200 235 274 343
#     4  10  19  36  59  80 113 151 186 237 288 334
#
# _framework density 19.740790000000001
#
# number of rings (size 3 to 8) (size 9 to 14) (size 15 to 20)
#    0.000    1.846    0.769    3.231    0.000    3.077 
#    0.000    0.000    0.000    2.769    0.000    0.000 
#    0.000    0.000    0.000    0.000    0.000    0.000 
#
# Total GULP energy -322293.158017 kJ/mol
# GULP energy per Si atom -12395.890693 kJ/mol
# Density = 1.969586 g / cm^3
# Si number density = 19.740790 Si / 1000 Ang^3
#
#
#
# Elastic Constant Matrix: (Units=GPa)
#
#
# Indices 1 2 3 4 5 6 
#
# 1 133.0788 41.4186 22.0726 0.0000 -2.2993 0.0000
# 2 41.4186 118.6692 36.7910 0.0000 1.6519 0.0000
# 3 22.0726 36.7910 40.3806 0.0000 1.1986 0.0000
# 4 0.0000 0.0000 0.0000 28.4295 0.0000 4.8777
# 5 -2.2993 1.6519 1.1986 0.0000 16.9517 0.0000
# 6 0.0000 0.0000 0.0000 4.8777 0.0000 25.6559
#
#
#
# Elastic Compliance Matrix: (Units=1/GPa)
#
#
# Indices 1 2 3 4 5 6 
#
# 1 0.008687 -0.002184 -0.002805 0.000000 0.001590 0.000000
# 2 -0.002184 0.012296 -0.009986 0.000000 -0.000788 0.000000
# 3 -0.002805 -0.009986 0.035453 0.000000 -0.001914 0.000000
# 4 0.000000 0.000000 0.000000 0.036361 0.000000 -0.006913
# 5 0.001590 -0.000788 -0.001914 0.000000 0.059419 0.000000
# 6 0.000000 0.000000 0.000000 -0.006913 0.000000 0.040292
#
#
# Mechanical properties :
#
#
# Convention : Reuss Voigt Hill
#
# Bulk Modulus (GPa) = 37.75744 54.74368 46.25056
# Shear Modulus (GPa) = 21.61829 26.99717 24.30773
#
# Velocity S-wave (km/s) = 3.31283 3.70210 3.51286
# Velocity P-wave (km/s) = 5.81389 6.78716 6.31929
#
# Compressibility (1/GPa) = 0.02648485
#
# Stress axis : x y z
#
# Youngs Moduli (GPa) = 115.11501 81.32756 28.20674
#
# Poissons Ratio (x) = 0.17765 0.07913
# Poissons Ratio (y) = 0.25145 0.28166
# Poissons Ratio (z) = 0.32295 0.81210
#
# Static dielectric constant tensor:
#      x y z
#    x 3.761230 0.000000 0.002600 
#    y 0.000000 3.408770 0.000000 
#    z 0.002600 0.000000 3.391460 
# 
# 
# High freq. dielectric constant tensor:
#      x y z
#    x 1.792030 0.000000 -0.003160 
#    y 0.000000 1.765490 0.000000 
#    z -0.003160 0.000000 1.742880 
# 
# From -- ./inp_files/298122.got.cif
#   From: 2010.06.25/outbox.cif.g09.slc.cpg/sg12_150_cif.got.tgz:298122.got - 2010.06.28 00:19:55.
