data_PCOD8093689
_publ_section_title
;
Structure prediction by ZEFSAII (Michael W. Deem and Ramdas Pophale) SiO2 
 PCOD8093689
Probable space group: C 2/M
;
_chemical_formula_sum "Si O2"
_cell_formula_units_Z 48
_cell_length_a 16.380527
_cell_length_b 12.662537
_cell_length_c 14.919693
_cell_angle_alpha 90.000000
_cell_angle_beta 54.123416
_cell_angle_gamma 90.000000
_cell_volume 2507.519129
_symmetry_space_group_name_H-M "C 2/M"
_symmetry_group_IT_number 12
_symmetry_cell_setting 'monoclinic'
loop_
_space_group_symop_operation_xyz
x,y,z
-x,y,-z
-x,-y,-z
x,-y,z
1/2+x,1/2+y,z
1/2-x,1/2+y,-z
1/2-x,1/2-y,-z
1/2+x,1/2-y,z
loop_
_atom_site_type_symbol
_atom_site_label
_atom_site_fract_x
_atom_site_fract_y
_atom_site_fract_z
Si Si1 0.604235 0.121446 0.237594
Si Si2 0.463266 0.622040 0.192454
Si Si3 0.651597 0.620439 0.382375
Si Si4 0.797728 0.241617 0.186889
Si Si5 0.138966 0.274028 0.041049
Si Si6 0.024440 0.807085 0.620335
O O1 0.709611 0.165883 0.206971
O O2 0.597815 0.133192 0.132867
O O3 0.512105 0.186396 0.341388
O O4 0.591679 0.000000 0.272652
O O5 0.469544 0.500000 0.165163
O O6 0.376119 0.671262 0.189109
O O7 0.571367 0.670441 0.098814
O O8 0.437235 0.640390 0.313144
O O9 0.669555 0.500000 0.400502
O O10 0.755842 0.668428 0.279769
O O11 0.568453 0.623593 0.357321
O O12 0.615548 0.690106 0.490578
O O13 0.856208 0.301620 0.067728
O O14 0.250000 0.250000 0.000000
#
# Coordination Sequence:
#
# PCOD8093689 Si02
#       6
#     8   8   8   8   8   8
#     4   9  18  35  56  77 108 145 179 224 273 313
#     4  11  21  35  57  81 110 144 176 220 275 320
#     4  10  19  36  59  78 107 145 181 224 267 312
#     4  10  21  34  51  84 114 138 179 223 267 327
#     4   9  20  35  52  77 106 136 179 221 254 315
#     4   9  19  35  56  83 105 136 191 230 256 315
#
# _framework density 19.142427000000001
#
# number of rings (size 3 to 8) (size 9 to 14) (size 15 to 20)
#    0.000    2.333    0.000    4.000    0.000    5.333 
#    0.000   10.833    0.000    5.000    0.000    0.000 
#    0.000    0.000    0.000    0.000    0.000    0.000 
#
# Total GULP energy -297529.536941 kJ/mol
# GULP energy per Si atom -12397.064039 kJ/mol
# Density = 1.909886 g / cm^3
# Si number density = 19.142427 Si / 1000 Ang^3
#
#
#
# Elastic Constant Matrix: (Units=GPa)
#
#
# Indices 1 2 3 4 5 6 
#
# 1 82.0894 36.3924 46.3147 0.0000 6.2625 0.0000
# 2 36.3924 127.9580 61.7113 0.0000 -9.8231 0.0000
# 3 46.3147 61.7113 151.5571 0.0000 8.8771 0.0000
# 4 0.0000 0.0000 0.0000 15.8166 0.0000 -0.3994
# 5 6.2625 -9.8231 8.8771 0.0000 17.3808 0.0000
# 6 0.0000 0.0000 0.0000 -0.3994 0.0000 23.6845
#
#
#
# Elastic Compliance Matrix: (Units=1/GPa)
#
#
# Indices 1 2 3 4 5 6 
#
# 1 0.015952 -0.003526 -0.003078 0.000000 -0.006169 0.000000
# 2 -0.003526 0.011635 -0.004246 0.000000 0.010015 0.000000
# 3 -0.003078 -0.004246 0.009632 0.000000 -0.006210 0.000000
# 4 0.000000 0.000000 0.000000 0.063252 0.000000 0.001067
# 5 -0.006169 0.010015 -0.006210 0.000000 0.068590 0.000000
# 6 0.000000 0.000000 0.000000 0.001067 0.000000 0.042240
#
#
# Mechanical properties :
#
#
# Convention : Reuss Voigt Hill
#
# Bulk Modulus (GPa) = 64.44276 72.27126 68.35701
# Shear Modulus (GPa) = 20.99316 25.85544 23.42430
#
# Velocity S-wave (km/s) = 3.31521 3.67916 3.50192
# Velocity P-wave (km/s) = 6.95645 7.47561 7.22069
#
# Compressibility (1/GPa) = 0.01551765
#
# Stress axis : x y z
#
# Youngs Moduli (GPa) = 62.68746 85.94933 103.82535
#
# Poissons Ratio (x) = 0.30307 0.31955
# Poissons Ratio (y) = 0.22105 0.44089
# Poissons Ratio (z) = 0.19294 0.36498
#
# Static dielectric constant tensor:
#      x y z
#    x 3.435530 0.000000 0.184750 
#    y 0.000000 3.324290 0.000000 
#    z 0.184750 0.000000 4.003220 
# 
# 
# High freq. dielectric constant tensor:
#      x y z
#    x 1.732830 0.000000 0.010100 
#    y 0.000000 1.722870 0.000000 
#    z 0.010100 0.000000 1.759440 
# 
# From -- ./inp_files/213252.got.cif
#   From: 2010.06.25/outbox.cif.g09.slc.cpg/sg12_107_cif.got.tgz:213252.got - 2010.06.28 00:19:55.
