data_PCOD8093663
_publ_section_title
;
Structure prediction by ZEFSAII (Michael W. Deem and Ramdas Pophale) SiO2 
 PCOD8093663
Probable space group: C 2/M
;
_chemical_formula_sum "Si O2"
_cell_formula_units_Z 48
_cell_length_a 14.700926
_cell_length_b 16.718032
_cell_length_c 9.893339
_cell_angle_alpha 90.000000
_cell_angle_beta 101.475581
_cell_angle_gamma 90.000000
_cell_volume 2382.884858
_symmetry_space_group_name_H-M "C 2/M"
_symmetry_group_IT_number 12
_symmetry_cell_setting 'monoclinic'
loop_
_space_group_symop_operation_xyz
x,y,z
-x,y,-z
-x,-y,-z
x,-y,z
1/2+x,1/2+y,z
1/2-x,1/2+y,-z
1/2-x,1/2-y,-z
1/2+x,1/2-y,z
loop_
_atom_site_type_symbol
_atom_site_label
_atom_site_fract_x
_atom_site_fract_y
_atom_site_fract_z
Si Si1 0.110485 0.905526 0.396013
Si Si2 0.239016 0.407138 0.764872
Si Si3 0.035098 0.404467 0.653618
Si Si4 0.919396 0.590193 0.867525
Si Si5 0.742185 0.339326 0.945457
Si Si6 0.901487 0.905250 0.302368
O O1 0.186710 0.867457 0.316625
O O2 0.135253 0.883447 0.558079
O O3 0.008040 0.876060 0.323281
O O4 0.109010 0.000000 0.381212
O O5 0.233046 0.500000 0.729317
O O6 0.137391 0.368295 0.711513
O O7 0.269235 0.396514 0.928623
O O8 0.038899 0.500000 0.662553
O O9 0.000000 0.372628 0.500000
O O10 0.961780 0.373250 0.742573
O O11 0.882004 0.500000 0.834448
O O12 0.834509 0.644040 0.887996
O O13 0.000000 0.590229 0.000000
O O14 0.654344 0.353502 0.823284
O O15 0.750000 0.250000 0.000000
O O16 0.890007 0.000000 0.270582
#
# Coordination Sequence:
#
# PCOD8093663 Si02
#       6
#     8   8   8   8   8   8
#     4   8  17  34  61  90 111 138 190 253 299 341
#     4  10  19  36  58  85 116 145 190 248 295 344
#     4   9  18  31  56  91 115 138 184 244 299 341
#     4  10  19  37  62  83 110 150 196 245 292 342
#     4  12  25  38  53  83 121 160 196 232 288 356
#     4   9  18  37  62  86 110 147 198 244 292 348
#
# _framework density 20.143650999999998
#
# number of rings (size 3 to 8) (size 9 to 14) (size 15 to 20)
#    0.000    2.333    1.667    2.500    2.333    0.667 
#    3.000    3.333    3.667    0.000    0.000    0.000 
#    0.000    0.000    0.000    0.000    0.000    0.000 
#
# Total GULP energy -297553.844621 kJ/mol
# GULP energy per Si atom -12398.076859 kJ/mol
# Density = 2.009780 g / cm^3
# Si number density = 20.143651 Si / 1000 Ang^3
#
#
#
# Elastic Constant Matrix: (Units=GPa)
#
#
# Indices 1 2 3 4 5 6 
#
# 1 167.3392 36.2239 90.8795 0.0000 -23.4435 0.0000
# 2 36.2239 41.9474 26.0874 0.0000 3.0155 0.0000
# 3 90.8795 26.0874 169.2286 0.0000 -5.8840 0.0000
# 4 0.0000 0.0000 0.0000 18.0231 0.0000 0.3122
# 5 -23.4435 3.0155 -5.8840 0.0000 45.2252 0.0000
# 6 0.0000 0.0000 0.0000 0.3122 0.0000 12.8211
#
#
#
# Elastic Compliance Matrix: (Units=1/GPa)
#
#
# Indices 1 2 3 4 5 6 
#
# 1 0.010628 -0.006781 -0.004475 0.000000 0.005379 0.000000
# 2 -0.006781 0.030934 -0.001327 0.000000 -0.005750 0.000000
# 3 -0.004475 -0.001327 0.008478 0.000000 -0.001128 0.000000
# 4 0.000000 0.000000 0.000000 0.055508 0.000000 -0.001352
# 5 0.005379 -0.005750 -0.001128 0.000000 0.025137 0.000000
# 6 0.000000 0.000000 0.000000 -0.001352 0.000000 0.078029
#
#
# Mechanical properties :
#
#
# Convention : Reuss Voigt Hill
#
# Bulk Modulus (GPa) = 40.20397 76.09962 58.15180
# Shear Modulus (GPa) = 20.64666 30.23551 25.44108
#
# Velocity S-wave (km/s) = 3.20499 3.87847 3.55770
# Velocity P-wave (km/s) = 5.80499 7.61033 6.76813
#
# Compressibility (1/GPa) = 0.02487316
#
# Stress axis : x y z
#
# Youngs Moduli (GPa) = 94.09413 32.32689 117.95792
#
# Poissons Ratio (x) = 0.21922 0.52785
# Poissons Ratio (y) = 0.63808 0.15652
# Poissons Ratio (z) = 0.42106 0.04289
#
# Static dielectric constant tensor:
#      x y z
#    x 4.402390 0.000000 -0.308200 
#    y 0.000000 3.086100 0.000000 
#    z -0.308200 0.000000 3.859370 
# 
# 
# High freq. dielectric constant tensor:
#      x y z
#    x 1.799540 0.000000 -0.006440 
#    y 0.000000 1.731510 0.000000 
#    z -0.006440 0.000000 1.796910 
# 
# From -- ./inp_files/63629.got.cif
#   From: 2010.06.25/outbox.cif.g09.slc.cpg/sg12_32_cif.got.tgz:63629.got - 2010.06.28 00:19:55.
