data_PCOD8093182
_publ_section_title
;
Structure prediction by ZEFSAII (Michael W. Deem and Ramdas Pophale) SiO2 
 PCOD8093182
Probable space group: C 2/M
;
_chemical_formula_sum "Si O2"
_cell_formula_units_Z 64
_cell_length_a 19.191765
_cell_length_b 14.095251
_cell_length_c 27.035157
_cell_angle_alpha 90.000000
_cell_angle_beta 27.807441
_cell_angle_gamma 90.000000
_cell_volume 3411.690980
_symmetry_space_group_name_H-M "C 2/M"
_symmetry_group_IT_number 12
_symmetry_cell_setting 'monoclinic'
loop_
_space_group_symop_operation_xyz
x,y,z
-x,y,-z
-x,-y,-z
x,-y,z
1/2+x,1/2+y,z
1/2-x,1/2+y,-z
1/2-x,1/2-y,-z
1/2+x,1/2-y,z
loop_
_atom_site_type_symbol
_atom_site_label
_atom_site_fract_x
_atom_site_fract_y
_atom_site_fract_z
Si Si1 0.955777 0.605520 0.976013
Si Si2 0.278667 0.608217 0.752400
Si Si3 0.325432 0.396133 0.410368
Si Si4 0.907419 0.767973 0.751025
Si Si5 0.116548 0.270191 0.384167
Si Si6 0.814790 0.192761 0.913340
Si Si7 0.128064 0.106331 0.732733
Si Si8 0.509781 0.892883 0.366336
O O1 0.907316 0.500000 0.022062
O O2 0.103585 0.607211 0.848954
O O3 0.823936 0.641510 0.024507
O O4 0.000000 0.659828 0.000000
O O5 0.341784 0.500000 0.711604
O O6 0.294261 0.654798 0.797953
O O7 0.364129 0.673489 0.659087
O O8 0.391689 0.500000 0.383188
O O9 0.430336 0.312131 0.363395
O O10 0.310132 0.391366 0.361221
O O11 0.164972 0.384821 0.536550
O O12 0.882356 0.747022 0.824915
O O13 0.894148 0.666212 0.733575
O O14 0.278417 0.312201 0.297816
O O15 0.000000 0.243484 0.500000
O O16 0.037205 0.352997 0.403477
O O17 0.949353 0.126249 0.848054
O O18 0.750000 0.250000 0.000000
O O19 0.152715 0.000000 0.739472
O O20 0.567727 0.000000 0.327163
#
# Coordination Sequence:
#
# PCOD8093182 Si02
#       8
#     8   8   8   8   8   8   8   8
#     4  10  19  35  60  85 109 142 189 240 287 340
#     4  10  21  36  57  83 111 145 186 233 284 345
#     4   9  17  30  53  79 104 137 182 232 276 325
#     4  10  20  34  54  79 111 144 185 234 287 341
#     4  11  21  35  56  82 114 151 186 229 281 340
#     4  11  22  37  57  85 115 148 189 245 297 339
#     4  10  20  34  55  83 113 145 189 238 280 329
#     4  10  20  34  53  77 107 150 193 229 273 333
#
# _framework density 18.759025999999999
#
# number of rings (size 3 to 8) (size 9 to 14) (size 15 to 20)
#    0.000    1.875    2.500    2.250    0.000    1.750 
#    0.000    1.250    0.000    3.000    0.000    4.375 
#    0.000    0.000    0.000    0.000    0.000    0.000 
#
# Total GULP energy -396472.956273 kJ/mol
# GULP energy per Si atom -12389.779884 kJ/mol
# Density = 1.871633 g / cm^3
# Si number density = 18.759026 Si / 1000 Ang^3
#
#
#
# Elastic Constant Matrix: (Units=GPa)
#
#
# Indices 1 2 3 4 5 6 
#
# 1 85.8312 36.5957 36.7192 0.0069 -6.0105 -0.0065
# 2 36.5957 116.1969 42.7020 -0.0092 5.7612 0.0000
# 3 36.7192 42.7020 75.6301 -0.0150 0.3819 -0.0041
# 4 0.0069 -0.0092 -0.0150 20.1514 -0.0044 -3.1840
# 5 -6.0105 5.7612 0.3819 -0.0044 32.7529 0.0071
# 6 -0.0065 0.0000 -0.0041 -3.1840 0.0071 23.1266
#
#
#
# Elastic Compliance Matrix: (Units=1/GPa)
#
#
# Indices 1 2 3 4 5 6 
#
# 1 0.015700 -0.002913 -0.005995 -0.000010 0.003463 0.000001
# 2 -0.002913 0.011512 -0.005073 0.000002 -0.002500 -0.000001
# 3 -0.005995 -0.005073 0.018999 0.000014 -0.000429 0.000004
# 4 -0.000010 0.000002 0.000014 0.050728 0.000003 0.006984
# 5 0.003463 -0.002500 -0.000429 0.000003 0.031612 -0.000008
# 6 0.000001 -0.000001 0.000004 0.006984 -0.000008 0.044202
#
#
# Mechanical properties :
#
#
# Convention : Reuss Voigt Hill
#
# Bulk Modulus (GPa) = 54.79770 56.63243 55.71507
# Shear Modulus (GPa) = 24.17815 25.98228 25.08022
#
# Velocity S-wave (km/s) = 3.59399 3.72567 3.66042
# Velocity P-wave (km/s) = 6.81888 6.98301 6.90144
#
# Compressibility (1/GPa) = 0.01824894
#
# Stress axis : x y z
#
# Youngs Moduli (GPa) = 63.69337 86.86767 52.63352
#
# Poissons Ratio (x) = 0.25306 0.31555
# Poissons Ratio (y) = 0.18555 0.26699
# Poissons Ratio (z) = 0.38186 0.44065
#
# Static dielectric constant tensor:
#      x y z
#    x 3.709410 0.000010 0.009610 
#    y 0.000010 3.356230 0.000030 
#    z 0.009610 0.000030 3.426120 
# 
# 
# High freq. dielectric constant tensor:
#      x y z
#    x 1.727800 0.000000 -0.016570 
#    y 0.000000 1.715520 0.000000 
#    z -0.016570 0.000000 1.724700 
# 
# From -- ./inp_files/366011.got.cif
#   From: 2010.06.25/outbox.cif.g09.slc.cpg/sg12_184_cif.got.tgz:366011.got - 2010.06.28 00:19:55.
