data_PCOD8093159
_publ_section_title
;
Structure prediction by ZEFSAII (Michael W. Deem and Ramdas Pophale) SiO2 
 PCOD8093159
Probable space group: C 2/M
;
_chemical_formula_sum "Si O2"
_cell_formula_units_Z 48
_cell_length_a 11.329139
_cell_length_b 19.245560
_cell_length_c 11.741988
_cell_angle_alpha 90.000000
_cell_angle_beta 75.329102
_cell_angle_gamma 90.000000
_cell_volume 2476.701174
_symmetry_space_group_name_H-M "C 2/M"
_symmetry_group_IT_number 12
_symmetry_cell_setting 'monoclinic'
loop_
_space_group_symop_operation_xyz
x,y,z
-x,y,-z
-x,-y,-z
x,-y,z
1/2+x,1/2+y,z
1/2-x,1/2+y,-z
1/2-x,1/2-y,-z
1/2+x,1/2-y,z
loop_
_atom_site_type_symbol
_atom_site_label
_atom_site_fract_x
_atom_site_fract_y
_atom_site_fract_z
Si Si1 0.034794 0.869892 0.864420
Si Si2 0.972491 0.326778 0.681317
Si Si3 0.842303 0.818897 0.746504
Si Si4 0.752293 0.420663 0.675028
Si Si5 0.913604 0.290170 0.122243
Si Si6 0.229876 0.329331 0.536413
O O1 0.144750 0.917665 0.794231
O O2 0.077155 0.791065 0.857925
O O3 0.925442 0.872934 0.797487
O O4 0.000000 0.896174 0.000000
O O5 0.911270 0.250948 0.690716
O O6 0.874333 0.387326 0.695750
O O7 0.039735 0.335489 0.784719
O O8 0.082450 0.337649 0.563919
O O9 0.730327 0.803509 0.860970
O O10 0.790360 0.851224 0.641876
O O11 0.779177 0.500000 0.636639
O O12 0.709896 0.378945 0.572806
O O13 0.000000 0.314779 0.000000
O O14 0.250000 0.250000 0.500000
#
# Coordination Sequence:
#
# PCOD8093159 Si02
#       6
#     8   8   8   8   8   8
#     4  10  22  37  59  87 120 156 195 245 302 355
#     4  10  20  34  56  88 121 152 193 238 296 346
#     4  10  19  35  59  91 121 149 194 253 298 346
#     4  12  25  40  58  86 121 160 201 239 292 363
#     4   9  18  31  59  93 119 148 191 252 305 341
#     4  11  21  37  61  89 119 156 196 246 295 352
#
# _framework density 19.380617999999998
#
# number of rings (size 3 to 8) (size 9 to 14) (size 15 to 20)
#    0.000    1.667    3.333    2.500    2.333    5.667 
#    0.000    1.667    0.000    1.500    0.000    0.000 
#    0.000    0.000    0.000    0.000    0.000    0.000 
#
# Total GULP energy -297485.926821 kJ/mol
# GULP energy per Si atom -12395.246951 kJ/mol
# Density = 1.933651 g / cm^3
# Si number density = 19.380618 Si / 1000 Ang^3
#
#
#
# Elastic Constant Matrix: (Units=GPa)
#
#
# Indices 1 2 3 4 5 6 
#
# 1 112.6675 20.0781 36.6456 0.0000 -6.5024 0.0000
# 2 20.0781 75.8994 27.7591 0.0000 0.1004 0.0000
# 3 36.6456 27.7591 95.7556 0.0000 -14.3793 0.0000
# 4 0.0000 0.0000 0.0000 16.3184 0.0000 -0.5233
# 5 -6.5024 0.1004 -14.3793 0.0000 35.8756 0.0000
# 6 0.0000 0.0000 0.0000 -0.5233 0.0000 12.8803
#
#
#
# Elastic Compliance Matrix: (Units=1/GPa)
#
#
# Indices 1 2 3 4 5 6 
#
# 1 0.010283 -0.001464 -0.003437 0.000000 0.000490 0.000000
# 2 -0.001464 0.015065 -0.004100 0.000000 -0.001951 0.000000
# 3 -0.003437 -0.004100 0.013679 0.000000 0.004871 0.000000
# 4 0.000000 0.000000 0.000000 0.061360 0.000000 0.002493
# 5 0.000490 -0.001951 0.004871 0.000000 0.029921 0.000000
# 6 0.000000 0.000000 0.000000 0.002493 0.000000 0.077739
#
#
# Mechanical properties :
#
#
# Convention : Reuss Voigt Hill
#
# Bulk Modulus (GPa) = 47.56406 50.36536 48.96471
# Shear Modulus (GPa) = 21.45405 26.33752 23.89578
#
# Velocity S-wave (km/s) = 3.33075 3.69041 3.51518
# Velocity P-wave (km/s) = 6.27592 6.64851 6.46490
#
# Compressibility (1/GPa) = 0.02102428
#
# Stress axis : x y z
#
# Youngs Moduli (GPa) = 97.24979 66.38082 73.10627
#
# Poissons Ratio (x) = 0.09716 0.25129
# Poissons Ratio (y) = 0.14234 0.29973
# Poissons Ratio (z) = 0.33428 0.27216
#
# Static dielectric constant tensor:
#      x y z
#    x 4.050520 0.000000 -0.034920 
#    y 0.000000 2.962930 0.000000 
#    z -0.034920 0.000000 3.890280 
# 
# 
# High freq. dielectric constant tensor:
#      x y z
#    x 1.773900 0.000000 -0.005710 
#    y 0.000000 1.694390 0.000000 
#    z -0.005710 0.000000 1.770760 
# 
# From -- ./inp_files/131640.got.cif
#   From: 2010.06.25/outbox.cif.g09.slc.cpg/sg12_66_cif.got.tgz:131640.got - 2010.06.28 00:19:55.
