data_PCOD8093706
_publ_section_title
;
Structure prediction by ZEFSAII (Michael W. Deem and Ramdas Pophale) SiO2 
 PCOD8093706
Probable space group: C 2/M
;
_chemical_formula_sum "Si O2"
_cell_formula_units_Z 56
_cell_length_a 14.355598
_cell_length_b 8.702536
_cell_length_c 24.814785
_cell_angle_alpha 90.000000
_cell_angle_beta 72.482689
_cell_angle_gamma 90.000000
_cell_volume 2956.349270
_symmetry_space_group_name_H-M "C 2/M"
_symmetry_group_IT_number 12
_symmetry_cell_setting 'monoclinic'
loop_
_space_group_symop_operation_xyz
x,y,z
-x,y,-z
-x,-y,-z
x,-y,z
1/2+x,1/2+y,z
1/2-x,1/2+y,-z
1/2-x,1/2-y,-z
1/2+x,1/2-y,z
loop_
_atom_site_type_symbol
_atom_site_label
_atom_site_fract_x
_atom_site_fract_y
_atom_site_fract_z
Si Si1 0.609429 0.821520 0.048212
Si Si2 0.132903 0.181056 0.735357
Si Si3 0.976169 0.180911 0.350289
Si Si4 0.311647 0.321815 0.067646
Si Si5 0.685167 0.682740 0.350878
Si Si6 0.415444 0.820506 0.143963
Si Si7 0.278964 0.681949 0.438187
O O1 0.702657 0.781677 0.068249
O O2 0.515956 0.770426 0.098301
O O3 0.605924 0.000000 0.033142
O O4 0.612206 0.727792 0.992027
O O5 0.053496 0.235381 0.704711
O O6 0.235558 0.265062 0.706941
O O7 0.091798 0.225333 0.800283
O O8 0.151506 0.000000 0.727980
O O9 0.890362 0.232577 0.406111
O O10 0.080164 0.250465 0.350066
O O11 0.986363 0.000000 0.349195
O O12 0.326087 0.500000 0.077974
O O13 0.328128 0.225222 0.119087
O O14 0.684753 0.500000 0.355122
O O15 0.706733 0.752199 0.405597
O O16 0.411311 0.000000 0.158002
O O17 0.268210 0.500000 0.440575
O O18 0.250000 0.750000 0.500000
#
# Coordination Sequence:
#
# PCOD8093706 Si02
#       7
#     8   8   8   8   8   8   8
#     4   9  20  37  54  75 106 139 172 213 262 316
#     4  10  21  38  55  77 107 138 175 221 265 312
#     4   8  18  36  57  77 105 143 179 214 261 314
#     4  10  20  35  55  79 105 135 172 215 264 317
#     4  10  19  36  59  81 105 141 181 218 263 314
#     4  11  22  36  54  77 105 139 176 216 263 314
#     4  10  20  36  55  82 115 146 179 219 261 306
#
# _framework density 18.942281999999999
#
# number of rings (size 3 to 8) (size 9 to 14) (size 15 to 20)
#    0.000    2.286    0.000    3.429    0.000    5.143 
#    0.000   14.286    0.000    0.000    0.000    0.000 
#    0.000    0.000    0.000    0.000    0.000    0.000 
#
# Total GULP energy -347251.094535 kJ/mol
# GULP energy per Si atom -12401.824805 kJ/mol
# Density = 1.889917 g / cm^3
# Si number density = 18.942282 Si / 1000 Ang^3
#
#
#
# Elastic Constant Matrix: (Units=GPa)
#
#
# Indices 1 2 3 4 5 6 
#
# 1 130.6205 32.7258 55.2737 0.0000 6.4805 0.0000
# 2 32.7258 58.6000 29.9924 0.0000 3.9430 0.0000
# 3 55.2737 29.9924 121.6771 0.0000 10.4830 0.0000
# 4 0.0000 0.0000 0.0000 37.2476 0.0000 1.6030
# 5 6.4805 3.9430 10.4830 0.0000 17.1455 0.0000
# 6 0.0000 0.0000 0.0000 1.6030 0.0000 26.6854
#
#
#
# Elastic Compliance Matrix: (Units=1/GPa)
#
#
# Indices 1 2 3 4 5 6 
#
# 1 0.010173 -0.003775 -0.003625 0.000000 -0.000761 0.000000
# 2 -0.003775 0.020973 -0.003338 0.000000 -0.001355 0.000000
# 3 -0.003625 -0.003338 0.011088 0.000000 -0.004641 0.000000
# 4 0.000000 0.000000 0.000000 0.026917 0.000000 -0.001617
# 5 -0.000761 -0.001355 -0.004641 0.000000 0.061761 0.000000
# 6 0.000000 0.000000 0.000000 -0.001617 0.000000 0.037571
#
#
# Mechanical properties :
#
#
# Convention : Reuss Voigt Hill
#
# Bulk Modulus (GPa) = 48.17526 60.76461 54.46993
# Shear Modulus (GPa) = 25.39632 29.07606 27.23619
#
# Velocity S-wave (km/s) = 3.66556 3.92213 3.79602
# Velocity P-wave (km/s) = 6.58809 7.25667 6.93045
#
# Compressibility (1/GPa) = 0.02075754
#
# Stress axis : x y z
#
# Youngs Moduli (GPa) = 98.29581 47.68141 90.18687
#
# Poissons Ratio (x) = 0.17998 0.32697
# Poissons Ratio (y) = 0.37104 0.30105
# Poissons Ratio (z) = 0.35637 0.15916
#
# Static dielectric constant tensor:
#      x y z
#    x 3.744610 0.000000 0.019580 
#    y 0.000000 3.386120 0.000000 
#    z 0.019580 0.000000 3.436050 
# 
# 
# High freq. dielectric constant tensor:
#      x y z
#    x 1.743440 0.000000 0.003930 
#    y 0.000000 1.733050 0.000000 
#    z 0.003930 0.000000 1.736330 
# 
# From -- ./inp_files/337919.got.cif
#   From: 2010.06.25/outbox.cif.g09.slc.cpg/sg12_169_cif.got.tgz:337919.got - 2010.06.28 00:19:55.
