data_PCOD8093491
_publ_section_title
;
Structure prediction by ZEFSAII (Michael W. Deem and Ramdas Pophale) SiO2 
 PCOD8093491
Probable space group: C 2/M
;
_chemical_formula_sum "Si O2"
_cell_formula_units_Z 28
_cell_length_a 12.137096
_cell_length_b 16.384151
_cell_length_c 14.535811
_cell_angle_alpha 90.000000
_cell_angle_beta 151.113021
_cell_angle_gamma 90.000000
_cell_volume 1396.368755
_symmetry_space_group_name_H-M "C 2/M"
_symmetry_group_IT_number 12
_symmetry_cell_setting 'monoclinic'
loop_
_space_group_symop_operation_xyz
x,y,z
-x,y,-z
-x,-y,-z
x,-y,z
1/2+x,1/2+y,z
1/2-x,1/2+y,-z
1/2-x,1/2-y,-z
1/2+x,1/2-y,z
loop_
_atom_site_type_symbol
_atom_site_label
_atom_site_fract_x
_atom_site_fract_y
_atom_site_fract_z
Si Si1 0.275408 0.654475 0.505695
Si Si2 0.654793 0.344424 0.240979
Si Si3 0.500000 0.700194 0.500000
Si Si4 0.705661 0.907775 0.840174
O O1 0.250000 0.750000 0.500000
O O2 0.343030 0.617199 0.654426
O O3 0.465087 0.641951 0.564167
O O4 0.040566 0.614244 0.299489
O O5 0.797869 0.399830 0.273799
O O6 0.770832 0.254828 0.321407
O O7 0.390002 0.343985 0.016069
O O8 0.772181 0.000000 0.916184
#
# Coordination Sequence:
#
# PCOD8093491 Si02
#       4
#     8   8   4   8
#     4  10  20  38  56  82 114 150 186 227 276 327
#     4  10  19  36  55  86 112 141 183 232 279 324
#     4  10  20  38  58  84 112 148 192 226 272 330
#     4  11  22  36  57  87 115 143 184 232 284 334
#
# _framework density 20.052009000000002
#
# number of rings (size 3 to 8) (size 9 to 14) (size 15 to 20)
#    0.000    1.714    5.714    1.714    0.000    8.000 
#    0.000    0.714    0.000    1.714    0.000    0.000 
#    0.000    0.000    0.000    0.000    0.000    0.000 
#
# Total GULP energy -173455.208580 kJ/mol
# GULP energy per Si atom -12389.657756 kJ/mol
# Density = 2.000637 g / cm^3
# Si number density = 20.052009 Si / 1000 Ang^3
#
#
#
# Elastic Constant Matrix: (Units=GPa)
#
#
# Indices 1 2 3 4 5 6 
#
# 1 179.7440 19.4718 71.2717 -0.0117 4.5758 0.0013
# 2 19.4718 42.8889 29.3967 -0.0420 2.1642 0.0106
# 3 71.2717 29.3967 103.3705 -0.0944 -1.8848 -0.0063
# 4 -0.0117 -0.0420 -0.0944 18.7981 -0.0191 5.0742
# 5 4.5758 2.1642 -1.8848 -0.0191 20.5124 0.0055
# 6 0.0013 0.0106 -0.0063 5.0742 0.0055 15.5982
#
#
#
# Elastic Compliance Matrix: (Units=1/GPa)
#
#
# Indices 1 2 3 4 5 6 
#
# 1 0.007761 0.000357 -0.005494 -0.000026 -0.002274 0.000006
# 2 0.000357 0.029279 -0.008645 0.000026 -0.003963 -0.000031
# 3 -0.005494 -0.008645 0.015986 0.000064 0.003607 -0.000009
# 4 -0.000026 0.000026 0.000064 0.058318 0.000068 -0.018971
# 5 -0.002274 -0.003963 0.003607 0.000068 0.050008 -0.000035
# 6 0.000006 -0.000031 -0.000009 -0.018971 -0.000035 0.070282
#
#
# Mechanical properties :
#
#
# Convention : Reuss Voigt Hill
#
# Bulk Modulus (GPa) = 39.27324 62.92043 51.09683
# Shear Modulus (GPa) = 18.67857 24.70594 21.69225
#
# Velocity S-wave (km/s) = 3.05537 3.51393 3.29264
# Velocity P-wave (km/s) = 5.66350 6.92173 6.32398
#
# Compressibility (1/GPa) = 0.02546263
#
# Stress axis : x y z
#
# Youngs Moduli (GPa) = 128.84551 34.15379 62.55350
#
# Poissons Ratio (x) = -0.01219 0.34368
# Poissons Ratio (y) = -0.04598 0.54076
# Poissons Ratio (z) = 0.70790 0.29525
#
# Static dielectric constant tensor:
#      x y z
#    x 4.985660 -0.000050 -0.298200 
#    y -0.000050 3.298740 0.000020 
#    z -0.298200 0.000020 3.645170 
# 
# 
# High freq. dielectric constant tensor:
#      x y z
#    x 1.794530 0.000000 -0.002100 
#    y 0.000000 1.728800 0.000000 
#    z -0.002100 0.000000 1.776040 
# 
# From -- ./inp_files/205817.got.cif
#   From: 2010.06.25/outbox.cif.g09.slc.cpg/sg12_103_cif.got.tgz:205817.got - 2010.06.28 00:19:55.
