data_PCOD8093727
_publ_section_title
;
Structure prediction by ZEFSAII (Michael W. Deem and Ramdas Pophale) SiO2 
 PCOD8093727
Probable space group: C 2/M
;
_chemical_formula_sum "Si O2"
_cell_formula_units_Z 48
_cell_length_a 11.669511
_cell_length_b 13.911499
_cell_length_c 29.508218
_cell_angle_alpha 90.000000
_cell_angle_beta 151.348501
_cell_angle_gamma 90.000000
_cell_volume 2296.893235
_symmetry_space_group_name_H-M "C 2/M"
_symmetry_group_IT_number 12
_symmetry_cell_setting 'monoclinic'
loop_
_space_group_symop_operation_xyz
x,y,z
-x,y,-z
-x,-y,-z
x,-y,z
1/2+x,1/2+y,z
1/2-x,1/2+y,-z
1/2-x,1/2-y,-z
1/2+x,1/2-y,z
loop_
_atom_site_type_symbol
_atom_site_label
_atom_site_fract_x
_atom_site_fract_y
_atom_site_fract_z
Si Si1 0.891327 0.896870 0.913263
Si Si2 0.778136 0.611104 0.471551
Si Si3 0.108179 0.105915 0.586886
Si Si4 0.714400 0.689260 0.855990
Si Si5 0.239861 0.656105 0.025717
Si Si6 0.291640 0.693361 0.647667
O O1 0.733859 0.802556 0.848942
O O2 0.094931 0.916401 0.945309
O O3 0.749680 0.000000 0.865603
O O4 0.000000 0.875104 0.000000
O O5 0.805347 0.500000 0.467739
O O6 0.608343 0.628041 0.454682
O O7 0.664658 0.667023 0.389479
O O8 0.036332 0.652531 0.574711
O O9 0.301454 0.190729 0.657983
O O10 0.000000 0.107789 0.500000
O O11 0.221994 0.000000 0.636457
O O12 0.648881 0.674290 0.885899
O O13 0.500403 0.647191 0.751039
O O14 0.958029 0.628750 0.930919
O O15 0.250000 0.750000 0.000000
#
# Coordination Sequence:
#
# PCOD8093727 Si02
#       6
#     8   8   8   8   8   8
#     4  10  19  36  59  82 112 151 188 231 285 339
#     4  10  22  43  61  82 119 157 193 240 293 354
#     4  10  21  38  58  83 119 153 189 240 293 342
#     4  10  20  35  61  85 111 146 197 235 282 340
#     4   9  17  38  56  79 114 152 179 230 284 339
#     4  11  21  35  65  88 110 153 201 238 288 350
#
# _framework density 20.897794000000001
#
# number of rings (size 3 to 8) (size 9 to 14) (size 15 to 20)
#    0.000    2.000    5.000    1.500    0.000    3.333 
#    0.000    5.000    0.000    0.000    0.000    0.000 
#    0.000    0.000    0.000    0.000    0.000    0.000 
#
# Total GULP energy -297325.307540 kJ/mol
# GULP energy per Si atom -12388.554481 kJ/mol
# Density = 2.085023 g / cm^3
# Si number density = 20.897794 Si / 1000 Ang^3
#
#
#
# Elastic Constant Matrix: (Units=GPa)
#
#
# Indices 1 2 3 4 5 6 
#
# 1 148.7510 26.4527 50.6755 0.0001 -21.7714 0.0000
# 2 26.4527 88.4827 17.4886 -0.0002 1.0829 0.0001
# 3 50.6755 17.4886 142.0968 -0.0020 -20.3026 0.0010
# 4 0.0001 -0.0002 -0.0020 28.4779 0.0000 -14.2326
# 5 -21.7714 1.0829 -20.3026 0.0000 9.4796 0.0000
# 6 0.0000 0.0001 0.0010 -14.2326 0.0000 37.9822
#
#
#
# Elastic Compliance Matrix: (Units=1/GPa)
#
#
# Indices 1 2 3 4 5 6 
#
# 1 0.011210 -0.003737 0.000290 0.000000 0.026794 0.000000
# 2 -0.003737 0.013097 -0.002477 0.000000 -0.015384 0.000000
# 3 0.000290 -0.002477 0.010626 0.000001 0.023708 0.000000
# 4 0.000000 0.000000 0.000001 0.043206 0.000001 0.016190
# 5 0.026794 -0.015384 0.023708 0.000001 0.219561 0.000000
# 6 0.000000 0.000000 0.000000 0.016190 0.000000 0.032395
#
#
# Mechanical properties :
#
#
# Convention : Reuss Voigt Hill
#
# Bulk Modulus (GPa) = 43.31666 63.17380 53.24523
# Shear Modulus (GPa) = 14.30055 34.16886 24.23471
#
# Velocity S-wave (km/s) = 2.61877 4.04796 3.40910
# Velocity P-wave (km/s) = 5.46962 7.22104 6.40548
#
# Compressibility (1/GPa) = 0.02308581
#
# Stress axis : x y z
#
# Youngs Moduli (GPa) = 89.20772 76.35543 94.10716
#
# Poissons Ratio (x) = 0.28531 -0.02734
# Poissons Ratio (y) = 0.33333 0.23313
# Poissons Ratio (z) = -0.02591 0.18915
#
# Static dielectric constant tensor:
#      x y z
#    x 3.328340 0.000000 -0.191870 
#    y 0.000000 4.593640 0.000000 
#    z -0.191870 0.000000 3.318460 
# 
# 
# High freq. dielectric constant tensor:
#      x y z
#    x 1.831090 0.000000 -0.010770 
#    y 0.000000 1.822060 0.000000 
#    z -0.010770 0.000000 1.786240 
# 
# From -- ./inp_files/374148.got.cif
#   From: 2010.06.25/outbox.cif.g09.slc.cpg/sg12_188_cif.got.tgz:374148.got - 2010.06.28 00:19:55.
