data_PCOD8093846
_publ_section_title
;
Structure prediction by ZEFSAII (Michael W. Deem and Ramdas Pophale) SiO2 
 PCOD8093846
Probable space group: C 2/M
;
_chemical_formula_sum "Si O2"
_cell_formula_units_Z 60
_cell_length_a 25.030882
_cell_length_b 9.846928
_cell_length_c 19.100779
_cell_angle_alpha 90.000000
_cell_angle_beta 39.453090
_cell_angle_gamma 90.000000
_cell_volume 2991.622683
_symmetry_space_group_name_H-M "C 2/M"
_symmetry_group_IT_number 12
_symmetry_cell_setting 'monoclinic'
loop_
_space_group_symop_operation_xyz
x,y,z
-x,y,-z
-x,-y,-z
x,-y,z
1/2+x,1/2+y,z
1/2-x,1/2+y,-z
1/2-x,1/2-y,-z
1/2+x,1/2-y,z
loop_
_atom_site_type_symbol
_atom_site_label
_atom_site_fract_x
_atom_site_fract_y
_atom_site_fract_z
Si Si1 0.000000 0.247222 0.500000
Si Si2 0.698547 0.839079 0.931804
Si Si3 0.589713 0.153752 0.918911
Si Si4 0.136041 0.344372 0.467874
Si Si5 0.392373 0.842637 0.346191
Si Si6 0.924394 0.342025 0.823498
Si Si7 0.388433 0.655094 0.735238
Si Si8 0.284055 0.845490 0.331821
O O1 0.057854 0.335789 0.493510
O O2 0.063245 0.158697 0.388112
O O3 0.644469 0.772724 0.923776
O O4 0.793484 0.786111 0.827229
O O5 0.699758 0.000000 0.923080
O O6 0.655345 0.796274 0.049033
O O7 0.636529 0.154802 0.798563
O O8 0.572656 0.000000 0.962007
O O9 0.500000 0.228814 0.000000
O O10 0.166106 0.500000 0.438791
O O11 0.113227 0.289435 0.568546
O O12 0.212765 0.247237 0.368140
O O13 0.488257 0.817687 0.222553
O O14 0.321192 0.779384 0.366655
O O15 0.371968 0.000000 0.364927
O O16 0.917138 0.500000 0.808258
O O17 0.933290 0.251520 0.745403
O O18 0.388875 0.500000 0.761600
O O19 0.249413 0.000000 0.375495
#
# Coordination Sequence:
#
# PCOD8093846 Si02
#       8
#     4   8   8   8   8   8   8   8
#     4  12  24  40  60  80 114 158 198 238 286 346
#     4   9  18  32  53  81 114 147 185 234 285 337
#     4   9  16  29  52  84 113 143 184 230 281 338
#     4  11  23  39  58  81 113 151 196 241 285 341
#     4   9  18  35  57  84 113 148 192 234 278 337
#     4  10  19  36  60  84 113 152 193 234 279 338
#     4  11  23  38  56  83 116 149 189 241 294 343
#     4  10  20  35  59  87 117 150 189 237 290 340
#
# _framework density 20.056006
#
# number of rings (size 3 to 8) (size 9 to 14) (size 15 to 20)
#    0.000    2.000    1.333    2.800    0.000    5.867 
#    0.000    0.667    0.000    1.200    0.000    0.000 
#    0.000    0.000    0.000    0.000    0.000    0.000 
#
# Total GULP energy -371771.693405 kJ/mol
# GULP energy per Si atom -12392.389780 kJ/mol
# Density = 2.001036 g / cm^3
# Si number density = 20.056006 Si / 1000 Ang^3
#
#
#
# Elastic Constant Matrix: (Units=GPa)
#
#
# Indices 1 2 3 4 5 6 
#
# 1 131.2007 36.3111 35.1750 -0.0002 -5.3174 0.0000
# 2 36.3111 59.4034 27.0693 0.0008 -6.0472 0.0002
# 3 35.1750 27.0693 96.4648 0.0003 -10.5134 -0.0003
# 4 -0.0002 0.0008 0.0003 18.0949 0.0001 -1.6549
# 5 -5.3174 -6.0472 -10.5134 0.0001 35.8698 -0.0001
# 6 0.0000 0.0002 -0.0003 -1.6549 -0.0001 20.4344
#
#
#
# Elastic Compliance Matrix: (Units=1/GPa)
#
#
# Indices 1 2 3 4 5 6 
#
# 1 0.009535 -0.004868 -0.002114 0.000000 -0.000027 0.000000
# 2 -0.004868 0.021891 -0.004178 -0.000001 0.001744 0.000000
# 3 -0.002114 -0.004178 0.012601 0.000000 0.002676 0.000000
# 4 0.000000 -0.000001 0.000000 0.055676 0.000000 0.004509
# 5 -0.000027 0.001744 0.002676 0.000000 0.028953 0.000000
# 6 0.000000 0.000000 0.000000 0.004509 0.000000 0.049302
#
#
# Mechanical properties :
#
#
# Convention : Reuss Voigt Hill
#
# Bulk Modulus (GPa) = 46.06530 53.79774 49.93152
# Shear Modulus (GPa) = 24.09487 27.44739 25.77113
#
# Velocity S-wave (km/s) = 3.46985 3.70339 3.58852
# Velocity P-wave (km/s) = 6.25071 6.72077 6.49000
#
# Compressibility (1/GPa) = 0.02170831
#
# Stress axis : x y z
#
# Youngs Moduli (GPa) = 104.88000 45.68116 79.35767
#
# Poissons Ratio (x) = 0.22236 0.16774
# Poissons Ratio (y) = 0.51053 0.33154
# Poissons Ratio (z) = 0.22168 0.19085
#
# Static dielectric constant tensor:
#      x y z
#    x 3.901540 0.000000 -0.084620 
#    y 0.000000 3.107380 0.000000 
#    z -0.084620 0.000000 3.763830 
# 
# 
# High freq. dielectric constant tensor:
#      x y z
#    x 1.797910 0.000000 -0.006830 
#    y 0.000000 1.723220 0.000000 
#    z -0.006830 0.000000 1.794420 
# 
# From -- ./inp_files/289372.got.cif
#   From: 2010.06.25/outbox.cif.g09.slc.cpg/sg12_145_cif.got.tgz:289372.got - 2010.06.28 00:19:55.
