data_PCOD8093916
_publ_section_title
;
Structure prediction by ZEFSAII (Michael W. Deem and Ramdas Pophale) SiO2 
 PCOD8093916
Probable space group: C 2/M
;
_chemical_formula_sum "Si O2"
_cell_formula_units_Z 48
_cell_length_a 26.809599
_cell_length_b 19.279891
_cell_length_c 9.285510
_cell_angle_alpha 90.000000
_cell_angle_beta 29.653929
_cell_angle_gamma 90.000000
_cell_volume 2374.626331
_symmetry_space_group_name_H-M "C 2/M"
_symmetry_group_IT_number 12
_symmetry_cell_setting 'monoclinic'
loop_
_space_group_symop_operation_xyz
x,y,z
-x,y,-z
-x,-y,-z
x,-y,z
1/2+x,1/2+y,z
1/2-x,1/2+y,-z
1/2-x,1/2-y,-z
1/2+x,1/2-y,z
loop_
_atom_site_type_symbol
_atom_site_label
_atom_site_fract_x
_atom_site_fract_y
_atom_site_fract_z
Si Si1 0.780599 0.720806 0.081550
Si Si2 0.263203 0.575954 0.087867
Si Si3 0.632200 0.335738 0.968958
Si Si4 0.890881 0.181940 0.296001
Si Si5 0.617109 0.078262 0.224048
Si Si6 0.067080 0.081529 0.567103
O O1 0.870271 0.764178 0.933719
O O2 0.679616 0.730296 0.429854
O O3 0.750000 0.750000 0.000000
O O4 0.817890 0.641095 0.005290
O O5 0.295439 0.500000 0.056635
O O6 0.338643 0.600943 0.770629
O O7 0.272226 0.623737 0.203997
O O8 0.148976 0.578001 0.313070
O O9 0.659287 0.328119 0.733720
O O10 0.529323 0.377737 0.254202
O O11 0.909253 0.108312 0.331019
O O12 0.000000 0.218760 0.000000
O O13 0.500000 0.094172 0.500000
O O14 0.643302 0.000000 0.095720
O O15 0.044575 0.000000 0.628356
#
# Coordination Sequence:
#
# PCOD8093916 Si02
#       6
#     8   8   8   8   8   8
#     4  12  23  42  66  91 122 166 213 260 313 375
#     4  10  19  36  60  89 125 161 209 260 305 367
#     4  11  22  35  56  92 129 158 199 251 322 378
#     4  10  23  39  59  90 131 165 205 255 319 383
#     4  10  22  40  63  88 117 159 214 265 304 358
#     4  10  20  37  62  92 128 169 206 251 312 383
#
# _framework density 20.213705999999998
#
# number of rings (size 3 to 8) (size 9 to 14) (size 15 to 20)
#    0.000    1.500    3.333    1.500    0.000   10.333 
#    0.000    0.000    0.000    0.000    0.000    3.500 
#    0.000    0.000    0.000    0.000    0.000    0.000 
#
# Total GULP energy -297313.240440 kJ/mol
# GULP energy per Si atom -12388.051685 kJ/mol
# Density = 2.016770 g / cm^3
# Si number density = 20.213706 Si / 1000 Ang^3
#
#
#
# Elastic Constant Matrix: (Units=GPa)
#
#
# Indices 1 2 3 4 5 6 
#
# 1 163.5986 59.4654 53.1959 0.0000 2.8889 0.0000
# 2 59.4654 120.8307 38.9177 0.0000 -6.9615 0.0000
# 3 53.1959 38.9177 85.3196 0.0000 -5.4710 0.0000
# 4 0.0000 0.0000 0.0000 23.8567 0.0000 -6.6497
# 5 2.8889 -6.9615 -5.4710 0.0000 31.4207 0.0000
# 6 0.0000 0.0000 0.0000 -6.6497 0.0000 38.7087
#
#
#
# Elastic Compliance Matrix: (Units=1/GPa)
#
#
# Indices 1 2 3 4 5 6 
#
# 1 0.008589 -0.003027 -0.004114 0.000000 -0.002177 0.000000
# 2 -0.003027 0.010829 -0.002913 0.000000 0.002170 0.000000
# 3 -0.004114 -0.002913 0.015773 0.000000 0.002479 0.000000
# 4 0.000000 0.000000 0.000000 0.044025 0.000000 0.007563
# 5 -0.002177 0.002170 0.002479 0.000000 0.032939 0.000000
# 6 0.000000 0.000000 0.000000 0.007563 0.000000 0.027133
#
#
# Mechanical properties :
#
#
# Convention : Reuss Voigt Hill
#
# Bulk Modulus (GPa) = 66.29897 74.76745 70.53321
# Shear Modulus (GPa) = 30.40908 33.34187 31.87548
#
# Velocity S-wave (km/s) = 3.88284 4.06577 3.97536
# Velocity P-wave (km/s) = 7.27820 7.68827 7.48604
#
# Compressibility (1/GPa) = 0.01508319
#
# Stress axis : x y z
#
# Youngs Moduli (GPa) = 116.42759 92.34305 63.39847
#
# Poissons Ratio (x) = 0.27956 0.26081
# Poissons Ratio (y) = 0.35247 0.18467
# Poissons Ratio (z) = 0.47896 0.26899
#
# Static dielectric constant tensor:
#      x y z
#    x 3.987480 0.000000 -0.191360 
#    y 0.000000 3.908810 0.000000 
#    z -0.191360 0.000000 3.478460 
# 
# 
# High freq. dielectric constant tensor:
#      x y z
#    x 1.804910 0.000000 -0.016220 
#    y 0.000000 1.795950 0.000000 
#    z -0.016220 0.000000 1.754170 
# 
# From -- ./inp_files/106511.got.cif
#   From: 2010.06.25/outbox.cif.g09.slc.cpg/sg12_54_cif.got.tgz:106511.got - 2010.06.28 00:19:55.
