data_PCOD8093864
_publ_section_title
;
Structure prediction by ZEFSAII (Michael W. Deem and Ramdas Pophale) SiO2 
 PCOD8093864
Probable space group: C 2/M
;
_chemical_formula_sum "Si O2"
_cell_formula_units_Z 48
_cell_length_a 24.252420
_cell_length_b 9.058813
_cell_length_c 11.499759
_cell_angle_alpha 90.000000
_cell_angle_beta 68.747980
_cell_angle_gamma 90.000000
_cell_volume 2354.662889
_symmetry_space_group_name_H-M "C 2/M"
_symmetry_group_IT_number 12
_symmetry_cell_setting 'monoclinic'
loop_
_space_group_symop_operation_xyz
x,y,z
-x,y,-z
-x,-y,-z
x,-y,z
1/2+x,1/2+y,z
1/2-x,1/2+y,-z
1/2-x,1/2-y,-z
1/2+x,1/2-y,z
loop_
_atom_site_type_symbol
_atom_site_label
_atom_site_fract_x
_atom_site_fract_y
_atom_site_fract_z
Si Si1 0.735332 0.674041 0.633017
Si Si2 0.555310 0.330922 0.534845
Si Si3 0.884954 0.830750 0.153492
Si Si4 0.603710 0.669813 0.116072
Si Si5 0.830363 0.169570 0.707422
Si Si6 0.020864 0.673870 0.783403
O O1 0.742111 0.500000 0.611861
O O2 0.750000 0.750000 0.500000
O O3 0.669152 0.717070 0.722664
O O4 0.777954 0.727232 0.703382
O O5 0.500000 0.281804 0.500000
O O6 0.548525 0.500000 0.581177
O O7 0.614358 0.306118 0.418373
O O8 0.558523 0.226059 0.643594
O O9 0.943219 0.733034 0.132347
O O10 0.902142 0.000000 0.163815
O O11 0.866864 0.807699 0.032619
O O12 0.585784 0.500000 0.153240
O O13 0.651589 0.719141 0.176002
O O14 0.544927 0.764781 0.173025
O O15 0.809096 0.000000 0.720984
O O16 0.017711 0.500000 0.792251
#
# Coordination Sequence:
#
# PCOD8093864 Si02
#       6
#     8   8   8   8   8   8
#     4  11  24  42  63  89 119 155 198 245 296 351
#     4  10  19  36  60  85 115 155 200 238 283 352
#     4  10  23  42  63  84 114 161 209 243 285 356
#     4  10  21  41  64  86 116 159 204 242 290 358
#     4  10  21  38  63  91 118 153 197 245 295 350
#     4  12  24  36  57  91 127 156 193 250 306 349
#
# _framework density 20.385083000000002
#
# number of rings (size 3 to 8) (size 9 to 14) (size 15 to 20)
#    0.000    1.500    1.667    3.500    0.000   10.333 
#    0.000    0.000    0.000    0.000    0.000    0.000 
#    0.000    0.000    0.000    0.000    0.000    0.000 
#
# Total GULP energy -297699.988868 kJ/mol
# GULP energy per Si atom -12404.166203 kJ/mol
# Density = 2.033869 g / cm^3
# Si number density = 20.385083 Si / 1000 Ang^3
#
#
#
# Elastic Constant Matrix: (Units=GPa)
#
#
# Indices 1 2 3 4 5 6 
#
# 1 110.4633 58.2830 31.7471 0.0000 19.6382 0.0000
# 2 58.2830 100.8620 44.7014 0.0000 6.4163 0.0000
# 3 31.7471 44.7014 104.1821 0.0000 16.6285 0.0000
# 4 0.0000 0.0000 0.0000 20.1652 0.0000 4.9422
# 5 19.6382 6.4163 16.6285 0.0000 31.9637 0.0000
# 6 0.0000 0.0000 0.0000 4.9422 0.0000 34.6189
#
#
#
# Elastic Compliance Matrix: (Units=1/GPa)
#
#
# Indices 1 2 3 4 5 6 
#
# 1 0.014550 -0.008021 0.000194 0.000000 -0.007430 0.000000
# 2 -0.008021 0.016667 -0.005409 0.000000 0.004396 0.000000
# 3 0.000194 -0.005409 0.012766 0.000000 -0.005675 0.000000
# 4 0.000000 0.000000 0.000000 0.051388 0.000000 -0.007336
# 5 -0.007430 0.004396 -0.005675 0.000000 0.037920 0.000000
# 6 0.000000 0.000000 0.000000 -0.007336 0.000000 0.029933
#
#
# Mechanical properties :
#
#
# Convention : Reuss Voigt Hill
#
# Bulk Modulus (GPa) = 57.10705 64.99670 61.05187
# Shear Modulus (GPa) = 25.57104 29.40128 27.48616
#
# Velocity S-wave (km/s) = 3.54559 3.80187 3.67597
# Velocity P-wave (km/s) = 6.69601 7.15723 6.93046
#
# Compressibility (1/GPa) = 0.01751097
#
# Stress axis : x y z
#
# Youngs Moduli (GPa) = 68.72826 59.99929 78.33306
#
# Poissons Ratio (x) = 0.48125 -0.01517
# Poissons Ratio (y) = 0.55126 0.42368
# Poissons Ratio (z) = -0.01331 0.32452
#
# Static dielectric constant tensor:
#      x y z
#    x 3.975670 0.000000 0.083440 
#    y 0.000000 3.567060 0.000000 
#    z 0.083440 0.000000 3.925370 
# 
# 
# High freq. dielectric constant tensor:
#      x y z
#    x 1.799930 0.000000 0.011210 
#    y 0.000000 1.782290 0.000000 
#    z 0.011210 0.000000 1.808720 
# 
# From -- ./inp_files/172884.got.cif
#   From: 2010.06.25/outbox.cif.g09.slc.cpg/sg12_87_cif.got.tgz:172884.got - 2010.06.28 00:19:55.
