data_PCOD8093473
_publ_section_title
;
Structure prediction by ZEFSAII (Michael W. Deem and Ramdas Pophale) SiO2 
 PCOD8093473
Probable space group: C 2/M
;
_chemical_formula_sum "Si O2"
_cell_formula_units_Z 64
_cell_length_a 21.412311
_cell_length_b 17.397541
_cell_length_c 21.247608
_cell_angle_alpha 90.000000
_cell_angle_beta 25.203952
_cell_angle_gamma 90.000000
_cell_volume 3370.618848
_symmetry_space_group_name_H-M "C 2/M"
_symmetry_group_IT_number 12
_symmetry_cell_setting 'monoclinic'
loop_
_space_group_symop_operation_xyz
x,y,z
-x,y,-z
-x,-y,-z
x,-y,z
1/2+x,1/2+y,z
1/2-x,1/2+y,-z
1/2-x,1/2-y,-z
1/2+x,1/2-y,z
loop_
_atom_site_type_symbol
_atom_site_label
_atom_site_fract_x
_atom_site_fract_y
_atom_site_fract_z
Si Si1 0.892285 0.839767 0.394091
Si Si2 0.893352 0.409282 0.736828
Si Si3 0.359144 0.760686 0.209574
Si Si4 0.819843 0.680517 0.518284
Si Si5 0.917184 0.584710 0.858718
Si Si6 0.792027 0.803438 0.903741
Si Si7 0.707265 0.087054 0.661040
Si Si8 0.191258 0.216393 0.882607
O O1 0.882678 0.749596 0.418989
O O2 0.790987 0.864683 0.427366
O O3 0.857663 0.889543 0.488582
O O4 0.059447 0.851264 0.219785
O O5 0.893016 0.500000 0.722910
O O6 0.876151 0.389315 0.826056
O O7 0.753424 0.371441 0.828123
O O8 0.051086 0.374118 0.572625
O O9 0.269750 0.710992 0.340558
O O10 0.342050 0.851905 0.240448
O O11 0.289281 0.749390 0.204776
O O12 0.525073 0.727699 0.058576
O O13 0.858996 0.500000 0.923932
O O14 0.090758 0.590990 0.710425
O O15 0.839270 0.635963 0.982129
O O16 0.802274 0.760647 0.827685
O O17 0.750000 0.750000 0.000000
O O18 0.718375 0.000000 0.679228
#
# Coordination Sequence:
#
# PCOD8093473 Si02
#       8
#     8   8   8   8   8   8   8   8
#     4  10  20  31  58  86 116 150 194 243 287 341
#     4  11  22  39  61  88 119 152 191 248 308 353
#     4  10  23  39  61  83 117 159 206 240 287 347
#     4  10  19  36  54  85 113 151 193 238 286 349
#     4  10  20  34  56  88 121 148 185 241 299 349
#     4  12  20  34  59  87 116 153 199 241 294 347
#     4  10  20  38  60  88 123 158 193 237 298 355
#     4  11  22  40  58  88 116 154 202 249 284 354
#
# _framework density 18.987611999999999
#
# number of rings (size 3 to 8) (size 9 to 14) (size 15 to 20)
#    0.000    1.500    5.000    0.750    1.750    1.000 
#    0.000    5.000    0.000    0.750    0.000    0.000 
#    0.000    0.000    0.000    0.000    0.000    0.000 
#
# Total GULP energy -396631.982150 kJ/mol
# GULP energy per Si atom -12394.749442 kJ/mol
# Density = 1.894440 g / cm^3
# Si number density = 18.987612 Si / 1000 Ang^3
#
#
#
# Elastic Constant Matrix: (Units=GPa)
#
#
# Indices 1 2 3 4 5 6 
#
# 1 95.5554 47.4013 26.6872 0.0126 2.9670 -0.0007
# 2 47.4013 116.5916 52.0385 0.0285 0.6257 -0.0042
# 3 26.6872 52.0385 105.2079 0.0575 -1.0227 -0.0095
# 4 0.0126 0.0285 0.0575 25.8917 -0.0184 -4.2966
# 5 2.9670 0.6257 -1.0227 -0.0184 25.7101 0.0015
# 6 -0.0007 -0.0042 -0.0095 -4.2966 0.0015 24.1952
#
#
#
# Elastic Compliance Matrix: (Units=1/GPa)
#
#
# Indices 1 2 3 4 5 6 
#
# 1 0.013227 -0.004961 -0.000915 0.000000 -0.001442 -0.000001
# 2 -0.004961 0.012874 -0.005109 0.000000 0.000056 0.000000
# 3 -0.000915 -0.005109 0.012271 -0.000021 0.000718 0.000000
# 4 0.000000 0.000000 -0.000021 0.039795 0.000027 0.007067
# 5 -0.001442 0.000056 0.000718 0.000027 0.039089 0.000003
# 6 -0.000001 0.000000 0.000000 0.007067 0.000003 0.042585
#
#
# Mechanical properties :
#
#
# Convention : Reuss Voigt Hill
#
# Bulk Modulus (GPa) = 60.97078 63.28987 62.13033
# Shear Modulus (GPa) = 26.69827 27.90793 27.30310
#
# Velocity S-wave (km/s) = 3.75385 3.83795 3.79614
# Velocity P-wave (km/s) = 7.13926 7.28316 7.21157
#
# Compressibility (1/GPa) = 0.01640130
#
# Stress axis : x y z
#
# Youngs Moduli (GPa) = 75.60560 77.67697 81.49281
#
# Poissons Ratio (x) = 0.38537 0.07458
# Poissons Ratio (y) = 0.37509 0.41632
# Poissons Ratio (z) = 0.06919 0.39683
#
# Static dielectric constant tensor:
#      x y z
#    x 3.371610 0.000010 -0.072930 
#    y 0.000010 2.860120 0.000210 
#    z -0.072930 0.000210 3.486910 
# 
# 
# High freq. dielectric constant tensor:
#      x y z
#    x 1.718600 0.000000 -0.004430 
#    y 0.000000 1.727980 0.000000 
#    z -0.004430 0.000000 1.743650 
# 
# From -- ./inp_files/326113.got.cif
#   From: 2010.06.25/outbox.cif.g09.slc.cpg/sg12_164_cif.got.tgz:326113.got - 2010.06.28 00:19:55.
