data_PCOD8093692
_publ_section_title
;
Structure prediction by ZEFSAII (Michael W. Deem and Ramdas Pophale) SiO2 
 PCOD8093692
Probable space group: C 2/M
;
_chemical_formula_sum "Si O2"
_cell_formula_units_Z 64
_cell_length_a 20.680611
_cell_length_b 9.017729
_cell_length_c 24.341322
_cell_angle_alpha 90.000000
_cell_angle_beta 128.532662
_cell_angle_gamma 90.000000
_cell_volume 3551.011124
_symmetry_space_group_name_H-M "C 2/M"
_symmetry_group_IT_number 12
_symmetry_cell_setting 'monoclinic'
loop_
_space_group_symop_operation_xyz
x,y,z
-x,y,-z
-x,-y,-z
x,-y,z
1/2+x,1/2+y,z
1/2-x,1/2+y,-z
1/2-x,1/2-y,-z
1/2+x,1/2-y,z
loop_
_atom_site_type_symbol
_atom_site_label
_atom_site_fract_x
_atom_site_fract_y
_atom_site_fract_z
Si Si1 0.114867 0.830209 0.670813
Si Si2 0.794780 0.173289 0.473431
Si Si3 0.244885 0.829064 0.827331
Si Si4 0.467744 0.173721 0.543164
Si Si5 0.268054 0.829100 0.677678
Si Si6 0.791192 0.327351 0.970789
Si Si7 0.126518 0.175226 0.181876
Si Si8 0.021925 0.325580 0.949798
O O1 0.155104 0.805402 0.752292
O O2 0.181285 0.784645 0.659686
O O3 0.036003 0.724047 0.623683
O O4 0.086575 0.000000 0.647771
O O5 0.750000 0.250000 0.500000
O O6 0.884274 0.241178 0.511639
O O7 0.737738 0.201712 0.390039
O O8 0.805127 0.000000 0.490756
O O9 0.239896 0.785813 0.888629
O O10 0.312884 0.728750 0.834083
O O11 0.274015 0.000000 0.835908
O O12 0.500000 0.217567 0.500000
O O13 0.451528 0.000000 0.540473
O O14 0.341522 0.731023 0.741847
O O15 0.287380 0.000000 0.701332
O O16 0.788017 0.500000 0.980655
O O17 0.750000 0.250000 0.000000
O O18 0.885132 0.274121 0.013379
O O19 0.035581 0.239564 0.123614
O O20 0.122726 0.000000 0.180337
O O21 0.009153 0.500000 0.934928
O O22 0.000000 0.277727 0.000000
#
# Coordination Sequence:
#
# PCOD8093692 Si02
#       8
#     8   8   8   8   8   8   8   8
#     4   9  17  32  57  83 107 141 190 235 274 326
#     4  11  23  40  61  84 114 151 191 233 283 341
#     4   9  18  36  56  78 110 150 188 222 275 339
#     4  11  22  35  55  85 119 149 186 234 280 330
#     4   9  19  36  57  80 111 151 187 222 276 343
#     4  10  21  37  58  81 110 147 183 226 276 331
#     4  11  21  31  53  87 116 140 179 239 284 316
#     4  10  19  36  59  79 107 149 193 226 269 334
#
# _framework density 18.023036000000001
#
# number of rings (size 3 to 8) (size 9 to 14) (size 15 to 20)
#    0.000    2.000    2.500    2.625    0.000    4.750 
#    0.000    1.250    0.000    3.000    0.000    0.000 
#    0.000    0.000    0.000    0.000    0.000    0.000 
#
# Total GULP energy -396870.233911 kJ/mol
# GULP energy per Si atom -12402.194810 kJ/mol
# Density = 1.798201 g / cm^3
# Si number density = 18.023036 Si / 1000 Ang^3
#
#
#
# Elastic Constant Matrix: (Units=GPa)
#
#
# Indices 1 2 3 4 5 6 
#
# 1 115.1707 57.2208 70.1875 0.0000 -6.0095 0.0000
# 2 57.2208 92.2414 68.6628 0.0000 3.8476 0.0000
# 3 70.1875 68.6628 141.3444 0.0000 0.1086 0.0000
# 4 0.0000 0.0000 0.0000 19.9608 0.0000 -2.0697
# 5 -6.0095 3.8476 0.1086 0.0000 26.8834 0.0000
# 6 0.0000 0.0000 0.0000 -2.0697 0.0000 30.1437
#
#
#
# Elastic Compliance Matrix: (Units=1/GPa)
#
#
# Indices 1 2 3 4 5 6 
#
# 1 0.014473 -0.005948 -0.004301 0.000000 0.004104 0.000000
# 2 -0.005948 0.019582 -0.006556 0.000000 -0.004106 0.000000
# 3 -0.004301 -0.006556 0.012395 0.000000 -0.000073 0.000000
# 4 0.000000 0.000000 0.000000 0.050457 0.000000 0.003464
# 5 0.004104 -0.004106 -0.000073 0.000000 0.038703 0.000000
# 6 0.000000 0.000000 0.000000 0.003464 0.000000 0.033412
#
#
# Mechanical properties :
#
#
# Convention : Reuss Voigt Hill
#
# Bulk Modulus (GPa) = 77.87307 82.32208 80.09757
# Shear Modulus (GPa) = 24.16478 25.57663 24.87071
#
# Velocity S-wave (km/s) = 3.66563 3.77119 3.71878
# Velocity P-wave (km/s) = 7.82414 8.04597 7.93583
#
# Compressibility (1/GPa) = 0.01284141
#
# Stress axis : x y z
#
# Youngs Moduli (GPa) = 69.09457 51.06645 80.67583
#
# Poissons Ratio (x) = 0.30375 0.34695
# Poissons Ratio (y) = 0.41098 0.52891
# Poissons Ratio (z) = 0.29714 0.33479
#
# Static dielectric constant tensor:
#      x y z
#    x 2.008180 0.000000 0.438040 
#    y 0.000000 3.256160 0.000000 
#    z 0.438040 0.000000 3.436230 
# 
# 
# High freq. dielectric constant tensor:
#      x y z
#    x 1.669020 0.000000 0.004340 
#    y 0.000000 1.695620 0.000000 
#    z 0.004340 0.000000 1.714500 
# 
# From -- ./inp_files/346224.got.cif
#   From: 2010.06.25/outbox.cif.g09.slc.cpg/sg12_174_cif.got.tgz:346224.got - 2010.06.28 00:19:55.
