data_PCOD8093782
_publ_section_title
;
Structure prediction by ZEFSAII (Michael W. Deem and Ramdas Pophale) SiO2 
 PCOD8093782
Probable space group: C 2/M
;
_chemical_formula_sum "Si O2"
_cell_formula_units_Z 48
_cell_length_a 12.806380
_cell_length_b 20.996389
_cell_length_c 14.292074
_cell_angle_alpha 90.000000
_cell_angle_beta 138.881136
_cell_angle_gamma 90.000000
_cell_volume 2527.222336
_symmetry_space_group_name_H-M "C 2/M"
_symmetry_group_IT_number 12
_symmetry_cell_setting 'monoclinic'
loop_
_space_group_symop_operation_xyz
x,y,z
-x,y,-z
-x,-y,-z
x,-y,z
1/2+x,1/2+y,z
1/2-x,1/2+y,-z
1/2-x,1/2-y,-z
1/2+x,1/2-y,z
loop_
_atom_site_type_symbol
_atom_site_label
_atom_site_fract_x
_atom_site_fract_y
_atom_site_fract_z
Si Si1 0.363729 0.145273 0.338879
Si Si2 0.650998 0.573631 0.334808
Si Si3 0.328458 0.263361 0.909286
Si Si4 0.344337 0.655081 0.100209
Si Si5 0.076748 0.572625 0.343526
Si Si6 0.549478 0.926349 0.934036
O O1 0.500000 0.171584 0.500000
O O2 0.262364 0.090343 0.321717
O O3 0.250506 0.203805 0.234437
O O4 0.443510 0.116914 0.299886
O O5 0.596561 0.500000 0.288472
O O6 0.504343 0.621559 0.242839
O O7 0.749181 0.585008 0.496755
O O8 0.205929 0.210206 0.861568
O O9 0.500000 0.232729 0.000000
O O10 0.366161 0.316535 0.012258
O O11 0.211590 0.601736 0.005275
O O12 0.025071 0.500000 0.327918
O O13 0.083191 0.586380 0.235983
O O14 0.581196 0.000000 0.971772
O O15 0.500000 0.895054 0.000000
#
# Coordination Sequence:
#
# PCOD8093782 Si02
#       6
#     8   8   8   8   8   8
#     4  10  19  36  59  87 119 149 187 231 288 351
#     4  10  20  36  60  91 120 146 183 236 294 344
#     4  11  22  39  56  80 116 154 195 232 283 334
#     4  11  22  37  57  81 114 154 190 241 279 332
#     4   9  18  34  57  85 119 151 182 233 294 346
#     4  10  20  36  57  82 111 150 197 237 282 336
#
# _framework density 18.993183999999999
#
# number of rings (size 3 to 8) (size 9 to 14) (size 15 to 20)
#    0.000    1.833    3.333    1.500    0.000    2.000 
#    0.000    8.333    0.000    4.000    0.000    0.000 
#    0.000    0.000    0.000    0.000    0.000    0.000 
#
# Total GULP energy -297576.888545 kJ/mol
# GULP energy per Si atom -12399.037023 kJ/mol
# Density = 1.894995 g / cm^3
# Si number density = 18.993184 Si / 1000 Ang^3
#
#
#
# Elastic Constant Matrix: (Units=GPa)
#
#
# Indices 1 2 3 4 5 6 
#
# 1 84.8185 33.3393 53.2215 0.0000 -5.2607 0.0000
# 2 33.3393 71.8176 60.6871 0.0000 0.3682 0.0000
# 3 53.2215 60.6871 129.0628 0.0000 -1.4596 0.0000
# 4 0.0000 0.0000 0.0000 20.4979 0.0000 8.6327
# 5 -5.2607 0.3682 -1.4596 0.0000 33.3950 0.0000
# 6 0.0000 0.0000 0.0000 8.6327 0.0000 26.7293
#
#
#
# Elastic Compliance Matrix: (Units=1/GPa)
#
#
# Indices 1 2 3 4 5 6 
#
# 1 0.016511 -0.003230 -0.005263 0.000000 0.002407 0.000000
# 2 -0.003230 0.023754 -0.009851 0.000000 -0.001201 0.000000
# 3 -0.005263 -0.009851 0.014549 0.000000 -0.000084 0.000000
# 4 0.000000 0.000000 0.000000 0.056466 0.000000 -0.018237
# 5 0.002407 -0.001201 -0.000084 0.000000 0.030333 0.000000
# 6 0.000000 0.000000 0.000000 -0.018237 0.000000 0.043302
#
#
# Mechanical properties :
#
#
# Convention : Reuss Voigt Hill
#
# Bulk Modulus (GPa) = 55.16640 64.46607 59.81623
# Shear Modulus (GPa) = 21.96397 25.35450 23.65924
#
# Velocity S-wave (km/s) = 3.40430 3.65763 3.53323
# Velocity P-wave (km/s) = 6.67538 7.20090 6.94312
#
# Compressibility (1/GPa) = 0.01812698
#
# Stress axis : x y z
#
# Youngs Moduli (GPa) = 60.56609 42.09781 68.73118
#
# Poissons Ratio (x) = 0.13598 0.36170
# Poissons Ratio (y) = 0.19564 0.67708
# Poissons Ratio (z) = 0.31873 0.41471
#
# Static dielectric constant tensor:
#      x y z
#    x 3.521600 0.000000 -0.169890 
#    y 0.000000 3.358660 0.000000 
#    z -0.169890 0.000000 3.615200 
# 
# 
# High freq. dielectric constant tensor:
#      x y z
#    x 1.730410 0.000000 -0.005360 
#    y 0.000000 1.735200 0.000000 
#    z -0.005360 0.000000 1.742530 
# 
# From -- ./inp_files/50614.got.cif
#   From: 2010.06.25/outbox.cif.g09.slc.cpg/sg12_26_cif.got.tgz:50614.got - 2010.06.28 00:19:55.
