data_PCOD8093896
_publ_section_title
;
Structure prediction by ZEFSAII (Michael W. Deem and Ramdas Pophale) SiO2 
 PCOD8093896
Probable space group: C 2/M
;
_chemical_formula_sum "Si O2"
_cell_formula_units_Z 48
_cell_length_a 20.138397
_cell_length_b 8.943136
_cell_length_c 19.999883
_cell_angle_alpha 90.000000
_cell_angle_beta 43.876526
_cell_angle_gamma 90.000000
_cell_volume 2496.561095
_symmetry_space_group_name_H-M "C 2/M"
_symmetry_group_IT_number 12
_symmetry_cell_setting 'monoclinic'
loop_
_space_group_symop_operation_xyz
x,y,z
-x,y,-z
-x,-y,-z
x,-y,z
1/2+x,1/2+y,z
1/2-x,1/2+y,-z
1/2-x,1/2-y,-z
1/2+x,1/2-y,z
loop_
_atom_site_type_symbol
_atom_site_label
_atom_site_fract_x
_atom_site_fract_y
_atom_site_fract_z
Si Si1 0.159877 0.323688 0.770487
Si Si2 0.377492 0.175367 0.821295
Si Si3 0.019749 0.676360 0.383642
Si Si4 0.965039 0.172877 0.881582
Si Si5 0.346785 0.177102 0.594505
Si Si6 0.678676 0.328623 0.897556
O O1 0.160306 0.500000 0.766122
O O2 0.245790 0.260274 0.662696
O O3 0.170001 0.274651 0.839642
O O4 0.062381 0.265197 0.808836
O O5 0.455125 0.229251 0.709370
O O6 0.394254 0.269069 0.875676
O O7 0.271942 0.215330 0.872090
O O8 0.387490 0.000000 0.829687
O O9 0.026541 0.500000 0.383759
O O10 0.912744 0.725850 0.483153
O O11 0.099787 0.735579 0.377349
O O12 0.987925 0.000000 0.852588
O O13 0.914669 0.196167 0.989530
O O14 0.329090 0.000000 0.608651
O O15 0.686391 0.500000 0.867305
#
# Coordination Sequence:
#
# PCOD8093896 Si02
#       6
#     8   8   8   8   8   8
#     4  12  24  37  56  84 115 149 188 235 283 327
#     4  10  19  36  60  87 116 145 181 228 281 335
#     4   8  15  30  59  88 110 142 183 225 275 333
#     4  11  24  39  56  81 114 153 191 229 278 335
#     4   9  16  33  59  85 111 144 185 226 275 335
#     4  10  21  39  62  83 109 148 191 232 277 333
#
# _framework density 19.226447
#
# number of rings (size 3 to 8) (size 9 to 14) (size 15 to 20)
#    0.000    2.000    1.667    4.000    0.000    4.000 
#    0.000    3.333    0.000    0.000    0.000    0.000 
#    0.000    0.000    0.000    0.000    0.000    0.000 
#
# Total GULP energy -297615.259507 kJ/mol
# GULP energy per Si atom -12400.635813 kJ/mol
# Density = 1.918269 g / cm^3
# Si number density = 19.226447 Si / 1000 Ang^3
#
#
#
# Elastic Constant Matrix: (Units=GPa)
#
#
# Indices 1 2 3 4 5 6 
#
# 1 57.6694 26.7679 11.9953 -0.0001 -15.6380 0.0001
# 2 26.7679 83.1726 26.6749 -0.0003 -10.3158 0.0004
# 3 11.9953 26.6749 73.5979 -0.0002 -20.1081 0.0003
# 4 -0.0001 -0.0003 -0.0002 13.4801 0.0001 2.9901
# 5 -15.6380 -10.3158 -20.1081 0.0001 30.4442 -0.0001
# 6 0.0001 0.0004 0.0003 2.9901 -0.0001 27.1780
#
#
#
# Elastic Compliance Matrix: (Units=1/GPa)
#
#
# Indices 1 2 3 4 5 6 
#
# 1 0.022932 -0.006560 0.001526 0.000000 0.010565 0.000000
# 2 -0.006560 0.015549 -0.004939 0.000000 -0.001363 0.000000
# 3 0.001526 -0.004939 0.018163 0.000000 0.011107 0.000000
# 4 0.000000 0.000000 0.000000 0.076039 0.000000 -0.008366
# 5 0.010565 -0.001363 0.011107 0.000000 0.045148 0.000000
# 6 0.000000 0.000000 0.000000 -0.008366 0.000000 0.037715
#
#
# Mechanical properties :
#
#
# Convention : Reuss Voigt Hill
#
# Bulk Modulus (GPa) = 27.24754 38.36845 32.80800
# Shear Modulus (GPa) = 20.18370 24.15392 22.16881
#
# Velocity S-wave (km/s) = 3.24356 3.54826 3.39932
# Velocity P-wave (km/s) = 5.31321 6.06517 5.70160
#
# Compressibility (1/GPa) = 0.03670056
#
# Stress axis : x y z
#
# Youngs Moduli (GPa) = 43.60668 64.31170 55.05603
#
# Poissons Ratio (x) = 0.42186 -0.08403
# Poissons Ratio (y) = 0.28604 0.27192
# Poissons Ratio (z) = -0.06656 0.31763
#
# Static dielectric constant tensor:
#      x y z
#    x 3.370720 0.000000 -0.012790 
#    y 0.000000 3.234500 0.000000 
#    z -0.012790 0.000000 3.990130 
# 
# 
# High freq. dielectric constant tensor:
#      x y z
#    x 1.732840 0.000000 -0.009090 
#    y 0.000000 1.723770 0.000000 
#    z -0.009090 0.000000 1.766180 
# 
# From -- ./inp_files/229846.got.cif
#   From: 2010.06.25/outbox.cif.g09.slc.cpg/sg12_115_cif.got.tgz:229846.got - 2010.06.28 00:19:55.
