data_PCOD8093726
_publ_section_title
;
Structure prediction by ZEFSAII (Michael W. Deem and Ramdas Pophale) SiO2 
 PCOD8093726
Probable space group: C 2/M
;
_chemical_formula_sum "Si O2"
_cell_formula_units_Z 64
_cell_length_a 28.738161
_cell_length_b 9.162263
_cell_length_c 23.360388
_cell_angle_alpha 90.000000
_cell_angle_beta 32.053663
_cell_angle_gamma 90.000000
_cell_volume 3264.387897
_symmetry_space_group_name_H-M "C 2/M"
_symmetry_group_IT_number 12
_symmetry_cell_setting 'monoclinic'
loop_
_space_group_symop_operation_xyz
x,y,z
-x,y,-z
-x,-y,-z
x,-y,z
1/2+x,1/2+y,z
1/2-x,1/2+y,-z
1/2-x,1/2-y,-z
1/2+x,1/2-y,z
loop_
_atom_site_type_symbol
_atom_site_label
_atom_site_fract_x
_atom_site_fract_y
_atom_site_fract_z
Si Si1 0.792145 0.330853 0.903410
Si Si2 0.252127 0.830181 0.317985
Si Si3 0.469425 0.669825 0.239609
Si Si4 0.899709 0.827413 0.094999
Si Si5 0.939364 0.172831 0.511755
Si Si6 0.296670 0.169888 0.399265
Si Si7 0.530563 0.668897 0.300414
Si Si8 0.130739 0.831155 0.997816
O O1 0.800482 0.500000 0.910435
O O2 0.884671 0.267870 0.790076
O O3 0.729140 0.303470 0.915385
O O4 0.750000 0.250000 0.000000
O O5 0.336039 0.743963 0.207758
O O6 0.162137 0.773305 0.381140
O O7 0.244290 0.805350 0.394598
O O8 0.266449 0.000000 0.289749
O O9 0.452262 0.500000 0.243654
O O10 0.393558 0.765455 0.290710
O O11 0.471890 0.694348 0.305333
O O12 0.560014 0.729324 0.117329
O O13 0.876641 0.760064 0.056961
O O14 0.885795 0.000000 0.113925
O O15 0.000000 0.783041 0.000000
O O16 0.000000 0.238817 0.500000
O O17 0.977608 0.221842 0.410906
O O18 0.939986 0.000000 0.515805
O O19 0.250000 0.250000 0.500000
O O20 0.302237 0.000000 0.408685
O O21 0.559341 0.500000 0.274557
O O22 0.108681 0.000000 0.014341
#
# Coordination Sequence:
#
# PCOD8093726 Si02
#       8
#     8   8   8   8   8   8   8   8
#     4  11  21  36  56  83 119 155 192 238 290 344
#     4  10  22  40  60  86 118 150 190 246 292 332
#     4  10  19  36  59  82 112 150 188 234 289 346
#     4  10  21  38  61  86 115 155 197 234 284 352
#     4   9  19  36  58  83 113 151 195 236 285 347
#     4  11  23  38  58  85 115 147 188 235 288 343
#     4  10  20  36  59  84 113 152 195 240 293 343
#     4   9  19  35  55  81 114 150 188 232 287 342
#
# _framework density 19.605512000000001
#
# number of rings (size 3 to 8) (size 9 to 14) (size 15 to 20)
#    0.000    2.000    1.250    2.250    1.750    4.750 
#    0.000    1.875    0.000    0.750    0.000    0.000 
#    0.000    0.000    0.000    0.000    0.000    0.000 
#
# Total GULP energy -396769.602851 kJ/mol
# GULP energy per Si atom -12399.050089 kJ/mol
# Density = 1.956089 g / cm^3
# Si number density = 19.605512 Si / 1000 Ang^3
#
#
#
# Elastic Constant Matrix: (Units=GPa)
#
#
# Indices 1 2 3 4 5 6 
#
# 1 118.0013 42.6130 46.7113 -0.0141 -2.0482 0.0048
# 2 42.6130 63.6589 41.7570 -0.0078 -8.0581 0.0016
# 3 46.7113 41.7570 114.8462 -0.0033 -6.9511 -0.0017
# 4 -0.0141 -0.0078 -0.0033 32.9141 0.0105 -4.3144
# 5 -2.0482 -8.0581 -6.9511 0.0105 39.1705 -0.0056
# 6 0.0048 0.0016 -0.0017 -4.3144 -0.0056 23.4954
#
#
#
# Elastic Compliance Matrix: (Units=1/GPa)
#
#
# Indices 1 2 3 4 5 6 
#
# 1 0.011752 -0.006343 -0.002543 0.000003 -0.001142 -0.000002
# 2 -0.006343 0.024394 -0.006071 0.000001 0.003609 0.000000
# 3 -0.002543 -0.006071 0.011994 -0.000001 0.000747 0.000002
# 4 0.000003 0.000001 -0.000001 0.031132 -0.000007 0.005717
# 5 -0.001142 0.003609 0.000747 -0.000007 0.026345 0.000005
# 6 -0.000002 0.000000 0.000002 0.005717 0.000005 0.043611
#
#
# Mechanical properties :
#
#
# Convention : Reuss Voigt Hill
#
# Bulk Modulus (GPa) = 54.86631 62.07434 58.47033
# Shear Modulus (GPa) = 26.99542 30.14433 28.56988
#
# Velocity S-wave (km/s) = 3.71473 3.92541 3.82152
# Velocity P-wave (km/s) = 6.81504 7.23018 7.02568
#
# Compressibility (1/GPa) = 0.01822612
#
# Stress axis : x y z
#
# Youngs Moduli (GPa) = 85.09268 40.99353 83.37534
#
# Poissons Ratio (x) = 0.26004 0.21198
# Poissons Ratio (y) = 0.53978 0.50617
# Poissons Ratio (z) = 0.21635 0.24887
#
# Static dielectric constant tensor:
#      x y z
#    x 4.623770 0.000200 1.567740 
#    y 0.000200 3.284550 0.000640 
#    z 1.567740 0.000640 6.750650 
# 
# 
# High freq. dielectric constant tensor:
#      x y z
#    x 1.779390 0.000000 -0.001690 
#    y 0.000000 1.731790 0.000000 
#    z -0.001690 0.000000 1.772260 
# 
# From -- ./inp_files/353333.got.cif
#   From: 2010.06.25/outbox.cif.g09.slc.cpg/sg12_177_cif.got.tgz:353333.got - 2010.06.28 00:19:55.
