data_PCOD8093118
_publ_section_title
;
Structure prediction by ZEFSAII (Michael W. Deem and Ramdas Pophale) SiO2 
 PCOD8093118
Probable space group: C 2/M
;
_chemical_formula_sum "Si O2"
_cell_formula_units_Z 64
_cell_length_a 25.963182
_cell_length_b 8.783743
_cell_length_c 14.289092
_cell_angle_alpha 90.000000
_cell_angle_beta 86.630055
_cell_angle_gamma 90.000000
_cell_volume 3253.048503
_symmetry_space_group_name_H-M "C 2/M"
_symmetry_group_IT_number 12
_symmetry_cell_setting 'monoclinic'
loop_
_space_group_symop_operation_xyz
x,y,z
-x,y,-z
-x,-y,-z
x,-y,z
1/2+x,1/2+y,z
1/2-x,1/2+y,-z
1/2-x,1/2-y,-z
1/2+x,1/2-y,z
loop_
_atom_site_type_symbol
_atom_site_label
_atom_site_fract_x
_atom_site_fract_y
_atom_site_fract_z
Si Si1 0.798821 0.179260 0.443428
Si Si2 0.640029 0.821651 0.410512
Si Si3 0.503523 0.818345 0.795237
Si Si4 0.699914 0.175442 0.756704
Si Si5 0.815208 0.175361 0.772626
Si Si6 0.397414 0.818924 0.898592
Si Si7 0.977549 0.678797 0.597151
Si Si8 0.395742 0.180718 0.110563
O O1 0.750000 0.250000 0.500000
O O2 0.849404 0.241316 0.491409
O O3 0.802297 0.224275 0.335559
O O4 0.795384 0.000000 0.452839
O O5 0.677690 0.756752 0.327607
O O6 0.582345 0.783369 0.385777
O O7 0.649986 0.000000 0.420322
O O8 0.451177 0.759017 0.849662
O O9 0.505435 0.758139 0.687615
O O10 0.553420 0.752633 0.843451
O O11 0.503431 0.000000 0.797378
O O12 0.754667 0.193102 0.803777
O O13 0.655616 0.236221 0.831018
O O14 0.690185 0.000000 0.729642
O O15 0.848585 0.252760 0.849466
O O16 0.831389 0.000000 0.761504
O O17 0.394095 0.000000 0.892506
O O18 0.394376 0.758161 0.004926
O O19 0.987221 0.500000 0.590182
O O20 0.000000 0.755760 0.500000
O O21 0.398960 0.000000 0.109201
#
# Coordination Sequence:
#
# PCOD8093118 Si02
#       8
#     8   8   8   8   8   8   8   8
#     4  12  24  38  58  84 114 151 191 231 277 337
#     4  11  21  36  59  85 114 150 191 236 283 336
#     4   9  16  30  54  85 115 142 185 244 294 340
#     4  10  22  39  57  83 115 151 193 237 286 343
#     4  11  22  36  56  81 115 153 192 236 283 343
#     4  10  19  35  59  87 111 142 194 247 294 344
#     4   9  18  30  50  86 119 144 182 234 288 342
#     4   9  19  34  57  85 114 147 189 245 299 340
#
# _framework density 19.673853999999999
#
# number of rings (size 3 to 8) (size 9 to 14) (size 15 to 20)
#    0.000    1.875    2.500    2.250    1.750    2.500 
#    0.000    0.625    0.000    5.250    0.000    0.000 
#    0.000    0.000    0.000    0.000    0.000    0.000 
#
# Total GULP energy -396816.912639 kJ/mol
# GULP energy per Si atom -12400.528520 kJ/mol
# Density = 1.962908 g / cm^3
# Si number density = 19.673854 Si / 1000 Ang^3
#
#
#
# Elastic Constant Matrix: (Units=GPa)
#
#
# Indices 1 2 3 4 5 6 
#
# 1 121.2560 37.3023 85.0344 0.0000 4.9459 0.0000
# 2 37.3023 59.3642 26.2743 0.0000 4.5086 0.0000
# 3 85.0344 26.2743 158.9734 0.0000 4.7389 0.0000
# 4 0.0000 0.0000 0.0000 22.0381 0.0000 4.9732
# 5 4.9459 4.5086 4.7389 0.0000 39.0718 0.0000
# 6 0.0000 0.0000 0.0000 4.9732 0.0000 21.2538
#
#
#
# Elastic Compliance Matrix: (Units=1/GPa)
#
#
# Indices 1 2 3 4 5 6 
#
# 1 0.015168 -0.006387 -0.007048 0.000000 -0.000328 0.000000
# 2 -0.006387 0.020982 -0.000004 0.000000 -0.001612 0.000000
# 3 -0.007048 -0.000004 0.010071 0.000000 -0.000329 0.000000
# 4 0.000000 0.000000 0.000000 0.047906 0.000000 -0.011210
# 5 -0.000328 -0.001612 -0.000329 0.000000 0.025861 0.000000
# 6 0.000000 0.000000 0.000000 -0.011210 0.000000 0.049673
#
#
# Mechanical properties :
#
#
# Convention : Reuss Voigt Hill
#
# Bulk Modulus (GPa) = 51.69403 70.75726 61.22565
# Shear Modulus (GPa) = 24.63238 29.20491 26.91865
#
# Velocity S-wave (km/s) = 3.54225 3.85704 3.70299
# Velocity P-wave (km/s) = 6.56221 7.47522 7.03354
#
# Compressibility (1/GPa) = 0.01934459
#
# Stress axis : x y z
#
# Youngs Moduli (GPa) = 65.93024 47.65923 99.29900
#
# Poissons Ratio (x) = 0.30438 0.69984
# Poissons Ratio (y) = 0.42106 0.00036
# Poissons Ratio (z) = 0.46466 0.00017
#
# Static dielectric constant tensor:
#      x y z
#    x 3.737860 0.000000 0.039490 
#    y 0.000000 3.212280 0.000000 
#    z 0.039490 0.000000 3.780190 
# 
# 
# High freq. dielectric constant tensor:
#      x y z
#    x 1.777570 0.000000 0.008040 
#    y 0.000000 1.723940 0.000000 
#    z 0.008040 0.000000 1.776320 
# 
# From -- ./inp_files/238806.got.cif
#   From: 2010.06.25/outbox.cif.g09.slc.cpg/sg12_120_cif.got.tgz:238806.got - 2010.06.28 00:19:55.
