data_PCOD8093862
_publ_section_title
;
Structure prediction by ZEFSAII (Michael W. Deem and Ramdas Pophale) SiO2 
 PCOD8093862
Probable space group: C 2/M
;
_chemical_formula_sum "Si O2"
_cell_formula_units_Z 48
_cell_length_a 29.450504
_cell_length_b 8.946210
_cell_length_c 16.368410
_cell_angle_alpha 90.000000
_cell_angle_beta 37.093593
_cell_angle_gamma 90.000000
_cell_volume 2601.004944
_symmetry_space_group_name_H-M "C 2/M"
_symmetry_group_IT_number 12
_symmetry_cell_setting 'monoclinic'
loop_
_space_group_symop_operation_xyz
x,y,z
-x,y,-z
-x,-y,-z
x,-y,z
1/2+x,1/2+y,z
1/2-x,1/2+y,-z
1/2-x,1/2-y,-z
1/2+x,1/2-y,z
loop_
_atom_site_type_symbol
_atom_site_label
_atom_site_fract_x
_atom_site_fract_y
_atom_site_fract_z
Si Si1 0.830646 0.176228 0.887620
Si Si2 0.896614 0.330102 0.464342
Si Si3 0.087249 0.671161 0.374032
Si Si4 0.481295 0.324913 0.118970
Si Si5 0.825362 0.174224 0.421861
Si Si6 0.445145 0.174157 0.838544
O O1 0.872852 0.215005 0.743465
O O2 0.874236 0.239006 0.903740
O O3 0.822808 0.000000 0.908065
O O4 0.750000 0.250000 0.000000
O O5 0.879577 0.500000 0.462559
O O6 0.878452 0.304139 0.585232
O O7 0.842777 0.223490 0.489432
O O8 0.984107 0.293914 0.322111
O O9 0.099635 0.500000 0.326694
O O10 0.000000 0.710256 0.500000
O O11 0.494353 0.500000 0.115273
O O12 0.395123 0.280263 0.263193
O O13 0.538337 0.234846 0.094662
O O14 0.500000 0.277879 0.000000
O O15 0.750000 0.250000 0.500000
O O16 0.811167 0.000000 0.441186
O O17 0.425609 0.000000 0.871658
#
# Coordination Sequence:
#
# PCOD8093862 Si02
#       6
#     8   8   8   8   8   8
#     4  12  25  40  58  83 117 154 192 236 287 337
#     4   9  18  34  59  85 112 147 185 226 279 337
#     4  10  19  37  62  87 115 149 188 230 280 339
#     4   9  19  37  59  83 110 145 189 233 279 335
#     4  10  20  35  56  81 112 146 184 231 283 333
#     4  10  19  36  60  85 113 148 189 233 284 338
#
# _framework density 18.454404
#
# number of rings (size 3 to 8) (size 9 to 14) (size 15 to 20)
#    0.000    2.000    1.667    2.500    0.000    2.667 
#    3.000    0.000    0.000    0.000    0.000    0.000 
#    0.000    0.000    0.000    0.000    0.000    0.000 
#
# Total GULP energy -297683.214592 kJ/mol
# GULP energy per Si atom -12403.467275 kJ/mol
# Density = 1.841240 g / cm^3
# Si number density = 18.454404 Si / 1000 Ang^3
#
#
#
# Elastic Constant Matrix: (Units=GPa)
#
#
# Indices 1 2 3 4 5 6 
#
# 1 141.9537 77.9402 76.3016 0.0001 -10.1404 -0.0002
# 2 77.9402 113.8508 55.1620 -0.0060 -12.0519 0.0044
# 3 76.3016 55.1620 80.0277 0.0022 -7.1232 0.0004
# 4 0.0001 -0.0060 0.0022 29.3420 -0.0009 -1.3874
# 5 -10.1404 -12.0519 -7.1232 -0.0009 34.7636 -0.0003
# 6 -0.0002 0.0044 0.0004 -1.3874 -0.0003 39.0437
#
#
#
# Elastic Compliance Matrix: (Units=1/GPa)
#
#
# Indices 1 2 3 4 5 6 
#
# 1 0.016473 -0.005462 -0.011899 0.000000 0.000473 0.000001
# 2 -0.005462 0.015264 -0.005077 0.000004 0.002658 -0.000002
# 3 -0.011899 -0.005077 0.027374 -0.000003 0.000378 0.000000
# 4 0.000000 0.000004 -0.000003 0.034138 0.000001 0.001213
# 5 0.000473 0.002658 0.000378 0.000001 0.029903 0.000000
# 6 0.000001 -0.000002 0.000000 0.001213 0.000000 0.025655
#
#
# Mechanical properties :
#
#
# Convention : Reuss Voigt Hill
#
# Bulk Modulus (GPa) = 70.25023 83.84886 77.04955
# Shear Modulus (GPa) = 25.19797 29.05841 27.12819
#
# Velocity S-wave (km/s) = 3.69916 3.97244 3.83823
# Velocity P-wave (km/s) = 7.50964 8.15933 7.84122
#
# Compressibility (1/GPa) = 0.01423483
#
# Stress axis : x y z
#
# Youngs Moduli (GPa) = 60.70460 65.51500 36.53085
#
# Poissons Ratio (x) = 0.35783 0.43469
# Poissons Ratio (y) = 0.33156 0.18547
# Poissons Ratio (z) = 0.72235 0.33262
#
# Static dielectric constant tensor:
#      x y z
#    x 3.519780 -0.000010 -0.011820 
#    y -0.000010 3.421950 0.000010 
#    z -0.011820 0.000010 3.156070 
# 
# 
# High freq. dielectric constant tensor:
#      x y z
#    x 1.726860 0.000000 0.000720 
#    y 0.000000 1.719400 0.000000 
#    z 0.000720 0.000000 1.699490 
# 
# From -- ./inp_files/281811.got.cif
#   From: 2010.06.25/outbox.cif.g09.slc.cpg/sg12_141_cif.got.tgz:281811.got - 2010.06.28 00:19:55.
