data_PCOD8093219
_publ_section_title
;
Structure prediction by ZEFSAII (Michael W. Deem and Ramdas Pophale) SiO2 
 PCOD8093219
Probable space group: C 2/M
;
_chemical_formula_sum "Si O2"
_cell_formula_units_Z 64
_cell_length_a 15.454757
_cell_length_b 8.964656
_cell_length_c 25.078507
_cell_angle_alpha 90.000000
_cell_angle_beta 72.053556
_cell_angle_gamma 90.000000
_cell_volume 3305.487386
_symmetry_space_group_name_H-M "C 2/M"
_symmetry_group_IT_number 12
_symmetry_cell_setting 'monoclinic'
loop_
_space_group_symop_operation_xyz
x,y,z
-x,y,-z
-x,-y,-z
x,-y,z
1/2+x,1/2+y,z
1/2-x,1/2+y,-z
1/2-x,1/2-y,-z
1/2+x,1/2-y,z
loop_
_atom_site_type_symbol
_atom_site_label
_atom_site_fract_x
_atom_site_fract_y
_atom_site_fract_z
Si Si1 0.229650 0.823344 0.366061
Si Si2 0.155667 0.824195 0.866285
Si Si3 0.595711 0.676656 0.633939
Si Si4 0.968509 0.822659 0.562982
Si Si5 0.223231 0.326840 0.256334
Si Si6 0.479566 0.173160 0.743666
Si Si7 0.978049 0.324195 0.866285
Si Si8 0.780097 0.323010 0.939807
O O1 0.305038 0.749999 0.389923
O O2 0.132221 0.763733 0.404732
O O3 0.246900 0.773586 0.302360
O O4 0.236833 0.000000 0.368384
O O5 0.209060 0.775735 0.803055
O O6 0.212110 0.767578 0.906510
O O7 0.056736 0.750000 0.886529
O O8 0.143775 0.000000 0.870541
O O9 0.605216 0.500000 0.631616
O O10 0.536953 0.736267 0.595268
O O11 0.549260 0.726415 0.697641
O O12 0.000000 0.757966 0.500000
O O13 0.968900 0.000000 0.562199
O O14 0.236465 0.500000 0.268577
O O15 0.121623 0.294220 0.256755
O O16 0.487886 0.224265 0.803055
O O17 0.505041 0.000000 0.731424
O O18 0.985684 0.500000 0.870541
O O19 0.881380 0.267578 0.906511
O O20 0.777288 0.500000 0.945424
O O21 0.750000 0.250000 0.000000
#
# Coordination Sequence:
#
# PCOD8093219 Si02
#       8
#     8   8   8   8   8   8   8   8
#     4  11  22  37  58  86 116 149 188 232 282 336
#     4  10  21  38  59  84 114 149 185 227 277 333
#     4  11  22  37  58  86 116 149 188 232 282 336
#     4   9  20  39  59  79 110 151 192 235 282 331
#     4  10  19  35  60  86 116 151 184 227 284 338
#     4  10  19  35  60  86 116 151 184 227 284 338
#     4  10  21  38  59  84 114 149 185 227 277 333
#     4  10  22  41  60  80 111 148 189 232 279 327
#
# _framework density 19.361742
#
# number of rings (size 3 to 8) (size 9 to 14) (size 15 to 20)
#    0.000    1.875    2.500    1.500    0.000    5.000 
#    0.000    2.500    0.000    5.250    0.000    0.000 
#    0.000    0.000    0.000    0.000    0.000    0.000 
#
# Total GULP energy -396930.010500 kJ/mol
# GULP energy per Si atom -12404.062828 kJ/mol
# Density = 1.931767 g / cm^3
# Si number density = 19.361742 Si / 1000 Ang^3
#
#
#
# Elastic Constant Matrix: (Units=GPa)
#
#
# Indices 1 2 3 4 5 6 
#
# 1 184.9640 46.0373 83.5244 0.0000 -2.6534 0.0000
# 2 46.0373 44.9650 35.8225 0.0000 -0.3659 0.0000
# 3 83.5244 35.8225 148.3851 0.0000 1.3436 0.0000
# 4 0.0000 0.0000 0.0000 21.5006 0.0000 -0.4329
# 5 -2.6534 -0.3659 1.3436 0.0000 13.7979 0.0000
# 6 0.0000 0.0000 0.0000 -0.4329 0.0000 33.5950
#
#
#
# Elastic Compliance Matrix: (Units=1/GPa)
#
#
# Indices 1 2 3 4 5 6 
#
# 1 0.008411 -0.005958 -0.003312 0.000000 0.001782 0.000000
# 2 -0.005958 0.031782 -0.004320 0.000000 0.000118 0.000000
# 3 -0.003312 -0.004320 0.009662 0.000000 -0.001692 0.000000
# 4 0.000000 0.000000 0.000000 0.046522 0.000000 0.000599
# 5 0.001782 0.000118 -0.001692 0.000000 0.072985 0.000000
# 6 0.000000 0.000000 0.000000 0.000599 0.000000 0.029774
#
#
# Mechanical properties :
#
#
# Convention : Reuss Voigt Hill
#
# Bulk Modulus (GPa) = 44.10258 78.78693 61.44476
# Shear Modulus (GPa) = 21.37895 27.97402 24.67649
#
# Velocity S-wave (km/s) = 3.32653 3.80519 3.57388
# Velocity P-wave (km/s) = 6.13042 7.75154 6.98815
#
# Compressibility (1/GPa) = 0.02267441
#
# Stress axis : x y z
#
# Youngs Moduli (GPa) = 118.89796 31.46399 103.50080
#
# Poissons Ratio (x) = 0.18746 0.34279
# Poissons Ratio (y) = 0.70840 0.44713
# Poissons Ratio (z) = 0.39379 0.13593
#
# Static dielectric constant tensor:
#      x y z
#    x 3.831370 0.000000 -0.008820 
#    y 0.000000 3.258090 0.000000 
#    z -0.008820 0.000000 3.584770 
# 
# 
# High freq. dielectric constant tensor:
#      x y z
#    x 1.774050 0.000000 -0.000800 
#    y 0.000000 1.733150 0.000000 
#    z -0.000800 0.000000 1.751740 
# 
# From -- ./inp_files/359786.got.cif
#   From: 2010.06.25/outbox.cif.g09.slc.cpg/sg12_180_cif.got.tgz:359786.got - 2010.06.28 00:19:55.
