data_PCOD8093743
_publ_section_title
;
Structure prediction by ZEFSAII (Michael W. Deem and Ramdas Pophale) SiO2 
 PCOD8093743
Probable space group: C 2/M
;
_chemical_formula_sum "Si O2"
_cell_formula_units_Z 64
_cell_length_a 19.880990
_cell_length_b 8.708246
_cell_length_c 21.487944
_cell_angle_alpha 90.000000
_cell_angle_beta 62.664058
_cell_angle_gamma 90.000000
_cell_volume 3304.742059
_symmetry_space_group_name_H-M "C 2/M"
_symmetry_group_IT_number 12
_symmetry_cell_setting 'monoclinic'
loop_
_space_group_symop_operation_xyz
x,y,z
-x,y,-z
-x,-y,-z
x,-y,z
1/2+x,1/2+y,z
1/2-x,1/2+y,-z
1/2-x,1/2-y,-z
1/2+x,1/2-y,z
loop_
_atom_site_type_symbol
_atom_site_label
_atom_site_fract_x
_atom_site_fract_y
_atom_site_fract_z
Si Si1 0.101274 0.317907 0.204806
Si Si2 0.402258 0.176938 0.423578
Si Si3 0.327092 0.681554 0.941883
Si Si4 0.061378 0.179289 0.344950
Si Si5 0.192960 0.678275 0.656155
Si Si6 0.970725 0.679981 0.946041
Si Si7 0.947859 0.678740 0.210054
Si Si8 0.852280 0.679335 0.581295
O O1 0.108858 0.500000 0.196301
O O2 0.162724 0.243167 0.132765
O O3 0.112818 0.262946 0.270674
O O4 0.018991 0.255344 0.218185
O O5 0.473657 0.278935 0.374501
O O6 0.336701 0.202980 0.401118
O O7 0.368836 0.229895 0.503704
O O8 0.428810 0.000000 0.413406
O O9 0.321932 0.500000 0.942948
O O10 0.395473 0.731435 0.958013
O O11 0.250000 0.750000 0.000000
O O12 0.088536 0.231479 0.401058
O O13 0.072884 0.000000 0.331981
O O14 0.211783 0.500000 0.660810
O O15 0.131290 0.746632 0.731422
O O16 0.267323 0.777319 0.635518
O O17 0.950617 0.500000 0.956104
O O18 0.039234 0.712350 0.868445
O O19 0.000000 0.740028 0.000000
O O20 0.944581 0.500000 0.226744
O O21 0.864925 0.500000 0.585799
#
# Coordination Sequence:
#
# PCOD8093743 Si02
#       8
#     8   8   8   8   8   8   8   8
#     4  10  19  38  64  87 115 152 194 238 289 345
#     4  10  21  39  62  83 109 151 195 240 294 352
#     4  11  22  38  60  89 122 157 199 241 287 340
#     4  12  24  38  59  87 116 150 194 240 289 347
#     4  10  19  36  59  83 113 148 190 238 294 350
#     4   9  18  35  59  87 118 155 195 238 291 345
#     4   8  15  31  58  84 109 147 187 229 284 343
#     4  11  24  39  55  81 117 154 193 240 296 348
#
# _framework density 19.366109999999999
#
# number of rings (size 3 to 8) (size 9 to 14) (size 15 to 20)
#    0.000    1.875    1.250    4.500    0.000    3.250 
#    2.250    0.625    0.000    0.000    0.000    0.000 
#    0.000    0.000    0.000    0.000    0.000    0.000 
#
# Total GULP energy -396856.878891 kJ/mol
# GULP energy per Si atom -12401.777465 kJ/mol
# Density = 1.932203 g / cm^3
# Si number density = 19.366110 Si / 1000 Ang^3
#
#
#
# Elastic Constant Matrix: (Units=GPa)
#
#
# Indices 1 2 3 4 5 6 
#
# 1 47.9164 23.3374 22.6854 0.0001 -4.1165 -0.0003
# 2 23.3374 89.3413 33.2679 0.0004 -4.4184 -0.0006
# 3 22.6854 33.2679 121.0385 -0.0001 -6.2002 0.0000
# 4 0.0001 0.0004 -0.0001 28.0224 0.0001 -3.0689
# 5 -4.1165 -4.4184 -6.2002 0.0001 35.4866 0.0002
# 6 -0.0003 -0.0006 0.0000 -3.0689 0.0002 31.5487
#
#
#
# Elastic Compliance Matrix: (Units=1/GPa)
#
#
# Indices 1 2 3 4 5 6 
#
# 1 0.025090 -0.005293 -0.003161 0.000000 0.001699 0.000000
# 2 -0.005293 0.013618 -0.002720 0.000000 0.000606 0.000000
# 3 -0.003161 -0.002720 0.009652 0.000000 0.000981 0.000000
# 4 0.000000 0.000000 0.000000 0.036070 0.000000 0.003509
# 5 0.001699 0.000606 0.000981 0.000000 0.028624 0.000000
# 6 0.000000 0.000000 0.000000 0.003509 0.000000 0.032038
#
#
# Mechanical properties :
#
#
# Convention : Reuss Voigt Hill
#
# Bulk Modulus (GPa) = 38.44183 46.31974 42.38079
# Shear Modulus (GPa) = 28.39121 30.94522 29.66821
#
# Velocity S-wave (km/s) = 3.83303 4.00172 3.91828
# Velocity P-wave (km/s) = 6.28352 6.73213 6.51169
#
# Compressibility (1/GPa) = 0.02601333
#
# Stress axis : x y z
#
# Youngs Moduli (GPa) = 39.85666 73.42966 103.60477
#
# Poissons Ratio (x) = 0.38866 0.32745
# Poissons Ratio (y) = 0.21096 0.28181
# Poissons Ratio (z) = 0.12597 0.19973
#
# Static dielectric constant tensor:
#      x y z
#    x 3.390400 0.000000 0.025770 
#    y 0.000000 3.367600 0.000000 
#    z 0.025770 0.000000 3.898070 
# 
# 
# High freq. dielectric constant tensor:
#      x y z
#    x 1.739050 0.000000 0.000180 
#    y 0.000000 1.740800 0.000000 
#    z 0.000180 0.000000 1.771030 
# 
# From -- ./inp_files/319769.got.cif
#   From: 2010.06.25/outbox.cif.g09.slc.cpg/sg12_160_cif.got.tgz:319769.got - 2010.06.28 00:19:55.
