data_PCOD8093697
_publ_section_title
;
Structure prediction by ZEFSAII (Michael W. Deem and Ramdas Pophale) SiO2 
 PCOD8093697
Probable space group: C 2/M
;
_chemical_formula_sum "Si O2"
_cell_formula_units_Z 44
_cell_length_a 12.512069
_cell_length_b 13.263594
_cell_length_c 20.203599
_cell_angle_alpha 90.000000
_cell_angle_beta 34.666164
_cell_angle_gamma 90.000000
_cell_volume 1907.102459
_symmetry_space_group_name_H-M "C 2/M"
_symmetry_group_IT_number 12
_symmetry_cell_setting 'monoclinic'
loop_
_space_group_symop_operation_xyz
x,y,z
-x,y,-z
-x,-y,-z
x,-y,z
1/2+x,1/2+y,z
1/2-x,1/2+y,-z
1/2-x,1/2-y,-z
1/2+x,1/2-y,z
loop_
_atom_site_type_symbol
_atom_site_label
_atom_site_fract_x
_atom_site_fract_y
_atom_site_fract_z
Si Si1 0.378384 0.612775 0.694280
Si Si2 0.241113 0.886188 0.024034
Si Si3 0.449805 0.256341 0.112525
Si Si4 0.173884 0.614180 0.171664
Si Si5 0.000000 0.808436 0.500000
Si Si6 0.647632 0.255435 0.621864
O O1 0.308701 0.500000 0.743523
O O2 0.202645 0.686163 0.774964
O O3 0.494001 0.619251 0.566986
O O4 0.509566 0.647176 0.689638
O O5 0.379806 0.818416 0.999814
O O6 0.331829 0.884473 0.904625
O O7 0.223286 0.000000 0.060903
O O8 0.036476 0.832477 0.124106
O O9 0.356364 0.321838 0.101580
O O10 0.196325 0.500000 0.186417
O O11 0.980014 0.656865 0.300005
O O12 0.813653 0.737512 0.591683
O O13 0.750000 0.250000 0.500000
#
# Coordination Sequence:
#
# PCOD8093697 Si02
#       6
#     8   8   8   8   4   8
#     4  10  20  35  56  81 108 141 180 221 266 317
#     4  10  20  35  58  84 107 139 183 224 264 313
#     4  10  20  33  54  83 114 139 171 225 274 312
#     4  10  20  36  59  82 105 139 183 225 265 313
#     4  10  19  36  59  80 104 138 181 228 267 310
#     4   9  20  34  53  82 112 137 172 224 274 315
#
# _framework density 23.071652
#
# number of rings (size 3 to 8) (size 9 to 14) (size 15 to 20)
#    0.000    2.182    0.000    3.000    0.000    6.545 
#    0.000    0.455    0.000   79.636    0.000    0.000 
#    0.000    0.000    0.000    0.000    0.000    0.000 
#
# Total GULP energy -272624.254716 kJ/mol
# GULP energy per Si atom -12392.011578 kJ/mol
# Density = 2.301914 g / cm^3
# Si number density = 23.071652 Si / 1000 Ang^3
#
#
#
# Elastic Constant Matrix: (Units=GPa)
#
#
# Indices 1 2 3 4 5 6 
#
# 1 93.7487 51.9180 30.7719 0.0000 -41.4408 0.0000
# 2 51.9180 184.5487 57.1838 -0.0008 -26.4023 0.0000
# 3 30.7719 57.1838 98.2707 -0.0033 -35.0948 -0.0002
# 4 0.0000 -0.0008 -0.0033 27.3861 0.0002 0.5159
# 5 -41.4408 -26.4023 -35.0948 0.0002 45.0273 0.0001
# 6 0.0000 0.0000 -0.0002 0.5159 0.0001 22.6798
#
#
#
# Elastic Compliance Matrix: (Units=1/GPa)
#
#
# Indices 1 2 3 4 5 6 
#
# 1 0.019919 -0.003768 0.002374 0.000000 0.017974 0.000000
# 2 -0.003768 0.007372 -0.003886 0.000000 -0.002174 0.000000
# 3 0.002374 -0.003886 0.016158 0.000002 0.012500 0.000000
# 4 0.000000 0.000000 0.000002 0.036531 0.000001 -0.000831
# 5 0.017974 -0.002174 0.012500 0.000001 0.047218 0.000000
# 6 0.000000 0.000000 0.000000 -0.000831 0.000000 0.044111
#
#
# Mechanical properties :
#
#
# Convention : Reuss Voigt Hill
#
# Bulk Modulus (GPa) = 30.40562 72.92395 51.66479
# Shear Modulus (GPa) = 25.92922 34.79826 30.36374
#
# Velocity S-wave (km/s) = 3.35603 3.88786 3.63169
# Velocity P-wave (km/s) = 5.31269 7.19931 6.32672
#
# Compressibility (1/GPa) = 0.03288865
#
# Stress axis : x y z
#
# Youngs Moduli (GPa) = 50.20230 135.65265 61.88872
#
# Poissons Ratio (x) = 0.51114 -0.14692
# Poissons Ratio (y) = 0.18916 0.24052
# Poissons Ratio (z) = -0.11918 0.52718
#
# Static dielectric constant tensor:
#      x y z
#    x 4.312540 0.000000 -0.414800 
#    y 0.000000 4.289420 0.000000 
#    z -0.414800 0.000000 4.236720 
# 
# 
# High freq. dielectric constant tensor:
#      x y z
#    x 1.908400 0.000000 -0.020800 
#    y 0.000000 1.899510 0.000000 
#    z -0.020800 0.000000 1.916270 
# 
# From -- ./inp_files/245550.got.cif
#   From: 2010.06.25/outbox.cif.g09.slc.cpg/sg12_123_cif.got.tgz:245550.got - 2010.06.28 00:19:55.
