data_PCOD8093174
_publ_section_title
;
Structure prediction by ZEFSAII (Michael W. Deem and Ramdas Pophale) SiO2 
 PCOD8093174
Probable space group: C 2/M
;
_chemical_formula_sum "Si O2"
_cell_formula_units_Z 52
_cell_length_a 20.954215
_cell_length_b 16.926992
_cell_length_c 15.429558
_cell_angle_alpha 90.000000
_cell_angle_beta 150.048477
_cell_angle_gamma 90.000000
_cell_volume 2732.358063
_symmetry_space_group_name_H-M "C 2/M"
_symmetry_group_IT_number 12
_symmetry_cell_setting 'monoclinic'
loop_
_space_group_symop_operation_xyz
x,y,z
-x,y,-z
-x,-y,-z
x,-y,z
1/2+x,1/2+y,z
1/2-x,1/2+y,-z
1/2-x,1/2-y,-z
1/2+x,1/2-y,z
loop_
_atom_site_type_symbol
_atom_site_label
_atom_site_fract_x
_atom_site_fract_y
_atom_site_fract_z
Si Si1 0.794978 0.411001 0.705119
Si Si2 0.133870 0.192544 0.624592
Si Si3 0.711613 0.798230 0.872206
Si Si4 0.282984 0.410068 0.579874
Si Si5 0.972761 0.808815 0.125781
Si Si6 0.056585 0.303650 0.380038
Si Si7 0.500000 0.793247 0.000000
O O1 0.845529 0.500000 0.779266
O O2 0.707041 0.386798 0.682792
O O3 0.718562 0.404530 0.525606
O O4 0.908674 0.348622 0.835957
O O5 0.201358 0.236983 0.782005
O O6 0.125188 0.250335 0.532175
O O7 0.000000 0.160444 0.500000
O O8 0.575309 0.841194 0.732630
O O9 0.750000 0.750000 0.000000
O O10 0.838662 0.851447 0.999168
O O11 0.284832 0.500000 0.614422
O O12 0.415272 0.370115 0.766303
O O13 0.155937 0.371843 0.471733
O O14 0.024645 0.748770 0.259265
O O15 0.932234 0.761590 0.991333
#
# Coordination Sequence:
#
# PCOD8093174 Si02
#       7
#     8   8   8   8   8   8   4
#     4  11  22  36  55  87 124 152 182 230 294 351
#     4  10  19  35  60  84 108 150 197 237 281 340
#     4   9  20  34  57  86 112 142 193 246 284 330
#     4  11  23  38  58  87 121 154 188 237 292 346
#     4  11  20  35  60  85 113 148 197 240 284 334
#     4  10  19  37  59  83 111 150 201 236 278 340
#     4  12  21  34  59  86 112 150 194 242 283 332
#
# _framework density 19.031182000000001
#
# number of rings (size 3 to 8) (size 9 to 14) (size 15 to 20)
#    0.000    1.538    4.615    1.615    0.000    0.308 
#    0.000    1.154    0.000    4.154    0.000    0.000 
#    0.000    0.000    0.000    0.000    0.000    0.000 
#
# Total GULP energy -322102.989464 kJ/mol
# GULP energy per Si atom -12388.576518 kJ/mol
# Density = 1.898787 g / cm^3
# Si number density = 19.031182 Si / 1000 Ang^3
#
#
#
# Elastic Constant Matrix: (Units=GPa)
#
#
# Indices 1 2 3 4 5 6 
#
# 1 117.0860 44.4303 40.5788 -0.0001 22.7162 0.0001
# 2 44.4303 80.0255 27.2927 0.0000 17.2466 0.0000
# 3 40.5788 27.2927 76.2717 -0.0001 16.0862 0.0001
# 4 -0.0001 0.0000 -0.0001 823.8660 -0.0001-1058.8248
# 5 22.7162 17.2466 16.0862 -0.0001 60.4013 0.0001
# 6 0.0001 0.0000 0.0001-1058.8248 0.0001 1397.4065
#
#
#
# Elastic Compliance Matrix: (Units=1/GPa)
#
#
# Indices 1 2 3 4 5 6 
#
# 1 0.012314 -0.004904 -0.004360 0.000000 -0.002070 0.000000
# 2 -0.004904 0.016671 -0.002905 0.000000 -0.002142 0.000000
# 3 -0.004360 -0.002905 0.016899 0.000000 -0.002031 0.000000
# 4 0.000000 0.000000 0.000000 0.046324 0.000000 0.035100
# 5 -0.002070 -0.002142 -0.002031 0.000000 0.018487 0.000000
# 6 0.000000 0.000000 0.000000 0.035100 0.000000 0.027311
#
#
# Mechanical properties :
#
#
# Convention : Reuss Voigt Hill
#
# Bulk Modulus (GPa) = 46.41149 55.33188 50.87168
# Shear Modulus (GPa) = 29.49405 467.07352 248.28379
#
# Velocity S-wave (km/s) = 3.94099 15.68305 11.43437
# Velocity P-wave (km/s) = 6.71927 18.89661 14.18151
#
# Compressibility (1/GPa) = 0.02154639
#
# Stress axis : x y z
#
# Youngs Moduli (GPa) = 81.20653 59.98469 59.17639
#
# Poissons Ratio (x) = 0.29415 0.25803
# Poissons Ratio (y) = 0.39822 0.17189
# Poissons Ratio (z) = 0.35408 0.17424
#
# Static dielectric constant tensor:
#      x y z
#    x 3.604150 0.000000 0.298110 
#    y 0.000000 3.112080 0.000000 
#    z 0.298110 0.000000 3.792220 
# 
# 
# High freq. dielectric constant tensor:
#      x y z
#    x 1.762680 0.000000 0.006500 
#    y 0.000000 1.685520 0.000000 
#    z 0.006500 0.000000 1.757100 
# 
# From -- ./inp_files/234488.got.cif
#   From: 2010.06.25/outbox.cif.g09.slc.cpg/sg12_118_cif.got.tgz:234488.got - 2010.06.28 00:19:55.
