data_PCOD8093584
_publ_section_title
;
Structure prediction by ZEFSAII (Michael W. Deem and Ramdas Pophale) SiO2 
 PCOD8093584
Probable space group: C 2/M
;
_chemical_formula_sum "Si O2"
_cell_formula_units_Z 48
_cell_length_a 22.573567
_cell_length_b 11.436607
_cell_length_c 29.821881
_cell_angle_alpha 90.000000
_cell_angle_beta 18.505382
_cell_angle_gamma 90.000000
_cell_volume 2443.603677
_symmetry_space_group_name_H-M "C 2/M"
_symmetry_group_IT_number 12
_symmetry_cell_setting 'monoclinic'
loop_
_space_group_symop_operation_xyz
x,y,z
-x,y,-z
-x,-y,-z
x,-y,z
1/2+x,1/2+y,z
1/2-x,1/2+y,-z
1/2-x,1/2-y,-z
1/2+x,1/2-y,z
loop_
_atom_site_type_symbol
_atom_site_label
_atom_site_fract_x
_atom_site_fract_y
_atom_site_fract_z
Si Si1 0.942887 0.202473 0.112054
Si Si2 0.206165 0.632458 0.364281
Si Si3 0.168206 0.631626 0.006689
Si Si4 0.524627 0.778623 0.769129
Si Si5 0.356358 0.866624 0.408128
Si Si6 0.746026 0.871948 0.172361
O O1 0.838832 0.132102 0.225725
O O2 0.804408 0.221891 0.168908
O O3 0.020017 0.324048 0.076167
O O4 0.122538 0.131461 0.965764
O O5 0.185381 0.500000 0.396753
O O6 0.300697 0.707212 0.335881
O O7 0.000000 0.683034 0.500000
O O8 0.211994 0.500000 0.963251
O O9 0.075102 0.641220 0.122359
O O10 0.367794 0.694422 0.860818
O O11 0.604527 0.861119 0.672923
O O12 0.250000 0.750000 0.500000
O O13 0.538343 0.850586 0.307015
O O14 0.272484 0.000000 0.477171
O O15 0.768370 0.000000 0.178491
#
# Coordination Sequence:
#
# PCOD8093584 Si02
#       6
#     8   8   8   8   8   8
#     4  10  19  36  57  86 118 151 201 247 303 352
#     4  10  21  34  57  89 120 153 197 256 306 354
#     4  10  20  36  61  89 119 155 198 255 308 362
#     4  10  21  39  60  86 120 156 202 247 304 372
#     4  11  25  43  64  91 124 164 206 252 304 367
#     4  10  20  37  62  85 115 156 203 249 295 354
#
# _framework density 19.643121000000001
#
# number of rings (size 3 to 8) (size 9 to 14) (size 15 to 20)
#    0.000    1.833    1.667    3.000    2.333    1.333 
#    0.000    2.500    0.000    2.500    0.000    0.000 
#    0.000    0.000    0.000    0.000    0.000    0.000 
#
# Total GULP energy -297382.443147 kJ/mol
# GULP energy per Si atom -12390.935131 kJ/mol
# Density = 1.959841 g / cm^3
# Si number density = 19.643121 Si / 1000 Ang^3
#
#
#
# Elastic Constant Matrix: (Units=GPa)
#
#
# Indices 1 2 3 4 5 6 
#
# 1 86.9677 56.0531 27.3196 -0.0083 1.1593 -0.0096
# 2 56.0531 110.2690 43.9526 -0.0572 -11.2384 -0.0119
# 3 27.3196 43.9526 68.1529 -0.1438 -8.4999 -0.0546
# 4 -0.0083 -0.0572 -0.1438 23.7095 0.0022 -0.6708
# 5 1.1593 -11.2384 -8.4999 0.0022 27.9374 0.0209
# 6 -0.0096 -0.0119 -0.0546 -0.6708 0.0209 19.8001
#
#
#
# Elastic Compliance Matrix: (Units=1/GPa)
#
#
# Indices 1 2 3 4 5 6 
#
# 1 0.017860 -0.008724 -0.002145 -0.000027 -0.004903 0.000002
# 2 -0.008724 0.016654 -0.006614 -0.000004 0.005049 -0.000018
# 3 -0.002145 -0.006614 0.020246 0.000107 0.003588 0.000051
# 4 -0.000027 -0.000004 0.000107 0.042218 0.000028 0.001431
# 5 -0.004903 0.005049 0.003588 0.000028 0.039121 -0.000030
# 6 0.000002 -0.000018 0.000051 0.001431 -0.000030 0.050554
#
#
# Mechanical properties :
#
#
# Convention : Reuss Voigt Hill
#
# Bulk Modulus (GPa) = 50.51694 57.78226 54.14960
# Shear Modulus (GPa) = 21.90906 23.49366 22.70136
#
# Velocity S-wave (km/s) = 3.34332 3.46211 3.40323
# Velocity P-wave (km/s) = 6.37784 6.74251 6.56271
#
# Compressibility (1/GPa) = 0.01979534
#
# Stress axis : x y z
#
# Youngs Moduli (GPa) = 55.98985 60.04548 49.39305
#
# Poissons Ratio (x) = 0.52382 0.10595
# Poissons Ratio (y) = 0.48844 0.32667
# Poissons Ratio (z) = 0.12010 0.39712
#
# Static dielectric constant tensor:
#      x y z
#    x 3.740070 -0.000050 -0.081000 
#    y -0.000050 3.447190 0.000490 
#    z -0.081000 0.000490 3.597200 
# 
# 
# High freq. dielectric constant tensor:
#      x y z
#    x 1.777380 0.000000 -0.004660 
#    y 0.000000 1.743680 0.000030 
#    z -0.004660 0.000030 1.763510 
# 
# From -- ./inp_files/366146.got.cif
#   From: 2010.06.25/outbox.cif.g09.slc.cpg/sg12_184_cif.got.tgz:366146.got - 2010.06.28 00:19:55.
