data_PCOD8093836
_publ_section_title
;
Structure prediction by ZEFSAII (Michael W. Deem and Ramdas Pophale) SiO2 
 PCOD8093836
Probable space group: C 2/M
;
_chemical_formula_sum "Si O2"
_cell_formula_units_Z 48
_cell_length_a 15.074259
_cell_length_b 8.997812
_cell_length_c 20.399348
_cell_angle_alpha 90.000000
_cell_angle_beta 111.506740
_cell_angle_gamma 90.000000
_cell_volume 2574.227639
_symmetry_space_group_name_H-M "C 2/M"
_symmetry_group_IT_number 12
_symmetry_cell_setting 'monoclinic'
loop_
_space_group_symop_operation_xyz
x,y,z
-x,y,-z
-x,-y,-z
x,-y,z
1/2+x,1/2+y,z
1/2-x,1/2+y,-z
1/2-x,1/2-y,-z
1/2+x,1/2-y,z
loop_
_atom_site_type_symbol
_atom_site_label
_atom_site_fract_x
_atom_site_fract_y
_atom_site_fract_z
Si Si1 0.277147 0.823274 0.575234
Si Si2 0.995430 0.675672 0.829974
Si Si3 0.704341 0.174879 0.925243
Si Si4 0.676774 0.824414 0.667054
Si Si5 0.189341 0.174687 0.176044
Si Si6 0.483042 0.824198 0.679459
O O1 0.250000 0.750000 0.500000
O O2 0.203932 0.765396 0.609752
O O3 0.384109 0.770031 0.621337
O O4 0.270082 0.000000 0.568394
O O5 0.981946 0.500000 0.824891
O O6 0.912230 0.746077 0.850524
O O7 0.992421 0.741278 0.755312
O O8 0.094108 0.721724 0.890653
O O9 0.756661 0.231021 0.873937
O O10 0.715206 0.000000 0.935389
O O11 0.750000 0.250000 0.000000
O O12 0.749002 0.779366 0.744225
O O13 0.570993 0.770093 0.658611
O O14 0.679798 0.000000 0.653480
O O15 0.173344 0.000000 0.169825
O O16 0.487759 0.000000 0.685917
#
# Coordination Sequence:
#
# PCOD8093836 Si02
#       6
#     8   8   8   8   8   8
#     4  11  23  39  58  84 117 150 185 231 283 334
#     4  10  19  36  60  84 110 147 193 233 272 333
#     4  10  22  39  58  82 117 153 187 232 283 335
#     4  10  19  36  61  85 109 144 190 233 278 334
#     4  10  20  35  58  86 113 144 184 236 286 329
#     4   9  18  35  60  83 108 147 190 226 273 337
#
# _framework density 18.646370999999998
#
# number of rings (size 3 to 8) (size 9 to 14) (size 15 to 20)
#    0.000    2.000    3.333    0.500    0.000    2.667 
#    0.000    9.167    0.000    0.000    0.000    0.000 
#    0.000    0.000    0.000    0.000    0.000    0.000 
#
# Total GULP energy -297656.760137 kJ/mol
# GULP energy per Si atom -12402.365006 kJ/mol
# Density = 1.860393 g / cm^3
# Si number density = 18.646371 Si / 1000 Ang^3
#
#
#
# Elastic Constant Matrix: (Units=GPa)
#
#
# Indices 1 2 3 4 5 6 
#
# 1 131.3003 27.6888 32.0264 0.0000 0.7696 0.0000
# 2 27.6888 31.0353 30.4489 0.0000 -1.2936 0.0000
# 3 32.0264 30.4489 109.0330 0.0000 -0.0471 0.0000
# 4 0.0000 0.0000 0.0000 32.8239 0.0000 -2.1394
# 5 0.7696 -1.2936 -0.0471 0.0000 30.4564 0.0000
# 6 0.0000 0.0000 0.0000 -2.1394 0.0000 33.5402
#
#
#
# Elastic Compliance Matrix: (Units=1/GPa)
#
#
# Indices 1 2 3 4 5 6 
#
# 1 0.009417 -0.007867 -0.000569 0.000000 -0.000573 0.000000
# 2 -0.007867 0.051059 -0.011947 0.000000 0.002349 0.000000
# 3 -0.000569 -0.011947 0.012675 0.000000 -0.000473 0.000000
# 4 0.000000 0.000000 0.000000 0.030593 0.000000 0.001951
# 5 -0.000573 0.002349 -0.000473 0.000000 0.032947 0.000000
# 6 0.000000 0.000000 0.000000 0.001951 0.000000 0.029939
#
#
# Mechanical properties :
#
#
# Convention : Reuss Voigt Hill
#
# Bulk Modulus (GPa) = 30.87908 50.18853 40.53380
# Shear Modulus (GPa) = 22.91542 31.44443 27.17992
#
# Velocity S-wave (km/s) = 3.50944 4.11098 3.82206
# Velocity P-wave (km/s) = 5.74612 7.03619 6.42362
#
# Compressibility (1/GPa) = 0.03238439
#
# Stress axis : x y z
#
# Youngs Moduli (GPa) = 106.18629 19.58500 78.89549
#
# Poissons Ratio (x) = 0.15408 0.04493
# Poissons Ratio (y) = 0.83538 0.94258
# Poissons Ratio (z) = 0.06047 0.23399
#
# Static dielectric constant tensor:
#      x y z
#    x 3.875880 0.000000 -0.100070 
#    y 0.000000 3.152580 0.000000 
#    z -0.100070 0.000000 3.521290 
# 
# 
# High freq. dielectric constant tensor:
#      x y z
#    x 1.741570 0.000000 -0.000070 
#    y 0.000000 1.699700 0.000000 
#    z -0.000070 0.000000 1.726470 
# 
# From -- ./inp_files/261801.got.cif
#   From: 2010.06.25/outbox.cif.g09.slc.cpg/sg12_131_cif.got.tgz:261801.got - 2010.06.28 00:19:55.
