data_PCOD8093755
_publ_section_title
;
Structure prediction by ZEFSAII (Michael W. Deem and Ramdas Pophale) SiO2 
 PCOD8093755
Probable space group: C 2/M
;
_chemical_formula_sum "Si O2"
_cell_formula_units_Z 56
_cell_length_a 20.421208
_cell_length_b 8.844836
_cell_length_c 29.795016
_cell_angle_alpha 90.000000
_cell_angle_beta 33.771803
_cell_angle_gamma 90.000000
_cell_volume 2991.582872
_symmetry_space_group_name_H-M "C 2/M"
_symmetry_group_IT_number 12
_symmetry_cell_setting 'monoclinic'
loop_
_space_group_symop_operation_xyz
x,y,z
-x,y,-z
-x,-y,-z
x,-y,z
1/2+x,1/2+y,z
1/2-x,1/2+y,-z
1/2-x,1/2-y,-z
1/2+x,1/2-y,z
loop_
_atom_site_type_symbol
_atom_site_label
_atom_site_fract_x
_atom_site_fract_y
_atom_site_fract_z
Si Si1 0.576165 0.677628 0.576121
Si Si2 0.552535 0.176107 0.750522
Si Si3 0.165617 0.320929 0.271715
Si Si4 0.185252 0.320863 0.159506
Si Si5 0.105051 0.675206 0.822748
Si Si6 0.061541 0.825443 0.012546
Si Si7 0.289977 0.677367 0.410392
O O1 0.565516 0.500000 0.576083
O O2 0.449803 0.751812 0.639560
O O3 0.621871 0.723214 0.599576
O O4 0.665055 0.741062 0.488136
O O5 0.425979 0.236692 0.805650
O O6 0.559253 0.208798 0.799123
O O7 0.655640 0.267386 0.667228
O O8 0.567655 0.000000 0.730255
O O9 0.155099 0.500000 0.278068
O O10 0.177976 0.256009 0.214143
O O11 0.278367 0.272451 0.235929
O O12 0.189665 0.500000 0.159959
O O13 0.304608 0.264904 0.067540
O O14 0.135160 0.500000 0.812708
O O15 0.001471 0.722491 0.915073
O O16 0.055164 0.000000 0.031532
O O17 0.000000 0.804846 0.000000
O O18 0.267431 0.500000 0.421918
#
# Coordination Sequence:
#
# PCOD8093755 Si02
#       7
#     8   8   8   8   8   8   8
#     4  10  20  34  56  88 120 148 185 235 286 334
#     4  10  21  39  58  80 116 157 190 229 287 343
#     4  11  20  36  61  85 111 149 194 238 280 335
#     4   9  18  34  59  83 107 145 193 235 276 334
#     4  11  24  38  55  83 119 153 186 234 293 343
#     4  10  19  36  59  84 110 146 194 238 283 336
#     4  10  20  34  56  87 118 150 189 233 279 333
#
# _framework density 18.719187000000002
#
# number of rings (size 3 to 8) (size 9 to 14) (size 15 to 20)
#    0.000    1.857    2.857    1.714    0.000    3.143 
#    0.000    1.429    0.000    4.286    0.000    0.000 
#    0.000    0.000    0.000    0.000    0.000    0.000 
#
# Total GULP energy -347323.947828 kJ/mol
# GULP energy per Si atom -12404.426708 kJ/mol
# Density = 1.867658 g / cm^3
# Si number density = 18.719187 Si / 1000 Ang^3
#
#
#
# Elastic Constant Matrix: (Units=GPa)
#
#
# Indices 1 2 3 4 5 6 
#
# 1 88.3320 31.1896 48.6261 0.0036 -11.3834 -0.0249
# 2 31.1896 64.7481 44.1722 0.0017 -1.9190 -0.0219
# 3 48.6261 44.1722 144.2391 0.0007 -19.0762 0.0008
# 4 0.0036 0.0017 0.0007 36.6736 0.0004 -0.6244
# 5 -11.3834 -1.9190 -19.0762 0.0004 30.1073 0.0052
# 6 -0.0249 -0.0219 0.0008 -0.6244 0.0052 23.7012
#
#
#
# Elastic Compliance Matrix: (Units=1/GPa)
#
#
# Indices 1 2 3 4 5 6 
#
# 1 0.015304 -0.005136 -0.003126 -0.000001 0.003478 0.000011
# 2 -0.005136 0.021462 -0.005367 0.000000 -0.003974 0.000016
# 3 -0.003126 -0.005367 0.010291 0.000000 0.004996 -0.000010
# 4 -0.000001 0.000000 0.000000 0.027280 -0.000001 0.000719
# 5 0.003478 -0.003974 0.004996 -0.000001 0.037442 -0.000008
# 6 0.000011 0.000016 -0.000010 0.000719 -0.000008 0.042211
#
#
# Mechanical properties :
#
#
# Convention : Reuss Voigt Hill
#
# Bulk Modulus (GPa) = 50.50826 60.58833 55.54830
# Shear Modulus (GPa) = 26.61736 29.65185 28.13461
#
# Velocity S-wave (km/s) = 3.77494 3.98431 3.88104
# Velocity P-wave (km/s) = 6.78534 7.32144 7.05849
#
# Compressibility (1/GPa) = 0.01979874
#
# Stress axis : x y z
#
# Youngs Moduli (GPa) = 65.34391 46.59393 97.17007
#
# Poissons Ratio (x) = 0.23930 0.30379
# Poissons Ratio (y) = 0.33560 0.52149
# Poissons Ratio (z) = 0.20429 0.25006
#
# Static dielectric constant tensor:
#      x y z
#    x 3.364920 0.000000 -0.140250 
#    y 0.000000 3.288880 0.000000 
#    z -0.140250 0.000000 3.565790 
# 
# 
# High freq. dielectric constant tensor:
#      x y z
#    x 1.711480 0.000000 -0.010510 
#    y 0.000000 1.718660 0.000000 
#    z -0.010510 0.000000 1.740100 
# 
# From -- ./inp_files/362884.got.cif
#   From: 2010.06.25/outbox.cif.g09.slc.cpg/sg12_182_cif.got.tgz:362884.got - 2010.06.28 00:19:55.
