data_PCOD8093360
_publ_section_title
;
Structure prediction by ZEFSAII (Michael W. Deem and Ramdas Pophale) SiO2 
 PCOD8093360
Probable space group: C 2/M
;
_chemical_formula_sum "Si O2"
_cell_formula_units_Z 64
_cell_length_a 14.176912
_cell_length_b 13.854394
_cell_length_c 18.598539
_cell_angle_alpha 90.000000
_cell_angle_beta 58.111840
_cell_angle_gamma 90.000000
_cell_volume 3101.680528
_symmetry_space_group_name_H-M "C 2/M"
_symmetry_group_IT_number 12
_symmetry_cell_setting 'monoclinic'
loop_
_space_group_symop_operation_xyz
x,y,z
-x,y,-z
-x,-y,-z
x,-y,z
1/2+x,1/2+y,z
1/2-x,1/2+y,-z
1/2-x,1/2-y,-z
1/2+x,1/2-y,z
loop_
_atom_site_type_symbol
_atom_site_label
_atom_site_fract_x
_atom_site_fract_y
_atom_site_fract_z
Si Si1 0.206726 0.612084 0.006004
Si Si2 0.503221 0.892937 0.832182
Si Si3 0.625121 0.612775 0.944686
Si Si4 0.408215 0.890109 0.479953
Si Si5 0.535446 0.217999 0.683214
Si Si6 0.777004 0.292052 0.763190
Si Si7 0.313043 0.611191 0.343727
Si Si8 0.297670 0.106968 0.151525
O O1 0.176930 0.500000 0.009113
O O2 0.324461 0.630728 0.996268
O O3 0.111829 0.657347 0.095981
O O4 0.209231 0.656171 0.925006
O O5 0.567876 0.832082 0.745491
O O6 0.575246 0.899333 0.875530
O O7 0.481301 0.000000 0.809199
O O8 0.626656 0.500000 0.923852
O O9 0.696128 0.666939 0.856587
O O10 0.500000 0.652979 0.000000
O O11 0.500000 0.849625 0.500000
O O12 0.404052 0.827476 0.409487
O O13 0.283041 0.884086 0.558553
O O14 0.441368 0.000000 0.447783
O O15 0.406023 0.193207 0.726672
O O16 0.577821 0.329072 0.673709
O O17 0.741770 0.342576 0.704348
O O18 0.765232 0.175827 0.766633
O O19 0.349542 0.500000 0.315030
O O20 0.242345 0.000000 0.175012
#
# Coordination Sequence:
#
# PCOD8093360 Si02
#       8
#     8   8   8   8   8   8   8   8
#     4   9  18  35  58  84 118 162 211 269 329 381
#     4  10  19  35  61  92 120 154 211 271 324 380
#     4  10  22  38  57  88 128 172 222 276 331 389
#     4  10  21  40  71 105 136 170 213 269 329 391
#     4  12  23  40  68 101 130 171 218 272 325 393
#     4  12  24  40  65  93 126 173 226 271 327 391
#     4  11  25  45  67  99 139 176 214 267 333 399
#     4  10  22  39  58  85 123 163 210 270 331 385
#
# _framework density 20.633975
#
# number of rings (size 3 to 8) (size 9 to 14) (size 15 to 20)
#    0.000    1.500    3.750    1.500    0.000    5.500 
#    0.000    1.250    0.000    0.375    0.000    0.000 
#    0.000    0.000    0.000    0.000    0.000    0.000 
#
# Total GULP energy -396648.808319 kJ/mol
# GULP energy per Si atom -12395.275260 kJ/mol
# Density = 2.058701 g / cm^3
# Si number density = 20.633975 Si / 1000 Ang^3
#
#
#
# Elastic Constant Matrix: (Units=GPa)
#
#
# Indices 1 2 3 4 5 6 
#
# 1 100.9954 32.2650 47.4293 0.0000 5.4726 0.0000
# 2 32.2650 106.8365 59.4214 0.0000 6.4832 0.0000
# 3 47.4293 59.4214 105.2079 0.0000 9.2460 0.0000
# 4 0.0000 0.0000 0.0000 29.3481 0.0000 1.4171
# 5 5.4726 6.4832 9.2460 0.0000 32.7517 0.0000
# 6 0.0000 0.0000 0.0000 1.4171 0.0000 28.0222
#
#
#
# Elastic Compliance Matrix: (Units=1/GPa)
#
#
# Indices 1 2 3 4 5 6 
#
# 1 0.012633 -0.000936 -0.005124 0.000000 -0.000479 0.000000
# 2 -0.000936 0.013726 -0.007286 0.000000 -0.000504 0.000000
# 3 -0.005124 -0.007286 0.016128 0.000000 -0.002255 0.000000
# 4 0.000000 0.000000 0.000000 0.034157 0.000000 -0.001727
# 5 -0.000479 -0.000504 -0.002255 0.000000 0.031349 0.000000
# 6 0.000000 0.000000 0.000000 -0.001727 0.000000 0.035773
#
#
# Mechanical properties :
#
#
# Convention : Reuss Voigt Hill
#
# Bulk Modulus (GPa) = 63.31417 65.69680 64.50548
# Shear Modulus (GPa) = 28.45366 29.61933 29.03650
#
# Velocity S-wave (km/s) = 3.71748 3.79286 3.75536
# Velocity P-wave (km/s) = 7.01265 7.14768 7.08049
#
# Compressibility (1/GPa) = 0.01579425
#
# Stress axis : x y z
#
# Youngs Moduli (GPa) = 79.15833 72.85555 62.00225
#
# Poissons Ratio (x) = 0.06819 0.31772
# Poissons Ratio (y) = 0.07409 0.45175
# Poissons Ratio (z) = 0.40564 0.53083
#
# Static dielectric constant tensor:
#      x y z
#    x 3.732000 0.000000 0.065950 
#    y 0.000000 3.877100 0.000000 
#    z 0.065950 0.000000 3.696240 
# 
# 
# High freq. dielectric constant tensor:
#      x y z
#    x 1.809450 0.000000 0.007290 
#    y 0.000000 1.808650 0.000000 
#    z 0.007290 0.000000 1.798470 
# 
# From -- ./inp_files/270279.got.cif
#   From: 2010.06.25/outbox.cif.g09.slc.cpg/sg12_136_cif.got.tgz:270279.got - 2010.06.28 00:19:55.
