data_PCOD8093855
_publ_section_title
;
Structure prediction by ZEFSAII (Michael W. Deem and Ramdas Pophale) SiO2 
 PCOD8093855
Probable space group: C 2/M
;
_chemical_formula_sum "Si O2"
_cell_formula_units_Z 44
_cell_length_a 14.140270
_cell_length_b 26.489557
_cell_length_c 8.418656
_cell_angle_alpha 90.000000
_cell_angle_beta 140.401414
_cell_angle_gamma 90.000000
_cell_volume 2009.974787
_symmetry_space_group_name_H-M "C 2/M"
_symmetry_group_IT_number 12
_symmetry_cell_setting 'monoclinic'
loop_
_space_group_symop_operation_xyz
x,y,z
-x,y,-z
-x,-y,-z
x,-y,z
1/2+x,1/2+y,z
1/2-x,1/2+y,-z
1/2-x,1/2-y,-z
1/2+x,1/2-y,z
loop_
_atom_site_type_symbol
_atom_site_label
_atom_site_fract_x
_atom_site_fract_y
_atom_site_fract_z
Si Si1 0.197605 0.681210 0.114605
Si Si2 0.145048 0.556461 0.585851
Si Si3 0.111549 0.654275 0.354015
Si Si4 0.000000 0.876170 0.500000
Si Si5 0.160285 0.208987 0.138363
Si Si6 0.916570 0.895816 0.062159
O O1 0.141944 0.661038 0.210205
O O2 0.353549 0.656011 0.279649
O O3 0.220666 0.741379 0.129001
O O4 0.061108 0.664954 0.821343
O O5 0.150695 0.500000 0.520734
O O6 0.154016 0.597033 0.456338
O O7 0.000000 0.565172 0.500000
O O8 0.283240 0.564239 0.884515
O O9 0.220394 0.694768 0.574344
O O10 0.012896 0.907570 0.348220
O O11 0.144048 0.161814 0.997400
O O12 0.000000 0.223809 0.000000
O O13 0.000000 0.899467 0.000000
#
# Coordination Sequence:
#
# PCOD8093855 Si02
#       6
#     8   8   8   4   8   8
#     4  11  22  35  58  89 129 168 212 264 309 378
#     4  10  21  41  66  90 120 161 212 271 329 380
#     4  10  21  38  62  87 122 172 216 255 320 383
#     4  12  24  38  59  94 132 164 219 266 316 368
#     4  10  19  36  60  84 124 174 212 256 311 374
#     4  10  23  42  63  89 127 171 210 261 316 380
#
# _framework density 21.890822
#
# number of rings (size 3 to 8) (size 9 to 14) (size 15 to 20)
#    0.000    1.636    1.818    4.909    2.545    1.091 
#    6.545    2.273    0.000    6.545    0.000    0.000 
#    0.000    0.000    0.000    0.000    0.000    0.000 
#
# Total GULP energy -272582.745747 kJ/mol
# GULP energy per Si atom -12390.124807 kJ/mol
# Density = 2.184100 g / cm^3
# Si number density = 21.890822 Si / 1000 Ang^3
#
#
#
# Elastic Constant Matrix: (Units=GPa)
#
#
# Indices 1 2 3 4 5 6 
#
# 1 82.8410 22.1140 61.9991 0.0000 2.6619 0.0000
# 2 22.1140 102.9360 28.3499 0.0000 -1.0178 0.0000
# 3 61.9991 28.3499 160.4062 0.0000 12.1976 0.0000
# 4 0.0000 0.0000 0.0000 2.3531 0.0000 -7.6497
# 5 2.6619 -1.0178 12.1976 0.0000 46.6811 0.0000
# 6 0.0000 0.0000 0.0000 -7.6497 0.0000 2.8903
#
#
#
# Elastic Compliance Matrix: (Units=1/GPa)
#
#
# Indices 1 2 3 4 5 6 
#
# 1 0.017378 -0.001959 -0.006420 0.000000 0.000644 0.000000
# 2 -0.001959 0.010456 -0.001139 0.000000 0.000637 0.000000
# 3 -0.006420 -0.001139 0.009071 0.000000 -0.002029 0.000000
# 4 0.000000 0.000000 0.000000 -0.055888 0.000000 -0.147915
# 5 0.000644 0.000637 -0.002029 0.000000 0.021929 0.000000
# 6 0.000000 0.000000 0.000000 -0.147915 0.000000 -0.045500
#
#
# Mechanical properties :
#
#
# Convention : Reuss Voigt Hill
#
# Bulk Modulus (GPa) = 55.96199 63.45657 59.70928
# Shear Modulus (GPa) = -284.71299 25.96627 -129.37336
#
# Velocity S-wave (km/s) = -11.41678 3.44782 -7.69595
# Velocity P-wave (km/s) = 12.17254 6.70079 7.18575
#
# Compressibility (1/GPa) = 0.01786927
#
# Stress axis : x y z
#
# Youngs Moduli (GPa) = 57.54390 95.64178 110.24086
#
# Poissons Ratio (x) = 0.18736 0.70770
# Poissons Ratio (y) = 0.11273 0.12559
# Poissons Ratio (z) = 0.36941 0.10896
#
# Static dielectric constant tensor:
#      x y z
#    x 3.900070 0.000000 0.213700 
#    y 0.000000 3.796960 0.000000 
#    z 0.213700 0.000000 5.540990 
# 
# 
# High freq. dielectric constant tensor:
#      x y z
#    x 1.859960 0.000000 0.012390 
#    y 0.000000 1.832430 0.000000 
#    z 0.012390 0.000000 1.879340 
# 
# From -- ./inp_files/67191.got.cif
#   From: 2010.06.25/outbox.cif.g09.slc.cpg/sg12_34_cif.got.tgz:67191.got - 2010.06.28 00:19:55.
