data_PCOD8093154
_publ_section_title
;
Structure prediction by ZEFSAII (Michael W. Deem and Ramdas Pophale) SiO2 
 PCOD8093154
Probable space group: C 2/M
;
_chemical_formula_sum "Si O2"
_cell_formula_units_Z 48
_cell_length_a 28.763482
_cell_length_b 8.733761
_cell_length_c 14.891358
_cell_angle_alpha 90.000000
_cell_angle_beta 39.907242
_cell_angle_gamma 90.000000
_cell_volume 2399.967000
_symmetry_space_group_name_H-M "C 2/M"
_symmetry_group_IT_number 12
_symmetry_cell_setting 'monoclinic'
loop_
_space_group_symop_operation_xyz
x,y,z
-x,y,-z
-x,-y,-z
x,-y,z
1/2+x,1/2+y,z
1/2-x,1/2+y,-z
1/2-x,1/2-y,-z
1/2+x,1/2-y,z
loop_
_atom_site_type_symbol
_atom_site_label
_atom_site_fract_x
_atom_site_fract_y
_atom_site_fract_z
Si Si1 0.822580 0.680411 0.587360
Si Si2 0.172354 0.319505 0.747630
Si Si3 0.153575 0.677184 0.084740
Si Si4 0.947133 0.677722 0.929540
Si Si5 0.312802 0.677989 0.786781
Si Si6 0.599179 0.319982 0.689144
O O1 0.821599 0.500000 0.577790
O O2 0.745030 0.748228 0.677926
O O3 0.843114 0.725735 0.658437
O O4 0.884718 0.749667 0.432001
O O5 0.183445 0.500000 0.723797
O O6 0.156231 0.251110 0.674185
O O7 0.107417 0.276788 0.910677
O O8 0.155099 0.500000 0.110111
O O9 0.088514 0.714721 0.113669
O O10 0.141991 0.776904 0.191415
O O11 0.228668 0.721408 0.925196
O O12 0.968957 0.500000 0.904215
O O13 0.017706 0.780016 0.838307
O O14 0.323122 0.500000 0.750718
O O15 0.610326 0.500000 0.670636
#
# Coordination Sequence:
#
# PCOD8093154 Si02
#       6
#     8   8   8   8   8   8
#     4  12  24  40  62  88 119 158 201 246 297 352
#     4  11  22  41  65  89 118 156 200 246 295 350
#     4   9  18  35  59  89 120 154 193 238 292 351
#     4  10  21  40  63  88 121 159 197 240 295 352
#     4  10  19  35  59  90 121 153 193 243 295 347
#     4  12  26  41  58  86 123 159 199 247 297 352
#
# _framework density 20.000274999999998
#
# number of rings (size 3 to 8) (size 9 to 14) (size 15 to 20)
#    0.000    1.333    1.667    5.000    0.000    4.667 
#    0.000    0.833    0.000    5.000    0.000    0.000 
#    0.000    0.000    0.000    0.000    0.000    0.000 
#
# Total GULP energy -297761.678225 kJ/mol
# GULP energy per Si atom -12406.736593 kJ/mol
# Density = 1.995475 g / cm^3
# Si number density = 20.000275 Si / 1000 Ang^3
#
#
#
# Elastic Constant Matrix: (Units=GPa)
#
#
# Indices 1 2 3 4 5 6 
#
# 1 59.3801 19.1864 10.0424 0.0000 13.9652 0.0000
# 2 19.1864 110.0547 39.7572 0.0010 4.9032 -0.0001
# 3 10.0424 39.7572 75.1683 0.0000 14.9206 0.0000
# 4 0.0000 0.0010 0.0000 31.0031 -0.0001 1.5536
# 5 13.9652 4.9032 14.9206 -0.0001 24.8090 0.0000
# 6 0.0000 -0.0001 0.0000 1.5536 0.0000 36.8030
#
#
#
# Elastic Compliance Matrix: (Units=1/GPa)
#
#
# Indices 1 2 3 4 5 6 
#
# 1 0.020507 -0.003590 0.001487 0.000000 -0.011729 0.000000
# 2 -0.003590 0.011913 -0.006535 0.000000 0.003597 0.000000
# 3 0.001487 -0.006535 0.018704 0.000000 -0.010794 0.000000
# 4 0.000000 0.000000 0.000000 0.032323 0.000000 -0.001365
# 5 -0.011729 0.003597 -0.010794 0.000000 0.052691 0.000000
# 6 0.000000 0.000000 0.000000 -0.001365 0.000000 0.027229
#
#
# Mechanical properties :
#
#
# Convention : Reuss Voigt Hill
#
# Bulk Modulus (GPa) = 29.54361 42.50836 36.02598
# Shear Modulus (GPa) = 26.05166 30.23082 28.14124
#
# Velocity S-wave (km/s) = 3.61302 3.89205 3.75513
# Velocity P-wave (km/s) = 5.67529 6.44185 6.07068
#
# Compressibility (1/GPa) = 0.03384827
#
# Stress axis : x y z
#
# Youngs Moduli (GPa) = 48.76281 83.94346 53.46477
#
# Poissons Ratio (x) = 0.30134 -0.07950
# Poissons Ratio (y) = 0.17505 0.34940
# Poissons Ratio (z) = -0.07251 0.54858
#
# Static dielectric constant tensor:
#      x y z
#    x 3.706360 0.000000 0.203290 
#    y 0.000000 3.642200 0.000000 
#    z 0.203290 0.000000 3.633120 
# 
# 
# High freq. dielectric constant tensor:
#      x y z
#    x 1.785900 0.000000 0.016090 
#    y 0.000000 1.784860 0.000000 
#    z 0.016090 0.000000 1.773840 
# 
# From -- ./inp_files/244674.got.cif
#   From: 2010.06.25/outbox.cif.g09.slc.cpg/sg12_123_cif.got.tgz:244674.got - 2010.06.28 00:19:55.
