data_PCOD8093251
_publ_section_title
;
Structure prediction by ZEFSAII (Michael W. Deem and Ramdas Pophale) SiO2 
 PCOD8093251
Probable space group: C 2/M
;
_chemical_formula_sum "Si O2"
_cell_formula_units_Z 64
_cell_length_a 15.398105
_cell_length_b 8.956775
_cell_length_c 28.308278
_cell_angle_alpha 90.000000
_cell_angle_beta 57.439457
_cell_angle_gamma 90.000000
_cell_volume 3290.552979
_symmetry_space_group_name_H-M "C 2/M"
_symmetry_group_IT_number 12
_symmetry_cell_setting 'monoclinic'
loop_
_space_group_symop_operation_xyz
x,y,z
-x,y,-z
-x,-y,-z
x,-y,z
1/2+x,1/2+y,z
1/2-x,1/2+y,-z
1/2-x,1/2-y,-z
1/2+x,1/2-y,z
loop_
_atom_site_type_symbol
_atom_site_label
_atom_site_fract_x
_atom_site_fract_y
_atom_site_fract_z
Si Si1 0.812169 0.823036 0.939773
Si Si2 0.544261 0.323373 0.864583
Si Si3 0.691370 0.176070 0.560004
Si Si4 0.223139 0.176103 0.364846
Si Si5 0.603079 0.676217 0.744773
Si Si6 0.922201 0.330573 0.746325
Si Si7 0.455518 0.172250 0.629699
Si Si8 0.265690 0.327531 0.130660
O O1 0.763421 0.775907 0.904413
O O2 0.929635 0.763640 0.909128
O O3 0.806469 0.000000 0.945950
O O4 0.750000 0.750000 0.000000
O O5 0.541702 0.500000 0.861015
O O6 0.582093 0.259368 0.803310
O O7 0.622227 0.275134 0.883387
O O8 0.750000 0.250000 0.500000
O O9 0.742215 0.231954 0.593778
O O10 0.573005 0.227810 0.594577
O O11 0.700835 0.000000 0.552440
O O12 0.294285 0.248220 0.304183
O O13 0.106541 0.229710 0.390107
O O14 0.231512 0.000000 0.358316
O O15 0.619892 0.500000 0.739771
O O16 0.505736 0.715584 0.741017
O O17 0.962523 0.500000 0.742708
O O18 0.906428 0.301386 0.695621
O O19 0.813561 0.303882 0.803360
O O20 0.447763 0.000000 0.617028
O O21 0.267648 0.500000 0.113654
#
# Coordination Sequence:
#
# PCOD8093251 Si02
#       8
#     8   8   8   8   8   8   8   8
#     4  11  23  41  60  83 115 151 197 246 289 341
#     4   9  20  38  60  85 117 154 191 232 285 351
#     4  10  23  42  62  83 117 156 199 248 297 347
#     4  11  23  40  60  89 122 154 193 244 297 347
#     4  11  20  35  61  90 120 157 196 234 287 354
#     4  10  19  35  60  88 123 154 188 237 294 350
#     4  10  21  40  62  87 120 159 196 239 293 354
#     4  10  20  37  62  87 113 153 192 232 289 346
#
# _framework density 19.449617
#
# number of rings (size 3 to 8) (size 9 to 14) (size 15 to 20)
#    0.000    1.750    2.500    1.875    0.000    5.000 
#    0.000    8.750    0.000    0.000    0.000    0.000 
#    0.000    0.000    0.000    0.000    0.000    0.000 
#
# Total GULP energy -396910.592732 kJ/mol
# GULP energy per Si atom -12403.456023 kJ/mol
# Density = 1.940535 g / cm^3
# Si number density = 19.449617 Si / 1000 Ang^3
#
#
#
# Elastic Constant Matrix: (Units=GPa)
#
#
# Indices 1 2 3 4 5 6 
#
# 1 160.2868 44.9053 70.9015 0.0000 -9.1485 0.0000
# 2 44.9053 57.8761 43.8301 0.0000 -1.2131 0.0000
# 3 70.9015 43.8301 148.9683 0.0000 -0.7219 0.0000
# 4 0.0000 0.0000 0.0000 33.1062 0.0000 0.4482
# 5 -9.1485 -1.2131 -0.7219 0.0000 13.2622 0.0000
# 6 0.0000 0.0000 0.0000 0.4482 0.0000 35.8838
#
#
#
# Elastic Compliance Matrix: (Units=1/GPa)
#
#
# Indices 1 2 3 4 5 6 
#
# 1 0.009215 -0.004798 -0.002946 0.000000 0.005757 0.000000
# 2 -0.004798 0.024767 -0.005010 0.000000 -0.001317 0.000000
# 3 -0.002946 -0.005010 0.009580 0.000000 -0.001969 0.000000
# 4 0.000000 0.000000 0.000000 0.030211 0.000000 -0.000377
# 5 0.005757 -0.001317 -0.001969 0.000000 0.079146 0.000000
# 6 0.000000 0.000000 0.000000 -0.000377 0.000000 0.027872
#
#
# Mechanical properties :
#
#
# Convention : Reuss Voigt Hill
#
# Bulk Modulus (GPa) = 55.39033 76.26720 65.82877
# Shear Modulus (GPa) = 23.54966 30.28341 26.91654
#
# Velocity S-wave (km/s) = 3.48344 3.95019 3.72413
# Velocity P-wave (km/s) = 6.68729 7.75262 7.23958
#
# Compressibility (1/GPa) = 0.01805369
#
# Stress axis : x y z
#
# Youngs Moduli (GPa) = 108.52124 40.37572 104.38791
#
# Poissons Ratio (x) = 0.19371 0.30756
# Poissons Ratio (y) = 0.52065 0.52299
# Poissons Ratio (z) = 0.31973 0.20228
#
# Static dielectric constant tensor:
#      x y z
#    x 3.691080 0.000000 -0.321700 
#    y 0.000000 3.382120 0.000000 
#    z -0.321700 0.000000 3.079780 
# 
# 
# High freq. dielectric constant tensor:
#      x y z
#    x 1.770260 0.000000 -0.003680 
#    y 0.000000 1.741010 0.000000 
#    z -0.003680 0.000000 1.760000 
# 
# From -- ./inp_files/338882.got.cif
#   From: 2010.06.25/outbox.cif.g09.slc.cpg/sg12_170_cif.got.tgz:338882.got - 2010.06.28 00:19:55.
