data_PCOD8093399
_publ_section_title
;
Structure prediction by ZEFSAII (Michael W. Deem and Ramdas Pophale) SiO2 
 PCOD8093399
Probable space group: C 2/M
;
_chemical_formula_sum "Si O2"
_cell_formula_units_Z 56
_cell_length_a 14.365387
_cell_length_b 14.459323
_cell_length_c 12.238333
_cell_angle_alpha 90.000000
_cell_angle_beta 92.879013
_cell_angle_gamma 90.000000
_cell_volume 2538.861749
_symmetry_space_group_name_H-M "C 2/M"
_symmetry_group_IT_number 12
_symmetry_cell_setting 'monoclinic'
loop_
_space_group_symop_operation_xyz
x,y,z
-x,y,-z
-x,-y,-z
x,-y,z
1/2+x,1/2+y,z
1/2-x,1/2+y,-z
1/2-x,1/2-y,-z
1/2+x,1/2-y,z
loop_
_atom_site_type_symbol
_atom_site_label
_atom_site_fract_x
_atom_site_fract_y
_atom_site_fract_z
Si Si1 0.863050 0.890165 0.760982
Si Si2 0.248928 0.396919 0.299149
Si Si3 0.778793 0.256834 0.127632
Si Si4 0.074548 0.391809 0.585434
Si Si5 0.491809 0.729025 0.120711
Si Si6 0.273242 0.609160 0.536646
Si Si7 0.048727 0.399431 0.225992
O O1 0.778587 0.842155 0.823184
O O2 0.852164 0.866875 0.630829
O O3 0.965270 0.851145 0.799067
O O4 0.857748 0.000000 0.782799
O O5 0.288666 0.500000 0.278216
O O6 0.262708 0.338087 0.191395
O O7 0.294022 0.354267 0.413991
O O8 0.137447 0.400745 0.312417
O O9 0.889897 0.266310 0.143600
O O10 0.750000 0.250000 0.000000
O O11 0.080224 0.500000 0.560202
O O12 0.176513 0.346805 0.575369
O O13 0.000000 0.344100 0.500000
O O14 0.042016 0.375108 0.707573
O O15 0.558723 0.819632 0.134991
O O16 0.500000 0.688702 0.000000
O O17 0.262139 0.500000 0.524626
O O18 0.038583 0.500000 0.168121
#
# Coordination Sequence:
#
# PCOD8093399 Si02
#       7
#     8   8   8   8   8   8   8
#     4  11  25  46  71 100 135 184 231 278 340 410
#     4  10  20  38  66  98 135 174 211 270 344 401
#     4  12  25  46  68  97 133 174 230 289 333 402
#     4   9  14  25  52  92 131 168 209 252 313 399
#     4  12  25  46  68  92 133 171 229 291 337 402
#     4   9  18  35  61  95 135 174 219 274 332 408
#     4  10  19  35  62  96 131 167 209 264 339 401
#
# _framework density 22.057129
#
# number of rings (size 3 to 8) (size 9 to 14) (size 15 to 20)
#    0.000    1.571    4.286    0.857    0.000    4.000 
#    0.000    0.714    0.000    2.571    0.000    0.000 
#    0.000    0.000    0.000    0.000    0.000    0.000 
#
# Total GULP energy -346905.597783 kJ/mol
# GULP energy per Si atom -12389.485635 kJ/mol
# Density = 2.200693 g / cm^3
# Si number density = 22.057129 Si / 1000 Ang^3
#
#
#
# Elastic Constant Matrix: (Units=GPa)
#
#
# Indices 1 2 3 4 5 6 
#
# 1 68.4585 21.8324 36.5625 0.0000 24.4181 0.0000
# 2 21.8324 107.6497 60.2694 0.0000 14.5931 0.0000
# 3 36.5625 60.2694 160.0244 0.0000 25.0693 0.0000
# 4 0.0000 0.0000 0.0000 32.1807 0.0000 2.8544
# 5 24.4181 14.5931 25.0693 0.0000 32.5688 0.0000
# 6 0.0000 0.0000 0.0000 2.8544 0.0000 25.0903
#
#
#
# Elastic Compliance Matrix: (Units=1/GPa)
#
#
# Indices 1 2 3 4 5 6 
#
# 1 0.020988 -0.001174 -0.002241 0.000000 -0.013485 0.000000
# 2 -0.001174 0.011967 -0.004022 0.000000 -0.001386 0.000000
# 3 -0.002241 -0.004022 0.008790 0.000000 -0.003284 0.000000
# 4 0.000000 0.000000 0.000000 0.031391 0.000000 -0.003571
# 5 -0.013485 -0.001386 -0.003284 0.000000 0.043963 0.000000
# 6 0.000000 0.000000 0.000000 -0.003571 0.000000 0.040262
#
#
# Mechanical properties :
#
#
# Convention : Reuss Voigt Hill
#
# Bulk Modulus (GPa) = 37.21258 63.71790 50.46524
# Shear Modulus (GPa) = 27.59485 32.46584 30.03035
#
# Velocity S-wave (km/s) = 3.54087 3.84069 3.69383
# Velocity P-wave (km/s) = 5.79868 6.97268 6.41260
#
# Compressibility (1/GPa) = 0.02687263
#
# Stress axis : x y z
#
# Youngs Moduli (GPa) = 47.64529 83.56299 113.76343
#
# Poissons Ratio (x) = 0.09811 0.25491
# Poissons Ratio (y) = 0.05594 0.45752
# Poissons Ratio (z) = 0.10676 0.33606
#
# Static dielectric constant tensor:
#      x y z
#    x 4.090050 0.000000 0.196060 
#    y 0.000000 3.781680 0.000000 
#    z 0.196060 0.000000 3.998820 
# 
# 
# High freq. dielectric constant tensor:
#      x y z
#    x 1.857780 0.000000 0.017990 
#    y 0.000000 1.852880 0.000000 
#    z 0.017990 0.000000 1.868360 
# 
# From -- ./inp_files/143707.got.cif
#   From: 2010.06.25/outbox.cif.g09.slc.cpg/sg12_72_cif.got.tgz:143707.got - 2010.06.28 00:19:55.
