data_PCOD8093785
_publ_section_title
;
Structure prediction by ZEFSAII (Michael W. Deem and Ramdas Pophale) SiO2 
 PCOD8093785
Probable space group: C 2/M
;
_chemical_formula_sum "Si O2"
_cell_formula_units_Z 56
_cell_length_a 8.236045
_cell_length_b 19.496635
_cell_length_c 20.302076
_cell_angle_alpha 90.000000
_cell_angle_beta 59.042016
_cell_angle_gamma 90.000000
_cell_volume 2795.603768
_symmetry_space_group_name_H-M "C 2/M"
_symmetry_group_IT_number 12
_symmetry_cell_setting 'monoclinic'
loop_
_space_group_symop_operation_xyz
x,y,z
-x,y,-z
-x,-y,-z
x,-y,z
1/2+x,1/2+y,z
1/2-x,1/2+y,-z
1/2-x,1/2-y,-z
1/2+x,1/2-y,z
loop_
_atom_site_type_symbol
_atom_site_label
_atom_site_fract_x
_atom_site_fract_y
_atom_site_fract_z
Si Si1 0.526791 0.665404 0.681523
Si Si2 0.632209 0.422779 0.534584
Si Si3 0.077307 0.423709 0.627386
Si Si4 0.770774 0.680542 0.849907
Si Si5 0.152289 0.700613 0.700252
Si Si6 0.061702 0.289759 0.055201
Si Si7 0.166350 0.921771 0.762828
O O1 0.592778 0.626237 0.603128
O O2 0.315086 0.695586 0.720525
O O3 0.678038 0.727937 0.655526
O O4 0.514947 0.618740 0.750051
O O5 0.500000 0.404718 0.500000
O O6 0.596007 0.500000 0.566939
O O7 0.848982 0.413933 0.462951
O O8 0.138825 0.500000 0.639824
O O9 0.176391 0.367497 0.652201
O O10 0.852358 0.417040 0.678131
O O11 0.870683 0.660172 0.899419
O O12 0.603755 0.736436 0.889492
O O13 0.692658 0.612694 0.829289
O O14 0.943814 0.711207 0.773013
O O15 0.250000 0.250000 0.000000
O O16 0.000000 0.329001 0.000000
O O17 0.102665 0.000000 0.788314
#
# Coordination Sequence:
#
# PCOD8093785 Si02
#       7
#     8   8   8   8   8   8   8
#     4  12  23  36  53  80 112 149 198 251 297 349
#     4  10  20  37  58  77 104 149 200 249 302 356
#     4   9  19  38  58  79 107 147 194 243 299 357
#     4  10  19  36  59  87 121 152 185 229 279 338
#     4  11  22  35  56  83 114 149 186 242 297 341
#     4   9  18  33  60  93 120 149 181 216 264 329
#     4  10  22  38  58  83 113 152 197 242 293 348
#
# _framework density 20.031451000000001
#
# number of rings (size 3 to 8) (size 9 to 14) (size 15 to 20)
#    0.000    1.857    1.429    3.857    0.000    2.857 
#    0.000    2.143    0.000    4.286    0.000    0.000 
#    0.000    0.000    0.000    0.000    0.000    0.000 
#
# Total GULP energy -346877.692839 kJ/mol
# GULP energy per Si atom -12388.489030 kJ/mol
# Density = 1.998586 g / cm^3
# Si number density = 20.031451 Si / 1000 Ang^3
#
#
#
# Elastic Constant Matrix: (Units=GPa)
#
#
# Indices 1 2 3 4 5 6 
#
# 1 122.1098 71.2764 46.9289 0.0000 24.7128 0.0000
# 2 71.2764 135.1112 47.5181 0.0000 27.0351 0.0000
# 3 46.9289 47.5181 92.5499 0.0000 11.4617 0.0000
# 4 0.0000 0.0000 0.0000 18.0619 0.0000 3.7930
# 5 24.7128 27.0351 11.4617 0.0000 42.1101 0.0000
# 6 0.0000 0.0000 0.0000 3.7930 0.0000 24.4399
#
#
#
# Elastic Compliance Matrix: (Units=1/GPa)
#
#
# Indices 1 2 3 4 5 6 
#
# 1 0.013238 -0.004959 -0.003724 0.000000 -0.003571 0.000000
# 2 -0.004959 0.011886 -0.003108 0.000000 -0.003874 0.000000
# 3 -0.003724 -0.003108 0.014252 0.000000 0.000302 0.000000
# 4 0.000000 0.000000 0.000000 0.057230 0.000000 -0.008882
# 5 -0.003571 -0.003874 0.000302 0.000000 0.028249 0.000000
# 6 0.000000 0.000000 0.000000 -0.008882 0.000000 0.042295
#
#
# Mechanical properties :
#
#
# Convention : Reuss Voigt Hill
#
# Bulk Modulus (GPa) = 63.31951 75.69086 69.50519
# Shear Modulus (GPa) = 25.51059 29.19220 27.35140
#
# Velocity S-wave (km/s) = 3.57252 3.82163 3.69917
# Velocity P-wave (km/s) = 6.97824 7.57239 7.28138
#
# Compressibility (1/GPa) = 0.01579292
#
# Stress axis : x y z
#
# Youngs Moduli (GPa) = 75.53946 84.13342 70.16685
#
# Poissons Ratio (x) = 0.41724 0.26131
# Poissons Ratio (y) = 0.37462 0.21808
# Poissons Ratio (z) = 0.28131 0.26149
#
# Static dielectric constant tensor:
#      x y z
#    x 4.111980 0.000000 0.215110 
#    y 0.000000 3.591600 0.000000 
#    z 0.215110 0.000000 3.923970 
# 
# 
# High freq. dielectric constant tensor:
#      x y z
#    x 1.795100 0.000000 0.001400 
#    y 0.000000 1.760800 0.000000 
#    z 0.001400 0.000000 1.773420 
# 
# From -- ./inp_files/333161.got.cif
#   From: 2010.06.25/outbox.cif.g09.slc.cpg/sg12_167_cif.got.tgz:333161.got - 2010.06.28 00:19:55.
