data_PCOD8093815
_publ_section_title
;
Structure prediction by ZEFSAII (Michael W. Deem and Ramdas Pophale) SiO2 
 PCOD8093815
Probable space group: C 2/M
;
_chemical_formula_sum "Si O2"
_cell_formula_units_Z 56
_cell_length_a 33.905612
_cell_length_b 14.235427
_cell_length_c 13.635796
_cell_angle_alpha 90.000000
_cell_angle_beta 25.640682
_cell_angle_gamma 90.000000
_cell_volume 2847.970879
_symmetry_space_group_name_H-M "C 2/M"
_symmetry_group_IT_number 12
_symmetry_cell_setting 'monoclinic'
loop_
_space_group_symop_operation_xyz
x,y,z
-x,y,-z
-x,-y,-z
x,-y,z
1/2+x,1/2+y,z
1/2-x,1/2+y,-z
1/2-x,1/2-y,-z
1/2+x,1/2-y,z
loop_
_atom_site_type_symbol
_atom_site_label
_atom_site_fract_x
_atom_site_fract_y
_atom_site_fract_z
Si Si1 0.052048 0.729825 0.627382
Si Si2 0.215056 0.602881 0.971740
Si Si3 0.639869 0.396570 0.520682
Si Si4 0.718340 0.186048 0.659554
Si Si5 0.462756 0.893756 0.984217
Si Si6 0.773411 0.609812 0.829127
Si Si7 0.630840 0.265374 0.048913
O O1 0.067146 0.814050 0.671221
O O2 0.144037 0.682755 0.378493
O O3 0.003331 0.648018 0.794961
O O4 0.979732 0.772596 0.710252
O O5 0.168356 0.500000 0.067812
O O6 0.246982 0.621688 0.010607
O O7 0.143372 0.678762 0.095190
O O8 0.304180 0.606972 0.705456
O O9 0.594985 0.500000 0.634016
O O10 0.699732 0.376440 0.482464
O O11 0.750000 0.250000 0.500000
O O12 0.645945 0.113844 0.776653
O O13 0.675050 0.248966 0.842979
O O14 0.495565 0.000000 0.911733
O O15 0.500000 0.844060 0.000000
O O16 0.794825 0.500000 0.754374
O O17 0.681468 0.642232 0.978458
#
# Coordination Sequence:
#
# PCOD8093815 Si02
#       7
#     8   8   8   8   8   8   8
#     4  11  22  37  58  87 117 159 195 250 292 355
#     4   9  19  37  61  84 115 153 198 246 298 356
#     4  10  20  37  60  83 113 156 200 237 289 353
#     4  10  19  36  60  82 112 150 190 236 294 347
#     4  10  21  35  55  86 118 148 190 243 294 351
#     4  11  22  39  60  87 122 159 197 250 306 355
#     4  10  22  37  58  85 118 153 193 244 298 354
#
# _framework density 19.663122000000001
#
# number of rings (size 3 to 8) (size 9 to 14) (size 15 to 20)
#    0.000    1.857    2.857    2.143    0.000    5.143 
#    0.000    2.143    0.000   11.571    0.000    0.000 
#    0.000    0.000    0.000    0.000    0.000    0.000 
#
# Total GULP energy -347000.398955 kJ/mol
# GULP energy per Si atom -12392.871391 kJ/mol
# Density = 1.961837 g / cm^3
# Si number density = 19.663122 Si / 1000 Ang^3
#
#
#
# Elastic Constant Matrix: (Units=GPa)
#
#
# Indices 1 2 3 4 5 6 
#
# 1 129.1306 45.9762 34.5254 0.0000 -12.9369 0.0000
# 2 45.9762 115.1654 26.2782 0.0000 -7.3721 0.0000
# 3 34.5254 26.2782 43.5631 0.0000 -8.9670 0.0000
# 4 0.0000 0.0000 0.0000 18.1837 0.0000 0.2432
# 5 -12.9369 -7.3721 -8.9670 0.0000 37.9007 0.0000
# 6 0.0000 0.0000 0.0000 0.2432 0.0000 30.3727
#
#
#
# Elastic Compliance Matrix: (Units=1/GPa)
#
#
# Indices 1 2 3 4 5 6 
#
# 1 0.010570 -0.002646 -0.006459 0.000000 0.001565 0.000000
# 2 -0.002646 0.010742 -0.004351 0.000000 0.000157 0.000000
# 3 -0.006459 -0.004351 0.031610 0.000000 0.004428 0.000000
# 4 0.000000 0.000000 0.000000 0.055000 0.000000 -0.000440
# 5 0.001565 0.000157 0.004428 0.000000 0.027997 0.000000
# 6 0.000000 0.000000 0.000000 -0.000440 0.000000 0.032928
#
#
# Mechanical properties :
#
#
# Convention : Reuss Voigt Hill
#
# Bulk Modulus (GPa) = 38.44481 55.71318 47.07899
# Shear Modulus (GPa) = 24.45848 29.36339 26.91093
#
# Velocity S-wave (km/s) = 3.53069 3.86855 3.70347
# Velocity P-wave (km/s) = 6.01791 6.95338 6.50249
#
# Compressibility (1/GPa) = 0.02601131
#
# Stress axis : x y z
#
# Youngs Moduli (GPa) = 94.60941 93.09103 31.63557
#
# Poissons Ratio (x) = 0.24629 0.20433
# Poissons Ratio (y) = 0.25031 0.13764
# Poissons Ratio (z) = 0.61107 0.40502
#
# Static dielectric constant tensor:
#      x y z
#    x 3.881220 0.000000 -0.144860 
#    y 0.000000 3.815540 0.000000 
#    z -0.144860 0.000000 3.376460 
# 
# 
# High freq. dielectric constant tensor:
#      x y z
#    x 1.781130 0.000000 0.000110 
#    y 0.000000 1.769730 0.000000 
#    z 0.000110 0.000000 1.736390 
# 
# From -- ./inp_files/189589.got.cif
#   From: 2010.06.25/outbox.cif.g09.slc.cpg/sg12_95_cif.got.tgz:189589.got - 2010.06.28 00:19:55.
