data_PCOD8093336
_publ_section_title
;
Structure prediction by ZEFSAII (Michael W. Deem and Ramdas Pophale) SiO2 
 PCOD8093336
Probable space group: C 2/M
;
_chemical_formula_sum "Si O2"
_cell_formula_units_Z 64
_cell_length_a 26.565896
_cell_length_b 14.442499
_cell_length_c 8.840861
_cell_angle_alpha 90.000000
_cell_angle_beta 106.955546
_cell_angle_gamma 90.000000
_cell_volume 3244.595542
_symmetry_space_group_name_H-M "C 2/M"
_symmetry_group_IT_number 12
_symmetry_cell_setting 'monoclinic'
loop_
_space_group_symop_operation_xyz
x,y,z
-x,y,-z
-x,-y,-z
x,-y,z
1/2+x,1/2+y,z
1/2-x,1/2+y,-z
1/2-x,1/2-y,-z
1/2+x,1/2-y,z
loop_
_atom_site_type_symbol
_atom_site_label
_atom_site_fract_x
_atom_site_fract_y
_atom_site_fract_z
Si Si1 0.911345 0.252411 0.082582
Si Si2 0.013246 0.898369 0.835041
Si Si3 0.579426 0.724564 0.249193
Si Si4 0.292916 0.250592 0.907331
Si Si5 0.882164 0.397518 0.558528
Si Si6 0.184628 0.109175 0.317351
Si Si7 0.275853 0.894097 0.625697
Si Si8 0.451295 0.896283 0.350424
O O1 0.943593 0.329369 0.201999
O O2 0.930447 0.149747 0.151445
O O3 0.930870 0.259983 0.928390
O O4 0.848697 0.263129 0.040349
O O5 0.967588 0.835812 0.721304
O O6 0.014604 0.000000 0.761321
O O7 0.000000 0.907622 0.000000
O O8 0.580938 0.819634 0.340149
O O9 0.630949 0.661211 0.307431
O O10 0.291180 0.347955 0.815660
O O11 0.283316 0.168059 0.780047
O O12 0.250000 0.250000 0.000000
O O13 0.896423 0.500000 0.635790
O O14 0.821460 0.374983 0.541974
O O15 0.895543 0.395017 0.392322
O O16 0.221869 0.129318 0.493052
O O17 0.175623 0.000000 0.283291
O O18 0.276518 0.000000 0.681862
O O19 0.500000 0.865106 0.500000
O O20 0.462551 0.000000 0.299693
#
# Coordination Sequence:
#
# PCOD8093336 Si02
#       8
#     8   8   8   8   8   8   8   8
#     4  10  21  36  55  86 114 152 190 241 297 347
#     4   9  18  34  58  84 113 146 189 238 290 349
#     4  10  19  35  61  90 115 150 195 246 298 351
#     4  11  24  38  58  87 121 156 196 248 303 353
#     4  10  20  35  58  83 114 157 197 238 293 353
#     4  10  21  37  60  87 119 158 201 245 295 358
#     4  10  21  39  59  85 117 156 200 247 298 358
#     4  10  22  38  56  82 116 153 192 238 296 359
#
# _framework density 19.725109
#
# number of rings (size 3 to 8) (size 9 to 14) (size 15 to 20)
#    0.000    2.000    2.500    1.500    1.750    4.500 
#    0.000    0.000    0.000    8.625    0.000    0.000 
#    0.000    0.000    0.000    0.000    0.000    0.000 
#
# Total GULP energy -396596.700136 kJ/mol
# GULP energy per Si atom -12393.646879 kJ/mol
# Density = 1.968021 g / cm^3
# Si number density = 19.725109 Si / 1000 Ang^3
#
#
#
# Elastic Constant Matrix: (Units=GPa)
#
#
# Indices 1 2 3 4 5 6 
#
# 1 81.2715 33.0242 47.6635 0.0000 10.3131 0.0000
# 2 33.0242 147.5678 70.3614 0.0000 17.2065 0.0000
# 3 47.6635 70.3614 88.3741 0.0000 22.7646 0.0000
# 4 0.0000 0.0000 0.0000 33.9756 0.0000 4.6934
# 5 10.3131 17.2065 22.7646 0.0000 25.6211 0.0000
# 6 0.0000 0.0000 0.0000 4.6934 0.0000 15.8580
#
#
#
# Elastic Compliance Matrix: (Units=1/GPa)
#
#
# Indices 1 2 3 4 5 6 
#
# 1 0.018151 0.000995 -0.011058 0.000000 0.001851 0.000000
# 2 0.000995 0.010983 -0.009438 0.000000 0.000609 0.000000
# 3 -0.011058 -0.009438 0.028549 0.000000 -0.014576 0.000000
# 4 0.000000 0.000000 0.000000 0.030688 0.000000 -0.009082
# 5 0.001851 0.000609 -0.014576 0.000000 0.050827 0.000000
# 6 0.000000 0.000000 0.000000 -0.009082 0.000000 0.065748
#
#
# Mechanical properties :
#
#
# Convention : Reuss Voigt Hill
#
# Bulk Modulus (GPa) = 53.53415 68.81239 61.17327
# Shear Modulus (GPa) = 19.98612 26.16858 23.07735
#
# Velocity S-wave (km/s) = 3.18658 3.64629 3.42416
# Velocity P-wave (km/s) = 6.38264 7.25870 6.83472
#
# Compressibility (1/GPa) = 0.01867966
#
# Stress axis : x y z
#
# Youngs Moduli (GPa) = 55.09448 91.05066 35.02790
#
# Poissons Ratio (x) = -0.09059 0.38735
# Poissons Ratio (y) = -0.05481 0.33059
# Poissons Ratio (z) = 0.60925 0.85932
#
# Static dielectric constant tensor:
#      x y z
#    x 3.610670 0.000000 0.187910 
#    y 0.000000 3.883240 0.000000 
#    z 0.187910 0.000000 3.420760 
# 
# 
# High freq. dielectric constant tensor:
#      x y z
#    x 1.768530 0.000000 0.018170 
#    y 0.000000 1.785270 0.000000 
#    z 0.018170 0.000000 1.744470 
# 
# From -- ./inp_files/111678.got.cif
#   From: 2010.06.25/outbox.cif.g09.slc.cpg/sg12_56_cif.got.tgz:111678.got - 2010.06.28 00:19:55.
