data_PCOD8093447
_publ_section_title
;
Structure prediction by ZEFSAII (Michael W. Deem and Ramdas Pophale) SiO2 
 PCOD8093447
Probable space group: C 2/M
;
_chemical_formula_sum "Si O2"
_cell_formula_units_Z 56
_cell_length_a 14.209275
_cell_length_b 17.036203
_cell_length_c 17.110046
_cell_angle_alpha 90.000000
_cell_angle_beta 128.479769
_cell_angle_gamma 90.000000
_cell_volume 3242.367277
_symmetry_space_group_name_H-M "C 2/M"
_symmetry_group_IT_number 12
_symmetry_cell_setting 'monoclinic'
loop_
_space_group_symop_operation_xyz
x,y,z
-x,y,-z
-x,-y,-z
x,-y,z
1/2+x,1/2+y,z
1/2-x,1/2+y,-z
1/2-x,1/2-y,-z
1/2+x,1/2-y,z
loop_
_atom_site_type_symbol
_atom_site_label
_atom_site_fract_x
_atom_site_fract_y
_atom_site_fract_z
Si Si1 0.695627 0.588483 0.598617
Si Si2 0.361755 0.208198 0.766822
Si Si3 0.047989 0.822604 0.804870
Si Si4 0.280271 0.734616 0.887667
Si Si5 0.507303 0.413406 0.377013
Si Si6 0.933184 0.366047 0.038754
Si Si7 0.802318 0.912298 0.998057
O O1 0.753403 0.500000 0.622514
O O2 0.787561 0.658468 0.665098
O O3 0.598778 0.585924 0.616226
O O4 0.631594 0.611487 0.483734
O O5 0.420310 0.284749 0.758884
O O6 0.282443 0.243071 0.797245
O O7 0.464495 0.147178 0.844661
O O8 0.152003 0.757134 0.857660
O O9 0.031425 0.856219 0.710811
O O10 0.087644 0.887780 0.888506
O O11 0.386702 0.780997 0.985920
O O12 0.297191 0.642962 0.918324
O O13 0.524044 0.500000 0.349871
O O14 0.821995 0.414361 0.016285
O O15 0.000000 0.409583 0.000000
O O16 0.826860 0.000000 0.980321
#
# Coordination Sequence:
#
# PCOD8093447 Si02
#       7
#     8   8   8   8   8   8   8
#     4   9  19  34  54  80 105 129 162 211 274 314
#     4  11  19  32  57  76 100 140 175 210 248 303
#     4  11  19  34  54  75 104 137 178 206 252 304
#     4  10  19  36  50  73 106 142 172 207 251 300
#     4   9  18  35  54  77 108 131 158 215 269 310
#     4   9  18  32  51  72 102 132 169 215 254 298
#     4  11  21  34  50  74 107 143 174 207 255 300
#
# _framework density 17.271331
#
# number of rings (size 3 to 8) (size 9 to 14) (size 15 to 20)
#    0.000    2.000    4.286    2.143    0.000    1.429 
#    0.000    2.143    0.000    0.000    0.000    0.000 
#    0.000    3.429    0.000    0.000    0.000    0.000 
#
# Total GULP energy -347012.104330 kJ/mol
# GULP energy per Si atom -12393.289440 kJ/mol
# Density = 1.723202 g / cm^3
# Si number density = 17.271331 Si / 1000 Ang^3
#
#
#
# Elastic Constant Matrix: (Units=GPa)
#
#
# Indices 1 2 3 4 5 6 
#
# 1 41.9070 15.3418 7.7832 0.0000 9.4843 0.0000
# 2 15.3418 101.3245 41.5277 0.0000 3.3437 0.0000
# 3 7.7832 41.5277 86.2849 0.0000 5.0125 0.0000
# 4 0.0000 0.0000 0.0000 20.9565 0.0000 1.7861
# 5 9.4843 3.3437 5.0125 0.0000 20.7005 0.0000
# 6 0.0000 0.0000 0.0000 1.7861 0.0000 12.8278
#
#
#
# Elastic Compliance Matrix: (Units=1/GPa)
#
#
# Indices 1 2 3 4 5 6 
#
# 1 0.028035 -0.003857 0.000038 0.000000 -0.012231 0.000000
# 2 -0.003857 0.012831 -0.005893 0.000000 0.001121 0.000000
# 3 0.000038 -0.005893 0.014573 0.000000 -0.002594 0.000000
# 4 0.000000 0.000000 0.000000 0.048291 0.000000 -0.006724
# 5 -0.012231 0.001121 -0.002594 0.000000 0.054359 0.000000
# 6 0.000000 0.000000 0.000000 -0.006724 0.000000 0.078892
#
#
# Mechanical properties :
#
#
# Convention : Reuss Voigt Hill
#
# Bulk Modulus (GPa) = 27.76525 39.86907 33.81716
# Shear Modulus (GPa) = 18.62817 21.88786 20.25802
#
# Velocity S-wave (km/s) = 3.28771 3.56377 3.42852
# Velocity P-wave (km/s) = 5.52475 6.32993 5.94100
#
# Compressibility (1/GPa) = 0.03601624
#
# Stress axis : x y z
#
# Youngs Moduli (GPa) = 35.66918 77.93382 68.62040
#
# Poissons Ratio (x) = 0.30057 -0.00260
# Poissons Ratio (y) = 0.13757 0.40437
# Poissons Ratio (z) = -0.00135 0.45925
#
# Static dielectric constant tensor:
#      x y z
#    x 3.187300 0.000000 0.020720 
#    y 0.000000 3.154100 0.000000 
#    z 0.020720 0.000000 3.254710 
# 
# 
# High freq. dielectric constant tensor:
#      x y z
#    x 1.651910 0.000000 0.003590 
#    y 0.000000 1.652610 0.000000 
#    z 0.003590 0.000000 1.660370 
# 
# From -- ./inp_files/251132.got.cif
#   From: 2010.06.25/outbox.cif.g09.slc.cpg/sg12_126_cif.got.tgz:251132.got - 2010.06.28 00:19:55.
