data_PCOD8093344
_publ_section_title
;
Structure prediction by ZEFSAII (Michael W. Deem and Ramdas Pophale) SiO2 
 PCOD8093344
Probable space group: C 2/M
;
_chemical_formula_sum "Si O2"
_cell_formula_units_Z 56
_cell_length_a 27.113871
_cell_length_b 8.783689
_cell_length_c 12.638908
_cell_angle_alpha 90.000000
_cell_angle_beta 112.817240
_cell_angle_gamma 90.000000
_cell_volume 2774.530669
_symmetry_space_group_name_H-M "C 2/M"
_symmetry_group_IT_number 12
_symmetry_cell_setting 'monoclinic'
loop_
_space_group_symop_operation_xyz
x,y,z
-x,y,-z
-x,-y,-z
x,-y,z
1/2+x,1/2+y,z
1/2-x,1/2+y,-z
1/2-x,1/2-y,-z
1/2+x,1/2-y,z
loop_
_atom_site_type_symbol
_atom_site_label
_atom_site_fract_x
_atom_site_fract_y
_atom_site_fract_z
Si Si1 0.154686 0.821762 0.669122
Si Si2 0.610185 0.680721 0.225483
Si Si3 0.994937 0.174579 0.202390
Si Si4 0.385227 0.325681 0.005663
Si Si5 0.455070 0.826764 0.376027
Si Si6 0.697104 0.821112 0.908784
Si Si7 0.192428 0.819655 0.469769
O O1 0.092811 0.785761 0.635578
O O2 0.191337 0.733752 0.783524
O O3 0.170928 0.767072 0.565799
O O4 0.164039 0.000000 0.692749
O O5 0.609889 0.500000 0.225411
O O6 0.550469 0.738098 0.201688
O O7 0.627279 0.737102 0.122587
O O8 0.652083 0.744659 0.346549
O O9 0.980393 0.283215 0.286178
O O10 0.000957 0.000000 0.246776
O O11 0.948953 0.186260 0.075525
O O12 0.365943 0.500000 0.002847
O O13 0.354668 0.225603 0.066600
O O14 0.500000 0.805569 0.500000
O O15 0.433683 0.000000 0.353368
O O16 0.703029 0.000000 0.915004
O O17 0.750000 0.750000 0.000000
O O18 0.250000 0.750000 0.500000
O O19 0.196268 0.000000 0.465476
#
# Coordination Sequence:
#
# PCOD8093344 Si02
#       7
#     8   8   8   8   8   8   8
#     4  11  23  42  65  92 124 161 210 257 307 370
#     4   9  19  37  61  91 123 161 204 248 303 367
#     4  10  19  35  61  90 122 159 201 249 305 370
#     4  10  20  37  63  95 126 158 201 249 307 375
#     4  11  23  37  57  88 126 166 207 254 310 365
#     4  12  26  43  65  92 126 163 207 258 313 370
#     4  10  23  41  62  88 121 160 207 255 303 364
#
# _framework density 20.183592999999998
#
# number of rings (size 3 to 8) (size 9 to 14) (size 15 to 20)
#    0.000    1.571    1.429    3.429    2.000    5.143 
#    0.000    1.429    0.000    1.714    0.000    0.000 
#    0.000    0.000    0.000    0.000    0.000    0.000 
#
# Total GULP energy -347310.643232 kJ/mol
# GULP energy per Si atom -12403.951544 kJ/mol
# Density = 2.013765 g / cm^3
# Si number density = 20.183593 Si / 1000 Ang^3
#
#
#
# Elastic Constant Matrix: (Units=GPa)
#
#
# Indices 1 2 3 4 5 6 
#
# 1 76.2213 20.3202 42.8719 0.0000 5.1571 0.0000
# 2 20.3202 69.1385 44.1378 0.0000 3.5961 0.0000
# 3 42.8719 44.1378 161.4541 0.0000 -5.1009 0.0000
# 4 0.0000 0.0000 0.0000 14.8504 0.0000 1.7114
# 5 5.1571 3.5961 -5.1009 0.0000 37.1803 0.0000
# 6 0.0000 0.0000 0.0000 1.7114 0.0000 28.1743
#
#
#
# Elastic Compliance Matrix: (Units=1/GPa)
#
#
# Indices 1 2 3 4 5 6 
#
# 1 0.015966 -0.002186 -0.003721 0.000000 -0.002514 0.000000
# 2 -0.002186 0.018030 -0.004413 0.000000 -0.002046 0.000000
# 3 -0.003721 -0.004413 0.008455 0.000000 0.002103 0.000000
# 4 0.000000 0.000000 0.000000 0.067813 0.000000 -0.004119
# 5 -0.002514 -0.002046 0.002103 0.000000 0.027731 0.000000
# 6 0.000000 0.000000 0.000000 -0.004119 0.000000 0.035744
#
#
# Mechanical properties :
#
#
# Convention : Reuss Voigt Hill
#
# Bulk Modulus (GPa) = 45.85159 57.94151 51.89655
# Shear Modulus (GPa) = 24.79560 29.33992 27.06776
#
# Velocity S-wave (km/s) = 3.50880 3.81682 3.66605
# Velocity P-wave (km/s) = 6.25957 6.94217 6.60968
#
# Compressibility (1/GPa) = 0.02180949
#
# Stress axis : x y z
#
# Youngs Moduli (GPa) = 62.63452 55.46320 118.27686
#
# Poissons Ratio (x) = 0.12124 0.44014
# Poissons Ratio (y) = 0.13692 0.52197
# Poissons Ratio (z) = 0.23308 0.24477
#
# Static dielectric constant tensor:
#      x y z
#    x 3.933920 0.000000 -0.070350 
#    y 0.000000 3.513730 0.000000 
#    z -0.070350 0.000000 4.047150 
# 
# 
# High freq. dielectric constant tensor:
#      x y z
#    x 1.793980 0.000000 0.002050 
#    y 0.000000 1.767910 0.000000 
#    z 0.002050 0.000000 1.807480 
# 
# From -- ./inp_files/181144.got.cif
#   From: 2010.06.25/outbox.cif.g09.slc.cpg/sg12_91_cif.got.tgz:181144.got - 2010.06.28 00:19:55.
