data_PCOD8093250
_publ_section_title
;
Structure prediction by ZEFSAII (Michael W. Deem and Ramdas Pophale) SiO2 
 PCOD8093250
Probable space group: C 2/M
;
_chemical_formula_sum "Si O2"
_cell_formula_units_Z 64
_cell_length_a 28.680012
_cell_length_b 8.723529
_cell_length_c 18.189707
_cell_angle_alpha 90.000000
_cell_angle_beta 43.553113
_cell_angle_gamma 90.000000
_cell_volume 3135.691237
_symmetry_space_group_name_H-M "C 2/M"
_symmetry_group_IT_number 12
_symmetry_cell_setting 'monoclinic'
loop_
_space_group_symop_operation_xyz
x,y,z
-x,y,-z
-x,-y,-z
x,-y,z
1/2+x,1/2+y,z
1/2-x,1/2+y,-z
1/2-x,1/2-y,-z
1/2+x,1/2-y,z
loop_
_atom_site_type_symbol
_atom_site_label
_atom_site_fract_x
_atom_site_fract_y
_atom_site_fract_z
Si Si1 0.819958 0.319878 0.895024
Si Si2 0.934940 0.323290 0.361829
Si Si3 0.784559 0.682801 0.531126
Si Si4 0.793759 0.321086 0.243049
Si Si5 0.681093 0.323754 0.259628
Si Si6 0.562633 0.176841 0.475227
Si Si7 0.569148 0.318590 0.961268
Si Si8 0.437835 0.183191 0.869615
O O1 0.814769 0.500000 0.907143
O O2 0.833875 0.276486 0.794906
O O3 0.879277 0.260005 0.880893
O O4 0.750000 0.250000 0.000000
O O5 0.928559 0.500000 0.348770
O O6 0.860753 0.249382 0.439815
O O7 0.961066 0.300109 0.414488
O O8 0.990663 0.251823 0.243286
O O9 0.783820 0.500000 0.532349
O O10 0.750000 0.750000 0.500000
O O11 0.747982 0.738822 0.645840
O O12 0.799075 0.500000 0.255653
O O13 0.755765 0.294591 0.208348
O O14 0.868532 0.250708 0.155470
O O15 0.672787 0.500000 0.247023
O O16 0.627741 0.279087 0.383482
O O17 0.500000 0.236622 0.500000
O O18 0.580709 0.000000 0.437740
O O19 0.575970 0.500000 0.955424
O O20 0.500000 0.267231 0.000000
O O21 0.572856 0.254634 0.038921
O O22 0.437279 0.000000 0.876247
#
# Coordination Sequence:
#
# PCOD8093250 Si02
#       8
#     8   8   8   8   8   8   8   8
#     4  11  23  39  62  90 124 163 209 260 310 368
#     4   9  19  37  61  90 123 161 204 247 303 365
#     4  11  23  40  64  94 127 164 206 258 314 372
#     4  11  24  43  66  93 125 166 212 258 308 373
#     4  11  23  38  59  90 126 161 204 254 307 365
#     4  10  19  35  60  88 121 163 207 248 299 364
#     4  11  26  45  65  94 126 160 204 261 322 375
#     4  10  22  42  65  92 124 164 212 258 304 371
#
# _framework density 20.410170999999998
#
# number of rings (size 3 to 8) (size 9 to 14) (size 15 to 20)
#    0.000    1.500    1.250    3.375    1.750    8.750 
#    0.000    1.250    0.000    0.000    0.000    0.000 
#    0.000    0.000    0.000    0.000    0.000    0.000 
#
# Total GULP energy -396852.838960 kJ/mol
# GULP energy per Si atom -12401.651217 kJ/mol
# Density = 2.036372 g / cm^3
# Si number density = 20.410171 Si / 1000 Ang^3
#
#
#
# Elastic Constant Matrix: (Units=GPa)
#
#
# Indices 1 2 3 4 5 6 
#
# 1 137.1052 45.8877 50.1327 0.0065 -11.3127 -0.0063
# 2 45.8877 61.0753 36.1535 0.0180 -8.0172 0.0025
# 3 50.1327 36.1535 130.2259 0.0260 -15.0853 -0.0188
# 4 0.0065 0.0180 0.0260 33.3563 -0.0059 3.2384
# 5 -11.3127 -8.0172 -15.0853 -0.0059 38.5043 0.0003
# 6 -0.0063 0.0025 -0.0188 3.2384 0.0003 30.3273
#
#
#
# Elastic Compliance Matrix: (Units=1/GPa)
#
#
# Indices 1 2 3 4 5 6 
#
# 1 0.010255 -0.006358 -0.002081 0.000003 0.000874 0.000001
# 2 -0.006358 0.023689 -0.003954 -0.000008 0.001516 -0.000005
# 3 -0.002081 -0.003954 0.009859 -0.000005 0.002428 0.000007
# 4 0.000003 -0.000008 -0.000005 0.030293 0.000002 -0.003235
# 5 0.000874 0.001516 0.002428 0.000002 0.027495 0.000001
# 6 0.000001 -0.000005 0.000007 -0.003235 0.000001 0.033319
#
#
# Mechanical properties :
#
#
# Convention : Reuss Voigt Hill
#
# Bulk Modulus (GPa) = 52.58338 65.86158 59.22248
# Shear Modulus (GPa) = 30.11410 33.51974 31.81692
#
# Velocity S-wave (km/s) = 3.84532 4.05693 3.95254
# Velocity P-wave (km/s) = 6.74793 7.36777 7.06465
#
# Compressibility (1/GPa) = 0.01901741
#
# Stress axis : x y z
#
# Youngs Moduli (GPa) = 97.51554 42.21305 101.42933
#
# Poissons Ratio (x) = 0.26839 0.21112
# Poissons Ratio (y) = 0.62000 0.40100
# Poissons Ratio (z) = 0.20297 0.16689
#
# Static dielectric constant tensor:
#      x y z
#    x 2.966070 -0.005790 0.286000 
#    y -0.005790 3.379110 0.002660 
#    z 0.286000 0.002660 3.729860 
# 
# 
# High freq. dielectric constant tensor:
#      x y z
#    x 1.812190 0.000000 -0.004100 
#    y 0.000000 1.784050 0.000010 
#    z -0.004100 0.000010 1.811640 
# 
# From -- ./inp_files/295558.got.cif
#   From: 2010.06.25/outbox.cif.g09.slc.cpg/sg12_148_cif.got.tgz:295558.got - 2010.06.28 00:19:55.
