data_PCOD8093526
_publ_section_title
;
Structure prediction by ZEFSAII (Michael W. Deem and Ramdas Pophale) SiO2 
 PCOD8093526
Probable space group: C 2/M
;
_chemical_formula_sum "Si O2"
_cell_formula_units_Z 48
_cell_length_a 16.813329
_cell_length_b 20.302375
_cell_length_c 9.886959
_cell_angle_alpha 90.000000
_cell_angle_beta 47.967853
_cell_angle_gamma 90.000000
_cell_volume 2506.785780
_symmetry_space_group_name_H-M "C 2/M"
_symmetry_group_IT_number 12
_symmetry_cell_setting 'monoclinic'
loop_
_space_group_symop_operation_xyz
x,y,z
-x,y,-z
-x,-y,-z
x,-y,z
1/2+x,1/2+y,z
1/2-x,1/2+y,-z
1/2-x,1/2-y,-z
1/2+x,1/2-y,z
loop_
_atom_site_type_symbol
_atom_site_label
_atom_site_fract_x
_atom_site_fract_y
_atom_site_fract_z
Si Si1 0.000000 0.355781 0.000000
Si Si2 0.311508 0.650790 0.980807
Si Si3 0.881091 0.077391 0.649458
Si Si4 0.589138 0.215062 0.153327
Si Si5 0.500000 0.854571 0.500000
Si Si6 0.794911 0.577830 0.355535
Si Si7 0.715616 0.077869 0.324416
O O1 0.055936 0.310016 0.045284
O O2 0.911112 0.400423 0.172561
O O3 0.335857 0.592727 0.848495
O O4 0.404465 0.705769 0.866942
O O5 0.201373 0.684922 0.067983
O O6 0.305215 0.617242 0.136172
O O7 0.800758 0.107690 0.627854
O O8 0.000000 0.108119 0.500000
O O9 0.886301 0.000000 0.623415
O O10 0.504266 0.193191 0.364350
O O11 0.399886 0.903412 0.603244
O O12 0.794438 0.500000 0.347912
O O13 0.774211 0.601371 0.532249
O O14 0.733376 0.000000 0.288716
#
# Coordination Sequence:
#
# PCOD8093526 Si02
#       7
#     4   8   8   8   4   8   8
#     4  12  19  40  58  92 121 156 188 250 304 366
#     4  10  21  40  55  83 116 159 201 235 288 350
#     4  10  21  39  62  84 111 154 206 248 291 347
#     4  10  22  36  59  82 121 155 195 237 291 363
#     4  10  19  36  56  90 119 158 194 234 308 368
#     4  10  21  37  60  92 122 152 191 248 311 361
#     4  10  20  36  59  87 123 152 192 250 304 359
#
# _framework density 19.148026000000002
#
# number of rings (size 3 to 8) (size 9 to 14) (size 15 to 20)
#    0.000    1.833    3.333    1.000    1.167    0.000 
#    3.000    0.833    0.000    4.000    0.000    0.000 
#    0.000    0.000    0.000    0.000    0.000    0.000 
#
# Total GULP energy -297583.324929 kJ/mol
# GULP energy per Si atom -12399.305205 kJ/mol
# Density = 1.910444 g / cm^3
# Si number density = 19.148026 Si / 1000 Ang^3
#
#
#
# Elastic Constant Matrix: (Units=GPa)
#
#
# Indices 1 2 3 4 5 6 
#
# 1 64.8475 28.0372 33.8867 0.0002 19.6767 0.0000
# 2 28.0372 56.5603 41.8941 0.0000 5.9651 0.0000
# 3 33.8867 41.8941 119.0575 0.0002 30.1004 0.0000
# 4 0.0002 0.0000 0.0002 -291.1568 -0.0002 13.2541
# 5 19.6767 5.9651 30.1004 -0.0002 33.0803 0.0000
# 6 0.0000 0.0000 0.0000 13.2541 0.0000 18.2748
#
#
#
# Elastic Compliance Matrix: (Units=1/GPa)
#
#
# Indices 1 2 3 4 5 6 
#
# 1 0.023621 -0.010451 0.000039 0.000000 -0.012201 0.000000
# 2 -0.010451 0.029028 -0.009725 0.000000 0.009832 0.000000
# 3 0.000039 -0.009725 0.014771 0.000000 -0.011710 0.000000
# 4 0.000000 0.000000 0.000000 -0.003325 0.000000 0.002411
# 5 -0.012201 0.009832 -0.011710 0.000000 0.046369 0.000000
# 6 0.000000 0.000000 0.000000 0.002411 0.000000 0.052971
#
#
# Mechanical properties :
#
#
# Convention : Reuss Voigt Hill
#
# Bulk Modulus (GPa) = 36.83927 49.78905 43.31416
# Shear Modulus (GPa) = 23.50084 -38.85052 -7.67484
#
# Velocity S-wave (km/s) = 3.50712 -4.50928 -2.00421
# Velocity P-wave (km/s) = 5.97334 1.02609 4.16101
#
# Compressibility (1/GPa) = 0.02714494
#
# Stress axis : x y z
#
# Youngs Moduli (GPa) = 42.33461 34.44996 67.70133
#
# Poissons Ratio (x) = 0.36005 -0.00266
# Poissons Ratio (y) = 0.44246 0.65841
# Poissons Ratio (z) = -0.00166 0.33503
#
# Static dielectric constant tensor:
#      x y z
#    x 3.663320 0.000000 0.062230 
#    y 0.000000 3.416530 0.000000 
#    z 0.062230 0.000000 3.697820 
# 
# 
# High freq. dielectric constant tensor:
#      x y z
#    x 1.737890 0.000000 0.008860 
#    y 0.000000 1.735120 0.000000 
#    z 0.008860 0.000000 1.756140 
# 
# From -- ./inp_files/77316.got.cif
#   From: 2010.06.25/outbox.cif.g09.slc.cpg/sg12_39_cif.got.tgz:77316.got - 2010.06.28 00:19:55.
