data_PCOD8093967
_publ_section_title
;
Structure prediction by ZEFSAII (Michael W. Deem and Ramdas Pophale) SiO2 
 PCOD8093967
Probable space group: C 2/M
;
_chemical_formula_sum "Si O2"
_cell_formula_units_Z 56
_cell_length_a 24.967182
_cell_length_b 18.869249
_cell_length_c 17.185996
_cell_angle_alpha 90.000000
_cell_angle_beta 19.513727
_cell_angle_gamma 90.000000
_cell_volume 2704.505186
_symmetry_space_group_name_H-M "C 2/M"
_symmetry_group_IT_number 12
_symmetry_cell_setting 'monoclinic'
loop_
_space_group_symop_operation_xyz
x,y,z
-x,y,-z
-x,-y,-z
x,-y,z
1/2+x,1/2+y,z
1/2-x,1/2+y,-z
1/2-x,1/2-y,-z
1/2+x,1/2-y,z
loop_
_atom_site_type_symbol
_atom_site_label
_atom_site_fract_x
_atom_site_fract_y
_atom_site_fract_z
Si Si1 0.527242 0.213419 0.350463
Si Si2 0.062609 0.583422 0.994908
Si Si3 0.170039 0.421330 0.387452
Si Si4 0.982189 0.839417 0.935637
Si Si5 0.853777 0.150786 0.659433
Si Si6 0.148202 0.747420 0.026202
Si Si7 0.199329 0.579710 0.526585
O O1 0.444991 0.139732 0.488473
O O2 0.426407 0.276399 0.526883
O O3 0.516912 0.231378 0.272416
O O4 0.709513 0.204626 0.131208
O O5 0.055949 0.500000 0.005609
O O6 0.945286 0.612572 0.223486
O O7 0.000000 0.615316 0.000000
O O8 0.251547 0.604257 0.739732
O O9 0.131733 0.500000 0.405528
O O10 0.139064 0.422892 0.521449
O O11 0.354178 0.403134 0.115544
O O12 0.926624 0.779940 0.950204
O O13 0.146355 0.870305 0.676703
O O14 0.000000 0.807942 0.000000
O O15 0.000000 0.107018 0.500000
O O16 0.724960 0.171548 0.901447
O O17 0.243201 0.500000 0.494984
#
# Coordination Sequence:
#
# PCOD8093967 Si02
#       7
#     8   8   8   8   8   8   8
#     4  10  21  38  60  86 118 160 200 243 308 353
#     4  10  22  39  59  86 119 155 200 254 305 349
#     4  10  19  36  61  86 118 154 199 249 303 365
#     4  10  20  35  58  89 116 153 198 242 301 366
#     4  10  21  39  61  84 117 157 198 247 298 362
#     4  10  21  38  59  82 122 155 196 249 297 358
#     4   9  19  36  57  81 119 158 189 241 306 361
#
# _framework density 20.706191
#
# number of rings (size 3 to 8) (size 9 to 14) (size 15 to 20)
#    0.000    2.143    1.429    1.286    2.000    2.571 
#    0.000    5.714    0.000    5.143    0.000    0.000 
#    0.000    0.000    0.000    0.000    0.000    0.000 
#
# Total GULP energy -346943.944839 kJ/mol
# GULP energy per Si atom -12390.855173 kJ/mol
# Density = 2.065906 g / cm^3
# Si number density = 20.706191 Si / 1000 Ang^3
#
#
#
# Elastic Constant Matrix: (Units=GPa)
#
#
# Indices 1 2 3 4 5 6 
#
# 1 109.4336 23.5592 41.5743 -0.0025 -9.6129 -0.0050
# 2 23.5592 34.6298 30.9880 0.0105 -8.7576 -0.0223
# 3 41.5743 30.9880 106.3400 0.0101 -8.0271 -0.0201
# 4 -0.0025 0.0105 0.0101 15.3540 0.0030 16.3315
# 5 -9.6129 -8.7576 -8.0271 0.0030 39.7290 -0.0042
# 6 -0.0050 -0.0223 -0.0201 16.3315 -0.0042 -12.7847
#
#
#
# Elastic Compliance Matrix: (Units=1/GPa)
#
#
# Indices 1 2 3 4 5 6 
#
# 1 0.011400 -0.004822 -0.002969 -0.000001 0.001096 0.000007
# 2 -0.004822 0.042778 -0.010111 0.000016 0.006220 -0.000038
# 3 -0.002969 -0.010111 0.013494 0.000000 -0.000221 -0.000002
# 4 -0.000001 0.000016 0.000000 0.027612 0.000005 0.035272
# 5 0.001096 0.006220 -0.000221 0.000005 0.026762 -0.000013
# 6 0.000007 -0.000038 -0.000002 0.035272 -0.000013 -0.033161
#
#
# Mechanical properties :
#
#
# Convention : Reuss Voigt Hill
#
# Bulk Modulus (GPa) = 31.37899 49.18294 40.28097
# Shear Modulus (GPa) = 36.95149 18.74513 27.84831
#
# Velocity S-wave (km/s) = 4.22899 3.01207 3.67130
# Velocity P-wave (km/s) = 6.24765 5.99175 6.12104
#
# Compressibility (1/GPa) = 0.03186846
#
# Stress axis : x y z
#
# Youngs Moduli (GPa) = 87.71728 23.37658 74.10492
#
# Poissons Ratio (x) = 0.11272 0.22003
# Poissons Ratio (y) = 0.42295 0.74928
# Poissons Ratio (z) = 0.26045 0.23636
#
# Static dielectric constant tensor:
#      x y z
#    x 3.993420 -0.000020 -0.022840 
#    y -0.000020 3.551490 0.000050 
#    z -0.022840 0.000050 3.982660 
# 
# 
# High freq. dielectric constant tensor:
#      x y z
#    x 1.807660 0.000000 0.001940 
#    y 0.000000 1.785590 0.000000 
#    z 0.001940 0.000000 1.821490 
# 
# From -- ./inp_files/293859.got.cif
#   From: 2010.06.25/outbox.cif.g09.slc.cpg/sg12_147_cif.got.tgz:293859.got - 2010.06.28 00:19:55.
