data_PCOD8093461
_publ_section_title
;
Structure prediction by ZEFSAII (Michael W. Deem and Ramdas Pophale) SiO2 
 PCOD8093461
Probable space group: C 2/M
;
_chemical_formula_sum "Si O2"
_cell_formula_units_Z 56
_cell_length_a 9.960682
_cell_length_b 26.655445
_cell_length_c 19.480743
_cell_angle_alpha 90.000000
_cell_angle_beta 35.481986
_cell_angle_gamma 90.000000
_cell_volume 3002.223880
_symmetry_space_group_name_H-M "C 2/M"
_symmetry_group_IT_number 12
_symmetry_cell_setting 'monoclinic'
loop_
_space_group_symop_operation_xyz
x,y,z
-x,y,-z
-x,-y,-z
x,-y,z
1/2+x,1/2+y,z
1/2-x,1/2+y,-z
1/2-x,1/2-y,-z
1/2+x,1/2-y,z
loop_
_atom_site_type_symbol
_atom_site_label
_atom_site_fract_x
_atom_site_fract_y
_atom_site_fract_z
Si Si1 0.422176 0.558272 0.368101
Si Si2 0.456223 0.904906 0.370819
Si Si3 0.422886 0.443390 0.215847
Si Si4 0.957109 0.199481 0.596468
Si Si5 0.199754 0.941095 0.972198
Si Si6 0.536201 0.189863 0.560928
Si Si7 0.164357 0.605000 0.732276
O O1 0.355079 0.500000 0.393999
O O2 0.231826 0.586583 0.491879
O O3 0.426476 0.582594 0.289455
O O4 0.670597 0.565416 0.299072
O O5 0.668127 0.943200 0.287842
O O6 0.560313 0.849190 0.342200
O O7 0.333693 0.908737 0.348827
O O8 0.497491 0.500000 0.197501
O O9 0.607330 0.421622 0.084693
O O10 0.755056 0.162156 0.707998
O O11 0.000000 0.184070 0.500000
O O12 0.188570 0.194694 0.544159
O O13 0.890082 0.258299 0.629961
O O14 0.409271 0.903629 0.868091
O O15 0.273679 0.000000 0.942391
O O16 0.000000 0.932801 0.000000
O O17 0.500000 0.168402 0.500000
#
# Coordination Sequence:
#
# PCOD8093461 Si02
#       7
#     8   8   8   8   8   8   8
#     4  11  23  35  53  86 121 150 182 237 300 341
#     4  12  21  35  57  86 117 151 185 232 295 351
#     4  10  22  39  57  80 114 155 200 235 268 339
#     4  10  19  36  53  84 118 147 184 234 288 346
#     4  10  21  39  60  82 109 156 208 238 272 330
#     4  10  20  33  57  81 116 153 185 225 286 352
#     4  12  22  36  57  84 118 149 190 244 285 341
#
# _framework density 18.652839
#
# number of rings (size 3 to 8) (size 9 to 14) (size 15 to 20)
#    0.000    1.286    4.286    2.571    0.000    4.000 
#    0.000    2.143    0.000    0.857    0.000    0.000 
#    0.000    0.000    0.000    0.000    0.000    0.000 
#
# Total GULP energy -347072.585105 kJ/mol
# GULP energy per Si atom -12395.449468 kJ/mol
# Density = 1.861038 g / cm^3
# Si number density = 18.652839 Si / 1000 Ang^3
#
#
#
# Elastic Constant Matrix: (Units=GPa)
#
#
# Indices 1 2 3 4 5 6 
#
# 1 118.2849 27.0930 43.0443 0.0011 10.4188 0.0008
# 2 27.0930 53.8402 40.9813 -0.0010 -1.1495 -0.0002
# 3 43.0443 40.9813 125.0026 0.0008 5.2345 -0.0001
# 4 0.0011 -0.0010 0.0008 24.3832 0.0003 -7.2442
# 5 10.4188 -1.1495 5.2345 0.0003 32.0054 0.0000
# 6 0.0008 -0.0002 -0.0001 -7.2442 0.0000 27.3617
#
#
#
# Elastic Compliance Matrix: (Units=1/GPa)
#
#
# Indices 1 2 3 4 5 6 
#
# 1 0.010372 -0.003554 -0.002275 -0.000001 -0.003132 -0.000001
# 2 -0.003554 0.026127 -0.007481 0.000002 0.003319 0.000001
# 3 -0.002275 -0.007481 0.011293 -0.000001 -0.001375 0.000000
# 4 -0.000001 0.000002 -0.000001 0.044513 0.000000 0.011785
# 5 -0.003132 0.003319 -0.001375 0.000000 0.032608 0.000000
# 6 -0.000001 0.000001 0.000000 0.011785 0.000000 0.039668
#
#
# Mechanical properties :
#
#
# Convention : Reuss Voigt Hill
#
# Bulk Modulus (GPa) = 47.23217 57.70719 52.46968
# Shear Modulus (GPa) = 25.21949 29.15067 27.18508
#
# Velocity S-wave (km/s) = 3.68101 3.95752 3.82176
# Velocity P-wave (km/s) = 6.59114 7.20328 6.90400
#
# Compressibility (1/GPa) = 0.02117201
#
# Stress axis : x y z
#
# Youngs Moduli (GPa) = 96.41233 38.27470 88.54806
#
# Poissons Ratio (x) = 0.13605 0.20146
# Poissons Ratio (y) = 0.34270 0.66239
# Poissons Ratio (z) = 0.21935 0.28632
#
# Static dielectric constant tensor:
#      x y z
#    x 3.687920 -0.000010 0.151860 
#    y -0.000010 3.586780 0.000000 
#    z 0.151860 0.000000 3.279010 
# 
# 
# High freq. dielectric constant tensor:
#      x y z
#    x 1.746010 0.000000 0.006830 
#    y 0.000000 1.713670 0.000000 
#    z 0.006830 0.000000 1.692010 
# 
# From -- ./inp_files/124346.got.cif
#   From: 2010.06.25/outbox.cif.g09.slc.cpg/sg12_63_cif.got.tgz:124346.got - 2010.06.28 00:19:55.
