data_PCOD8093231
_publ_section_title
;
Structure prediction by ZEFSAII (Michael W. Deem and Ramdas Pophale) SiO2 
 PCOD8093231
Probable space group: C 2/M
;
_chemical_formula_sum "Si O2"
_cell_formula_units_Z 64
_cell_length_a 12.869405
_cell_length_b 19.963981
_cell_length_c 14.796105
_cell_angle_alpha 90.000000
_cell_angle_beta 114.106742
_cell_angle_gamma 90.000000
_cell_volume 3469.940673
_symmetry_space_group_name_H-M "C 2/M"
_symmetry_group_IT_number 12
_symmetry_cell_setting 'monoclinic'
loop_
_space_group_symop_operation_xyz
x,y,z
-x,y,-z
-x,-y,-z
x,-y,z
1/2+x,1/2+y,z
1/2-x,1/2+y,-z
1/2-x,1/2-y,-z
1/2+x,1/2-y,z
loop_
_atom_site_type_symbol
_atom_site_label
_atom_site_fract_x
_atom_site_fract_y
_atom_site_fract_z
Si Si1 0.305655 0.422704 0.577924
Si Si2 0.788142 0.421707 0.260393
Si Si3 0.785087 0.309999 0.576250
Si Si4 0.050548 0.877665 0.113386
Si Si5 0.967098 0.316350 0.267924
Si Si6 0.198379 0.196350 0.745441
Si Si7 0.048173 0.924053 0.739731
Si Si8 0.556136 0.778768 0.113018
O O1 0.289994 0.500000 0.546432
O O2 0.235470 0.405037 0.643278
O O3 0.260074 0.380035 0.478336
O O4 0.437746 0.405244 0.641106
O O5 0.807742 0.500000 0.251923
O O6 0.683274 0.396605 0.162310
O O7 0.900900 0.383661 0.269625
O O8 0.750000 0.250000 0.500000
O O9 0.728809 0.295085 0.652055
O O10 0.920903 0.312827 0.630851
O O11 0.033357 0.799098 0.123743
O O12 0.981932 0.917160 0.165583
O O13 0.000000 0.900596 0.000000
O O14 0.894669 0.250468 0.260849
O O15 0.999779 0.320709 0.174048
O O16 0.152273 0.122287 0.747766
O O17 0.309504 0.207279 0.846378
O O18 0.086133 0.000000 0.734690
O O19 0.500000 0.802890 0.000000
#
# Coordination Sequence:
#
# PCOD8093231 Si02
#       8
#     8   8   8   8   8   8   8   8
#     4   9  20  38  57  80 113 149 187 230 278 328
#     4  10  21  37  58  84 116 150 185 231 281 330
#     4  11  24  36  55  83 113 145 188 238 279 323
#     4  10  19  35  60  87 115 144 185 237 280 327
#     4  11  22  38  58  83 114 146 188 231 278 335
#     4  11  22  38  58  83 114 146 188 231 278 335
#     4  10  21  37  58  84 116 150 185 231 281 330
#     4  10  22  38  59  86 113 147 186 228 280 336
#
# _framework density 18.444120000000002
#
# number of rings (size 3 to 8) (size 9 to 14) (size 15 to 20)
#    0.000    1.750    2.500    2.625    3.500    7.000 
#    0.000    4.375    0.000    0.750    0.000    0.000 
#    0.000    0.000    0.000    0.000    0.000    0.000 
#
# Total GULP energy -396968.821323 kJ/mol
# GULP energy per Si atom -12405.275666 kJ/mol
# Density = 1.840214 g / cm^3
# Si number density = 18.444120 Si / 1000 Ang^3
#
#
#
# Elastic Constant Matrix: (Units=GPa)
#
#
# Indices 1 2 3 4 5 6 
#
# 1 68.1092 16.0631 36.8931 0.0000 12.3356 0.0000
# 2 16.0631 62.7131 29.1964 0.0000 7.4802 0.0000
# 3 36.8931 29.1964 119.5821 0.0000 20.4068 0.0000
# 4 0.0000 0.0000 0.0000 25.6520 0.0000 -0.5418
# 5 12.3356 7.4802 20.4068 0.0000 18.0916 0.0000
# 6 0.0000 0.0000 0.0000 -0.5418 0.0000 39.4361
#
#
#
# Elastic Compliance Matrix: (Units=1/GPa)
#
#
# Indices 1 2 3 4 5 6 
#
# 1 0.018666 -0.002038 -0.004004 0.000000 -0.007369 0.000000
# 2 -0.002038 0.018352 -0.003460 0.000000 -0.002295 0.000000
# 3 -0.004004 -0.003460 0.012053 0.000000 -0.009434 0.000000
# 4 0.000000 0.000000 0.000000 0.038995 0.000000 0.000536
# 5 -0.007369 -0.002295 -0.009434 0.000000 0.071889 0.000000
# 6 0.000000 0.000000 0.000000 0.000536 0.000000 0.025365
#
#
# Mechanical properties :
#
#
# Convention : Reuss Voigt Hill
#
# Bulk Modulus (GPa) = 33.25951 46.07884 39.66918
# Shear Modulus (GPa) = 23.32673 27.85273 25.58973
#
# Velocity S-wave (km/s) = 3.56015 3.89023 3.72885
# Velocity P-wave (km/s) = 5.91366 6.72427 6.33195
#
# Compressibility (1/GPa) = 0.03006658
#
# Stress axis : x y z
#
# Youngs Moduli (GPa) = 53.57237 54.48876 82.97031
#
# Poissons Ratio (x) = 0.11106 0.33220
# Poissons Ratio (y) = 0.10919 0.28710
# Poissons Ratio (z) = 0.21449 0.18855
#
# Static dielectric constant tensor:
#      x y z
#    x 3.455220 0.000000 0.080140 
#    y 0.000000 3.388490 0.000000 
#    z 0.080140 0.000000 3.444890 
# 
# 
# High freq. dielectric constant tensor:
#      x y z
#    x 1.714570 0.000000 0.003260 
#    y 0.000000 1.718760 0.000000 
#    z 0.003260 0.000000 1.717490 
# 
# From -- ./inp_files/170575.got.cif
#   From: 2010.06.25/outbox.cif.g09.slc.cpg/sg12_86_cif.got.tgz:170575.got - 2010.06.28 00:19:55.
