data_PCOD8093315
_publ_section_title
;
Structure prediction by ZEFSAII (Michael W. Deem and Ramdas Pophale) SiO2 
 PCOD8093315
Probable space group: C 2/M
;
_chemical_formula_sum "Si O2"
_cell_formula_units_Z 64
_cell_length_a 13.960342
_cell_length_b 12.846913
_cell_length_c 19.169406
_cell_angle_alpha 90.000000
_cell_angle_beta 71.279003
_cell_angle_gamma 90.000000
_cell_volume 3256.086959
_symmetry_space_group_name_H-M "C 2/M"
_symmetry_group_IT_number 12
_symmetry_cell_setting 'monoclinic'
loop_
_space_group_symop_operation_xyz
x,y,z
-x,y,-z
-x,-y,-z
x,-y,z
1/2+x,1/2+y,z
1/2-x,1/2+y,-z
1/2-x,1/2-y,-z
1/2+x,1/2-y,z
loop_
_atom_site_type_symbol
_atom_site_label
_atom_site_fract_x
_atom_site_fract_y
_atom_site_fract_z
Si Si1 0.629968 0.304877 0.102201
Si Si2 0.442759 0.721855 0.738547
Si Si3 0.113302 0.877143 0.484871
Si Si4 0.774339 0.220271 0.668516
Si Si5 0.262928 0.380186 0.049318
Si Si6 0.909234 0.379371 0.219520
Si Si7 0.561325 0.248271 0.920978
Si Si8 0.866817 0.119200 0.362643
O O1 0.625936 0.332480 0.185003
O O2 0.658303 0.181480 0.085825
O O3 0.517356 0.324899 0.099438
O O4 0.709237 0.374993 0.040039
O O5 0.366404 0.756660 0.695892
O O6 0.504677 0.819326 0.755902
O O7 0.517975 0.637500 0.688136
O O8 0.187950 0.824193 0.413282
O O9 0.147860 0.844514 0.554171
O O10 0.000000 0.835516 0.500000
O O11 0.117369 0.000000 0.472460
O O12 0.701429 0.135047 0.720892
O O13 0.709819 0.323115 0.670191
O O14 0.251610 0.500000 0.075289
O O15 0.346733 0.320393 0.075475
O O16 0.938444 0.500000 0.213186
O O17 0.901669 0.339523 0.141399
O O18 0.500000 0.196370 0.000000
O O19 0.840352 0.000000 0.360839
#
# Coordination Sequence:
#
# PCOD8093315 Si02
#       8
#     8   8   8   8   8   8   8   8
#     4   9  20  36  53  82 115 142 187 237 283 338
#     4  10  21  38  56  79 114 150 185 231 280 336
#     4  10  19  35  61  88 113 149 192 228 278 339
#     4  11  21  37  61  85 116 149 186 238 283 325
#     4  10  20  37  60  82 109 149 193 236 287 342
#     4  10  22  38  56  82 113 149 190 231 285 343
#     4   9  19  37  57  81 112 145 190 238 279 335
#     4  10  22  38  58  87 116 146 190 233 276 336
#
# _framework density 19.655494999999998
#
# number of rings (size 3 to 8) (size 9 to 14) (size 15 to 20)
#    0.000    2.125    1.250    1.500    0.000    6.000 
#    0.000   17.500    0.000    0.375    0.000    0.000 
#    0.000    0.000    0.000    0.000    0.000    0.000 
#
# Total GULP energy -396699.134019 kJ/mol
# GULP energy per Si atom -12396.847938 kJ/mol
# Density = 1.961076 g / cm^3
# Si number density = 19.655495 Si / 1000 Ang^3
#
#
#
# Elastic Constant Matrix: (Units=GPa)
#
#
# Indices 1 2 3 4 5 6 
#
# 1 88.1518 15.4586 26.6181 0.0000 9.1134 0.0000
# 2 15.4586 56.9664 22.1924 0.0000 11.5659 0.0000
# 3 26.6181 22.1924 131.7703 0.0000 0.3400 0.0000
# 4 0.0000 0.0000 0.0000 21.6228 0.0000 4.0575
# 5 9.1134 11.5659 0.3400 0.0000 30.2585 0.0000
# 6 0.0000 0.0000 0.0000 4.0575 0.0000 15.6235
#
#
#
# Elastic Compliance Matrix: (Units=1/GPa)
#
#
# Indices 1 2 3 4 5 6 
#
# 1 0.012673 -0.001955 -0.002223 0.000000 -0.003045 0.000000
# 2 -0.001955 0.020772 -0.003085 0.000000 -0.007316 0.000000
# 3 -0.002223 -0.003085 0.008553 0.000000 0.001752 0.000000
# 4 0.000000 0.000000 0.000000 0.048617 0.000000 -0.012626
# 5 -0.003045 -0.007316 0.001752 0.000000 0.036742 0.000000
# 6 0.000000 0.000000 0.000000 -0.012626 0.000000 0.067285
#
#
# Mechanical properties :
#
#
# Convention : Reuss Voigt Hill
#
# Bulk Modulus (GPa) = 36.39931 45.04741 40.72336
# Shear Modulus (GPa) = 22.90171 27.67558 25.28864
#
# Velocity S-wave (km/s) = 3.41714 3.75645 3.59080
# Velocity P-wave (km/s) = 5.84192 6.46396 6.16079
#
# Compressibility (1/GPa) = 0.02747305
#
# Stress axis : x y z
#
# Youngs Moduli (GPa) = 78.90883 48.14224 116.91845
#
# Poissons Ratio (x) = 0.09411 0.25990
# Poissons Ratio (y) = 0.15425 0.36064
# Poissons Ratio (z) = 0.17540 0.14850
#
# Static dielectric constant tensor:
#      x y z
#    x 3.636910 0.000000 -0.032680 
#    y 0.000000 3.159720 0.000000 
#    z -0.032680 0.000000 3.924300 
# 
# 
# High freq. dielectric constant tensor:
#      x y z
#    x 1.774580 0.000000 -0.002210 
#    y 0.000000 1.728990 0.000000 
#    z -0.002210 0.000000 1.785540 
# 
# From -- ./inp_files/309888.got.cif
#   From: 2010.06.25/outbox.cif.g09.slc.cpg/sg12_155_cif.got.tgz:309888.got - 2010.06.28 00:19:55.
