data_PCOD8093298
_publ_section_title
;
Structure prediction by ZEFSAII (Michael W. Deem and Ramdas Pophale) SiO2 
 PCOD8093298
Probable space group: C 2/M
;
_chemical_formula_sum "Si O2"
_cell_formula_units_Z 56
_cell_length_a 18.926087
_cell_length_b 9.338766
_cell_length_c 18.567845
_cell_angle_alpha 90.000000
_cell_angle_beta 118.764963
_cell_angle_gamma 90.000000
_cell_volume 2876.827661
_symmetry_space_group_name_H-M "C 2/M"
_symmetry_group_IT_number 12
_symmetry_cell_setting 'monoclinic'
loop_
_space_group_symop_operation_xyz
x,y,z
-x,y,-z
-x,-y,-z
x,-y,z
1/2+x,1/2+y,z
1/2-x,1/2+y,-z
1/2-x,1/2-y,-z
1/2+x,1/2-y,z
loop_
_atom_site_type_symbol
_atom_site_label
_atom_site_fract_x
_atom_site_fract_y
_atom_site_fract_z
Si Si1 0.810853 0.336463 0.579870
Si Si2 0.777253 0.837439 0.319202
Si Si3 0.985488 0.663330 0.686166
Si Si4 0.427127 0.162864 0.416254
Si Si5 0.580798 0.335002 0.998618
Si Si6 0.603997 0.829697 0.862961
Si Si7 0.253750 0.664989 0.839615
O O1 0.809002 0.500000 0.550682
O O2 0.750000 0.250000 0.500000
O O3 0.792235 0.329665 0.655555
O O4 0.900810 0.265535 0.619899
O O5 0.852764 0.764689 0.395765
O O6 0.751407 0.755491 0.235239
O O7 0.798400 0.000000 0.308569
O O8 0.963020 0.500000 0.691640
O O9 0.052322 0.675046 0.657417
O O10 0.028520 0.728093 0.778064
O O11 0.500000 0.220431 0.500000
O O12 0.405735 0.000000 0.427861
O O13 0.572432 0.500000 0.971039
O O14 0.656626 0.311633 0.087456
O O15 0.500000 0.283478 0.000000
O O16 0.595966 0.241135 0.936081
O O17 0.688254 0.783696 0.866653
O O18 0.601201 0.000000 0.870542
O O19 0.236995 0.500000 0.811288
#
# Coordination Sequence:
#
# PCOD8093298 Si02
#       7
#     8   8   8   8   8   8   8
#     4  10  22  39  57  81 114 152 193 239 286 335
#     4  11  23  36  56  87 120 149 186 241 292 335
#     4   9  18  35  57  82 112 146 192 237 272 326
#     4  10  19  35  61  85 110 152 197 233 276 336
#     4  10  23  40  59  88 122 149 180 231 289 344
#     4  10  20  37  62  86 111 150 195 236 275 331
#     4  10  21  40  62  83 114 154 193 230 277 344
#
# _framework density 19.465886999999999
#
# number of rings (size 3 to 8) (size 9 to 14) (size 15 to 20)
#    0.000    2.000    1.429    1.714    2.000    4.000 
#    0.000    1.429    0.000    0.000    0.000    0.000 
#    0.000    0.000    0.000    0.000    0.000    0.000 
#
# Total GULP energy -347174.884234 kJ/mol
# GULP energy per Si atom -12399.103008 kJ/mol
# Density = 1.942158 g / cm^3
# Si number density = 19.465887 Si / 1000 Ang^3
#
#
#
# Elastic Constant Matrix: (Units=GPa)
#
#
# Indices 1 2 3 4 5 6 
#
# 1 102.6889 29.9997 28.4984 0.0000 11.4672 0.0000
# 2 29.9997 60.6369 39.7278 0.0000 1.4732 0.0000
# 3 28.4984 39.7278 91.8264 0.0000 3.0487 0.0000
# 4 0.0000 0.0000 0.0000 33.0543 0.0000 -4.5329
# 5 11.4672 1.4732 3.0487 0.0000 36.9763 0.0000
# 6 0.0000 0.0000 0.0000 -4.5329 0.0000 21.7609
#
#
#
# Elastic Compliance Matrix: (Units=1/GPa)
#
#
# Indices 1 2 3 4 5 6 
#
# 1 0.011949 -0.004847 -0.001499 0.000000 -0.003389 0.000000
# 2 -0.004847 0.024982 -0.009346 0.000000 0.001279 0.000000
# 3 -0.001499 -0.009346 0.015413 0.000000 -0.000434 0.000000
# 4 0.000000 0.000000 0.000000 0.031143 0.000000 0.006487
# 5 -0.003389 0.001279 -0.000434 0.000000 0.028080 0.000000
# 6 0.000000 0.000000 0.000000 0.006487 0.000000 0.047305
#
#
# Mechanical properties :
#
#
# Convention : Reuss Voigt Hill
#
# Bulk Modulus (GPa) = 47.71120 50.17823 48.94471
# Shear Modulus (GPa) = 25.34935 28.82003 27.08469
#
# Velocity S-wave (km/s) = 3.61258 3.85195 3.73418
# Velocity P-wave (km/s) = 6.47799 6.75403 6.61745
#
# Compressibility (1/GPa) = 0.02095944
#
# Stress axis : x y z
#
# Youngs Moduli (GPa) = 83.69194 40.02840 64.87922
#
# Poissons Ratio (x) = 0.19403 0.09723
# Poissons Ratio (y) = 0.40568 0.60639
# Poissons Ratio (z) = 0.12542 0.37412
#
# Static dielectric constant tensor:
#      x y z
#    x 3.759820 0.000000 0.155430 
#    y 0.000000 3.374350 0.000000 
#    z 0.155430 0.000000 3.547020 
# 
# 
# High freq. dielectric constant tensor:
#      x y z
#    x 1.770330 0.000000 0.006280 
#    y 0.000000 1.731090 0.000000 
#    z 0.006280 0.000000 1.770420 
# 
# From -- ./inp_files/275153.got.cif
#   From: 2010.06.25/outbox.cif.g09.slc.cpg/sg12_138_cif.got.tgz:275153.got - 2010.06.28 00:19:55.
