data_PCOD8093597
_publ_section_title
;
Structure prediction by ZEFSAII (Michael W. Deem and Ramdas Pophale) SiO2 
 PCOD8093597
Probable space group: C 2/M
;
_chemical_formula_sum "Si O2"
_cell_formula_units_Z 56
_cell_length_a 19.488719
_cell_length_b 9.200548
_cell_length_c 29.540066
_cell_angle_alpha 90.000000
_cell_angle_beta 146.130700
_cell_angle_gamma 90.000000
_cell_volume 2951.873372
_symmetry_space_group_name_H-M "C 2/M"
_symmetry_group_IT_number 12
_symmetry_cell_setting 'monoclinic'
loop_
_space_group_symop_operation_xyz
x,y,z
-x,y,-z
-x,-y,-z
x,-y,z
1/2+x,1/2+y,z
1/2-x,1/2+y,-z
1/2-x,1/2-y,-z
1/2+x,1/2-y,z
loop_
_atom_site_type_symbol
_atom_site_label
_atom_site_fract_x
_atom_site_fract_y
_atom_site_fract_z
Si Si1 0.672707 0.826858 0.496982
Si Si2 0.014132 0.170105 0.813346
Si Si3 0.757433 0.330531 0.897169
Si Si4 0.436095 0.335348 0.061133
Si Si5 0.288597 0.335668 0.822853
Si Si6 0.394225 0.827779 0.354736
Si Si7 0.748294 0.673202 0.360613
O O1 0.750000 0.750000 0.500000
O O2 0.530869 0.774008 0.416949
O O3 0.721397 0.772296 0.572369
O O4 0.684894 0.000000 0.497989
O O5 0.116086 0.203554 0.831665
O O6 0.060073 0.233972 0.886484
O O7 0.884962 0.238256 0.726271
O O8 0.993092 0.000000 0.809867
O O9 0.785525 0.500000 0.911920
O O10 0.779444 0.267924 0.860219
O O11 0.847522 0.261981 0.982953
O O12 0.384473 0.500000 0.032749
O O13 0.572502 0.332558 0.116888
O O14 0.249784 0.500000 0.814749
O O15 0.200135 0.272680 0.735245
O O16 0.349423 0.769789 0.379537
O O17 0.391925 0.000000 0.355667
O O18 0.746274 0.500000 0.359502
#
# Coordination Sequence:
#
# PCOD8093597 Si02
#       7
#     8   8   8   8   8   8   8
#     4  10  21  34  56  87 115 140 170 214 266 317
#     4   9  18  33  53  78 105 138 179 220 264 313
#     4  11  23  34  50  78 113 143 171 216 273 327
#     4  10  19  36  58  76  98 137 187 228 263 307
#     4  10  20  35  56  78 103 139 182 225 264 307
#     4   9  17  33  56  82 106 135 183 229 257 296
#     4   9  16  32  57  81 105 137 181 224 257 300
#
# _framework density 18.971003
#
# number of rings (size 3 to 8) (size 9 to 14) (size 15 to 20)
#    0.000    2.286    1.429    1.714    2.000    4.000 
#    0.000    0.714    0.000    3.429    0.000    0.000 
#    0.000    0.000    0.000    0.000    0.000    0.000 
#
# Total GULP energy -347151.402616 kJ/mol
# GULP energy per Si atom -12398.264379 kJ/mol
# Density = 1.892782 g / cm^3
# Si number density = 18.971003 Si / 1000 Ang^3
#
#
#
# Elastic Constant Matrix: (Units=GPa)
#
#
# Indices 1 2 3 4 5 6 
#
# 1 1194.4749 239.2179 814.9851 -0.0019 -174.8816 0.0019
# 2 239.2179 83.7698 175.3855 -0.0004 -32.9859 0.0004
# 3 814.9851 175.3855 681.1606 -0.0014 -131.6002 0.0014
# 4 -0.0019 -0.0004 -0.0014 -21.9752 0.0003 30.4070
# 5 -174.8816 -32.9859 -131.6002 0.0003 64.7035 -0.0003
# 6 0.0019 0.0004 0.0014 30.4070 -0.0003 3.6978
#
#
#
# Elastic Compliance Matrix: (Units=1/GPa)
#
#
# Indices 1 2 3 4 5 6 
#
# 1 0.005300 -0.004089 -0.004816 0.000000 0.002445 0.000000
# 2 -0.004089 0.029068 -0.003071 0.000000 -0.002479 0.000000
# 3 -0.004816 -0.003071 0.008572 0.000000 0.002852 0.000000
# 4 0.000000 0.000000 0.000000 -0.003676 0.000000 0.030230
# 5 0.002445 -0.002479 0.002852 0.000000 0.026601 0.000000
# 6 0.000000 0.000000 0.000000 0.030230 0.000000 0.021847
#
#
# Mechanical properties :
#
#
# Convention : Reuss Voigt Hill
#
# Bulk Modulus (GPa) = 52.66528 490.95357 271.80943
# Shear Modulus (GPa) = 42.37501 57.93968 50.15734
#
# Velocity S-wave (km/s) = 4.73130 5.53240 5.14746
# Velocity P-wave (km/s) = 7.59396 17.32522 13.37594
#
# Compressibility (1/GPa) = 0.01898784
#
# Stress axis : x y z
#
# Youngs Moduli (GPa) = 188.67040 34.40228 116.65531
#
# Poissons Ratio (x) = 0.14068 0.56184
# Poissons Ratio (y) = 0.77153 0.35822
# Poissons Ratio (z) = 0.90869 0.10564
#
# Static dielectric constant tensor:
#      x y z
#    x 3.583170 0.000000 -0.054050 
#    y 0.000000 3.088370 0.000000 
#    z -0.054050 0.000000 3.648130 
# 
# 
# High freq. dielectric constant tensor:
#      x y z
#    x 1.753130 0.000000 -0.000630 
#    y 0.000000 1.682800 0.000000 
#    z -0.000630 0.000000 1.754230 
# 
# From -- ./inp_files/362936.got.cif
#   From: 2010.06.25/outbox.cif.g09.slc.cpg/sg12_182_cif.got.tgz:362936.got - 2010.06.28 00:19:55.
