data_PCOD8093741
_publ_section_title
;
Structure prediction by ZEFSAII (Michael W. Deem and Ramdas Pophale) SiO2 
 PCOD8093741
Probable space group: C 2/M
;
_chemical_formula_sum "Si O2"
_cell_formula_units_Z 48
_cell_length_a 29.546160
_cell_length_b 18.426142
_cell_length_c 10.013224
_cell_angle_alpha 90.000000
_cell_angle_beta 151.446982
_cell_angle_gamma 90.000000
_cell_volume 2605.623293
_symmetry_space_group_name_H-M "C 2/M"
_symmetry_group_IT_number 12
_symmetry_cell_setting 'monoclinic'
loop_
_space_group_symop_operation_xyz
x,y,z
-x,y,-z
-x,-y,-z
x,-y,z
1/2+x,1/2+y,z
1/2-x,1/2+y,-z
1/2-x,1/2-y,-z
1/2+x,1/2-y,z
loop_
_atom_site_type_symbol
_atom_site_label
_atom_site_fract_x
_atom_site_fract_y
_atom_site_fract_z
Si Si1 0.930930 0.358838 0.442024
Si Si2 0.759606 0.418278 0.424915
Si Si3 0.251321 0.581578 0.913790
Si Si4 0.840221 0.782322 0.808344
Si Si5 0.393584 0.705183 0.242964
Si Si6 0.445459 0.844452 0.991653
O O1 0.835371 0.406013 0.207837
O O2 0.899190 0.274644 0.354476
O O3 0.000000 0.381500 0.500000
O O4 0.991685 0.376363 0.728914
O O5 0.735865 0.500000 0.405035
O O6 0.783093 0.410323 0.328659
O O7 0.666466 0.369984 0.221774
O O8 0.847995 0.389175 0.738475
O O9 0.290760 0.500000 0.040019
O O10 0.333173 0.640832 0.154536
O O11 0.750000 0.750000 0.500000
O O12 0.929235 0.742627 0.970040
O O13 0.846007 0.765645 0.982153
O O14 0.500000 0.674368 0.500000
O O15 0.500000 0.859282 0.000000
#
# Coordination Sequence:
#
# PCOD8093741 Si02
#       6
#     8   8   8   8   8   8
#     4  11  21  36  57  81 117 149 182 231 285 330
#     4   9  19  34  55  81 110 142 185 231 272 325
#     4  10  21  36  54  82 114 150 187 225 277 336
#     4   9  18  34  56  82 107 142 188 225 271 327
#     4  10  19  36  59  83 113 144 184 234 283 323
#     4  11  19  33  57  85 108 141 186 230 274 327
#
# _framework density 18.421696000000001
#
# number of rings (size 3 to 8) (size 9 to 14) (size 15 to 20)
#    0.000    2.000    5.000    0.500    0.000    1.667 
#    0.000    0.000    0.000    0.500    0.000    0.000 
#    0.000    0.000    0.000    0.000    0.000    0.000 
#
# Total GULP energy -297343.805834 kJ/mol
# GULP energy per Si atom -12389.325243 kJ/mol
# Density = 1.837977 g / cm^3
# Si number density = 18.421696 Si / 1000 Ang^3
#
#
#
# Elastic Constant Matrix: (Units=GPa)
#
#
# Indices 1 2 3 4 5 6 
#
# 1 60.1032 13.7529 21.8928 0.0000 -0.4690 0.0000
# 2 13.7529 87.2776 10.0295 0.0000 2.1557 0.0000
# 3 21.8928 10.0295 57.9580 0.0000 -5.3171 0.0000
# 4 0.0000 0.0000 0.0000 22.4519 0.0000 0.3551
# 5 -0.4690 2.1557 -5.3171 0.0000 25.1600 0.0000
# 6 0.0000 0.0000 0.0000 0.3551 0.0000 25.0572
#
#
#
# Elastic Compliance Matrix: (Units=1/GPa)
#
#
# Indices 1 2 3 4 5 6 
#
# 1 0.019757 -0.002267 -0.007158 0.000000 -0.000950 0.000000
# 2 -0.002267 0.012003 -0.001345 0.000000 -0.001355 0.000000
# 3 -0.007158 -0.001345 0.020588 0.000000 0.004333 0.000000
# 4 0.000000 0.000000 0.000000 0.044550 0.000000 -0.000631
# 5 -0.000950 -0.001355 0.004333 0.000000 0.040760 0.000000
# 6 0.000000 0.000000 0.000000 -0.000631 0.000000 0.039918
#
#
# Mechanical properties :
#
#
# Convention : Reuss Voigt Hill
#
# Bulk Modulus (GPa) = 32.45934 32.96548 32.71241
# Shear Modulus (GPa) = 23.87967 25.17806 24.52886
#
# Velocity S-wave (km/s) = 3.60429 3.70098 3.65296
# Velocity P-wave (km/s) = 5.91436 6.01638 5.96559
#
# Compressibility (1/GPa) = 0.03080777
#
# Stress axis : x y z
#
# Youngs Moduli (GPa) = 50.61595 83.31271 48.57250
#
# Poissons Ratio (x) = 0.18889 0.34766
# Poissons Ratio (y) = 0.11476 0.06533
# Poissons Ratio (z) = 0.36229 0.11206
#
# Static dielectric constant tensor:
#      x y z
#    x 3.194340 0.000000 0.095130 
#    y 0.000000 3.526720 0.000000 
#    z 0.095130 0.000000 3.485810 
# 
# 
# High freq. dielectric constant tensor:
#      x y z
#    x 1.686240 0.000000 -0.001510 
#    y 0.000000 1.709680 0.000000 
#    z -0.001510 0.000000 1.719200 
# 
# From -- ./inp_files/87716.got.cif
#   From: 2010.06.25/outbox.cif.g09.slc.cpg/sg12_44_cif.got.tgz:87716.got - 2010.06.28 00:19:55.
