data_PCOD8093135
_publ_section_title
;
Structure prediction by ZEFSAII (Michael W. Deem and Ramdas Pophale) SiO2 
 PCOD8093135
Probable space group: C 2/M
;
_chemical_formula_sum "Si O2"
_cell_formula_units_Z 64
_cell_length_a 12.591108
_cell_length_b 17.635911
_cell_length_c 15.836656
_cell_angle_alpha 90.000000
_cell_angle_beta 63.316516
_cell_angle_gamma 90.000000
_cell_volume 3142.102231
_symmetry_space_group_name_H-M "C 2/M"
_symmetry_group_IT_number 12
_symmetry_cell_setting 'monoclinic'
loop_
_space_group_symop_operation_xyz
x,y,z
-x,y,-z
-x,-y,-z
x,-y,z
1/2+x,1/2+y,z
1/2-x,1/2+y,-z
1/2-x,1/2-y,-z
1/2+x,1/2-y,z
loop_
_atom_site_type_symbol
_atom_site_label
_atom_site_fract_x
_atom_site_fract_y
_atom_site_fract_z
Si Si1 0.215920 0.159902 0.095367
Si Si2 0.639655 0.909236 0.695797
Si Si3 0.095609 0.086475 0.404988
Si Si4 0.417112 0.085590 0.100661
Si Si5 0.721410 0.587259 0.759219
Si Si6 0.011098 0.084505 0.248313
Si Si7 0.642185 0.691713 0.938565
Si Si8 0.527444 0.909750 0.396173
O O1 0.284240 0.086801 0.109053
O O2 0.292482 0.229448 0.106904
O O3 0.081153 0.151932 0.175717
O O4 0.209401 0.160781 0.997249
O O5 0.773499 0.875510 0.640502
O O6 0.580279 0.878340 0.805128
O O7 0.567862 0.881039 0.639254
O O8 0.644069 0.000000 0.700743
O O9 0.000000 0.128035 0.500000
O O10 0.035441 0.092287 0.336871
O O11 0.112419 0.000000 0.429215
O O12 0.462231 0.000000 0.093567
O O13 0.500000 0.127974 0.000000
O O14 0.737540 0.500000 0.781289
O O15 0.628808 0.596745 0.715899
O O16 0.670337 0.631389 0.857122
O O17 0.845237 0.620818 0.680719
O O18 0.046419 0.000000 0.202410
O O19 0.500000 0.701688 0.000000
O O20 0.500000 0.877290 0.500000
O O21 0.527139 0.000000 0.400304
#
# Coordination Sequence:
#
# PCOD8093135 Si02
#       8
#     8   8   8   8   8   8   8   8
#     4  11  22  38  58  77 114 153 190 236 281 349
#     4   9  17  30  46  75 113 143 185 232 277 338
#     4   9  17  28  49  81 115 148 182 230 289 340
#     4  10  20  33  53  82 113 146 185 236 292 339
#     4  10  22  38  59  86 117 151 193 241 289 344
#     4  10  19  35  59  88 117 148 190 240 292 337
#     4  11  24  41  56  82 114 152 196 232 285 351
#     4   9  19  34  53  79 114 154 192 234 287 341
#
# _framework density 20.368528999999999
#
# number of rings (size 3 to 8) (size 9 to 14) (size 15 to 20)
#    0.000    2.125    2.500    0.750    3.500    1.250 
#    0.000    0.000    0.000    0.750    0.000    2.625 
#    0.000    0.000    0.000    0.000    0.000    0.000 
#
# Total GULP energy -396517.521143 kJ/mol
# GULP energy per Si atom -12391.172536 kJ/mol
# Density = 2.032217 g / cm^3
# Si number density = 20.368529 Si / 1000 Ang^3
#
#
#
# Elastic Constant Matrix: (Units=GPa)
#
#
# Indices 1 2 3 4 5 6 
#
# 1 151.7027 26.6462 79.7516 0.0000 4.7449 0.0000
# 2 26.6462 31.3724 29.3848 0.0000 -4.6920 0.0000
# 3 79.7516 29.3848 153.9274 0.0000 -9.0567 0.0000
# 4 0.0000 0.0000 0.0000 7.3512 0.0000 -2.5344
# 5 4.7449 -4.6920 -9.0567 0.0000 37.9348 0.0000
# 6 0.0000 0.0000 0.0000 -2.5344 0.0000 21.9628
#
#
#
# Elastic Compliance Matrix: (Units=1/GPa)
#
#
# Indices 1 2 3 4 5 6 
#
# 1 0.009785 -0.004664 -0.004346 0.000000 -0.002838 0.000000
# 2 -0.004664 0.041396 -0.005224 0.000000 0.004456 0.000000
# 3 -0.004346 -0.005224 0.009878 0.000000 0.002256 0.000000
# 4 0.000000 0.000000 0.000000 0.141668 0.000000 0.016348
# 5 -0.002838 0.004456 0.002256 0.000000 0.027806 0.000000
# 6 0.000000 0.000000 0.000000 0.016348 0.000000 0.047418
#
#
# Mechanical properties :
#
#
# Convention : Reuss Voigt Hill
#
# Bulk Modulus (GPa) = 30.68364 67.61865 49.15114
# Shear Modulus (GPa) = 15.75880 26.86441 21.31160
#
# Velocity S-wave (km/s) = 2.78453 3.63563 3.23817
# Velocity P-wave (km/s) = 5.04332 7.13396 6.17772
#
# Compressibility (1/GPa) = 0.03259066
#
# Stress axis : x y z
#
# Youngs Moduli (GPa) = 102.20017 24.15693 101.23210
#
# Poissons Ratio (x) = 0.11268 0.43997
# Poissons Ratio (y) = 0.47670 0.52880
# Poissons Ratio (z) = 0.44418 0.12619
#
# Static dielectric constant tensor:
#      x y z
#    x 3.952280 0.000000 -0.073730 
#    y 0.000000 3.264870 0.000000 
#    z -0.073730 0.000000 3.866170 
# 
# 
# High freq. dielectric constant tensor:
#      x y z
#    x 1.814080 0.000000 0.000120 
#    y 0.000000 1.736950 0.000000 
#    z 0.000120 0.000000 1.801140 
# 
# From -- ./inp_files/207695.got.cif
#   From: 2010.06.25/outbox.cif.g09.slc.cpg/sg12_104_cif.got.tgz:207695.got - 2010.06.28 00:19:55.
