data_PCOD8093688
_publ_section_title
;
Structure prediction by ZEFSAII (Michael W. Deem and Ramdas Pophale) SiO2 
 PCOD8093688
Probable space group: C 2/M
;
_chemical_formula_sum "Si O2"
_cell_formula_units_Z 56
_cell_length_a 19.588702
_cell_length_b 9.091438
_cell_length_c 24.427134
_cell_angle_alpha 90.000000
_cell_angle_beta 44.815818
_cell_angle_gamma 90.000000
_cell_volume 3066.162621
_symmetry_space_group_name_H-M "C 2/M"
_symmetry_group_IT_number 12
_symmetry_cell_setting 'monoclinic'
loop_
_space_group_symop_operation_xyz
x,y,z
-x,y,-z
-x,-y,-z
x,-y,z
1/2+x,1/2+y,z
1/2-x,1/2+y,-z
1/2-x,1/2-y,-z
1/2+x,1/2-y,z
loop_
_atom_site_type_symbol
_atom_site_label
_atom_site_fract_x
_atom_site_fract_y
_atom_site_fract_z
Si Si1 0.008243 0.333073 0.056648
Si Si2 0.839176 0.174538 0.202603
Si Si3 0.203885 0.827078 0.359368
Si Si4 0.674790 0.672998 0.502318
Si Si5 0.202485 0.171925 0.195906
Si Si6 0.731036 0.835882 0.956702
Si Si7 0.040683 0.170007 0.370309
O O1 0.967985 0.500000 0.082508
O O2 0.948798 0.230734 0.132421
O O3 0.000000 0.270681 0.000000
O O4 0.118717 0.325657 0.009438
O O5 0.796291 0.241496 0.282931
O O6 0.778670 0.231093 0.185377
O O7 0.836674 0.000000 0.207539
O O8 0.201298 0.791445 0.424716
O O9 0.106276 0.769525 0.383603
O O10 0.216442 0.000000 0.340181
O O11 0.678918 0.500000 0.512186
O O12 0.750000 0.750000 0.500000
O O13 0.566483 0.740601 0.572876
O O14 0.207111 0.225095 0.130306
O O15 0.095349 0.197412 0.281546
O O16 0.232701 0.000000 0.183470
O O17 0.765940 0.000000 0.947852
O O18 0.750000 0.750000 0.000000
O O19 0.023137 0.000000 0.392558
#
# Coordination Sequence:
#
# PCOD8093688 Si02
#       7
#     8   8   8   8   8   8   8
#     4  10  19  36  59  78 105 146 186 216 260 329
#     4  11  21  32  53  86 113 134 174 235 280 305
#     4   9  18  35  58  78 104 142 184 220 258 322
#     4  10  20  35  55  81 111 142 175 216 267 322
#     4   9  17  35  58  78 104 143 184 218 264 327
#     4  10  21  36  55  78 108 146 182 221 265 318
#     4   8  15  31  59  83  98 130 183 227 254 302
#
# _framework density 18.263871999999999
#
# number of rings (size 3 to 8) (size 9 to 14) (size 15 to 20)
#    0.000    2.429    1.429    2.571    0.000    3.714 
#    2.571    2.857    0.000    4.286    0.000    0.000 
#    0.000    0.000    0.000    0.000    0.000    0.000 
#
# Total GULP energy -347092.370699 kJ/mol
# GULP energy per Si atom -12396.156096 kJ/mol
# Density = 1.822230 g / cm^3
# Si number density = 18.263872 Si / 1000 Ang^3
#
#
#
# Elastic Constant Matrix: (Units=GPa)
#
#
# Indices 1 2 3 4 5 6 
#
# 1 91.5646 31.2333 64.6786 0.0000 16.3314 0.0000
# 2 31.2333 66.3337 55.1597 0.0000 6.4315 -0.0001
# 3 64.6786 55.1597 149.6622 0.0000 13.2028 0.0000
# 4 0.0000 0.0000 0.0000 20.0624 0.0000 3.7915
# 5 16.3314 6.4315 13.2028 0.0000 28.2953 0.0000
# 6 0.0000 -0.0001 0.0000 3.7915 0.0000 27.3590
#
#
#
# Elastic Compliance Matrix: (Units=1/GPa)
#
#
# Indices 1 2 3 4 5 6 
#
# 1 0.017109 -0.002527 -0.005884 0.000000 -0.006555 0.000000
# 2 -0.002527 0.022153 -0.007047 0.000000 -0.000289 0.000000
# 3 -0.005884 -0.007047 0.011870 0.000000 -0.000540 0.000000
# 4 0.000000 0.000000 0.000000 0.051185 0.000000 -0.007093
# 5 -0.006555 -0.000289 -0.000540 0.000000 0.039443 0.000000
# 6 0.000000 0.000000 0.000000 -0.007093 0.000000 0.037534
#
#
# Mechanical properties :
#
#
# Convention : Reuss Voigt Hill
#
# Bulk Modulus (GPa) = 49.46921 67.74486 58.60703
# Shear Modulus (GPa) = 23.04692 25.57593 24.31143
#
# Velocity S-wave (km/s) = 3.55616 3.74619 3.65241
# Velocity P-wave (km/s) = 6.63372 7.47561 7.06721
#
# Compressibility (1/GPa) = 0.02021460
#
# Stress axis : x y z
#
# Youngs Moduli (GPa) = 58.44950 45.13995 84.24851
#
# Poissons Ratio (x) = 0.11408 0.49573
# Poissons Ratio (y) = 0.14771 0.59372
# Poissons Ratio (z) = 0.34392 0.31811
#
# Static dielectric constant tensor:
#      x y z
#    x 3.152960 0.000000 -0.065450 
#    y 0.000000 3.184990 0.000000 
#    z -0.065450 0.000000 3.688810 
# 
# 
# High freq. dielectric constant tensor:
#      x y z
#    x 1.690200 0.000000 -0.001160 
#    y 0.000000 1.678810 0.000000 
#    z -0.001160 0.000000 1.727430 
# 
# From -- ./inp_files/342226.got.cif
#   From: 2010.06.25/outbox.cif.g09.slc.cpg/sg12_172_cif.got.tgz:342226.got - 2010.06.28 00:19:55.
