data_PCOD8093025
_publ_section_title
;
Structure prediction by ZEFSAII (Michael W. Deem and Ramdas Pophale) SiO2 
 PCOD8093025
Probable space group: C 2/M
;
_chemical_formula_sum "Si O2"
_cell_formula_units_Z 64
_cell_length_a 22.686569
_cell_length_b 8.887577
_cell_length_c 16.361328
_cell_angle_alpha 90.000000
_cell_angle_beta 93.641775
_cell_angle_gamma 90.000000
_cell_volume 3292.250578
_symmetry_space_group_name_H-M "C 2/M"
_symmetry_group_IT_number 12
_symmetry_cell_setting 'monoclinic'
loop_
_space_group_symop_operation_xyz
x,y,z
-x,y,-z
-x,-y,-z
x,-y,z
1/2+x,1/2+y,z
1/2-x,1/2+y,-z
1/2-x,1/2-y,-z
1/2+x,1/2-y,z
loop_
_atom_site_type_symbol
_atom_site_label
_atom_site_fract_x
_atom_site_fract_y
_atom_site_fract_z
Si Si1 0.749744 0.175932 0.088234
Si Si2 0.922817 0.679331 0.671158
Si Si3 0.839079 0.823956 0.542792
Si Si4 0.715563 0.824159 0.611777
Si Si5 0.166701 0.174781 0.762048
Si Si6 0.139066 0.671003 0.173698
Si Si7 0.468524 0.323529 0.242572
Si Si8 0.484010 0.827899 0.909502
O O1 0.810235 0.206875 0.143552
O O2 0.696468 0.247827 0.138147
O O3 0.738714 0.000000 0.073196
O O4 0.750000 0.250000 0.000000
O O5 0.925012 0.500000 0.671190
O O6 0.896358 0.741604 0.584772
O O7 0.882264 0.743688 0.742260
O O8 0.989630 0.738254 0.688964
O O9 0.782361 0.783253 0.592841
O O10 0.830052 0.763707 0.450507
O O11 0.851698 0.000000 0.540403
O O12 0.706045 0.771223 0.703285
O O13 0.703380 0.000000 0.601335
O O14 0.098910 0.224079 0.747160
O O15 0.175439 0.000000 0.741466
O O16 0.155773 0.500000 0.195047
O O17 0.086345 0.683864 0.104168
O O18 0.477909 0.500000 0.254065
O O19 0.483351 0.277851 0.151707
O O20 0.505035 0.000000 0.897585
O O21 0.500000 0.767613 0.000000
#
# Coordination Sequence:
#
# PCOD8093025 Si02
#       8
#     8   8   8   8   8   8   8   8
#     4  10  21  36  53  76 105 140 181 223 273 331
#     4  10  19  35  59  83 108 143 187 233 279 328
#     4  10  20  35  58  88 121 148 179 226 280 330
#     4  10  21  36  58  89 117 148 189 226 269 326
#     4  10  22  39  56  76 113 154 186 227 285 339
#     4   8  16  31  50  73 101 134 173 220 272 321
#     4  10  21  36  53  77 109 147 187 230 286 340
#     4   9  18  32  52  76 101 134 181 233 281 330
#
# _framework density 19.439589000000002
#
# number of rings (size 3 to 8) (size 9 to 14) (size 15 to 20)
#    0.000    2.375    0.000    3.000    1.750    4.250 
#    0.000    3.750    0.000    3.750    0.000    0.000 
#    0.000    0.000    0.000    0.000    0.000    0.000 
#
# Total GULP energy -396805.113097 kJ/mol
# GULP energy per Si atom -12400.159784 kJ/mol
# Density = 1.939534 g / cm^3
# Si number density = 19.439589 Si / 1000 Ang^3
#
#
#
# Elastic Constant Matrix: (Units=GPa)
#
#
# Indices 1 2 3 4 5 6 
#
# 1 85.6368 34.1664 32.8462 0.0000 9.0000 0.0000
# 2 34.1664 65.2064 30.9633 0.0000 7.6965 0.0000
# 3 32.8462 30.9633 89.7297 0.0000 20.3160 0.0000
# 4 0.0000 0.0000 0.0000 35.1797 0.0000 1.9474
# 5 9.0000 7.6965 20.3160 0.0000 32.2521 0.0000
# 6 0.0000 0.0000 0.0000 1.9474 0.0000 25.9341
#
#
#
# Elastic Compliance Matrix: (Units=1/GPa)
#
#
# Indices 1 2 3 4 5 6 
#
# 1 0.015627 -0.006535 -0.003302 0.000000 -0.000721 0.000000
# 2 -0.006535 0.021080 -0.004847 0.000000 -0.000154 0.000000
# 3 -0.003302 -0.004847 0.015810 0.000000 -0.007881 0.000000
# 4 0.000000 0.000000 0.000000 0.028544 0.000000 -0.002143
# 5 -0.000721 -0.000154 -0.007881 0.000000 0.036208 0.000000
# 6 0.000000 0.000000 0.000000 -0.002143 0.000000 0.038720
#
#
# Mechanical properties :
#
#
# Convention : Reuss Voigt Hill
#
# Bulk Modulus (GPa) = 43.19884 48.50275 45.85080
# Shear Modulus (GPa) = 25.89687 28.17964 27.03826
#
# Velocity S-wave (km/s) = 3.65385 3.81149 3.73350
# Velocity P-wave (km/s) = 6.33018 6.66143 6.49792
#
# Compressibility (1/GPa) = 0.02314877
#
# Stress axis : x y z
#
# Youngs Moduli (GPa) = 63.99292 47.43867 63.25008
#
# Poissons Ratio (x) = 0.31001 0.20885
# Poissons Ratio (y) = 0.41819 0.30658
# Poissons Ratio (z) = 0.21130 0.22994
#
# Static dielectric constant tensor:
#      x y z
#    x 3.629320 0.000000 0.092750 
#    y 0.000000 3.364760 0.000000 
#    z 0.092750 0.000000 3.507710 
# 
# 
# High freq. dielectric constant tensor:
#      x y z
#    x 1.755370 0.000000 0.015930 
#    y 0.000000 1.743310 0.000000 
#    z 0.015930 0.000000 1.753720 
# 
# From -- ./inp_files/238655.got.cif
#   From: 2010.06.25/outbox.cif.g09.slc.cpg/sg12_120_cif.got.tgz:238655.got - 2010.06.28 00:19:55.
