data_PCOD8093389
_publ_section_title
;
Structure prediction by ZEFSAII (Michael W. Deem and Ramdas Pophale) SiO2 
 PCOD8093389
Probable space group: C 2/M
;
_chemical_formula_sum "Si O2"
_cell_formula_units_Z 56
_cell_length_a 8.890781
_cell_length_b 26.703985
_cell_length_c 17.461030
_cell_angle_alpha 90.000000
_cell_angle_beta 43.974306
_cell_angle_gamma 90.000000
_cell_volume 2878.427879
_symmetry_space_group_name_H-M "C 2/M"
_symmetry_group_IT_number 12
_symmetry_cell_setting 'monoclinic'
loop_
_space_group_symop_operation_xyz
x,y,z
-x,y,-z
-x,-y,-z
x,-y,z
1/2+x,1/2+y,z
1/2-x,1/2+y,-z
1/2-x,1/2-y,-z
1/2+x,1/2-y,z
loop_
_atom_site_type_symbol
_atom_site_label
_atom_site_fract_x
_atom_site_fract_y
_atom_site_fract_z
Si Si1 0.202870 0.714402 0.875740
Si Si2 0.661739 0.264508 0.735810
Si Si3 0.755419 0.834269 0.615574
Si Si4 0.342570 0.945369 0.985017
Si Si5 0.965904 0.059586 0.227753
Si Si6 0.298281 0.112551 0.208048
Si Si7 0.912046 0.364033 0.615629
O O1 0.416903 0.720584 0.847616
O O2 0.257307 0.747817 0.781569
O O3 0.174750 0.657378 0.861829
O O4 0.000000 0.733018 0.000000
O O5 0.670059 0.220482 0.669910
O O6 0.782834 0.312154 0.656616
O O7 0.755746 0.871353 0.686988
O O8 0.609059 0.858300 0.602750
O O9 0.000000 0.828080 0.500000
O O10 0.460371 0.911658 0.878042
O O11 0.315764 0.000000 0.958044
O O12 0.500000 0.947422 0.000000
O O13 0.106804 0.926758 0.100000
O O14 0.743195 0.090282 0.302206
O O15 0.105362 0.075754 0.251443
O O16 0.919717 0.000000 0.250128
O O17 0.000000 0.377687 0.500000
#
# Coordination Sequence:
#
# PCOD8093389 Si02
#       7
#     8   8   8   8   8   8   8
#     4  11  21  36  58  91 130 160 191 237 292 353
#     4  11  23  39  60  89 121 160 200 241 291 355
#     4  11  25  42  60  87 117 156 205 249 295 349
#     4   8  15  31  59  91 119 151 192 236 284 350
#     4  10  20  38  64  93 121 154 197 242 295 354
#     4  10  19  35  62  91 120 158 198 239 287 348
#     4  12  25  41  63  85 117 156 202 252 300 352
#
# _framework density 19.455064
#
# number of rings (size 3 to 8) (size 9 to 14) (size 15 to 20)
#    0.000    1.571    2.857    4.286    2.000    1.429 
#    0.000    2.143    0.000    4.714    0.000    0.000 
#    0.000    0.000    0.000    0.000    0.000    0.000 
#
# Total GULP energy -347104.444073 kJ/mol
# GULP energy per Si atom -12396.587288 kJ/mol
# Density = 1.941078 g / cm^3
# Si number density = 19.455064 Si / 1000 Ang^3
#
#
#
# Elastic Constant Matrix: (Units=GPa)
#
#
# Indices 1 2 3 4 5 6 
#
# 1 75.3211 28.7956 31.9787 0.0000 -15.1985 0.0000
# 2 28.7956 98.3985 44.7273 0.0000 -7.4036 0.0000
# 3 31.9787 44.7273 115.6655 0.0000 -17.8908 0.0000
# 4 0.0000 0.0000 0.0000 25.8017 0.0000 2.0658
# 5 -15.1985 -7.4036 -17.8908 0.0000 32.8986 0.0000
# 6 0.0000 0.0000 0.0000 2.0658 0.0000 6.5416
#
#
#
# Elastic Compliance Matrix: (Units=1/GPa)
#
#
# Indices 1 2 3 4 5 6 
#
# 1 0.016742 -0.003358 -0.002458 0.000000 0.005642 0.000000
# 2 -0.003358 0.013005 -0.004245 0.000000 -0.000933 0.000000
# 3 -0.002458 -0.004245 0.011621 0.000000 0.004229 0.000000
# 4 0.000000 0.000000 0.000000 0.039763 0.000000 -0.012557
# 5 0.005642 -0.000933 0.004229 0.000000 0.035093 0.000000
# 6 0.000000 0.000000 0.000000 -0.012557 0.000000 0.156833
#
#
# Mechanical properties :
#
#
# Convention : Reuss Voigt Hill
#
# Bulk Modulus (GPa) = 47.06541 55.59870 51.33206
# Shear Modulus (GPa) = 16.65229 25.30728 20.97979
#
# Velocity S-wave (km/s) = 2.92881 3.61058 3.28742
# Velocity P-wave (km/s) = 5.97341 6.78394 6.39153
#
# Compressibility (1/GPa) = 0.02124702
#
# Stress axis : x y z
#
# Youngs Moduli (GPa) = 59.72942 76.89536 86.05382
#
# Poissons Ratio (x) = 0.25820 0.21149
# Poissons Ratio (y) = 0.20056 0.36528
# Poissons Ratio (z) = 0.14679 0.32641
#
# Static dielectric constant tensor:
#      x y z
#    x 3.337260 0.000000 -0.172710 
#    y 0.000000 3.654630 0.000000 
#    z -0.172710 0.000000 3.644180 
# 
# 
# High freq. dielectric constant tensor:
#      x y z
#    x 1.735560 0.000000 -0.013690 
#    y 0.000000 1.759170 0.000000 
#    z -0.013690 0.000000 1.767160 
# 
# From -- ./inp_files/124243.got.cif
#   From: 2010.06.25/outbox.cif.g09.slc.cpg/sg12_63_cif.got.tgz:124243.got - 2010.06.28 00:19:55.
