data_PCOD8093392
_publ_section_title
;
Structure prediction by ZEFSAII (Michael W. Deem and Ramdas Pophale) SiO2 
 PCOD8093392
Probable space group: C 2/M
;
_chemical_formula_sum "Si O2"
_cell_formula_units_Z 56
_cell_length_a 16.558863
_cell_length_b 15.166317
_cell_length_c 22.320343
_cell_angle_alpha 90.000000
_cell_angle_beta 27.490095
_cell_angle_gamma 90.000000
_cell_volume 2587.455272
_symmetry_space_group_name_H-M "C 2/M"
_symmetry_group_IT_number 12
_symmetry_cell_setting 'monoclinic'
loop_
_space_group_symop_operation_xyz
x,y,z
-x,y,-z
-x,-y,-z
x,-y,z
1/2+x,1/2+y,z
1/2-x,1/2+y,-z
1/2-x,1/2-y,-z
1/2+x,1/2-y,z
loop_
_atom_site_type_symbol
_atom_site_label
_atom_site_fract_x
_atom_site_fract_y
_atom_site_fract_z
Si Si1 0.852380 0.357623 0.485340
Si Si2 0.177426 0.101144 0.718897
Si Si3 0.997622 0.278399 0.157752
Si Si4 0.281208 0.904210 0.783453
Si Si5 0.980804 0.827059 0.362892
Si Si6 0.271308 0.769543 0.887747
Si Si7 0.665691 0.600480 0.350749
O O1 0.829153 0.390516 0.569007
O O2 0.897400 0.253554 0.455540
O O3 0.678520 0.381072 0.561783
O O4 0.008300 0.408744 0.349461
O O5 0.032541 0.176066 0.801984
O O6 0.248548 0.129042 0.737458
O O7 0.104678 0.000000 0.766941
O O8 0.822039 0.334310 0.265992
O O9 0.118411 0.317536 0.131574
O O10 0.103316 0.280574 0.025603
O O11 0.198711 0.841446 0.888187
O O12 0.199171 0.000000 0.848655
O O13 0.104421 0.797911 0.227715
O O14 0.101918 0.887580 0.324713
O O15 0.500000 0.623776 0.500000
O O16 0.729463 0.500000 0.317992
#
# Coordination Sequence:
#
# PCOD8093392 Si02
#       7
#     8   8   8   8   8   8   8
#     4  10  19  35  62  92 129 169 207 261 325 376
#     4  11  22  37  61  94 128 163 205 264 328 382
#     4  11  23  45  66  88 130 169 215 268 318 385
#     4  10  22  36  59  95 127 162 208 260 322 386
#     4  10  21  39  61  93 123 169 220 261 315 380
#     4  10  23  42  66  90 119 174 219 259 322 378
#     4  11  26  43  66  98 131 171 213 265 328 387
#
# _framework density 21.642887000000002
#
# number of rings (size 3 to 8) (size 9 to 14) (size 15 to 20)
#    0.000    1.571    1.429    3.429    4.000    5.714 
#    0.000    5.000    0.000    0.000    0.000    0.000 
#    0.000    0.000    0.000    0.000    0.000    0.000 
#
# Total GULP energy -347118.219192 kJ/mol
# GULP energy per Si atom -12397.079257 kJ/mol
# Density = 2.159363 g / cm^3
# Si number density = 21.642887 Si / 1000 Ang^3
#
#
#
# Elastic Constant Matrix: (Units=GPa)
#
#
# Indices 1 2 3 4 5 6 
#
# 1 111.1584 43.4070 38.4048 -0.0257 16.3024 0.0035
# 2 43.4070 85.8302 32.5323 -0.0136 -0.2559 -0.0109
# 3 38.4048 32.5323 96.6403 -0.0112 11.9676 -0.0271
# 4 -0.0257 -0.0136 -0.0112 11.8601 0.0129 1.5807
# 5 16.3024 -0.2559 11.9676 0.0129 37.8462 -0.0005
# 6 0.0035 -0.0109 -0.0271 1.5807 -0.0005 20.6951
#
#
#
# Elastic Compliance Matrix: (Units=1/GPa)
#
#
# Indices 1 2 3 4 5 6 
#
# 1 0.012723 -0.005447 -0.002643 0.000025 -0.004681 -0.000010
# 2 -0.005447 0.015777 -0.003591 -0.000002 0.003588 0.000005
# 3 -0.002643 -0.003591 0.012977 0.000004 -0.002989 0.000015
# 4 0.000025 -0.000002 0.000004 0.085184 -0.000041 -0.006507
# 5 -0.004681 0.003588 -0.002989 -0.000041 0.029409 0.000003
# 6 -0.000010 0.000005 0.000015 -0.006507 0.000003 0.048818
#
#
# Mechanical properties :
#
#
# Convention : Reuss Voigt Hill
#
# Bulk Modulus (GPa) = 55.19932 58.03523 56.61728
# Shear Modulus (GPa) = 21.34142 26.03261 23.68702
#
# Velocity S-wave (km/s) = 3.14358 3.47194 3.31183
# Velocity P-wave (km/s) = 6.22384 6.55329 6.39069
#
# Compressibility (1/GPa) = 0.01811616
#
# Stress axis : x y z
#
# Youngs Moduli (GPa) = 78.59987 63.38259 77.05973
#
# Poissons Ratio (x) = 0.34521 0.20365
# Poissons Ratio (y) = 0.42810 0.27673
# Poissons Ratio (z) = 0.20772 0.22761
#
# Static dielectric constant tensor:
#      x y z
#    x 4.063020 -0.000020 0.104270 
#    y -0.000020 3.720560 0.000100 
#    z 0.104270 0.000100 3.834940 
# 
# 
# High freq. dielectric constant tensor:
#      x y z
#    x 1.860350 0.000000 0.009590 
#    y 0.000000 1.826620 0.000010 
#    z 0.009590 0.000010 1.849950 
# 
# From -- ./inp_files/311703.got.cif
#   From: 2010.06.25/outbox.cif.g09.slc.cpg/sg12_156_cif.got.tgz:311703.got - 2010.06.28 00:19:55.
