data_PCOD8093014
_publ_section_title
;
Structure prediction by ZEFSAII (Michael W. Deem and Ramdas Pophale) SiO2 
 PCOD8093014
Probable space group: C 2/M
;
_chemical_formula_sum "Si O2"
_cell_formula_units_Z 64
_cell_length_a 8.856535
_cell_length_b 17.220098
_cell_length_c 22.835696
_cell_angle_alpha 90.000000
_cell_angle_beta 97.527703
_cell_angle_gamma 90.000000
_cell_volume 3452.666128
_symmetry_space_group_name_H-M "C 2/M"
_symmetry_group_IT_number 12
_symmetry_cell_setting 'monoclinic'
loop_
_space_group_symop_operation_xyz
x,y,z
-x,y,-z
-x,-y,-z
x,-y,z
1/2+x,1/2+y,z
1/2-x,1/2+y,-z
1/2-x,1/2-y,-z
1/2+x,1/2-y,z
loop_
_atom_site_type_symbol
_atom_site_label
_atom_site_fract_x
_atom_site_fract_y
_atom_site_fract_z
Si Si1 0.389852 0.230705 0.725877
Si Si2 0.928526 0.909225 0.556639
Si Si3 0.606907 0.692679 0.645291
Si Si4 0.327198 0.808409 0.194472
Si Si5 0.154567 0.302467 0.538959
Si Si6 0.653695 0.858786 0.989613
Si Si7 0.343709 0.412139 0.895938
Si Si8 0.121061 0.207660 0.912821
O O1 0.486812 0.284900 0.688491
O O2 0.272798 0.177813 0.682458
O O3 0.506019 0.176845 0.768757
O O4 0.295762 0.288031 0.762698
O O5 0.760575 0.875595 0.559925
O O6 0.000000 0.875876 0.500000
O O7 0.047135 0.886713 0.613664
O O8 0.910331 0.000000 0.553237
O O9 0.613395 0.759965 0.597078
O O10 0.277084 0.887931 0.160231
O O11 0.336594 0.736119 0.149906
O O12 0.250000 0.250000 0.500000
O O13 0.000000 0.331355 0.500000
O O14 0.760723 0.911233 0.954449
O O15 0.594223 0.780874 0.953825
O O16 0.500000 0.904777 0.000000
O O17 0.740017 0.841394 0.054405
O O18 0.403031 0.500000 0.887359
O O19 0.474762 0.347716 0.902983
#
# Coordination Sequence:
#
# PCOD8093014 Si02
#       8
#     8   8   8   8   8   8   8   8
#     4  10  21  34  64  85 108 143 211 242 279 322
#     4  11  23  38  57  88 126 156 185 236 298 349
#     4  11  19  36  60  90 111 151 194 247 278 338
#     4  10  20  38  59  87 107 148 196 246 276 341
#     4  12  19  34  62  90 117 157 199 236 281 350
#     4  10  20  33  58  86 110 146 187 231 276 338
#     4  11  23  38  57  84 120 149 179 231 295 350
#     4  10  19  35  59  82 111 148 189 229 279 345
#
# _framework density 18.536398999999999
#
# number of rings (size 3 to 8) (size 9 to 14) (size 15 to 20)
#    0.000    1.375    5.000    2.625    1.750    1.500 
#    0.000    1.250    0.000    0.000    0.000    0.000 
#    0.000    0.000    0.000    0.000    0.000    0.000 
#
# Total GULP energy -396748.128986 kJ/mol
# GULP energy per Si atom -12398.379031 kJ/mol
# Density = 1.849421 g / cm^3
# Si number density = 18.536399 Si / 1000 Ang^3
#
#
#
# Elastic Constant Matrix: (Units=GPa)
#
#
# Indices 1 2 3 4 5 6 
#
# 1 116.3826 25.9733 47.5634 0.0000 15.3696 0.0000
# 2 25.9733 64.4212 20.2947 0.0000 6.7973 0.0000
# 3 47.5634 20.2947 105.4692 0.0000 10.9967 0.0000
# 4 0.0000 0.0000 0.0000 11.9977 0.0000 0.7143
# 5 15.3696 6.7973 10.9967 0.0000 45.3453 0.0000
# 6 0.0000 0.0000 0.0000 0.7143 0.0000 18.3625
#
#
#
# Elastic Compliance Matrix: (Units=1/GPa)
#
#
# Indices 1 2 3 4 5 6 
#
# 1 0.011317 -0.002964 -0.004288 0.000000 -0.002352 0.000000
# 2 -0.002964 0.017437 -0.001899 0.000000 -0.001149 0.000000
# 3 -0.004288 -0.001899 0.011900 0.000000 -0.001148 0.000000
# 4 0.000000 0.000000 0.000000 0.083543 0.000000 -0.003250
# 5 -0.002352 -0.001149 -0.001148 0.000000 0.023301 0.000000
# 6 0.000000 0.000000 0.000000 -0.003250 0.000000 0.054585
#
#
# Mechanical properties :
#
#
# Convention : Reuss Voigt Hill
#
# Bulk Modulus (GPa) = 44.73714 52.65953 48.69834
# Shear Modulus (GPa) = 21.94567 27.97053 24.95810
#
# Velocity S-wave (km/s) = 3.44455 3.88874 3.67336
# Velocity P-wave (km/s) = 6.32511 6.97377 6.65735
#
# Compressibility (1/GPa) = 0.02235279
#
# Stress axis : x y z
#
# Youngs Moduli (GPa) = 88.36441 57.34865 84.03137
#
# Poissons Ratio (x) = 0.16996 0.36033
# Poissons Ratio (y) = 0.26189 0.15958
# Poissons Ratio (z) = 0.37891 0.10891
#
# Static dielectric constant tensor:
#      x y z
#    x 3.906090 0.000000 0.221340 
#    y 0.000000 3.001750 0.000000 
#    z 0.221340 0.000000 3.786580 
# 
# 
# High freq. dielectric constant tensor:
#      x y z
#    x 1.740670 0.000000 0.004460 
#    y 0.000000 1.670160 0.000000 
#    z 0.004460 0.000000 1.732980 
# 
# From -- ./inp_files/300784.got.cif
#   From: 2010.06.25/outbox.cif.g09.slc.cpg/sg12_151_cif.got.tgz:300784.got - 2010.06.28 00:19:55.
