data_PCOD8093216
_publ_section_title
;
Structure prediction by ZEFSAII (Michael W. Deem and Ramdas Pophale) SiO2 
 PCOD8093216
Probable space group: C 2/M
;
_chemical_formula_sum "Si O2"
_cell_formula_units_Z 56
_cell_length_a 18.759494
_cell_length_b 8.796923
_cell_length_c 25.236806
_cell_angle_alpha 90.000000
_cell_angle_beta 135.119705
_cell_angle_gamma 90.000000
_cell_volume 2938.746030
_symmetry_space_group_name_H-M "C 2/M"
_symmetry_group_IT_number 12
_symmetry_cell_setting 'monoclinic'
loop_
_space_group_symop_operation_xyz
x,y,z
-x,y,-z
-x,-y,-z
x,-y,z
1/2+x,1/2+y,z
1/2-x,1/2+y,-z
1/2-x,1/2-y,-z
1/2+x,1/2-y,z
loop_
_atom_site_type_symbol
_atom_site_label
_atom_site_fract_x
_atom_site_fract_y
_atom_site_fract_z
Si Si1 0.477684 0.334207 0.427786
Si Si2 0.916285 0.321740 0.913973
Si Si3 0.803591 0.332053 0.296298
Si Si4 0.989495 0.321734 0.734337
Si Si5 0.919416 0.827788 0.802250
Si Si6 0.191518 0.174043 0.806666
Si Si7 0.641877 0.678781 0.429083
O O1 0.500000 0.354464 0.500000
O O2 0.441789 0.500000 0.387147
O O3 0.393328 0.203345 0.383596
O O4 0.572639 0.280407 0.442919
O O5 0.921370 0.500000 0.903729
O O6 0.938869 0.232766 0.871730
O O7 0.807132 0.281166 0.882940
O O8 0.000000 0.270393 0.000000
O O9 0.816553 0.500000 0.277571
O O10 0.699415 0.322948 0.273006
O O11 0.813144 0.199050 0.258460
O O12 0.975032 0.500000 0.719615
O O13 0.970128 0.276201 0.784798
O O14 0.912235 0.242196 0.652674
O O15 0.107026 0.279304 0.788389
O O16 0.961268 0.000000 0.820616
O O17 0.167101 0.000000 0.808022
O O18 0.656239 0.500000 0.428344
O O19 0.750000 0.750000 0.500000
#
# Coordination Sequence:
#
# PCOD8093216 Si02
#       7
#     8   8   8   8   8   8   8
#     4  10  22  38  56  79 109 147 192 238 289 346
#     4   9  19  38  64  93 123 155 192 235 288 351
#     4  10  20  35  56  82 109 144 190 238 285 341
#     4  12  24  39  60  85 117 157 201 247 293 349
#     4  10  22  38  58  88 120 152 195 242 291 346
#     4  10  19  35  60  86 115 152 189 233 286 344
#     4  11  24  41  59  83 117 156 196 246 301 352
#
# _framework density 19.055745999999999
#
# number of rings (size 3 to 8) (size 9 to 14) (size 15 to 20)
#    0.000    1.714    1.429    3.000    2.000    3.429 
#    0.000    0.714    0.000    0.000    0.000    0.000 
#    0.000    0.000    0.000    0.000    0.000    0.000 
#
# Total GULP energy -347032.773327 kJ/mol
# GULP energy per Si atom -12394.027619 kJ/mol
# Density = 1.901237 g / cm^3
# Si number density = 19.055746 Si / 1000 Ang^3
#
#
#
# Elastic Constant Matrix: (Units=GPa)
#
#
# Indices 1 2 3 4 5 6 
#
# 1 98.1981 43.4543 50.2822 0.0000 1.8304 0.0000
# 2 43.4543 98.8784 51.5489 0.0000 6.0318 0.0000
# 3 50.2822 51.5489 123.3674 0.0000 12.6685 0.0000
# 4 0.0000 0.0000 0.0000 28.1996 0.0000 -1.7608
# 5 1.8304 6.0318 12.6685 0.0000 21.8173 0.0000
# 6 0.0000 0.0000 0.0000 -1.7608 0.0000 35.6004
#
#
#
# Elastic Compliance Matrix: (Units=1/GPa)
#
#
# Indices 1 2 3 4 5 6 
#
# 1 0.014169 -0.004135 -0.004299 0.000000 0.002451 0.000000
# 2 -0.004135 0.014141 -0.004102 0.000000 -0.001181 0.000000
# 3 -0.004299 -0.004102 0.012143 0.000000 -0.005556 0.000000
# 4 0.000000 0.000000 0.000000 0.035571 0.000000 0.001759
# 5 0.002451 -0.001181 -0.005556 0.000000 0.049182 0.000000
# 6 0.000000 0.000000 0.000000 0.001759 0.000000 0.028177
#
#
# Mechanical properties :
#
#
# Convention : Reuss Voigt Hill
#
# Bulk Modulus (GPa) = 65.01764 67.89054 66.45409
# Shear Modulus (GPa) = 27.23572 28.80068 28.01820
#
# Velocity S-wave (km/s) = 3.78466 3.89188 3.83865
# Velocity P-wave (km/s) = 7.30014 7.47665 7.38892
#
# Compressibility (1/GPa) = 0.01538044
#
# Stress axis : x y z
#
# Youngs Moduli (GPa) = 70.57723 70.71402 82.35458
#
# Poissons Ratio (x) = 0.29242 0.35402
# Poissons Ratio (y) = 0.29185 0.33784
# Poissons Ratio (z) = 0.30339 0.29009
#
# Static dielectric constant tensor:
#      x y z
#    x 2.737860 0.000000 -0.218110 
#    y 0.000000 3.693800 0.000000 
#    z -0.218110 0.000000 3.254590 
# 
# 
# High freq. dielectric constant tensor:
#      x y z
#    x 1.739220 0.000000 0.011300 
#    y 0.000000 1.752260 0.000000 
#    z 0.011300 0.000000 1.731130 
# 
# From -- ./inp_files/362993.got.cif
#   From: 2010.06.25/outbox.cif.g09.slc.cpg/sg12_182_cif.got.tgz:362993.got - 2010.06.28 00:19:55.
