data_PCOD8093349
_publ_section_title
;
Structure prediction by ZEFSAII (Michael W. Deem and Ramdas Pophale) SiO2 
 PCOD8093349
Probable space group: C 2/M
;
_chemical_formula_sum "Si O2"
_cell_formula_units_Z 64
_cell_length_a 26.308344
_cell_length_b 17.813316
_cell_length_c 11.463325
_cell_angle_alpha 90.000000
_cell_angle_beta 147.207361
_cell_angle_gamma 90.000000
_cell_volume 2909.562681
_symmetry_space_group_name_H-M "C 2/M"
_symmetry_group_IT_number 12
_symmetry_cell_setting 'monoclinic'
loop_
_space_group_symop_operation_xyz
x,y,z
-x,y,-z
-x,-y,-z
x,-y,z
1/2+x,1/2+y,z
1/2-x,1/2+y,-z
1/2-x,1/2-y,-z
1/2+x,1/2-y,z
loop_
_atom_site_type_symbol
_atom_site_label
_atom_site_fract_x
_atom_site_fract_y
_atom_site_fract_z
Si Si1 0.920624 0.268784 0.070573
Si Si2 0.642024 0.653566 0.588022
Si Si3 0.788809 0.818092 0.646261
Si Si4 0.628001 0.188619 0.493391
Si Si5 0.665692 0.304931 0.877803
Si Si6 0.079720 0.088149 0.244184
Si Si7 0.833724 0.583381 0.974010
Si Si8 0.179568 0.586192 0.783936
O O1 0.905294 0.235117 0.170591
O O2 0.030811 0.279176 0.254412
O O3 0.874764 0.211782 0.890889
O O4 0.882133 0.353787 0.988300
O O5 0.685654 0.735510 0.639254
O O6 0.604295 0.665779 0.647688
O O7 0.564016 0.626140 0.342627
O O8 0.722113 0.590556 0.743015
O O9 0.750000 0.750000 0.500000
O O10 0.699230 0.853057 0.542361
O O11 0.823147 0.882422 0.623895
O O12 0.607690 0.132112 0.561674
O O13 0.750000 0.250000 0.000000
O O14 0.716900 0.377400 0.033885
O O15 0.083525 0.000000 0.268587
O O16 0.000000 0.112645 0.000000
O O17 0.864412 0.500000 0.991988
O O18 0.858677 0.594361 0.158546
O O19 0.184211 0.500000 0.753318
#
# Coordination Sequence:
#
# PCOD8093349 Si02
#       8
#     8   8   8   8   8   8   8   8
#     4  12  23  39  64 100 134 172 225 275 329 414
#     4  11  19  39  65  94 124 167 223 277 334 394
#     4  12  24  43  68  95 132 172 225 282 330 395
#     4  12  23  38  64  93 129 177 217 270 334 394
#     4  11  18  39  66  95 134 172 223 273 337 399
#     4  11  25  45  69  98 132 175 232 289 347 405
#     4  10  19  35  61  90 128 172 215 265 322 395
#     4  10  20  36  59  92 135 175 211 262 336 403
#
# _framework density 21.996431999999999
#
# number of rings (size 3 to 8) (size 9 to 14) (size 15 to 20)
#    0.000    0.875    7.500    1.125    0.000    3.500 
#    0.000    1.250    0.000    0.750    0.000   10.500 
#    0.000    0.000    0.000    0.000    0.000    0.000 
#
# Total GULP energy -396579.345054 kJ/mol
# GULP energy per Si atom -12393.104533 kJ/mol
# Density = 2.194637 g / cm^3
# Si number density = 21.996432 Si / 1000 Ang^3
#
#
#
# Elastic Constant Matrix: (Units=GPa)
#
#
# Indices 1 2 3 4 5 6 
#
# 1 51.2505 14.3068 32.7261 0.0000 -2.6514 0.0000
# 2 14.3068 104.4567 16.5954 0.0000 -7.2472 0.0000
# 3 32.7261 16.5954 106.9851 0.0000 -18.4243 0.0000
# 4 0.0000 0.0000 0.0000 30.2344 0.0000 -5.2227
# 5 -2.6514 -7.2472 -18.4243 0.0000 33.7246 0.0000
# 6 0.0000 0.0000 0.0000 -5.2227 0.0000 26.0077
#
#
#
# Elastic Compliance Matrix: (Units=1/GPa)
#
#
# Indices 1 2 3 4 5 6 
#
# 1 0.024983 -0.002383 -0.007752 0.000000 -0.002783 0.000000
# 2 -0.002383 0.010104 -0.000548 0.000000 0.001684 0.000000
# 3 -0.007752 -0.000548 0.012891 0.000000 0.006315 0.000000
# 4 0.000000 0.000000 0.000000 0.034263 0.000000 0.006880
# 5 -0.002783 0.001684 0.006315 0.000000 0.033245 0.000000
# 6 0.000000 0.000000 0.000000 0.006880 0.000000 0.039832
#
#
# Mechanical properties :
#
#
# Convention : Reuss Voigt Hill
#
# Bulk Modulus (GPa) = 37.57794 43.32766 40.45280
# Shear Modulus (GPa) = 26.94613 31.26430 29.10521
#
# Velocity S-wave (km/s) = 3.50383 3.77415 3.64150
# Velocity P-wave (km/s) = 5.78704 6.22355 6.00926
#
# Compressibility (1/GPa) = 0.02661136
#
# Stress axis : x y z
#
# Youngs Moduli (GPa) = 40.02676 98.97341 77.57383
#
# Poissons Ratio (x) = 0.23589 0.60134
# Poissons Ratio (y) = 0.09540 0.04252
# Poissons Ratio (z) = 0.31028 0.05425
#
# Static dielectric constant tensor:
#      x y z
#    x 2.489260 0.000000 -0.745000 
#    y 0.000000 4.074510 0.000000 
#    z -0.745000 0.000000 3.982920 
# 
# 
# High freq. dielectric constant tensor:
#      x y z
#    x 1.836240 0.000000 -0.020070 
#    y 0.000000 1.864090 0.000000 
#    z -0.020070 0.000000 1.863890 
# 
# From -- ./inp_files/190084.got.cif
#   From: 2010.06.25/outbox.cif.g09.slc.cpg/sg12_96_cif.got.tgz:190084.got - 2010.06.28 00:19:55.
