data_PCOD8093884
_publ_section_title
;
Structure prediction by ZEFSAII (Michael W. Deem and Ramdas Pophale) SiO2 
 PCOD8093884
Probable space group: C 2/M
;
_chemical_formula_sum "Si O2"
_cell_formula_units_Z 56
_cell_length_a 19.792372
_cell_length_b 15.066978
_cell_length_c 22.934204
_cell_angle_alpha 90.000000
_cell_angle_beta 156.064255
_cell_angle_gamma 90.000000
_cell_volume 2774.759819
_symmetry_space_group_name_H-M "C 2/M"
_symmetry_group_IT_number 12
_symmetry_cell_setting 'monoclinic'
loop_
_space_group_symop_operation_xyz
x,y,z
-x,y,-z
-x,-y,-z
x,-y,z
1/2+x,1/2+y,z
1/2-x,1/2+y,-z
1/2-x,1/2-y,-z
1/2+x,1/2-y,z
loop_
_atom_site_type_symbol
_atom_site_label
_atom_site_fract_x
_atom_site_fract_y
_atom_site_fract_z
Si Si1 0.624628 0.099211 0.548080
Si Si2 0.031305 0.897280 0.648728
Si Si3 0.500617 0.405690 0.137230
Si Si4 0.268401 0.253254 0.445166
Si Si5 0.364919 0.898108 0.845076
Si Si6 0.983722 0.717064 0.132362
Si Si7 0.825249 0.901955 0.116278
O O1 0.500000 0.133628 0.500000
O O2 0.803679 0.095319 0.720100
O O3 0.630341 0.166613 0.497813
O O4 0.573168 0.000000 0.485658
O O5 0.178043 0.880290 0.718555
O O6 0.095747 0.864607 0.762415
O O7 0.871060 0.839847 0.505882
O O8 0.977149 0.000000 0.607088
O O9 0.427509 0.500000 0.052902
O O10 0.428309 0.311288 0.057221
O O11 0.468474 0.407902 0.181342
O O12 0.250000 0.250000 0.500000
O O13 0.085880 0.259618 0.271716
O O14 0.394080 0.837224 0.812532
O O15 0.389743 0.000000 0.846658
O O16 0.500000 0.871222 0.000000
O O17 0.820709 0.662446 0.021061
O O18 0.748898 0.000000 0.068721
#
# Coordination Sequence:
#
# PCOD8093884 Si02
#       7
#     8   8   8   8   8   8   8
#     4   9  19  38  62  82 111 158 208 252 296 355
#     4  10  21  36  58  85 124 160 190 237 301 366
#     4   9  19  33  54  83 112 147 198 245 291 346
#     4  11  25  39  58  91 127 156 198 254 309 370
#     4  10  20  37  59  90 120 154 201 245 297 363
#     4  11  21  35  61  85 116 160 201 247 293 358
#     4  10  19  36  60  86 117 159 201 239 290 361
#
# _framework density 20.181927000000002
#
# number of rings (size 3 to 8) (size 9 to 14) (size 15 to 20)
#    0.000    2.000    1.429    2.571    4.000    2.857 
#    0.000    1.429    0.000    1.286    0.000    0.000 
#    0.000    0.000    0.000    0.000    0.000    0.000 
#
# Total GULP energy -346998.237468 kJ/mol
# GULP energy per Si atom -12392.794195 kJ/mol
# Density = 2.013599 g / cm^3
# Si number density = 20.181927 Si / 1000 Ang^3
#
#
#
# Elastic Constant Matrix: (Units=GPa)
#
#
# Indices 1 2 3 4 5 6 
#
# 1 77.1999 26.8001 4.0340 -0.0382 7.3388 -0.0127
# 2 26.8001 126.6446 32.1921 -0.0948 1.8902 -0.0196
# 3 4.0340 32.1921 55.7834 -0.1037 8.4220 -0.0327
# 4 -0.0382 -0.0948 -0.1037 27.8208 -0.0264 1.3088
# 5 7.3388 1.8902 8.4220 -0.0264 28.4406 -0.0056
# 6 -0.0127 -0.0196 -0.0327 1.3088 -0.0056 33.8415
#
#
#
# Elastic Compliance Matrix: (Units=1/GPa)
#
#
# Indices 1 2 3 4 5 6 
#
# 1 0.014421 -0.003374 0.001499 0.000010 -0.003941 0.000004
# 2 -0.003374 0.010071 -0.005860 0.000010 0.001937 -0.000001
# 3 0.001499 -0.005860 0.022192 0.000058 -0.006569 0.000015
# 4 0.000010 0.000010 0.000058 0.036010 0.000013 -0.001393
# 5 -0.003941 0.001937 -0.006569 0.000013 0.037994 -0.000001
# 6 0.000004 -0.000001 0.000015 -0.001393 -0.000001 0.029603
#
#
# Mechanical properties :
#
#
# Convention : Reuss Voigt Hill
#
# Bulk Modulus (GPa) = 32.03715 42.85337 37.44526
# Shear Modulus (GPa) = 28.38233 31.12736 29.75485
#
# Velocity S-wave (km/s) = 3.75417 3.93152 3.84387
# Velocity P-wave (km/s) = 5.89070 6.47215 6.18826
#
# Compressibility (1/GPa) = 0.03121377
#
# Stress axis : x y z
#
# Youngs Moduli (GPa) = 69.34347 99.29688 45.06174
#
# Poissons Ratio (x) = 0.33503 -0.06756
# Poissons Ratio (y) = 0.23396 0.26407
# Poissons Ratio (z) = -0.10396 0.58190
#
# Static dielectric constant tensor:
#      x y z
#    x 3.592180 -0.000030 0.223750 
#    y -0.000030 4.271800 -0.000010 
#    z 0.223750 -0.000010 3.332780 
# 
# 
# High freq. dielectric constant tensor:
#      x y z
#    x 1.788030 0.000000 0.031300 
#    y 0.000000 1.813700 0.000000 
#    z 0.031300 0.000000 1.746890 
# 
# From -- ./inp_files/316779.got.cif
#   From: 2010.06.25/outbox.cif.g09.slc.cpg/sg12_159_cif.got.tgz:316779.got - 2010.06.28 00:19:55.
