data_PCOD8093263
_publ_section_title
;
Structure prediction by ZEFSAII (Michael W. Deem and Ramdas Pophale) SiO2 
 PCOD8093263
Probable space group: C 2/M
;
_chemical_formula_sum "Si O2"
_cell_formula_units_Z 64
_cell_length_a 29.700486
_cell_length_b 8.516914
_cell_length_c 14.916329
_cell_angle_alpha 90.000000
_cell_angle_beta 127.842260
_cell_angle_gamma 90.000000
_cell_volume 2979.692254
_symmetry_space_group_name_H-M "C 2/M"
_symmetry_group_IT_number 12
_symmetry_cell_setting 'monoclinic'
loop_
_space_group_symop_operation_xyz
x,y,z
-x,y,-z
-x,-y,-z
x,-y,z
1/2+x,1/2+y,z
1/2-x,1/2+y,-z
1/2-x,1/2-y,-z
1/2+x,1/2-y,z
loop_
_atom_site_type_symbol
_atom_site_label
_atom_site_fract_x
_atom_site_fract_y
_atom_site_fract_z
Si Si1 0.689751 0.816696 0.060495
Si Si2 0.875767 0.181440 0.510436
Si Si3 0.634590 0.177942 0.176125
Si Si4 0.307039 0.318717 0.603988
Si Si5 0.971386 0.819249 0.879271
Si Si6 0.622280 0.315131 0.813572
Si Si7 0.497088 0.686778 0.717069
Si Si8 0.189027 0.682442 0.734649
O O1 0.645902 0.777497 0.087082
O O2 0.753330 0.772891 0.168423
O O3 0.689513 0.000000 0.036514
O O4 0.667147 0.721523 0.947549
O O5 0.856028 0.206229 0.588746
O O6 0.942615 0.238182 0.589435
O O7 0.835822 0.277303 0.393622
O O8 0.871058 0.000000 0.476306
O O9 0.689805 0.208499 0.303463
O O10 0.594830 0.301892 0.180018
O O11 0.612446 0.000000 0.156674
O O12 0.301864 0.500000 0.625192
O O13 0.250000 0.250000 0.500000
O O14 0.990104 0.739887 0.808677
O O15 0.989472 0.000000 0.897960
O O16 0.000000 0.732904 0.000000
O O17 0.622727 0.500000 0.796965
O O18 0.557856 0.254372 0.754051
O O19 0.640476 0.226035 0.746533
O O20 0.495807 0.500000 0.722965
O O21 0.203329 0.500000 0.755867
#
# Coordination Sequence:
#
# PCOD8093263 Si02
#       8
#     8   8   8   8   8   8   8   8
#     4  11  24  43  64  91 128 165 207 258 313 375
#     4  10  21  41  64  88 124 167 211 258 307 365
#     4  11  23  37  57  88 125 162 200 241 301 364
#     4  11  22  37  60  87 123 161 204 254 302 358
#     4  10  19  35  60  89 122 161 207 252 295 356
#     4  11  23  42  69  95 121 160 209 261 317 375
#     4   9  19  38  63  92 124 164 211 255 305 368
#     4  12  26  43  64  92 124 160 208 263 322 379
#
# _framework density 21.478729000000001
#
# number of rings (size 3 to 8) (size 9 to 14) (size 15 to 20)
#    0.000    1.375    1.250    4.500    0.000    7.750 
#    0.000    5.000    0.000    0.000    0.000    0.000 
#    0.000    0.000    0.000    0.000    0.000    0.000 
#
# Total GULP energy -396623.994475 kJ/mol
# GULP energy per Si atom -12394.499827 kJ/mol
# Density = 2.142984 g / cm^3
# Si number density = 21.478729 Si / 1000 Ang^3
#
#
#
# Elastic Constant Matrix: (Units=GPa)
#
#
# Indices 1 2 3 4 5 6 
#
# 1 75.3206 19.6943 2.8017 0.0000 3.3536 0.0000
# 2 19.6943 47.8795 13.1104 0.0000 -7.7215 0.0000
# 3 2.8017 13.1104 82.3101 0.0000 2.1154 0.0000
# 4 0.0000 0.0000 0.0000 30.8422 0.0000 -2.2715
# 5 3.3536 -7.7215 2.1154 0.0000 39.6283 0.0000
# 6 0.0000 0.0000 0.0000 -2.2715 0.0000 24.6934
#
#
#
# Elastic Compliance Matrix: (Units=1/GPa)
#
#
# Indices 1 2 3 4 5 6 
#
# 1 0.015159 -0.006838 0.000641 0.000000 -0.002649 0.000000
# 2 -0.006838 0.025735 -0.004016 0.000000 0.005807 0.000000
# 3 0.000641 -0.004016 0.012806 0.000000 -0.001520 0.000000
# 4 0.000000 0.000000 0.000000 0.032644 0.000000 0.003003
# 5 -0.002649 0.005807 -0.001520 0.000000 0.026671 0.000000
# 6 0.000000 0.000000 0.000000 0.003003 0.000000 0.040773
#
#
# Mechanical properties :
#
#
# Convention : Reuss Voigt Hill
#
# Bulk Modulus (GPa) = 30.05293 30.74698 30.39996
# Shear Modulus (GPa) = 26.98271 30.35972 28.67122
#
# Velocity S-wave (km/s) = 3.54821 3.76370 3.65754
# Velocity P-wave (km/s) = 5.55056 5.76485 5.65872
#
# Compressibility (1/GPa) = 0.03327463
#
# Stress axis : x y z
#
# Youngs Moduli (GPa) = 65.96891 38.85829 78.08828
#
# Poissons Ratio (x) = 0.26572 -0.05008
# Poissons Ratio (y) = 0.45110 0.31356
# Poissons Ratio (z) = -0.04231 0.15604
#
# Static dielectric constant tensor:
#      x y z
#    x 3.834960 0.000000 0.389390 
#    y 0.000000 4.268120 0.000000 
#    z 0.389390 0.000000 3.691020 
# 
# 
# High freq. dielectric constant tensor:
#      x y z
#    x 1.847240 0.000000 0.003150 
#    y 0.000000 1.820620 0.000000 
#    z 0.003150 0.000000 1.861720 
# 
# From -- ./inp_files/250005.got.cif
#   From: 2010.06.25/outbox.cif.g09.slc.cpg/sg12_126_cif.got.tgz:250005.got - 2010.06.28 00:19:55.
