data_PCOD8093565
_publ_section_title
;
Structure prediction by ZEFSAII (Michael W. Deem and Ramdas Pophale) SiO2 
 PCOD8093565
Probable space group: C 2/M
;
_chemical_formula_sum "Si O2"
_cell_formula_units_Z 48
_cell_length_a 33.619920
_cell_length_b 15.727327
_cell_length_c 9.673518
_cell_angle_alpha 90.000000
_cell_angle_beta 153.932407
_cell_angle_gamma 90.000000
_cell_volume 2247.640728
_symmetry_space_group_name_H-M "C 2/M"
_symmetry_group_IT_number 12
_symmetry_cell_setting 'monoclinic'
loop_
_space_group_symop_operation_xyz
x,y,z
-x,y,-z
-x,-y,-z
x,-y,z
1/2+x,1/2+y,z
1/2-x,1/2+y,-z
1/2-x,1/2-y,-z
1/2+x,1/2-y,z
loop_
_atom_site_type_symbol
_atom_site_label
_atom_site_fract_x
_atom_site_fract_y
_atom_site_fract_z
Si Si1 0.926311 0.592990 0.579336
Si Si2 0.124718 0.625587 0.277827
Si Si3 0.868690 0.223110 0.321304
Si Si4 0.521290 0.596514 0.726529
Si Si5 0.223211 0.776435 0.687058
Si Si6 0.718863 0.593261 0.440735
O O1 0.908589 0.500000 0.451585
O O2 0.885916 0.581905 0.606608
O O3 0.882712 0.674207 0.368659
O O4 0.033162 0.611637 0.908226
O O5 0.143598 0.725273 0.361303
O O6 0.207780 0.587556 0.451682
O O7 0.814809 0.187723 0.286546
O O8 0.958293 0.166722 0.601664
O O9 0.807906 0.213944 0.991911
O O10 0.500000 0.600600 0.500000
O O11 0.501685 0.500000 0.719095
O O12 0.623857 0.624413 0.079454
O O13 0.253780 0.848808 0.675866
O O14 0.705858 0.500000 0.463626
#
# Coordination Sequence:
#
# PCOD8093565 Si02
#       6
#     8   8   8   8   8   8
#     4  10  20  35  59  85 111 149 190 233 288 345
#     4  10  19  36  57  81 113 146 191 238 282 341
#     4  10  22  40  58  82 118 153 192 239 287 345
#     4  10  22  40  62  87 115 153 197 240 291 347
#     4  10  22  38  58  83 113 155 194 234 290 343
#     4  11  22  36  58  87 117 149 191 243 293 344
#
# _framework density 21.355725
#
# number of rings (size 3 to 8) (size 9 to 14) (size 15 to 20)
#    0.000    1.833    0.000    4.500    0.000    4.667 
#    0.000   10.833    0.000    2.500    0.000    0.000 
#    0.000    0.000    0.000    0.000    0.000    0.000 
#
# Total GULP energy -297366.893335 kJ/mol
# GULP energy per Si atom -12390.287222 kJ/mol
# Density = 2.130712 g / cm^3
# Si number density = 21.355725 Si / 1000 Ang^3
#
#
#
# Elastic Constant Matrix: (Units=GPa)
#
#
# Indices 1 2 3 4 5 6 
#
# 1 86.2878 45.8139 55.9163 0.0000 16.1162 0.0000
# 2 45.8139 94.7567 30.6538 0.0000 7.3991 0.0000
# 3 55.9163 30.6538 95.6536 0.0000 19.6285 0.0000
# 4 0.0000 0.0000 0.0000 25.1384 0.0000 -1.5897
# 5 16.1162 7.3991 19.6285 0.0000 34.4787 0.0000
# 6 0.0000 0.0000 0.0000 -1.5897 0.0000 17.0727
#
#
#
# Elastic Compliance Matrix: (Units=1/GPa)
#
#
# Indices 1 2 3 4 5 6 
#
# 1 0.022811 -0.007450 -0.010289 0.000000 -0.003206 0.000000
# 2 -0.007450 0.014213 -0.000326 0.000000 0.000618 0.000000
# 3 -0.010289 -0.000326 0.017632 0.000000 -0.005158 0.000000
# 4 0.000000 0.000000 0.000000 0.040015 0.000000 0.003726
# 5 -0.003206 0.000618 -0.005158 0.000000 0.033306 0.000000
# 6 0.000000 0.000000 0.000000 0.003726 0.000000 0.058920
#
#
# Mechanical properties :
#
#
# Convention : Reuss Voigt Hill
#
# Bulk Modulus (GPa) = 53.98238 60.16290 57.07264
# Shear Modulus (GPa) = 21.81460 24.95890 23.38675
#
# Velocity S-wave (km/s) = 3.19954 3.42237 3.31283
# Velocity P-wave (km/s) = 6.24356 6.62191 6.43552
#
# Compressibility (1/GPa) = 0.01852456
#
# Stress axis : x y z
#
# Youngs Moduli (GPa) = 43.83815 70.35967 56.71372
#
# Poissons Ratio (x) = 0.52418 0.58355
# Poissons Ratio (y) = 0.32659 0.01852
# Poissons Ratio (z) = 0.45107 0.02297
#
# Static dielectric constant tensor:
#      x y z
#    x 3.629240 0.000000 0.161460 
#    y 0.000000 3.943660 0.000000 
#    z 0.161460 0.000000 3.971200 
# 
# 
# High freq. dielectric constant tensor:
#      x y z
#    x 1.819900 0.000000 0.013830 
#    y 0.000000 1.840630 0.000000 
#    z 0.013830 0.000000 1.840540 
# 
# From -- ./inp_files/112939.got.cif
#   From: 2010.06.25/outbox.cif.g09.slc.cpg/sg12_57_cif.got.tgz:112939.got - 2010.06.28 00:19:55.
