data_PCOD8093190
_publ_section_title
;
Structure prediction by ZEFSAII (Michael W. Deem and Ramdas Pophale) SiO2 
 PCOD8093190
Probable space group: C 2/M
;
_chemical_formula_sum "Si O2"
_cell_formula_units_Z 48
_cell_length_a 29.877669
_cell_length_b 8.417519
_cell_length_c 10.228211
_cell_angle_alpha 90.000000
_cell_angle_beta 80.063295
_cell_angle_gamma 90.000000
_cell_volume 2533.764677
_symmetry_space_group_name_H-M "C 2/M"
_symmetry_group_IT_number 12
_symmetry_cell_setting 'monoclinic'
loop_
_space_group_symop_operation_xyz
x,y,z
-x,y,-z
-x,-y,-z
x,-y,z
1/2+x,1/2+y,z
1/2-x,1/2+y,-z
1/2-x,1/2-y,-z
1/2+x,1/2-y,z
loop_
_atom_site_type_symbol
_atom_site_label
_atom_site_fract_x
_atom_site_fract_y
_atom_site_fract_z
Si Si1 0.286213 0.187955 0.584456
Si Si2 0.783786 0.188472 0.873467
Si Si3 0.975979 0.186006 0.886315
Si Si4 0.973869 0.315600 0.382753
Si Si5 0.384490 0.688125 0.822870
Si Si6 0.115617 0.187382 0.471765
O O1 0.250000 0.250000 0.500000
O O2 0.271842 0.240355 0.737859
O O3 0.333675 0.263616 0.514347
O O4 0.289579 0.000000 0.577703
O O5 0.834398 0.244765 0.892644
O O6 0.781019 0.000000 0.862848
O O7 0.750000 0.250000 0.000000
O O8 0.924945 0.258723 0.892960
O O9 0.006441 0.213863 0.744903
O O10 0.971068 0.000000 0.912863
O O11 0.000000 0.266599 0.000000
O O12 0.981490 0.500000 0.349791
O O13 0.920444 0.277152 0.418955
O O14 0.000000 0.260974 0.500000
O O15 0.386295 0.500000 0.824048
O O16 0.393596 0.746238 0.671024
O O17 0.109678 0.000000 0.491648
#
# Coordination Sequence:
#
# PCOD8093190 Si02
#       6
#     8   8   8   8   8   8
#     4  11  22  39  61  87 119 151 187 237 293 349
#     4  10  20  37  59  84 113 152 197 240 287 344
#     4  10  20  36  57  81 110 148 189 233 285 339
#     4  11  22  35  55  84 115 149 190 236 281 336
#     4   8  16  32  55  80 107 142 186 233 280 334
#     4  10  19  35  60  85 111 149 192 236 285 338
#
# _framework density 18.944143
#
# number of rings (size 3 to 8) (size 9 to 14) (size 15 to 20)
#    0.000    2.000    1.667    4.000    0.000    1.000 
#    3.000    0.833    0.000    0.000    0.000    0.000 
#    0.000    0.000    0.000    0.000    0.000    0.000 
#
# Total GULP energy -297556.972861 kJ/mol
# GULP energy per Si atom -12398.207203 kJ/mol
# Density = 1.890103 g / cm^3
# Si number density = 18.944143 Si / 1000 Ang^3
#
#
#
# Elastic Constant Matrix: (Units=GPa)
#
#
# Indices 1 2 3 4 5 6 
#
# 1 159.2615 8.4266 76.3149 0.0000 10.4670 0.0000
# 2 8.4266 40.6759 4.8398 0.0000 6.4307 0.0000
# 3 76.3149 4.8398 95.6180 0.0000 9.1262 0.0000
# 4 0.0000 0.0000 0.0000 24.0064 0.0000 -1.7484
# 5 10.4670 6.4307 9.1262 0.0000 39.0280 0.0000
# 6 0.0000 0.0000 0.0000 -1.7484 0.0000 22.1270
#
#
#
# Elastic Compliance Matrix: (Units=1/GPa)
#
#
# Indices 1 2 3 4 5 6 
#
# 1 0.010239 -0.001054 -0.008053 0.000000 -0.000689 0.000000
# 2 -0.001054 0.025427 -0.000075 0.000000 -0.003890 0.000000
# 3 -0.008053 -0.000075 0.017063 0.000000 -0.001818 0.000000
# 4 0.000000 0.000000 0.000000 0.041897 0.000000 0.003311
# 5 -0.000689 -0.003890 -0.001818 0.000000 0.026873 0.000000
# 6 0.000000 0.000000 0.000000 0.003311 0.000000 0.045455
#
#
# Mechanical properties :
#
#
# Convention : Reuss Voigt Hill
#
# Bulk Modulus (GPa) = 29.09883 52.74646 40.92265
# Shear Modulus (GPa) = 25.41027 30.76388 28.08708
#
# Velocity S-wave (km/s) = 3.66638 4.03417 3.85467
# Velocity P-wave (km/s) = 5.77207 7.04294 6.43894
#
# Compressibility (1/GPa) = 0.03436564
#
# Stress axis : x y z
#
# Youngs Moduli (GPa) = 97.66881 39.32873 58.60802
#
# Poissons Ratio (x) = 0.04145 0.47195
# Poissons Ratio (y) = 0.10294 0.00437
# Poissons Ratio (z) = 0.78649 0.00293
#
# Static dielectric constant tensor:
#      x y z
#    x 3.404050 0.000000 0.171490 
#    y 0.000000 3.337510 0.000000 
#    z 0.171490 0.000000 3.376760 
# 
# 
# High freq. dielectric constant tensor:
#      x y z
#    x 1.753280 0.000000 -0.000860 
#    y 0.000000 1.727720 0.000000 
#    z -0.000860 0.000000 1.718570 
# 
# From -- ./inp_files/108689.got.cif
#   From: 2010.06.25/outbox.cif.g09.slc.cpg/sg12_55_cif.got.tgz:108689.got - 2010.06.28 00:19:55.
