data_PCOD8093274
_publ_section_title
;
Structure prediction by ZEFSAII (Michael W. Deem and Ramdas Pophale) SiO2 
 PCOD8093274
Probable space group: C 2/M
;
_chemical_formula_sum "Si O2"
_cell_formula_units_Z 40
_cell_length_a 10.810897
_cell_length_b 22.415730
_cell_length_c 12.339147
_cell_angle_alpha 90.000000
_cell_angle_beta 35.855929
_cell_angle_gamma 90.000000
_cell_volume 1751.505049
_symmetry_space_group_name_H-M "C 2/M"
_symmetry_group_IT_number 12
_symmetry_cell_setting 'monoclinic'
loop_
_space_group_symop_operation_xyz
x,y,z
-x,y,-z
-x,-y,-z
x,-y,z
1/2+x,1/2+y,z
1/2-x,1/2+y,-z
1/2-x,1/2-y,-z
1/2+x,1/2-y,z
loop_
_atom_site_type_symbol
_atom_site_label
_atom_site_fract_x
_atom_site_fract_y
_atom_site_fract_z
Si Si1 0.172429 0.568846 0.297770
Si Si2 0.852264 0.430163 0.926806
Si Si3 0.948572 0.871997 0.255417
Si Si4 0.226771 0.742997 0.388478
Si Si5 0.279437 0.375931 0.610726
O O1 0.119723 0.500000 0.320911
O O2 0.170062 0.595782 0.179516
O O3 0.394614 0.579165 0.200599
O O4 0.000000 0.599666 0.500000
O O5 0.799853 0.500000 0.979672
O O6 0.094808 0.418367 0.788043
O O7 0.692717 0.387965 0.110121
O O8 0.904843 0.806627 0.232272
O O9 0.798407 0.879195 0.466671
O O10 0.250000 0.750000 0.500000
O O11 0.270559 0.809012 0.309680
O O12 0.000000 0.722217 0.500000
O O13 0.500000 0.399985 0.500000
#
# Coordination Sequence:
#
# PCOD8093274 Si02
#       5
#     8   8   8   8   8
#     4  10  19  35  60  90 124 158 198 258 318 368
#     4  11  24  39  62  96 127 162 210 258 315 379
#     4  11  21  37  64  90 123 161 206 259 319 373
#     4   9  20  38  64  92 123 166 213 260 317 376
#     4  10  23  43  62  86 125 167 212 263 307 365
#
# _framework density 22.837502000000001
#
# number of rings (size 3 to 8) (size 9 to 14) (size 15 to 20)
#    0.000    1.800    2.000    1.800    2.800    4.400 
#    0.000    1.000    4.400    0.000    0.000    0.000 
#    0.000    0.000    0.000    0.000    0.000    0.000 
#
# Total GULP energy -247796.723836 kJ/mol
# GULP energy per Si atom -12389.836192 kJ/mol
# Density = 2.278552 g / cm^3
# Si number density = 22.837502 Si / 1000 Ang^3
#
#
#
# Elastic Constant Matrix: (Units=GPa)
#
#
# Indices 1 2 3 4 5 6 
#
# 1 75.9281 21.3180 6.7047 0.0002 -30.4488 0.0000
# 2 21.3180 99.5184 58.3621 0.0000 -15.9632 0.0000
# 3 6.7047 58.3621 115.4152 0.0005 -31.6101 0.0001
# 4 0.0002 0.0000 0.0005 37.4000 -0.0003 -10.4832
# 5 -30.4488 -15.9632 -31.6101 -0.0003 33.7711 -0.0001
# 6 0.0000 0.0000 0.0001 -10.4832 -0.0001 27.8349
#
#
#
# Elastic Compliance Matrix: (Units=1/GPa)
#
#
# Indices 1 2 3 4 5 6 
#
# 1 0.026085 -0.006689 0.010008 0.000000 0.029725 0.000000
# 2 -0.006689 0.016000 -0.009793 0.000000 -0.007634 0.000000
# 3 0.010008 -0.009793 0.019147 0.000000 0.022316 0.000000
# 4 0.000000 0.000000 0.000000 0.029894 0.000000 0.011259
# 5 0.029725 -0.007634 0.022316 0.000000 0.073691 0.000000
# 6 0.000000 0.000000 0.000000 0.011259 0.000000 0.040166
#
#
# Mechanical properties :
#
#
# Convention : Reuss Voigt Hill
#
# Bulk Modulus (GPa) = 20.71076 51.51457 36.11267
# Shear Modulus (GPa) = 21.36527 33.43300 27.39913
#
# Velocity S-wave (km/s) = 3.06197 3.83031 3.46749
# Velocity P-wave (km/s) = 4.64643 6.49367 5.64611
#
# Compressibility (1/GPa) = 0.04828408
#
# Stress axis : x y z
#
# Youngs Moduli (GPa) = 38.33648 62.50138 52.22759
#
# Poissons Ratio (x) = 0.41807 -0.52270
# Poissons Ratio (y) = 0.25643 0.51146
# Poissons Ratio (z) = -0.38367 0.61207
#
# Static dielectric constant tensor:
#      x y z
#    x 4.297600 0.000000 -0.150200 
#    y 0.000000 4.171990 0.000000 
#    z -0.150200 0.000000 4.007800 
# 
# 
# High freq. dielectric constant tensor:
#      x y z
#    x 1.905080 0.000000 -0.015450 
#    y 0.000000 1.893240 0.000000 
#    z -0.015450 0.000000 1.877080 
# 
# From -- ./inp_files/208525.got.cif
#   From: 2010.06.25/outbox.cif.g09.slc.cpg/sg12_105_cif.got.tgz:208525.got - 2010.06.28 00:19:55.
