data_PCOD8093122
_publ_section_title
;
Structure prediction by ZEFSAII (Michael W. Deem and Ramdas Pophale) SiO2 
 PCOD8093122
Probable space group: C 2/M
;
_chemical_formula_sum "Si O2"
_cell_formula_units_Z 64
_cell_length_a 24.001586
_cell_length_b 12.518268
_cell_length_c 22.593734
_cell_angle_alpha 90.000000
_cell_angle_beta 149.990798
_cell_angle_gamma 90.000000
_cell_volume 3395.181448
_symmetry_space_group_name_H-M "C 2/M"
_symmetry_group_IT_number 12
_symmetry_cell_setting 'monoclinic'
loop_
_space_group_symop_operation_xyz
x,y,z
-x,y,-z
-x,-y,-z
x,-y,z
1/2+x,1/2+y,z
1/2-x,1/2+y,-z
1/2-x,1/2-y,-z
1/2+x,1/2-y,z
loop_
_atom_site_type_symbol
_atom_site_label
_atom_site_fract_x
_atom_site_fract_y
_atom_site_fract_z
Si Si1 0.127983 0.622673 0.633626
Si Si2 0.382625 0.746181 0.258495
Si Si3 0.935093 0.876378 0.724625
Si Si4 0.042371 0.379019 0.104498
Si Si5 0.165984 0.382563 0.023987
Si Si6 0.373851 0.212217 0.124436
Si Si7 0.278050 0.265153 0.675191
Si Si8 0.395225 0.623354 0.552509
O O1 0.157816 0.500000 0.673686
O O2 0.151670 0.687604 0.715534
O O3 0.200666 0.661412 0.645128
O O4 0.000000 0.637706 0.500000
O O5 0.280931 0.674018 0.143961
O O6 0.404687 0.820629 0.220471
O O7 0.490287 0.672833 0.367987
O O8 0.849195 0.838264 0.696085
O O9 0.880190 0.865188 0.609187
O O10 0.046402 0.806068 0.827092
O O11 0.966608 0.000000 0.765965
O O12 0.069514 0.500000 0.151594
O O13 0.148143 0.304102 0.211893
O O14 0.000000 0.381438 0.000000
O O15 0.938352 0.324346 0.041895
O O16 0.180045 0.500000 0.063409
O O17 0.125511 0.389961 0.918071
O O18 0.250000 0.250000 0.000000
O O19 0.207026 0.184056 0.570849
O O20 0.393089 0.500000 0.531068
#
# Coordination Sequence:
#
# PCOD8093122 Si02
#       8
#     8   8   8   8   8   8   8   8
#     4  11  24  42  60  83 117 161 207 248 292 353
#     4  10  20  39  61  84 119 157 195 250 298 352
#     4  10  21  38  60  89 123 158 199 245 301 361
#     4  10  21  36  57  84 119 157 191 238 295 352
#     4  10  19  35  59  87 115 149 193 238 294 359
#     4   9  19  35  60  87 116 152 191 241 300 347
#     4  12  21  39  64  85 121 161 198 249 302 357
#     4  10  21  37  60  93 123 150 193 252 308 362
#
# _framework density 18.850244
#
# number of rings (size 3 to 8) (size 9 to 14) (size 15 to 20)
#    0.000    1.750    2.500    2.250    0.000    3.500 
#    0.000    4.375    0.000    1.500    0.000    0.000 
#    0.000    0.000    0.000    0.000    0.000    0.000 
#
# Total GULP energy -396459.153393 kJ/mol
# GULP energy per Si atom -12389.348544 kJ/mol
# Density = 1.880734 g / cm^3
# Si number density = 18.850244 Si / 1000 Ang^3
#
#
#
# Elastic Constant Matrix: (Units=GPa)
#
#
# Indices 1 2 3 4 5 6 
#
# 1 127.0021 40.6695 34.1531 0.0000 4.6404 0.0000
# 2 40.6695 82.8734 42.9079 0.0000 -1.6992 0.0000
# 3 34.1531 42.9079 93.2354 -0.0001 5.5881 0.0000
# 4 0.0000 0.0000 -0.0001 23.2844 0.0000 0.3680
# 5 4.6404 -1.6992 5.5881 0.0000 31.2932 0.0000
# 6 0.0000 0.0000 0.0000 0.3680 0.0000 29.2005
#
#
#
# Elastic Compliance Matrix: (Units=1/GPa)
#
#
# Indices 1 2 3 4 5 6 
#
# 1 0.009613 -0.003890 -0.001650 0.000000 -0.001342 0.000000
# 2 -0.003890 0.017565 -0.006823 0.000000 0.002749 0.000000
# 3 -0.001650 -0.006823 0.014634 0.000000 -0.002739 0.000000
# 4 0.000000 0.000000 0.000000 0.042956 0.000000 -0.000541
# 5 -0.001342 0.002749 -0.002739 0.000000 0.032793 0.000000
# 6 0.000000 0.000000 0.000000 -0.000541 0.000000 0.034253
#
#
# Mechanical properties :
#
#
# Convention : Reuss Voigt Hill
#
# Bulk Modulus (GPa) = 58.53458 59.84132 59.18795
# Shear Modulus (GPa) = 27.43696 29.11432 28.27564
#
# Velocity S-wave (km/s) = 3.81927 3.93428 3.87720
# Velocity P-wave (km/s) = 7.11118 7.24242 7.17710
#
# Compressibility (1/GPa) = 0.01708392
#
# Stress axis : x y z
#
# Youngs Moduli (GPa) = 104.03113 56.93196 68.33228
#
# Poissons Ratio (x) = 0.22148 0.11277
# Poissons Ratio (y) = 0.40471 0.46625
# Poissons Ratio (z) = 0.17169 0.38846
#
# Static dielectric constant tensor:
#      x y z
#    x 3.496540 0.000000 0.058760 
#    y 0.000000 3.740970 0.000000 
#    z 0.058760 0.000000 3.464400 
# 
# 
# High freq. dielectric constant tensor:
#      x y z
#    x 1.749350 0.000000 0.002820 
#    y 0.000000 1.720480 0.000000 
#    z 0.002820 0.000000 1.737890 
# 
# From -- ./inp_files/349388.got.cif
#   From: 2010.06.25/outbox.cif.g09.slc.cpg/sg12_175_cif.got.tgz:349388.got - 2010.06.28 00:19:55.
