data_PCOD8093499
_publ_section_title
;
Structure prediction by ZEFSAII (Michael W. Deem and Ramdas Pophale) SiO2 
 PCOD8093499
Probable space group: C 2/M
;
_chemical_formula_sum "Si O2"
_cell_formula_units_Z 64
_cell_length_a 14.693093
_cell_length_b 9.060559
_cell_length_c 27.014987
_cell_angle_alpha 90.000000
_cell_angle_beta 105.284022
_cell_angle_gamma 90.000000
_cell_volume 3469.238703
_symmetry_space_group_name_H-M "C 2/M"
_symmetry_group_IT_number 12
_symmetry_cell_setting 'monoclinic'
loop_
_space_group_symop_operation_xyz
x,y,z
-x,y,-z
-x,-y,-z
x,-y,z
1/2+x,1/2+y,z
1/2-x,1/2+y,-z
1/2-x,1/2-y,-z
1/2+x,1/2-y,z
loop_
_atom_site_type_symbol
_atom_site_label
_atom_site_fract_x
_atom_site_fract_y
_atom_site_fract_z
Si Si1 0.241524 0.826663 0.765988
Si Si2 0.281427 0.174023 0.576042
Si Si3 0.868795 0.669583 0.877673
Si Si4 0.267336 0.670196 0.053494
Si Si5 0.639724 0.826296 0.309767
Si Si6 0.955653 0.174636 0.133383
Si Si7 0.946636 0.674094 0.236798
Si Si8 0.107371 0.326579 0.505672
O O1 0.295568 0.788710 0.824188
O O2 0.300332 0.766211 0.727911
O O3 0.145655 0.736407 0.750799
O O4 0.219421 0.000000 0.759767
O O5 0.322980 0.239619 0.633153
O O6 0.179498 0.247944 0.553447
O O7 0.358301 0.213843 0.544854
O O8 0.264775 0.000000 0.575801
O O9 0.901417 0.500000 0.875990
O O10 0.821534 0.696850 0.923809
O O11 0.957814 0.777754 0.888859
O O12 0.281960 0.500000 0.043458
O O13 0.360579 0.731730 0.093686
O O14 0.250000 0.750000 0.000000
O O15 0.530997 0.783431 0.286189
O O16 0.651370 0.000000 0.313065
O O17 0.967508 0.252711 0.187374
O O18 0.953547 0.000000 0.141405
O O19 0.939135 0.500000 0.227410
O O20 0.113051 0.500000 0.516574
O O21 0.000000 0.270350 0.500000
#
# Coordination Sequence:
#
# PCOD8093499 Si02
#       8
#     8   8   8   8   8   8   8   8
#     4  10  19  36  56  77 109 145 180 223 273 323
#     4   9  18  34  54  77 106 144 186 224 270 327
#     4  10  20  38  60  81 109 146 182 222 272 330
#     4  10  23  41  59  81 112 144 179 227 280 325
#     4   9  19  35  54  77 111 147 178 222 277 327
#     4  11  22  38  59  84 112 143 182 227 273 324
#     4  11  21  35  56  83 110 145 186 222 269 331
#     4   9  18  33  54  78 107 144 182 227 279 321
#
# _framework density 18.447851
#
# number of rings (size 3 to 8) (size 9 to 14) (size 15 to 20)
#    0.000    2.125    2.500    0.750    0.000    3.750 
#    0.000    5.625    0.000    0.000    0.000    0.000 
#    0.000    0.000    0.000    0.000    0.000    0.000 
#
# Total GULP energy -396838.791051 kJ/mol
# GULP energy per Si atom -12401.212220 kJ/mol
# Density = 1.840586 g / cm^3
# Si number density = 18.447851 Si / 1000 Ang^3
#
#
#
# Elastic Constant Matrix: (Units=GPa)
#
#
# Indices 1 2 3 4 5 6 
#
# 1 110.2600 33.6289 17.7648 0.0000 3.8594 0.0000
# 2 33.6289 45.6911 24.3872 0.0000 5.4035 0.0000
# 3 17.7648 24.3872 91.3461 0.0000 2.7843 0.0000
# 4 0.0000 0.0000 0.0000 25.3329 0.0000 2.2439
# 5 3.8594 5.4035 2.7843 0.0000 24.8795 0.0000
# 6 0.0000 0.0000 0.0000 2.2439 0.0000 34.7751
#
#
#
# Elastic Compliance Matrix: (Units=1/GPa)
#
#
# Indices 1 2 3 4 5 6 
#
# 1 0.011695 -0.008629 0.000028 0.000000 0.000057 0.000000
# 2 -0.008629 0.032473 -0.006841 0.000000 -0.004949 0.000000
# 3 0.000028 -0.006841 0.012767 0.000000 0.000053 0.000000
# 4 0.000000 0.000000 0.000000 0.039701 0.000000 -0.002562
# 5 0.000057 -0.004949 0.000053 0.000000 0.041254 0.000000
# 6 0.000000 0.000000 0.000000 -0.002562 0.000000 0.028922
#
#
# Mechanical properties :
#
#
# Convention : Reuss Voigt Hill
#
# Bulk Modulus (GPa) = 38.38626 44.31767 41.35197
# Shear Modulus (GPa) = 24.22725 28.43191 26.32958
#
# Velocity S-wave (km/s) = 3.62786 3.93008 3.78199
# Velocity P-wave (km/s) = 6.19690 6.68351 6.44480
#
# Compressibility (1/GPa) = 0.02605099
#
# Stress axis : x y z
#
# Youngs Moduli (GPa) = 85.50786 30.79441 78.32880
#
# Poissons Ratio (x) = 0.26572 -0.00216
# Poissons Ratio (y) = 0.73784 0.53582
# Poissons Ratio (z) = -0.00236 0.21065
#
# Static dielectric constant tensor:
#      x y z
#    x 3.628810 0.000000 0.012260 
#    y 0.000000 3.259940 0.000000 
#    z 0.012260 0.000000 3.528870 
# 
# 
# High freq. dielectric constant tensor:
#      x y z
#    x 1.727360 0.000000 -0.000600 
#    y 0.000000 1.699110 0.000000 
#    z -0.000600 0.000000 1.716390 
# 
# From -- ./inp_files/359877.got.cif
#   From: 2010.06.25/outbox.cif.g09.slc.cpg/sg12_180_cif.got.tgz:359877.got - 2010.06.28 00:19:55.
