data_PCOD8093708
_publ_section_title
;
Structure prediction by ZEFSAII (Michael W. Deem and Ramdas Pophale) SiO2 
 PCOD8093708
Probable space group: C 2/M
;
_chemical_formula_sum "Si O2"
_cell_formula_units_Z 56
_cell_length_a 20.591598
_cell_length_b 8.873439
_cell_length_c 22.920251
_cell_angle_alpha 90.000000
_cell_angle_beta 46.129142
_cell_angle_gamma 90.000000
_cell_volume 3019.107955
_symmetry_space_group_name_H-M "C 2/M"
_symmetry_group_IT_number 12
_symmetry_cell_setting 'monoclinic'
loop_
_space_group_symop_operation_xyz
x,y,z
-x,y,-z
-x,-y,-z
x,-y,z
1/2+x,1/2+y,z
1/2-x,1/2+y,-z
1/2-x,1/2-y,-z
1/2+x,1/2-y,z
loop_
_atom_site_type_symbol
_atom_site_label
_atom_site_fract_x
_atom_site_fract_y
_atom_site_fract_z
Si Si1 0.445199 0.324050 0.249644
Si Si2 0.014662 0.175471 0.334115
Si Si3 0.206882 0.678451 0.229246
Si Si4 0.926291 0.324120 0.496593
Si Si5 0.886042 0.324484 0.901663
Si Si6 0.751614 0.821362 0.329229
Si Si7 0.762106 0.325004 0.083720
O O1 0.454702 0.500000 0.229132
O O2 0.465241 0.288966 0.304297
O O3 0.512002 0.233018 0.165468
O O4 0.345143 0.263975 0.298082
O O5 0.947467 0.227357 0.426495
O O6 0.105998 0.268777 0.279781
O O7 0.037171 0.000000 0.326761
O O8 0.208810 0.500000 0.226395
O O9 0.240302 0.741656 0.270654
O O10 0.274394 0.741656 0.137777
O O11 0.924388 0.500000 0.480999
O O12 0.830379 0.264143 0.579628
O O13 0.000000 0.292928 0.500000
O O14 0.878859 0.500000 0.890632
O O15 0.828025 0.233193 0.891087
O O16 0.849477 0.292542 0.989635
O O17 0.747421 0.000000 0.329682
O O18 0.747840 0.500000 0.104626
#
# Coordination Sequence:
#
# PCOD8093708 Si02
#       7
#     8   8   8   8   8   8   8
#     4  10  21  38  57  79 114 151 183 226 280 332
#     4  11  22  34  54  84 114 143 181 231 283 329
#     4  11  20  35  59  84 109 144 191 231 268 327
#     4  10  19  36  59  81 107 144 189 233 274 323
#     4  10  20  34  55  82 113 147 185 226 272 330
#     4   9  20  38  58  80 109 149 189 227 276 330
#     4  10  20  34  54  84 115 143 181 232 280 321
#
# _framework density 18.548525000000001
#
# number of rings (size 3 to 8) (size 9 to 14) (size 15 to 20)
#    0.000    1.857    2.857    1.714    0.000    3.143 
#    0.000    2.857    0.000    4.286    0.000    0.000 
#    0.000    0.000    0.000    0.000    0.000    0.000 
#
# Total GULP energy -347281.934818 kJ/mol
# GULP energy per Si atom -12402.926243 kJ/mol
# Density = 1.850631 g / cm^3
# Si number density = 18.548525 Si / 1000 Ang^3
#
#
#
# Elastic Constant Matrix: (Units=GPa)
#
#
# Indices 1 2 3 4 5 6 
#
# 1 105.2555 34.3232 59.3907 0.0001 -3.2171 0.0001
# 2 34.3232 62.0541 46.1143 0.0002 4.4862 0.0004
# 3 59.3907 46.1143 149.7873 0.0001 1.6144 -0.0001
# 4 0.0001 0.0002 0.0001 37.2581 -0.0001 1.1993
# 5 -3.2171 4.4862 1.6144 -0.0001 32.7907 0.0001
# 6 0.0001 0.0004 -0.0001 1.1993 0.0001 20.2729
#
#
#
# Elastic Compliance Matrix: (Units=1/GPa)
#
#
# Indices 1 2 3 4 5 6 
#
# 1 0.013245 -0.004616 -0.003853 0.000000 0.002121 0.000000
# 2 -0.004616 0.022718 -0.005128 0.000000 -0.003309 0.000000
# 3 -0.003853 -0.005128 0.009785 0.000000 -0.000158 0.000000
# 4 0.000000 0.000000 0.000000 0.026891 0.000000 -0.001591
# 5 0.002121 -0.003309 -0.000158 0.000000 0.031165 0.000000
# 6 0.000000 0.000000 0.000000 -0.001591 0.000000 0.049421
#
#
# Mechanical properties :
#
#
# Convention : Reuss Voigt Hill
#
# Bulk Modulus (GPa) = 53.90052 66.30593 60.10322
# Shear Modulus (GPa) = 26.79469 29.88225 28.33847
#
# Velocity S-wave (km/s) = 3.80488 4.01812 3.91295
# Velocity P-wave (km/s) = 6.95881 7.57311 7.27245
#
# Compressibility (1/GPa) = 0.01855270
#
# Stress axis : x y z
#
# Youngs Moduli (GPa) = 75.50016 44.01750 102.20146
#
# Poissons Ratio (x) = 0.20317 0.39383
# Poissons Ratio (y) = 0.34849 0.52413
# Poissons Ratio (z) = 0.29094 0.22574
#
# Static dielectric constant tensor:
#      x y z
#    x 3.354420 0.000000 0.057920 
#    y 0.000000 3.310540 0.000000 
#    z 0.057920 0.000000 3.783270 
# 
# 
# High freq. dielectric constant tensor:
#      x y z
#    x 1.700290 0.000000 0.004320 
#    y 0.000000 1.712150 0.000000 
#    z 0.004320 0.000000 1.737980 
# 
# From -- ./inp_files/319690.got.cif
#   From: 2010.06.25/outbox.cif.g09.slc.cpg/sg12_160_cif.got.tgz:319690.got - 2010.06.28 00:19:55.
