data_PCOD8093660
_publ_section_title
;
Structure prediction by ZEFSAII (Michael W. Deem and Ramdas Pophale) SiO2 
 PCOD8093660
Probable space group: C 2/M
;
_chemical_formula_sum "Si O2"
_cell_formula_units_Z 52
_cell_length_a 16.583332
_cell_length_b 17.754857
_cell_length_c 9.128197
_cell_angle_alpha 90.000000
_cell_angle_beta 92.252788
_cell_angle_gamma 90.000000
_cell_volume 2685.580614
_symmetry_space_group_name_H-M "C 2/M"
_symmetry_group_IT_number 12
_symmetry_cell_setting 'monoclinic'
loop_
_space_group_symop_operation_xyz
x,y,z
-x,y,-z
-x,-y,-z
x,-y,z
1/2+x,1/2+y,z
1/2-x,1/2+y,-z
1/2-x,1/2-y,-z
1/2+x,1/2-y,z
loop_
_atom_site_type_symbol
_atom_site_label
_atom_site_fract_x
_atom_site_fract_y
_atom_site_fract_z
Si Si1 0.760152 0.084520 0.128463
Si Si2 0.393121 0.413360 0.665880
Si Si3 0.000000 0.804709 0.500000
Si Si4 0.756109 0.136355 0.439873
Si Si5 0.851246 0.280884 0.367319
Si Si6 0.168655 0.294902 0.966985
Si Si7 0.593237 0.650249 0.025668
O O1 0.743796 0.081770 0.301476
O O2 0.761510 0.000000 0.067781
O O3 0.682785 0.125884 0.049547
O O4 0.848488 0.122112 0.102557
O O5 0.421772 0.500000 0.665823
O O6 0.465332 0.358904 0.622784
O O7 0.317844 0.402616 0.554765
O O8 0.369130 0.387914 0.827215
O O9 0.937999 0.750291 0.415766
O O10 0.785525 0.215114 0.374036
O O11 0.673385 0.151888 0.522911
O O12 0.851208 0.312451 0.203085
O O13 0.250000 0.250000 0.000000
O O14 0.098255 0.241893 0.031686
O O15 0.500000 0.624979 0.000000
#
# Coordination Sequence:
#
# PCOD8093660 Si02
#       7
#     8   8   4   8   8   8   8
#     4  11  23  38  58  87 119 151 189 237 291 345
#     4  11  23  36  54  84 123 160 188 227 287 351
#     4  10  23  36  58  86 121 148 196 236 293 342
#     4  10  20  35  58  80 113 149 198 238 277 331
#     4  10  19  36  58  85 109 150 196 244 279 330
#     4  10  19  37  59  84 112 150 197 240 278 333
#     4  11  23  38  57  86 118 155 194 235 282 344
#
# _framework density 19.362666000000001
#
# number of rings (size 3 to 8) (size 9 to 14) (size 15 to 20)
#    0.000    1.538    3.077    3.923    6.462    1.231 
#    0.000    0.769    0.000    0.462    0.000    2.692 
#    0.000    0.000    0.000    0.000    0.000    0.000 
#
# Total GULP energy -322341.179063 kJ/mol
# GULP energy per Si atom -12397.737656 kJ/mol
# Density = 1.931860 g / cm^3
# Si number density = 19.362666 Si / 1000 Ang^3
#
#
#
# Elastic Constant Matrix: (Units=GPa)
#
#
# Indices 1 2 3 4 5 6 
#
# 1 79.2040 50.6889 50.0368 0.0000 3.3619 0.0000
# 2 50.6889 96.4312 43.2501 0.0000 3.0644 0.0000
# 3 50.0368 43.2501 143.2517 0.0000 10.4526 0.0000
# 4 0.0000 0.0000 0.0000 24.1271 0.0000 -2.3445
# 5 3.3619 3.0644 10.4526 0.0000 20.1562 0.0000
# 6 0.0000 0.0000 0.0000 -2.3445 0.0000 16.4536
#
#
#
# Elastic Compliance Matrix: (Units=1/GPa)
#
#
# Indices 1 2 3 4 5 6 
#
# 1 0.021488 -0.009170 -0.004757 0.000000 0.000277 0.000000
# 2 -0.009170 0.015908 -0.001595 0.000000 -0.000062 0.000000
# 3 -0.004757 -0.001595 0.009404 0.000000 -0.003841 0.000000
# 4 0.000000 0.000000 0.000000 0.042029 0.000000 0.005989
# 5 0.000277 -0.000062 -0.003841 0.000000 0.051568 0.000000
# 6 0.000000 0.000000 0.000000 0.005989 0.000000 0.061630
#
#
# Mechanical properties :
#
#
# Convention : Reuss Voigt Hill
#
# Bulk Modulus (GPa) = 63.47302 67.42651 65.44976
# Shear Modulus (GPa) = 20.97985 23.80812 22.39398
#
# Velocity S-wave (km/s) = 3.29526 3.51035 3.40451
# Velocity P-wave (km/s) = 6.87972 7.16440 7.02351
#
# Compressibility (1/GPa) = 0.01575473
#
# Stress axis : x y z
#
# Youngs Moduli (GPa) = 46.53770 62.86189 106.33507
#
# Poissons Ratio (x) = 0.57646 0.50585
# Poissons Ratio (y) = 0.42677 0.16963
# Poissons Ratio (z) = 0.22139 0.10028
#
# Static dielectric constant tensor:
#      x y z
#    x 3.447420 0.000000 -0.063660 
#    y 0.000000 3.625590 0.000000 
#    z -0.063660 0.000000 3.750830 
# 
# 
# High freq. dielectric constant tensor:
#      x y z
#    x 1.722500 0.000000 0.001870 
#    y 0.000000 1.735170 0.000000 
#    z 0.001870 0.000000 1.771860 
# 
# From -- ./inp_files/75290.got.cif
#   From: 2010.06.25/outbox.cif.g09.slc.cpg/sg12_38_cif.got.tgz:75290.got - 2010.06.28 00:19:55.
