data_PCOD8093107
_publ_section_title
;
Structure prediction by ZEFSAII (Michael W. Deem and Ramdas Pophale) SiO2 
 PCOD8093107
Probable space group: C 2/M
;
_chemical_formula_sum "Si O2"
_cell_formula_units_Z 56
_cell_length_a 8.904532
_cell_length_b 20.037399
_cell_length_c 28.869399
_cell_angle_alpha 90.000000
_cell_angle_beta 148.754359
_cell_angle_gamma 90.000000
_cell_volume 2671.857642
_symmetry_space_group_name_H-M "C 2/M"
_symmetry_group_IT_number 12
_symmetry_cell_setting 'monoclinic'
loop_
_space_group_symop_operation_xyz
x,y,z
-x,y,-z
-x,-y,-z
x,-y,z
1/2+x,1/2+y,z
1/2-x,1/2+y,-z
1/2-x,1/2-y,-z
1/2+x,1/2-y,z
loop_
_atom_site_type_symbol
_atom_site_label
_atom_site_fract_x
_atom_site_fract_y
_atom_site_fract_z
Si Si1 0.990791 0.742981 0.336619
Si Si2 0.892897 0.156667 0.388656
Si Si3 0.425185 0.659258 0.719547
Si Si4 0.752131 0.078944 0.033775
Si Si5 0.528139 0.921938 0.132663
Si Si6 0.055036 0.424382 0.460191
Si Si7 0.397950 0.078999 0.202853
O O1 0.052106 0.790438 0.396806
O O2 0.713917 0.696309 0.273241
O O3 0.269724 0.696192 0.400617
O O4 0.922649 0.786303 0.273303
O O5 0.631481 0.119105 0.293859
O O6 0.127177 0.103613 0.467896
O O7 0.665872 0.609321 0.801309
O O8 0.182719 0.619757 0.627382
O O9 0.703086 0.100370 0.967226
O O10 0.736446 0.000000 0.033399
O O11 0.500000 0.110387 0.000000
O O12 0.075633 0.101231 0.134058
O O13 0.427281 0.899924 0.156885
O O14 0.579098 0.000000 0.144636
O O15 0.036986 0.500000 0.436818
O O16 0.000000 0.422090 0.500000
O O17 0.450764 0.000000 0.223386
#
# Coordination Sequence:
#
# PCOD8093107 Si02
#       7
#     8   8   8   8   8   8   8
#     4  10  24  39  60  81 116 156 206 233 278 331
#     4  11  22  40  59  87 115 157 193 242 279 340
#     4  11  22  40  59  87 115 157 193 242 279 340
#     4   9  19  33  55  88 117 146 188 236 295 355
#     4  10  19  35  59  86 117 151 189 238 295 348
#     4  11  22  38  62  91 120 151 190 236 291 346
#     4  10  19  35  59  86 117 151 189 238 295 348
#
# _framework density 20.959199000000002
#
# number of rings (size 3 to 8) (size 9 to 14) (size 15 to 20)
#    0.000    1.714    2.857    1.286    2.000    8.000 
#    0.000    2.857    0.000    5.143    0.000    0.000 
#    0.000    0.000    0.000    0.000    0.000    0.000 
#
# Total GULP energy -347170.666312 kJ/mol
# GULP energy per Si atom -12398.952368 kJ/mol
# Density = 2.091150 g / cm^3
# Si number density = 20.959199 Si / 1000 Ang^3
#
#
#
# Elastic Constant Matrix: (Units=GPa)
#
#
# Indices 1 2 3 4 5 6 
#
# 1 101.2948 47.7637 22.3215 -0.0531 22.5423 -0.0270
# 2 47.7637 66.5462 51.2539 -0.0094 8.7446 -0.0116
# 3 22.3215 51.2539 108.0524 0.0541 20.6252 0.0274
# 4 -0.0531 -0.0094 0.0541 -125.0971 0.0107 -72.0799
# 5 22.5423 8.7446 20.6252 0.0107 26.0346 0.0029
# 6 -0.0270 -0.0116 0.0274 -72.0799 0.0029 -27.1248
#
#
#
# Elastic Compliance Matrix: (Units=1/GPa)
#
#
# Indices 1 2 3 4 5 6 
#
# 1 0.021157 -0.019075 0.008190 0.000003 -0.018400 -0.000015
# 2 -0.019075 0.040904 -0.018841 -0.000014 0.017704 0.000021
# 3 0.008190 -0.018841 0.019611 0.000010 -0.016299 -0.000009
# 4 0.000003 -0.000014 0.000010 0.015050 -0.000008 -0.039994
# 5 -0.018400 0.017704 -0.016299 -0.000008 0.061309 0.000022
# 6 -0.000015 0.000021 -0.000009 -0.039994 0.000022 0.069411
#
#
# Mechanical properties :
#
#
# Convention : Reuss Voigt Hill
#
# Bulk Modulus (GPa) = 45.00750 57.61910 51.31330
# Shear Modulus (GPa) = 16.98942 -14.93385 1.02779
#
# Velocity S-wave (km/s) = 2.85018 -2.67220 0.70103
# Velocity P-wave (km/s) = 5.68787 4.24616 5.01905
#
# Compressibility (1/GPa) = 0.02221852
#
# Stress axis : x y z
#
# Youngs Moduli (GPa) = 47.26599 24.44774 50.99100
#
# Poissons Ratio (x) = 0.46635 -0.41761
# Poissons Ratio (y) = 0.90162 0.96073
# Poissons Ratio (z) = -0.38710 0.46062
#
# Static dielectric constant tensor:
#      x y z
#    x 4.055130 -0.000010 0.117880 
#    y -0.000010 3.871570 -0.000030 
#    z 0.117880 -0.000030 3.226370 
# 
# 
# High freq. dielectric constant tensor:
#      x y z
#    x 1.828870 0.000000 0.012350 
#    y 0.000000 1.809060 0.000000 
#    z 0.012350 0.000000 1.809650 
# 
# From -- ./inp_files/258004.got.cif
#   From: 2010.06.25/outbox.cif.g09.slc.cpg/sg12_130_cif.got.tgz:258004.got - 2010.06.28 00:19:55.
