data_PCOD8093754
_publ_section_title
;
Structure prediction by ZEFSAII (Michael W. Deem and Ramdas Pophale) SiO2 
 PCOD8093754
Probable space group: C 2/M
;
_chemical_formula_sum "Si O2"
_cell_formula_units_Z 52
_cell_length_a 5.113526
_cell_length_b 27.320079
_cell_length_c 19.453231
_cell_angle_alpha 90.000000
_cell_angle_beta 117.408462
_cell_angle_gamma 90.000000
_cell_volume 2412.590295
_symmetry_space_group_name_H-M "C 2/M"
_symmetry_group_IT_number 12
_symmetry_cell_setting 'monoclinic'
loop_
_space_group_symop_operation_xyz
x,y,z
-x,y,-z
-x,-y,-z
x,-y,z
1/2+x,1/2+y,z
1/2-x,1/2+y,-z
1/2-x,1/2-y,-z
1/2+x,1/2-y,z
loop_
_atom_site_type_symbol
_atom_site_label
_atom_site_fract_x
_atom_site_fract_y
_atom_site_fract_z
Si Si1 0.162155 0.278794 0.587264
Si Si2 0.709442 0.423090 0.678709
Si Si3 0.349129 0.500000 0.553987
Si Si4 0.400673 0.272930 0.085362
Si Si5 0.269877 0.865612 0.307681
Si Si6 0.503567 0.380613 0.133040
Si Si7 0.015688 0.444675 0.147577
O O1 0.490877 0.267423 0.600218
O O2 0.131923 0.316009 0.646007
O O3 0.000000 0.299717 0.500000
O O4 0.461122 0.453514 0.609545
O O5 0.527919 0.378871 0.688852
O O6 0.961716 0.404978 0.656035
O O7 0.862494 0.451660 0.760163
O O8 0.500000 0.500000 0.500000
O O9 0.000000 0.500000 0.500000
O O10 0.728192 0.249725 0.129969
O O11 0.389225 0.332221 0.079471
O O12 0.250000 0.250000 0.000000
O O13 0.196334 0.858667 0.218666
O O14 0.710661 0.414233 0.109936
O O15 0.239120 0.415336 0.125742
O O16 0.966704 0.500000 0.113007
#
# Coordination Sequence:
#
# PCOD8093754 Si02
#       7
#     8   8   4   8   8   8   8
#     4  10  21  36  52  71  97 137 184 230 288 350
#     4  10  21  37  52  76 108 144 183 233 301 348
#     4  12  24  36  52  76 106 146 196 238 284 358
#     4  10  21  38  60  89 125 166 194 233 296 352
#     4  10  21  35  56  78 107 142 182 243 295 340
#     4  10  21  34  57  93 116 147 209 240 287 375
#     4  10  19  36  59  83 119 158 188 250 307 342
#
# _framework density 21.553597
#
# number of rings (size 3 to 8) (size 9 to 14) (size 15 to 20)
#    0.000    1.846    0.769    3.231    0.000    3.077 
#    0.000    0.000    0.000    0.000    0.000   43.077 
#    0.000    0.000    0.000    0.000    0.000    0.000 
#
# Total GULP energy -322189.290863 kJ/mol
# GULP energy per Si atom -12391.895802 kJ/mol
# Density = 2.150454 g / cm^3
# Si number density = 21.553597 Si / 1000 Ang^3
#
#
#
# Elastic Constant Matrix: (Units=GPa)
#
#
# Indices 1 2 3 4 5 6 
#
# 1 171.9050 57.1968 14.0087 0.0000 3.4082 0.0000
# 2 57.1968 154.8000 38.1975 0.0000 2.7488 0.0000
# 3 14.0087 38.1975 45.7627 0.0000 2.4447 0.0000
# 4 0.0000 0.0000 0.0000 29.2186 0.0000 2.9623
# 5 3.4082 2.7488 2.4447 0.0000 11.9235 0.0000
# 6 0.0000 0.0000 0.0000 2.9623 0.0000 27.8659
#
#
#
# Elastic Compliance Matrix: (Units=1/GPa)
#
#
# Indices 1 2 3 4 5 6 
#
# 1 0.006654 -0.002456 0.000085 0.000000 -0.001353 0.000000
# 2 -0.002456 0.009045 -0.006798 0.000000 0.000011 0.000000
# 3 0.000085 -0.006798 0.027721 0.000000 -0.004141 0.000000
# 4 0.000000 0.000000 0.000000 0.034598 0.000000 -0.003678
# 5 -0.001353 0.000011 -0.004141 0.000000 0.085101 0.000000
# 6 0.000000 0.000000 0.000000 -0.003678 0.000000 0.036277
#
#
# Mechanical properties :
#
#
# Convention : Reuss Voigt Hill
#
# Bulk Modulus (GPa) = 39.86849 65.69708 52.78278
# Shear Modulus (GPa) = 22.11462 31.33923 26.72693
#
# Velocity S-wave (km/s) = 3.20664 3.81729 3.52521
# Velocity P-wave (km/s) = 5.67870 7.06936 6.41185
#
# Compressibility (1/GPa) = 0.02508247
#
# Stress axis : x y z
#
# Youngs Moduli (GPa) = 150.28343 110.56375 36.07315
#
# Poissons Ratio (x) = 0.27149 -0.00307
# Poissons Ratio (y) = 0.36903 0.24523
# Poissons Ratio (z) = -0.01277 0.75164
#
# Static dielectric constant tensor:
#      x y z
#    x -4.228860 0.000000 0.168030 
#    y 0.000000 3.700350 0.000000 
#    z 0.168030 0.000000 3.614580 
# 
# 
# High freq. dielectric constant tensor:
#      x y z
#    x 1.873300 0.000000 0.000320 
#    y 0.000000 1.839620 0.000000 
#    z 0.000320 0.000000 1.816160 
# 
# From -- ./inp_files/298123.got.cif
#   From: 2010.06.25/outbox.cif.g09.slc.cpg/sg12_150_cif.got.tgz:298123.got - 2010.06.28 00:19:55.
