data_PCOD8093175
_publ_section_title
;
Structure prediction by ZEFSAII (Michael W. Deem and Ramdas Pophale) SiO2 
 PCOD8093175
Probable space group: C 2/M
;
_chemical_formula_sum "Si O2"
_cell_formula_units_Z 64
_cell_length_a 24.631795
_cell_length_b 8.904384
_cell_length_c 29.717563
_cell_angle_alpha 90.000000
_cell_angle_beta 149.136009
_cell_angle_gamma 90.000000
_cell_volume 3343.736831
_symmetry_space_group_name_H-M "C 2/M"
_symmetry_group_IT_number 12
_symmetry_cell_setting 'monoclinic'
loop_
_space_group_symop_operation_xyz
x,y,z
-x,y,-z
-x,-y,-z
x,-y,z
1/2+x,1/2+y,z
1/2-x,1/2+y,-z
1/2-x,1/2-y,-z
1/2+x,1/2-y,z
loop_
_atom_site_type_symbol
_atom_site_label
_atom_site_fract_x
_atom_site_fract_y
_atom_site_fract_z
Si Si1 0.906366 0.176068 0.675870
Si Si2 0.884931 0.678484 0.932471
Si Si3 0.519647 0.323299 0.367479
Si Si4 0.690348 0.677006 0.734168
Si Si5 0.896416 0.825777 0.123155
Si Si6 0.698065 0.322249 0.561208
Si Si7 0.379876 0.822226 0.407312
Si Si8 0.184095 0.322567 0.019260
O O1 0.953631 0.238446 0.662788
O O2 0.804866 0.276052 0.612690
O O3 0.991346 0.207884 0.774920
O O4 0.876871 0.000000 0.652596
O O5 0.887580 0.500000 0.937287
O O6 0.801160 0.728398 0.834782
O O7 0.849388 0.743922 0.955850
O O8 0.000000 0.741984 0.000000
O O9 0.532071 0.500000 0.375221
O O10 0.400680 0.276920 0.295237
O O11 0.600783 0.259163 0.462239
O O12 0.687620 0.500000 0.721855
O O13 0.670605 0.765884 0.674630
O O14 0.895379 0.737890 0.075340
O O15 0.880121 0.000000 0.100961
O O16 0.803297 0.771715 0.090907
O O17 0.693244 0.500000 0.564185
O O18 0.694056 0.243486 0.606501
O O19 0.500000 0.763372 0.500000
O O20 0.375662 0.000000 0.405549
O O21 0.174679 0.500000 0.014257
#
# Coordination Sequence:
#
# PCOD8093175 Si02
#       8
#     8   8   8   8   8   8   8   8
#     4  10  20  35  53  77 111 145 181 224 279 336
#     4   9  18  32  53  83 112 139 176 224 273 318
#     4   9  18  33  55  79 105 142 184 225 271 325
#     4  10  19  35  60  84 109 145 189 231 272 325
#     4   9  18  32  52  77 104 141 181 219 267 324
#     4  11  22  36  55  80 108 141 184 229 274 325
#     4  11  23  39  58  81 111 145 183 228 277 327
#     4   9  17  32  54  77 106 141 180 222 267 320
#
# _framework density 19.140262
#
# number of rings (size 3 to 8) (size 9 to 14) (size 15 to 20)
#    0.000    2.250    1.250    1.875    0.000    5.000 
#    0.000    3.125    0.000    2.250    0.000    0.000 
#    0.000    0.000    0.000    0.000    0.000    0.000 
#
# Total GULP energy -396826.477804 kJ/mol
# GULP energy per Si atom -12400.827431 kJ/mol
# Density = 1.909670 g / cm^3
# Si number density = 19.140262 Si / 1000 Ang^3
#
#
#
# Elastic Constant Matrix: (Units=GPa)
#
#
# Indices 1 2 3 4 5 6 
#
# 1 114.3216 26.6240 60.6734 0.0000 -8.9100 -0.0001
# 2 26.6240 32.9166 31.2558 0.0000 -4.6813 -0.0020
# 3 60.6734 31.2558 131.8617 -0.0002 1.7479 0.0000
# 4 0.0000 0.0000 -0.0002 25.0343 0.0000 -0.6003
# 5 -8.9100 -4.6813 1.7479 0.0000 32.4668 0.0000
# 6 -0.0001 -0.0020 0.0000 -0.6003 0.0000 24.2450
#
#
#
# Elastic Compliance Matrix: (Units=1/GPa)
#
#
# Indices 1 2 3 4 5 6 
#
# 1 0.012683 -0.005501 -0.004571 0.000000 0.002933 0.000000
# 2 -0.005501 0.042859 -0.007695 0.000000 0.005084 0.000003
# 3 -0.004571 -0.007695 0.011550 0.000000 -0.002986 -0.000001
# 4 0.000000 0.000000 0.000000 0.039969 0.000000 0.000990
# 5 0.002933 0.005084 -0.002986 0.000000 0.032500 0.000000
# 6 0.000000 0.000003 -0.000001 0.000990 0.000000 0.041270
#
#
# Mechanical properties :
#
#
# Convention : Reuss Voigt Hill
#
# Bulk Modulus (GPa) = 31.68718 57.35627 44.52173
# Shear Modulus (GPa) = 22.03762 27.05234 24.54498
#
# Velocity S-wave (km/s) = 3.39687 3.76356 3.58491
# Velocity P-wave (km/s) = 5.65475 6.99409 6.35977
#
# Compressibility (1/GPa) = 0.03155850
#
# Stress axis : x y z
#
# Youngs Moduli (GPa) = 78.84727 23.33214 86.57656
#
# Poissons Ratio (x) = 0.12835 0.39571
# Poissons Ratio (y) = 0.43373 0.66624
# Poissons Ratio (z) = 0.36039 0.17955
#
# Static dielectric constant tensor:
#      x y z
#    x 3.833870 0.000000 -0.003410 
#    y 0.000000 3.152680 0.000000 
#    z -0.003410 0.000000 3.601000 
# 
# 
# High freq. dielectric constant tensor:
#      x y z
#    x 1.754740 0.000000 -0.004640 
#    y 0.000000 1.710270 0.000000 
#    z -0.004640 0.000000 1.750960 
# 
# From -- ./inp_files/382487.got.cif
#   From: 2010.06.25/outbox.cif.g09.slc.cpg/sg12_192_cif.got.tgz:382487.got - 2010.06.28 00:19:55.
