data_PCOD8093796
_publ_section_title
;
Structure prediction by ZEFSAII (Michael W. Deem and Ramdas Pophale) SiO2 
 PCOD8093796
Probable space group: C 2/M
;
_chemical_formula_sum "Si O2"
_cell_formula_units_Z 48
_cell_length_a 8.768534
_cell_length_b 17.003517
_cell_length_c 29.699785
_cell_angle_alpha 90.000000
_cell_angle_beta 146.322410
_cell_angle_gamma 90.000000
_cell_volume 2455.474762
_symmetry_space_group_name_H-M "C 2/M"
_symmetry_group_IT_number 12
_symmetry_cell_setting 'monoclinic'
loop_
_space_group_symop_operation_xyz
x,y,z
-x,y,-z
-x,-y,-z
x,-y,z
1/2+x,1/2+y,z
1/2-x,1/2+y,-z
1/2-x,1/2-y,-z
1/2+x,1/2-y,z
loop_
_atom_site_type_symbol
_atom_site_label
_atom_site_fract_x
_atom_site_fract_y
_atom_site_fract_z
Si Si1 0.537960 0.197668 0.806193
Si Si2 0.227642 0.910582 0.213229
Si Si3 0.566965 0.809554 0.661835
Si Si4 0.458225 0.217756 0.442518
Si Si5 0.182326 0.590822 0.921045
Si Si6 0.148212 0.656959 0.081656
O O1 0.630782 0.146836 0.787022
O O2 0.242340 0.235041 0.722919
O O3 0.512906 0.142436 0.843625
O O4 0.760865 0.265953 0.868769
O O5 0.346223 0.889156 0.291554
O O6 0.901429 0.899378 0.131626
O O7 0.301404 0.000000 0.219705
O O8 0.636662 0.827882 0.626027
O O9 0.250846 0.788373 0.595483
O O10 0.500000 0.167766 0.500000
O O11 0.750000 0.250000 0.500000
O O12 0.149095 0.500000 0.899399
O O13 0.063002 0.606149 0.941037
O O14 0.500000 0.615751 0.000000
O O15 0.000000 0.685297 0.000000
#
# Coordination Sequence:
#
# PCOD8093796 Si02
#       6
#     8   8   8   8   8   8
#     4  11  22  37  59  83 116 149 198 239 285 332
#     4  11  23  37  57  85 119 156 190 235 290 339
#     4  10  19  36  59  92 117 148 191 235 273 341
#     4   9  18  34  62  94 116 143 186 234 277 331
#     4  11  24  39  55  79 114 154 195 240 290 340
#     4  11  23  39  58  81 111 152 202 249 286 331
#
# _framework density 19.548155000000001
#
# number of rings (size 3 to 8) (size 9 to 14) (size 15 to 20)
#    0.000    1.500    1.667    4.500    2.333    4.667 
#    0.000    0.000    0.000    5.000    0.000    0.000 
#    0.000    0.000    0.000    0.000    0.000    0.000 
#
# Total GULP energy -297513.981657 kJ/mol
# GULP energy per Si atom -12396.415902 kJ/mol
# Density = 1.950366 g / cm^3
# Si number density = 19.548155 Si / 1000 Ang^3
#
#
#
# Elastic Constant Matrix: (Units=GPa)
#
#
# Indices 1 2 3 4 5 6 
#
# 1 108.8646 24.3076 46.6297 -0.0037 -8.2647 0.0040
# 2 24.3076 88.9011 33.7917 0.0039 -2.2784 -0.0046
# 3 46.6297 33.7917 106.8693 -0.0255 -10.9694 0.0240
# 4 -0.0037 0.0039 -0.0255 -255.3140 -0.0024 241.9887
# 5 -8.2647 -2.2784 -10.9694 -0.0024 48.7832 0.0029
# 6 0.0040 -0.0046 0.0240 241.9887 0.0029 -197.0013
#
#
#
# Elastic Compliance Matrix: (Units=1/GPa)
#
#
# Indices 1 2 3 4 5 6 
#
# 1 0.011484 -0.001417 -0.004473 0.000000 0.000874 0.000000
# 2 -0.001417 0.012965 -0.003525 0.000001 -0.000427 0.000000
# 3 -0.004473 -0.003525 0.012620 -0.000001 0.001915 0.000000
# 4 0.000000 0.000001 -0.000001 0.023846 -0.000001 0.029292
# 5 0.000874 -0.000427 0.001915 -0.000001 0.021058 0.000000
# 6 0.000000 0.000000 0.000000 0.029292 0.000000 0.030905
#
#
# Mechanical properties :
#
#
# Convention : Reuss Voigt Hill
#
# Bulk Modulus (GPa) = 54.82862 57.12146 55.97504
# Shear Modulus (GPa) = 36.28761 -67.37935 -15.54587
#
# Velocity S-wave (km/s) = 4.31318 -5.87735 -2.82310
# Velocity P-wave (km/s) = 7.27417 4.09552 4.25090
#
# Compressibility (1/GPa) = 0.01823865
#
# Stress axis : x y z
#
# Youngs Moduli (GPa) = 87.07398 77.13140 79.23890
#
# Poissons Ratio (x) = 0.10933 0.35444
# Poissons Ratio (y) = 0.12343 0.27930
# Poissons Ratio (z) = 0.38949 0.27187
#
# Static dielectric constant tensor:
#      x y z
#    x 4.073350 0.000000 -0.415190 
#    y 0.000000 3.258790 0.000000 
#    z -0.415190 0.000000 3.998190 
# 
# 
# High freq. dielectric constant tensor:
#      x y z
#    x 1.784980 0.000000 -0.008930 
#    y 0.000000 1.722510 0.000000 
#    z -0.008930 0.000000 1.772330 
# 
# From -- ./inp_files/256133.got.cif
#   From: 2010.06.25/outbox.cif.g09.slc.cpg/sg12_129_cif.got.tgz:256133.got - 2010.06.28 00:19:55.
