data_PCOD8093313
_publ_section_title
;
Structure prediction by ZEFSAII (Michael W. Deem and Ramdas Pophale) SiO2 
 PCOD8093313
Probable space group: C 2/M
;
_chemical_formula_sum "Si O2"
_cell_formula_units_Z 64
_cell_length_a 15.074629
_cell_length_b 18.384620
_cell_length_c 25.830439
_cell_angle_alpha 90.000000
_cell_angle_beta 151.990682
_cell_angle_gamma 90.000000
_cell_volume 3361.825574
_symmetry_space_group_name_H-M "C 2/M"
_symmetry_group_IT_number 12
_symmetry_cell_setting 'monoclinic'
loop_
_space_group_symop_operation_xyz
x,y,z
-x,y,-z
-x,-y,-z
x,-y,z
1/2+x,1/2+y,z
1/2-x,1/2+y,-z
1/2-x,1/2-y,-z
1/2+x,1/2-y,z
loop_
_atom_site_type_symbol
_atom_site_label
_atom_site_fract_x
_atom_site_fract_y
_atom_site_fract_z
Si Si1 0.300631 0.188845 0.872746
Si Si2 0.359909 0.208857 0.126910
Si Si3 0.507243 0.918412 0.736118
Si Si4 0.589607 0.415023 0.493782
Si Si5 0.033730 0.789970 0.125819
Si Si6 0.993199 0.087068 0.330160
Si Si7 0.891298 0.584890 0.493460
Si Si8 0.707635 0.081277 0.735840
O O1 0.167907 0.225448 0.847319
O O2 0.332658 0.250563 0.846466
O O3 0.192068 0.120359 0.792363
O O4 0.500000 0.161997 0.000000
O O5 0.452028 0.136740 0.197103
O O6 0.503893 0.235272 0.157579
O O7 0.161444 0.185411 0.000329
O O8 0.311449 0.898199 0.607575
O O9 0.672963 0.913715 0.779307
O O10 0.496718 0.000000 0.754194
O O11 0.500000 0.379382 0.500000
O O12 0.546839 0.500000 0.472676
O O13 0.503146 0.384873 0.395165
O O14 0.129795 0.863103 0.196590
O O15 0.180291 0.115371 0.395631
O O16 0.978624 0.000000 0.320465
O O17 0.869189 0.500000 0.471419
O O18 0.000000 0.620797 0.500000
O O19 0.014082 0.601200 0.607386
O O20 0.774127 0.000000 0.754421
#
# Coordination Sequence:
#
# PCOD8093313 Si02
#       8
#     8   8   8   8   8   8   8   8
#     4  10  22  40  58  79 113 155 193 235 289 342
#     4  10  22  40  58  79 114 156 190 230 292 349
#     4  10  19  35  61  88 113 143 190 244 287 338
#     4   9  18  33  54  81 114 148 180 226 289 340
#     4  10  22  40  58  79 114 156 190 230 292 349
#     4  10  20  36  59  84 111 149 193 233 278 338
#     4   9  18  33  54  81 114 148 180 226 289 340
#     4  10  19  35  61  88 113 143 190 244 287 338
#
# _framework density 19.037275999999999
#
# number of rings (size 3 to 8) (size 9 to 14) (size 15 to 20)
#    0.000    2.250    2.500    0.000    3.500    0.750 
#    0.000    3.750    0.000    4.500    0.000    0.000 
#    0.000    0.000    0.000    0.000    0.000    0.000 
#
# Total GULP energy -396733.628510 kJ/mol
# GULP energy per Si atom -12397.925891 kJ/mol
# Density = 1.899395 g / cm^3
# Si number density = 19.037276 Si / 1000 Ang^3
#
#
#
# Elastic Constant Matrix: (Units=GPa)
#
#
# Indices 1 2 3 4 5 6 
#
# 1 74.8271 9.2124 39.2197 -0.0081 -9.1771 -0.0003
# 2 9.2124 65.9448 64.6401 -0.0041 -2.6269 -0.0006
# 3 39.2197 64.6401 110.2493 -0.0229 -5.3262 0.0013
# 4 -0.0081 -0.0041 -0.0229 21.9972 -0.0013 -6.4173
# 5 -9.1771 -2.6269 -5.3262 -0.0013 26.6544 -0.0002
# 6 -0.0003 -0.0006 0.0013 -6.4173 -0.0002 7.7417
#
#
#
# Elastic Compliance Matrix: (Units=1/GPa)
#
#
# Indices 1 2 3 4 5 6 
#
# 1 0.019148 0.009319 -0.012029 -0.000003 0.005107 0.000001
# 2 0.009319 0.040204 -0.026799 -0.000019 0.001816 -0.000007
# 3 -0.012029 -0.026799 0.029015 0.000024 -0.000985 0.000013
# 4 -0.000003 -0.000019 0.000024 0.059960 0.000005 0.049702
# 5 0.005107 0.001816 -0.000985 0.000005 0.039258 0.000006
# 6 0.000001 -0.000007 0.000013 0.049702 0.000006 0.170371
#
#
# Mechanical properties :
#
#
# Convention : Reuss Voigt Hill
#
# Bulk Modulus (GPa) = 34.07312 53.01838 43.54575
# Shear Modulus (GPa) = 11.71631 20.47526 16.09579
#
# Velocity S-wave (km/s) = 2.48350 3.28309 2.91088
# Velocity P-wave (km/s) = 5.11475 6.50245 5.84989
#
# Compressibility (1/GPa) = 0.02934864
#
# Stress axis : x y z
#
# Youngs Moduli (GPa) = 52.22473 24.87336 34.46543
#
# Poissons Ratio (x) = -0.23181 0.41458
# Poissons Ratio (y) = -0.48671 0.92365
# Poissons Ratio (z) = 0.62821 0.66659
#
# Static dielectric constant tensor:
#      x y z
#    x 3.716350 0.000000 -0.068180 
#    y 0.000000 3.103550 0.000000 
#    z -0.068180 0.000000 3.445370 
# 
# 
# High freq. dielectric constant tensor:
#      x y z
#    x 1.750920 0.000000 -0.003800 
#    y 0.000000 1.706700 0.000000 
#    z -0.003800 0.000000 1.737960 
# 
# From -- ./inp_files/340843.got.cif
#   From: 2010.06.25/outbox.cif.g09.slc.cpg/sg12_171_cif.got.tgz:340843.got - 2010.06.28 00:19:55.
