data_PCOD8093200
_publ_section_title
;
Structure prediction by ZEFSAII (Michael W. Deem and Ramdas Pophale) SiO2 
 PCOD8093200
Probable space group: C 2/M
;
_chemical_formula_sum "Si O2"
_cell_formula_units_Z 56
_cell_length_a 25.166837
_cell_length_b 9.108661
_cell_length_c 12.694730
_cell_angle_alpha 90.000000
_cell_angle_beta 86.204201
_cell_angle_gamma 90.000000
_cell_volume 2903.707701
_symmetry_space_group_name_H-M "C 2/M"
_symmetry_group_IT_number 12
_symmetry_cell_setting 'monoclinic'
loop_
_space_group_symop_operation_xyz
x,y,z
-x,y,-z
-x,-y,-z
x,-y,z
1/2+x,1/2+y,z
1/2-x,1/2+y,-z
1/2-x,1/2-y,-z
1/2+x,1/2-y,z
loop_
_atom_site_type_symbol
_atom_site_label
_atom_site_fract_x
_atom_site_fract_y
_atom_site_fract_z
Si Si1 0.408025 0.666669 0.519613
Si Si2 0.634218 0.829499 0.089241
Si Si3 0.285812 0.333324 0.577394
Si Si4 0.436616 0.671834 0.291916
Si Si5 0.442923 0.327263 0.738660
Si Si6 0.263501 0.168983 0.792024
Si Si7 0.145392 0.826024 0.871232
O O1 0.428511 0.500000 0.517550
O O2 0.344906 0.677457 0.526008
O O3 0.429263 0.743933 0.409464
O O4 0.431747 0.738036 0.622975
O O5 0.593093 0.760057 0.175859
O O6 0.694878 0.806120 0.119187
O O7 0.620586 0.000000 0.078971
O O8 0.626293 0.750588 0.979716
O O9 0.266208 0.500000 0.587773
O O10 0.250000 0.250000 0.500000
O O11 0.282876 0.264499 0.692470
O O12 0.425308 0.500000 0.305281
O O13 0.495616 0.702439 0.240469
O O14 0.393209 0.734633 0.215905
O O15 0.428375 0.500000 0.746513
O O16 0.205597 0.221685 0.837300
O O17 0.261652 0.000000 0.756040
O O18 0.140371 0.000000 0.887167
#
# Coordination Sequence:
#
# PCOD8093200 Si02
#       7
#     8   8   8   8   8   8   8
#     4   9  17  32  55  84 113 142 182 230 277 326
#     4  11  23  38  57  82 114 150 188 233 283 338
#     4  11  21  33  54  84 118 153 185 225 276 335
#     4   9  18  33  57  86 112 140 183 238 284 323
#     4  10  19  35  60  86 110 143 188 232 277 335
#     4  10  21  38  58  81 112 147 186 235 284 332
#     4  10  21  38  59  82 111 147 189 238 284 333
#
# _framework density 19.285688
#
# number of rings (size 3 to 8) (size 9 to 14) (size 15 to 20)
#    0.000    2.000    1.429    2.571    0.000    5.714 
#    0.000    3.571    0.000    4.286    0.000    0.000 
#    0.000    0.000    0.000    0.000    0.000    0.000 
#
# Total GULP energy -347217.633173 kJ/mol
# GULP energy per Si atom -12400.629756 kJ/mol
# Density = 1.924179 g / cm^3
# Si number density = 19.285688 Si / 1000 Ang^3
#
#
#
# Elastic Constant Matrix: (Units=GPa)
#
#
# Indices 1 2 3 4 5 6 
#
# 1 97.2650 21.4266 42.0310 0.0000 -5.7240 0.0000
# 2 21.4266 49.6762 29.5583 0.0000 -1.9751 0.0000
# 3 42.0310 29.5583 118.8793 0.0000 -1.2920 0.0000
# 4 0.0000 0.0000 0.0000 15.5306 0.0000 0.6533
# 5 -5.7240 -1.9751 -1.2920 0.0000 24.3660 0.0000
# 6 0.0000 0.0000 0.0000 0.6533 0.0000 23.4328
#
#
#
# Elastic Compliance Matrix: (Units=1/GPa)
#
#
# Indices 1 2 3 4 5 6 
#
# 1 0.012724 -0.003200 -0.003675 0.000000 0.002535 0.000000
# 2 -0.003200 0.024494 -0.004948 0.000000 0.000971 0.000000
# 3 -0.003675 -0.004948 0.010934 0.000000 -0.000685 0.000000
# 4 0.000000 0.000000 0.000000 0.064464 0.000000 -0.001797
# 5 0.002535 0.000971 -0.000685 0.000000 0.041679 0.000000
# 6 0.000000 0.000000 0.000000 -0.001797 0.000000 0.042725
#
#
# Mechanical properties :
#
#
# Convention : Reuss Voigt Hill
#
# Bulk Modulus (GPa) = 40.80971 50.20580 45.50776
# Shear Modulus (GPa) = 21.84980 24.18619 23.01800
#
# Velocity S-wave (km/s) = 3.36959 3.54517 3.45849
# Velocity P-wave (km/s) = 6.02872 6.54575 6.29254
#
# Compressibility (1/GPa) = 0.02450397
#
# Stress axis : x y z
#
# Youngs Moduli (GPa) = 78.59447 40.82711 91.45647
#
# Poissons Ratio (x) = 0.13066 0.33613
# Poissons Ratio (y) = 0.25153 0.45253
# Poissons Ratio (z) = 0.28885 0.20201
#
# Static dielectric constant tensor:
#      x y z
#    x 3.697970 0.000000 0.039410 
#    y 0.000000 2.284120 0.000000 
#    z 0.039410 0.000000 3.911760 
# 
# 
# High freq. dielectric constant tensor:
#      x y z
#    x 1.763440 0.000000 0.002310 
#    y 0.000000 1.713040 0.000000 
#    z 0.002310 0.000000 1.762860 
# 
# From -- ./inp_files/180876.got.cif
#   From: 2010.06.25/outbox.cif.g09.slc.cpg/sg12_91_cif.got.tgz:180876.got - 2010.06.28 00:19:55.
