data_PCOD8093268
_publ_section_title
;
Structure prediction by ZEFSAII (Michael W. Deem and Ramdas Pophale) SiO2 
 PCOD8093268
Probable space group: C 2/M
;
_chemical_formula_sum "Si O2"
_cell_formula_units_Z 52
_cell_length_a 11.533183
_cell_length_b 28.888767
_cell_length_c 11.573143
_cell_angle_alpha 90.000000
_cell_angle_beta 40.711641
_cell_angle_gamma 90.000000
_cell_volume 2515.041815
_symmetry_space_group_name_H-M "C 2/M"
_symmetry_group_IT_number 12
_symmetry_cell_setting 'monoclinic'
loop_
_space_group_symop_operation_xyz
x,y,z
-x,y,-z
-x,-y,-z
x,-y,z
1/2+x,1/2+y,z
1/2-x,1/2+y,-z
1/2-x,1/2-y,-z
1/2+x,1/2-y,z
loop_
_atom_site_type_symbol
_atom_site_label
_atom_site_fract_x
_atom_site_fract_y
_atom_site_fract_z
Si Si1 0.000000 0.148219 0.500000
Si Si2 0.034957 0.713755 0.103498
Si Si3 0.945994 0.802795 0.777718
Si Si4 0.162797 0.551952 0.098118
Si Si5 0.109690 0.382930 0.798065
Si Si6 0.006352 0.892655 0.132533
Si Si7 0.312573 0.949012 0.654195
O O1 0.997612 0.183573 0.394022
O O2 0.174129 0.114222 0.358874
O O3 0.980445 0.752676 0.238493
O O4 0.920307 0.669062 0.225090
O O5 0.236835 0.697737 0.956407
O O6 0.000000 0.732005 0.000000
O O7 0.025356 0.840672 0.803804
O O8 0.157525 0.500000 0.046027
O O9 0.223977 0.546367 0.183063
O O10 0.972118 0.577531 0.224630
O O11 0.321841 0.585080 0.931502
O O12 0.000000 0.389974 0.000000
O O13 0.837465 0.922068 0.302799
O O14 0.000000 0.892938 0.000000
O O15 0.500000 0.922490 0.500000
O O16 0.324942 0.000000 0.587413
#
# Coordination Sequence:
#
# PCOD8093268 Si02
#       7
#     4   8   8   8   8   8   8
#     4  12  24  40  65  92 118 166 201 244 310 366
#     4  10  20  42  64  84 123 162 193 251 307 351
#     4  11  22  37  65  91 119 160 204 244 303 364
#     4  10  20  36  60  85 116 159 203 248 299 360
#     4  11  22  43  62  87 124 161 200 252 306 356
#     4  10  19  35  60  90 117 158 206 245 299 361
#     4   9  19  34  53  84 123 154 190 249 308 349
#
# _framework density 20.675599999999999
#
# number of rings (size 3 to 8) (size 9 to 14) (size 15 to 20)
#    0.000    1.692    4.615    0.923    2.154    2.769 
#    0.000    0.385    3.385    0.000    0.000    0.000 
#    0.000    0.000    0.000    0.000    0.000    0.000 
#
# Total GULP energy -322131.510416 kJ/mol
# GULP energy per Si atom -12389.673478 kJ/mol
# Density = 2.062854 g / cm^3
# Si number density = 20.675600 Si / 1000 Ang^3
#
#
#
# Elastic Constant Matrix: (Units=GPa)
#
#
# Indices 1 2 3 4 5 6 
#
# 1 91.7262 56.7605 30.9514 0.0000 -16.7391 0.0000
# 2 56.7605 115.6890 36.1675 0.0000 -12.0539 0.0000
# 3 30.9514 36.1675 76.5346 0.0000 -20.3216 0.0000
# 4 0.0000 0.0000 0.0000 18.7699 0.0000 -5.7480
# 5 -16.7391 -12.0539 -20.3216 0.0000 34.0289 0.0000
# 6 0.0000 0.0000 0.0000 -5.7480 0.0000 25.2035
#
#
#
# Elastic Compliance Matrix: (Units=1/GPa)
#
#
# Indices 1 2 3 4 5 6 
#
# 1 0.016878 -0.007103 -0.002297 0.000000 0.004415 0.000000
# 2 -0.007103 0.013153 -0.003606 0.000000 -0.000988 0.000000
# 3 -0.002297 -0.003606 0.017898 0.000000 0.008281 0.000000
# 4 0.000000 0.000000 0.000000 0.057277 0.000000 0.013063
# 5 0.004415 -0.000988 0.008281 0.000000 0.036154 0.000000
# 6 0.000000 0.000000 0.000000 0.013063 0.000000 0.042656
#
#
# Mechanical properties :
#
#
# Convention : Reuss Voigt Hill
#
# Bulk Modulus (GPa) = 45.62443 59.07876 52.35160
# Shear Modulus (GPa) = 23.00629 26.27182 24.63905
#
# Velocity S-wave (km/s) = 3.33937 3.56851 3.45584
# Velocity P-wave (km/s) = 6.08139 6.75390 6.42645
#
# Compressibility (1/GPa) = 0.02191808
#
# Stress axis : x y z
#
# Youngs Moduli (GPa) = 59.24902 76.02870 55.87360
#
# Poissons Ratio (x) = 0.54001 0.12834
# Poissons Ratio (y) = 0.42083 0.20145
# Poissons Ratio (z) = 0.13609 0.27412
#
# Static dielectric constant tensor:
#      x y z
#    x 3.886040 0.000000 -0.254780 
#    y 0.000000 3.920530 0.000000 
#    z -0.254780 0.000000 3.653930 
# 
# 
# High freq. dielectric constant tensor:
#      x y z
#    x 1.808030 0.000000 -0.017080 
#    y 0.000000 1.805610 0.000000 
#    z -0.017080 0.000000 1.790890 
# 
# From -- ./inp_files/137566.got.cif
#   From: 2010.06.25/outbox.cif.g09.slc.cpg/sg12_69_cif.got.tgz:137566.got - 2010.06.28 00:19:55.
