data_PCOD8093113
_publ_section_title
;
Structure prediction by ZEFSAII (Michael W. Deem and Ramdas Pophale) SiO2 
 PCOD8093113
Probable space group: C 2/M
;
_chemical_formula_sum "Si O2"
_cell_formula_units_Z 56
_cell_length_a 30.189903
_cell_length_b 8.830909
_cell_length_c 11.640098
_cell_angle_alpha 90.000000
_cell_angle_beta 63.862767
_cell_angle_gamma 90.000000
_cell_volume 2785.961203
_symmetry_space_group_name_H-M "C 2/M"
_symmetry_group_IT_number 12
_symmetry_cell_setting 'monoclinic'
loop_
_space_group_symop_operation_xyz
x,y,z
-x,y,-z
-x,-y,-z
x,-y,z
1/2+x,1/2+y,z
1/2-x,1/2+y,-z
1/2-x,1/2-y,-z
1/2+x,1/2-y,z
loop_
_atom_site_type_symbol
_atom_site_label
_atom_site_fract_x
_atom_site_fract_y
_atom_site_fract_z
Si Si1 0.726950 0.175718 0.205533
Si Si2 0.707881 0.678854 0.470221
Si Si3 0.572181 0.672031 0.183550
Si Si4 0.511783 0.821118 0.861827
Si Si5 0.557957 0.173042 0.427251
Si Si6 0.104993 0.678110 0.616438
Si Si7 0.318810 0.672984 0.954928
O O1 0.714137 0.272171 0.331561
O O2 0.690835 0.218671 0.142393
O O3 0.719105 0.000000 0.244801
O O4 0.782955 0.212268 0.102295
O O5 0.711356 0.500000 0.475463
O O6 0.750000 0.750000 0.500000
O O7 0.655347 0.732439 0.579948
O O8 0.554019 0.500000 0.193034
O O9 0.531703 0.779516 0.174859
O O10 0.580005 0.715042 0.307366
O O11 0.625486 0.695582 0.062849
O O12 0.564839 0.764026 0.755821
O O13 0.513116 0.000000 0.866636
O O14 0.500000 0.749461 0.000000
O O15 0.500000 0.199558 0.500000
O O16 0.583351 0.218321 0.516913
O O17 0.569999 0.000000 0.380677
O O18 0.115080 0.500000 0.617125
O O19 0.309816 0.500000 0.924862
#
# Coordination Sequence:
#
# PCOD8093113 Si02
#       7
#     8   8   8   8   8   8   8
#     4  10  20  38  62  88 119 156 199 246 299 353
#     4  12  26  43  63  87 118 156 203 252 303 358
#     4  11  22  35  55  86 122 155 193 240 291 349
#     4  10  22  41  62  84 115 155 198 240 286 351
#     4  10  19  35  59  86 119 157 195 240 290 346
#     4  10  21  40  64  90 120 154 195 245 300 352
#     4   9  20  37  58  88 124 158 193 240 297 356
#
# _framework density 20.100781999999999
#
# number of rings (size 3 to 8) (size 9 to 14) (size 15 to 20)
#    0.000    1.714    1.429    3.000    0.000    6.857 
#    0.000    2.857    0.000    0.000    0.000    0.000 
#    0.000    0.000    0.000    0.000    0.000    0.000 
#
# Total GULP energy -347273.367759 kJ/mol
# GULP energy per Si atom -12402.620277 kJ/mol
# Density = 2.005503 g / cm^3
# Si number density = 20.100782 Si / 1000 Ang^3
#
#
#
# Elastic Constant Matrix: (Units=GPa)
#
#
# Indices 1 2 3 4 5 6 
#
# 1 128.7326 43.6390 57.0390 0.0000 -21.3534 0.0000
# 2 43.6390 60.7094 39.3157 0.0000 -5.3395 0.0000
# 3 57.0390 39.3157 124.8036 0.0000 -15.8913 0.0000
# 4 0.0000 0.0000 0.0000 24.1797 0.0000 -3.6356
# 5 -21.3534 -5.3395 -15.8913 0.0000 24.6801 0.0000
# 6 0.0000 0.0000 0.0000 -3.6356 0.0000 30.1734
#
#
#
# Elastic Compliance Matrix: (Units=1/GPa)
#
#
# Indices 1 2 3 4 5 6 
#
# 1 0.012425 -0.006548 -0.002644 0.000000 0.007631 0.000000
# 2 -0.006548 0.024146 -0.005087 0.000000 -0.003717 0.000000
# 3 -0.002644 -0.005087 0.011320 0.000000 0.003901 0.000000
# 4 0.000000 0.000000 0.000000 0.042120 0.000000 0.005075
# 5 0.007631 -0.003717 0.003901 0.000000 0.048828 0.000000
# 6 0.000000 0.000000 0.000000 0.005075 0.000000 0.033753
#
#
# Mechanical properties :
#
#
# Convention : Reuss Voigt Hill
#
# Bulk Modulus (GPa) = 51.72509 66.02589 58.87549
# Shear Modulus (GPa) = 24.08520 27.42342 25.75431
#
# Velocity S-wave (km/s) = 3.46529 3.69765 3.58335
# Velocity P-wave (km/s) = 6.46527 7.15184 6.81720
#
# Compressibility (1/GPa) = 0.01933298
#
# Stress axis : x y z
#
# Youngs Moduli (GPa) = 80.48233 41.41439 88.33620
#
# Poissons Ratio (x) = 0.27117 0.23359
# Poissons Ratio (y) = 0.52698 0.44939
# Poissons Ratio (z) = 0.21282 0.21069
#
# Static dielectric constant tensor:
#      x y z
#    x 4.452880 0.000000 -0.018630 
#    y 0.000000 3.558700 0.000000 
#    z -0.018630 0.000000 3.985860 
# 
# 
# High freq. dielectric constant tensor:
#      x y z
#    x 1.788190 0.000000 -0.017270 
#    y 0.000000 1.778200 0.000000 
#    z -0.017270 0.000000 1.788340 
# 
# From -- ./inp_files/186364.got.cif
#   From: 2010.06.25/outbox.cif.g09.slc.cpg/sg12_94_cif.got.tgz:186364.got - 2010.06.28 00:19:55.
