data_PCOD8093576
_publ_section_title
;
Structure prediction by ZEFSAII (Michael W. Deem and Ramdas Pophale) SiO2 
 PCOD8093576
Probable space group: C 2/M
;
_chemical_formula_sum "Si O2"
_cell_formula_units_Z 32
_cell_length_a 8.749784
_cell_length_b 21.544999
_cell_length_c 14.187884
_cell_angle_alpha 90.000000
_cell_angle_beta 35.103100
_cell_angle_gamma 90.000000
_cell_volume 1538.036644
_symmetry_space_group_name_H-M "C 2/M"
_symmetry_group_IT_number 12
_symmetry_cell_setting 'monoclinic'
loop_
_space_group_symop_operation_xyz
x,y,z
-x,y,-z
-x,-y,-z
x,-y,z
1/2+x,1/2+y,z
1/2-x,1/2+y,-z
1/2-x,1/2-y,-z
1/2+x,1/2-y,z
loop_
_atom_site_type_symbol
_atom_site_label
_atom_site_fract_x
_atom_site_fract_y
_atom_site_fract_z
Si Si1 0.000000 0.243335 0.000000
Si Si2 0.399758 0.395593 0.395359
Si Si3 0.699446 0.000000 0.608671
Si Si4 0.947160 0.200657 0.227719
Si Si5 0.177609 0.500000 0.820145
Si Si6 0.000000 0.795841 0.500000
O O1 0.937603 0.198011 0.119308
O O2 0.750165 0.287999 0.106892
O O3 0.163874 0.438166 0.561277
O O4 0.334668 0.365026 0.326116
O O5 0.655224 0.437804 0.255007
O O6 0.469913 0.337163 0.423449
O O7 0.524105 0.000000 0.793953
O O8 0.000000 0.000000 0.500000
O O9 0.765100 0.255773 0.358124
O O10 0.000000 0.500000 0.000000
#
# Coordination Sequence:
#
# PCOD8093576 Si02
#       6
#     4   8   4   8   4   4
#     4  10  24  38  52  86 132 162 186 244 310 346
#     4  10  19  36  57  84 122 146 209 245 285 346
#     4   8  16  36  54  78 113 152 199 258 279 323
#     4  11  23  38  58  89 125 162 195 242 300 358
#     4  10  20  32  58  86 113 156 195 254 299 328
#     4  12  20  37  62  93 116 164 196 242 290 364
#
# _framework density 20.805744000000001
#
# number of rings (size 3 to 8) (size 9 to 14) (size 15 to 20)
#    0.000    2.000    6.250    0.750    1.750    0.000 
#    0.000    0.000    0.000    6.000    0.000    0.000 
#    0.000    0.000    0.000    0.000    0.000    0.000 
#
# Total GULP energy -198224.717703 kJ/mol
# GULP energy per Si atom -12389.044856 kJ/mol
# Density = 2.075839 g / cm^3
# Si number density = 20.805744 Si / 1000 Ang^3
#
#
#
# Elastic Constant Matrix: (Units=GPa)
#
#
# Indices 1 2 3 4 5 6 
#
# 1 76.0559 42.2152 42.5358 0.0006 32.5339 -0.0011
# 2 42.2152 142.5229 58.5530 0.0000 31.3459 0.0001
# 3 42.5358 58.5530 132.2626 0.0012 38.5705 -0.0055
# 4 0.0006 0.0000 0.0012 29.8361 -0.0008 25.5583
# 5 32.5339 31.3459 38.5705 -0.0008 53.1200 0.0020
# 6 -0.0011 0.0001 -0.0055 25.5583 0.0020 42.8462
#
#
#
# Elastic Compliance Matrix: (Units=1/GPa)
#
#
# Indices 1 2 3 4 5 6 
#
# 1 0.019898 -0.002943 -0.002599 -0.000002 -0.008563 0.000002
# 2 -0.002943 0.009385 -0.002688 0.000001 -0.001784 -0.000001
# 3 -0.002599 -0.002688 0.010986 -0.000004 -0.004799 0.000004
# 4 -0.000002 0.000001 -0.000004 0.068539 0.000006 -0.040884
# 5 -0.008563 -0.001784 -0.004799 0.000006 0.028607 -0.000006
# 6 0.000002 -0.000001 0.000004 -0.040884 -0.000006 0.047727
#
#
# Mechanical properties :
#
#
# Convention : Reuss Voigt Hill
#
# Bulk Modulus (GPa) = 42.00130 70.82772 56.41451
# Shear Modulus (GPa) = 23.86196 38.99630 31.42913
#
# Velocity S-wave (km/s) = 3.39025 4.33402 3.89086
# Velocity P-wave (km/s) = 5.96291 7.69164 6.88177
#
# Compressibility (1/GPa) = 0.02380879
#
# Stress axis : x y z
#
# Youngs Moduli (GPa) = 50.25571 106.55653 91.02382
#
# Poissons Ratio (x) = 0.31355 0.23661
# Poissons Ratio (y) = 0.14788 0.24468
# Poissons Ratio (z) = 0.13064 0.28643
#
# Static dielectric constant tensor:
#      x y z
#    x 3.863890 0.000000 0.700020 
#    y 0.000000 3.879340 0.000000 
#    z 0.700020 0.000000 4.316760 
# 
# 
# High freq. dielectric constant tensor:
#      x y z
#    x 1.790760 0.000000 0.042400 
#    y 0.000000 1.812210 0.000000 
#    z 0.042400 0.000000 1.816180 
# 
# From -- ./inp_files/120542.got.cif
#   From: 2010.06.25/outbox.cif.g09.slc.cpg/sg12_61_cif.got.tgz:120542.got - 2010.06.28 00:19:55.
