data_PCOD8093886
_publ_section_title
;
Structure prediction by ZEFSAII (Michael W. Deem and Ramdas Pophale) SiO2 
 PCOD8093886
Probable space group: C 2/M
;
_chemical_formula_sum "Si O2"
_cell_formula_units_Z 60
_cell_length_a 16.434171
_cell_length_b 17.555987
_cell_length_c 11.649311
_cell_angle_alpha 90.000000
_cell_angle_beta 67.031088
_cell_angle_gamma 90.000000
_cell_volume 3094.562965
_symmetry_space_group_name_H-M "C 2/M"
_symmetry_group_IT_number 12
_symmetry_cell_setting 'monoclinic'
loop_
_space_group_symop_operation_xyz
x,y,z
-x,y,-z
-x,-y,-z
x,-y,z
1/2+x,1/2+y,z
1/2-x,1/2+y,-z
1/2-x,1/2-y,-z
1/2+x,1/2-y,z
loop_
_atom_site_type_symbol
_atom_site_label
_atom_site_fract_x
_atom_site_fract_y
_atom_site_fract_z
Si Si1 0.699249 0.289554 0.926634
Si Si2 0.392838 0.914282 0.347961
Si Si3 0.054349 0.826032 0.164504
Si Si4 0.000000 0.634695 0.500000
Si Si5 0.956102 0.088002 0.402604
Si Si6 0.716515 0.673951 0.458947
Si Si7 0.148819 0.730716 0.299356
Si Si8 0.936823 0.297317 0.129662
O O1 0.772441 0.324028 0.796969
O O2 0.655749 0.220334 0.879155
O O3 0.750000 0.250000 0.000000
O O4 0.627000 0.347776 0.024182
O O5 0.459396 0.915435 0.420063
O O6 0.292569 0.889209 0.428961
O O7 0.432034 0.857027 0.234023
O O8 0.389500 0.000000 0.301345
O O9 0.094104 0.761634 0.223495
O O10 0.022994 0.897589 0.258762
O O11 0.971304 0.785636 0.150965
O O12 0.916621 0.685304 0.582904
O O13 0.869658 0.139661 0.430793
O O14 0.000000 0.110834 0.500000
O O15 0.929093 0.000000 0.417985
O O16 0.750000 0.750000 0.500000
O O17 0.691315 0.697181 0.343182
O O18 0.000000 0.334943 0.000000
#
# Coordination Sequence:
#
# PCOD8093886 Si02
#       8
#     8   8   8   4   8   8   8   8
#     4   9  20  34  57  91 114 147 198 264 301 349
#     4  12  25  40  58  88 128 165 202 249 314 380
#     4  10  19  36  60  86 119 151 205 252 302 362
#     4  12  23  38  60  92 125 166 202 256 311 368
#     4  11  23  38  59  91 131 165 195 245 315 380
#     4  12  22  36  60  89 119 154 207 253 298 354
#     4  11  19  34  60  90 116 149 209 261 303 346
#     4  10  20  37  62  88 115 157 207 258 306 360
#
# _framework density 19.388845
#
# number of rings (size 3 to 8) (size 9 to 14) (size 15 to 20)
#    0.000    1.200    5.333    2.200    0.000    0.267 
#    0.000    0.000    0.000    5.200    0.000    0.000 
#    0.000    0.000    0.000    0.000    0.000    0.000 
#
# Total GULP energy -371684.854398 kJ/mol
# GULP energy per Si atom -12389.495147 kJ/mol
# Density = 1.934471 g / cm^3
# Si number density = 19.388845 Si / 1000 Ang^3
#
#
#
# Elastic Constant Matrix: (Units=GPa)
#
#
# Indices 1 2 3 4 5 6 
#
# 1 106.3409 32.7294 41.6055 0.0000 -3.3376 0.0000
# 2 32.7294 63.3502 28.5711 0.0000 -7.5435 0.0000
# 3 41.6055 28.5711 124.9191 0.0000 -25.8366 0.0000
# 4 0.0000 0.0000 0.0000 11.6486 0.0000 -2.0771
# 5 -3.3376 -7.5435 -25.8366 0.0000 42.8170 0.0000
# 6 0.0000 0.0000 0.0000 -2.0771 0.0000 21.4046
#
#
#
# Elastic Compliance Matrix: (Units=1/GPa)
#
#
# Indices 1 2 3 4 5 6 
#
# 1 0.012186 -0.005035 -0.003307 0.000000 -0.001933 0.000000
# 2 -0.005035 0.019703 -0.002505 0.000000 0.001567 0.000000
# 3 -0.003307 -0.002505 0.010895 0.000000 0.005875 0.000000
# 4 0.000000 0.000000 0.000000 0.087359 0.000000 0.008477
# 5 -0.001933 0.001567 0.005875 0.000000 0.027026 0.000000
# 6 0.000000 0.000000 0.000000 0.008477 0.000000 0.047542
#
#
# Mechanical properties :
#
#
# Convention : Reuss Voigt Hill
#
# Bulk Modulus (GPa) = 47.41618 55.60245 51.50931
# Shear Modulus (GPa) = 21.41924 27.95430 24.68677
#
# Velocity S-wave (km/s) = 3.32734 3.80119 3.57213
# Velocity P-wave (km/s) = 6.26658 6.92858 6.60588
#
# Compressibility (1/GPa) = 0.02108985
#
# Stress axis : x y z
#
# Youngs Moduli (GPa) = 82.05806 50.75378 91.78744
#
# Poissons Ratio (x) = 0.25553 0.30354
# Poissons Ratio (y) = 0.41314 0.22997
# Poissons Ratio (z) = 0.27137 0.12716
#
# Static dielectric constant tensor:
#      x y z
#    x 4.150400 0.000000 -0.255570 
#    y 0.000000 3.037790 0.000000 
#    z -0.255570 0.000000 4.283350 
# 
# 
# High freq. dielectric constant tensor:
#      x y z
#    x 1.782810 0.000000 -0.001840 
#    y 0.000000 1.695360 0.000000 
#    z -0.001840 0.000000 1.772310 
# 
# From -- ./inp_files/146102.got.cif
#   From: 2010.06.25/outbox.cif.g09.slc.cpg/sg12_74_cif.got.tgz:146102.got - 2010.06.28 00:19:55.
