data_PCOD8093056
_publ_section_title
;
Structure prediction by ZEFSAII (Michael W. Deem and Ramdas Pophale) SiO2 
 PCOD8093056
Probable space group: C 2/M
;
_chemical_formula_sum "Si O2"
_cell_formula_units_Z 48
_cell_length_a 9.536426
_cell_length_b 16.077124
_cell_length_c 29.469799
_cell_angle_alpha 90.000000
_cell_angle_beta 147.996786
_cell_angle_gamma 90.000000
_cell_volume 2394.527728
_symmetry_space_group_name_H-M "C 2/M"
_symmetry_group_IT_number 12
_symmetry_cell_setting 'monoclinic'
loop_
_space_group_symop_operation_xyz
x,y,z
-x,y,-z
-x,-y,-z
x,-y,z
1/2+x,1/2+y,z
1/2-x,1/2+y,-z
1/2-x,1/2-y,-z
1/2+x,1/2-y,z
loop_
_atom_site_type_symbol
_atom_site_label
_atom_site_fract_x
_atom_site_fract_y
_atom_site_fract_z
Si Si1 0.163608 0.321242 0.776530
Si Si2 0.065240 0.407983 0.465892
Si Si3 0.890466 0.094738 0.160240
Si Si4 0.976600 0.855108 0.704687
Si Si5 0.617395 0.405711 0.645080
Si Si6 0.962090 0.752069 0.940569
O O1 0.350853 0.378054 0.797150
O O2 0.277659 0.309779 0.858666
O O3 0.129003 0.232160 0.743532
O O4 0.873717 0.357506 0.700084
O O5 0.053069 0.500000 0.439325
O O6 0.364168 0.370263 0.546877
O O7 0.000000 0.420744 0.500000
O O8 0.846233 0.347501 0.382883
O O9 0.943943 0.095523 0.228481
O O10 0.654161 0.158928 0.084548
O O11 0.813552 0.000000 0.125283
O O12 0.070796 0.904387 0.686348
O O13 0.659633 0.500000 0.642201
O O14 0.000000 0.794778 0.000000
O O15 0.250000 0.750000 0.000000
#
# Coordination Sequence:
#
# PCOD8093056 Si02
#       6
#     8   8   8   8   8   8
#     4  11  23  38  59  85 120 150 184 238 294 342
#     4   8  15  30  53  81 114 152 195 241 281 324
#     4  11  23  39  61  89 119 151 187 233 292 347
#     4  10  19  35  59  84 113 155 200 235 278 337
#     4  10  20  36  58  83 114 155 199 239 280 333
#     4  11  23  44  65  86 114 152 187 233 288 351
#
# _framework density 20.045707
#
# number of rings (size 3 to 8) (size 9 to 14) (size 15 to 20)
#    0.000    1.833    1.667    5.000    2.333    1.000 
#    0.000    2.500    0.000    5.500    0.000    0.000 
#    0.000    0.000    0.000    0.000    0.000    0.000 
#
# Total GULP energy -297417.539943 kJ/mol
# GULP energy per Si atom -12392.397498 kJ/mol
# Density = 2.000008 g / cm^3
# Si number density = 20.045707 Si / 1000 Ang^3
#
#
#
# Elastic Constant Matrix: (Units=GPa)
#
#
# Indices 1 2 3 4 5 6 
#
# 1 64.4475 5.4299 11.0612 -0.0002 16.1213 -0.0001
# 2 5.4299 58.1811 3.4019 -0.0010 9.7724 -0.0004
# 3 11.0612 3.4019 79.5516 -0.0017 19.5240 -0.0014
# 4 -0.0002 -0.0010 -0.0017 23.4944 -0.0009 8.6989
# 5 16.1213 9.7724 19.5240 -0.0009 40.4742 -0.0003
# 6 -0.0001 -0.0004 -0.0014 8.6989 -0.0003 17.0654
#
#
#
# Elastic Compliance Matrix: (Units=1/GPa)
#
#
# Indices 1 2 3 4 5 6 
#
# 1 0.017293 -0.000496 -0.000819 0.000000 -0.006373 0.000000
# 2 -0.000496 0.017936 0.000359 0.000001 -0.004306 0.000000
# 3 -0.000819 0.000359 0.014304 0.000001 -0.006660 0.000001
# 4 0.000000 0.000001 0.000001 0.052465 0.000001 -0.026744
# 5 -0.006373 -0.004306 -0.006660 0.000001 0.031498 0.000000
# 6 0.000000 0.000000 0.000001 -0.026744 0.000000 0.072231
#
#
# Mechanical properties :
#
#
# Convention : Reuss Voigt Hill
#
# Bulk Modulus (GPa) = 20.99911 26.88514 23.94213
# Shear Modulus (GPa) = 22.37009 28.35926 25.36467
#
# Velocity S-wave (km/s) = 3.34421 3.76537 3.56102
# Velocity P-wave (km/s) = 5.04084 5.68727 5.37378
#
# Compressibility (1/GPa) = 0.04762107
#
# Stress axis : x y z
#
# Youngs Moduli (GPa) = 57.82660 55.75282 69.91256
#
# Poissons Ratio (x) = 0.02763 0.05727
# Poissons Ratio (y) = 0.02866 -0.02508
# Poissons Ratio (z) = 0.04737 -0.02000
#
# Static dielectric constant tensor:
#      x y z
#    x 3.865860 0.000000 -0.239320 
#    y 0.000000 3.542350 0.000000 
#    z -0.239320 0.000000 4.319650 
# 
# 
# High freq. dielectric constant tensor:
#      x y z
#    x 1.772180 0.000000 0.005750 
#    y 0.000000 1.762510 0.000000 
#    z 0.005750 0.000000 1.800170 
# 
# From -- ./inp_files/251407.got.cif
#   From: 2010.06.25/outbox.cif.g09.slc.cpg/sg12_126_cif.got.tgz:251407.got - 2010.06.28 00:19:55.
