data_PCOD8093001
_publ_section_title
;
Structure prediction by ZEFSAII (Michael W. Deem and Ramdas Pophale) SiO2 
 PCOD8093001
Probable space group: C 2/M
;
_chemical_formula_sum "Si O2"
_cell_formula_units_Z 56
_cell_length_a 15.903007
_cell_length_b 8.705756
_cell_length_c 23.555051
_cell_angle_alpha 90.000000
_cell_angle_beta 57.913374
_cell_angle_gamma 90.000000
_cell_volume 2762.989821
_symmetry_space_group_name_H-M "C 2/M"
_symmetry_group_IT_number 12
_symmetry_cell_setting 'monoclinic'
loop_
_space_group_symop_operation_xyz
x,y,z
-x,y,-z
-x,-y,-z
x,-y,z
1/2+x,1/2+y,z
1/2-x,1/2+y,-z
1/2-x,1/2-y,-z
1/2+x,1/2-y,z
loop_
_atom_site_type_symbol
_atom_site_label
_atom_site_fract_x
_atom_site_fract_y
_atom_site_fract_z
Si Si1 0.266665 0.823999 0.434153
Si Si2 0.451039 0.818540 0.846367
Si Si3 0.728551 0.181454 0.162466
Si Si4 0.401169 0.174448 0.571420
Si Si5 0.174182 0.181560 0.297964
Si Si6 0.126636 0.682121 0.708974
Si Si7 0.947248 0.682181 0.076260
O O1 0.250000 0.750000 0.500000
O O2 0.169290 0.799108 0.432092
O O3 0.356864 0.757737 0.362158
O O4 0.285573 0.000000 0.440052
O O5 0.338050 0.775555 0.869581
O O6 0.526478 0.748800 0.772004
O O7 0.483813 0.756061 0.896613
O O8 0.464343 0.000000 0.842371
O O9 0.669282 0.254282 0.236203
O O10 0.837752 0.248619 0.116948
O O11 0.735332 0.000000 0.168199
O O12 0.500000 0.181285 0.500000
O O13 0.410679 0.233044 0.633370
O O14 0.359340 0.000000 0.585323
O O15 0.281641 0.229909 0.283932
O O16 0.155855 0.000000 0.304491
O O17 0.122363 0.500000 0.707910
O O18 0.935365 0.500000 0.082995
O O19 0.000000 0.737576 0.000000
#
# Coordination Sequence:
#
# PCOD8093001 Si02
#       7
#     8   8   8   8   8   8   8
#     4  10  20  33  52  78 108 149 196 246 298 352
#     4   9  18  35  58  85 116 152 194 236 291 357
#     4  11  22  35  58  90 121 154 193 243 297 353
#     4  10  21  36  54  78 112 153 195 243 299 359
#     4  10  19  35  59  81 109 151 197 244 293 352
#     4   8  15  31  55  75  99 144 192 232 283 349
#     4  10  21  40  65  87 115 159 202 241 292 357
#
# _framework density 20.267900000000001
#
# number of rings (size 3 to 8) (size 9 to 14) (size 15 to 20)
#    0.000    2.286    1.429    2.571    0.000    3.143 
#    0.000    4.286    0.000    0.000    0.000    0.000 
#    0.000    0.000    0.000    0.000    0.000    0.000 
#
# Total GULP energy -346929.194325 kJ/mol
# GULP energy per Si atom -12390.328369 kJ/mol
# Density = 2.022177 g / cm^3
# Si number density = 20.267900 Si / 1000 Ang^3
#
#
#
# Elastic Constant Matrix: (Units=GPa)
#
#
# Indices 1 2 3 4 5 6 
#
# 1 105.1261 18.3900 67.5494 0.0000 14.8917 0.0001
# 2 18.3900 44.7692 39.0062 0.0000 1.9153 0.0003
# 3 67.5494 39.0062 171.9367 0.0000 19.6532 0.0000
# 4 0.0000 0.0000 0.0000 27.7522 0.0000 -0.5474
# 5 14.8917 1.9153 19.6532 0.0000 26.2461 0.0000
# 6 0.0001 0.0003 0.0000 -0.5474 0.0000 25.1126
#
#
#
# Elastic Compliance Matrix: (Units=1/GPa)
#
#
# Indices 1 2 3 4 5 6 
#
# 1 0.013152 -0.001411 -0.004381 0.000000 -0.004079 0.000000
# 2 -0.001411 0.028201 -0.006233 0.000000 0.003410 0.000000
# 3 -0.004381 -0.006233 0.009422 0.000000 -0.004115 0.000000
# 4 0.000000 0.000000 0.000000 0.036049 0.000000 0.000786
# 5 -0.004079 0.003410 -0.004115 0.000000 0.043247 0.000000
# 6 0.000000 0.000000 0.000000 0.000786 0.000000 0.039838
#
#
# Mechanical properties :
#
#
# Convention : Reuss Voigt Hill
#
# Bulk Modulus (GPa) = 37.41863 63.52479 50.47171
# Shear Modulus (GPa) = 24.64669 28.94795 26.79732
#
# Velocity S-wave (km/s) = 3.49097 3.78334 3.64009
# Velocity P-wave (km/s) = 5.89502 7.10602 6.52866
#
# Compressibility (1/GPa) = 0.02672466
#
# Stress axis : x y z
#
# Youngs Moduli (GPa) = 76.03493 35.45918 106.13984
#
# Poissons Ratio (x) = 0.05004 0.46496
# Poissons Ratio (y) = 0.10730 0.66160
# Poissons Ratio (z) = 0.33308 0.22103
#
# Static dielectric constant tensor:
#      x y z
#    x 3.028640 0.000000 -0.743710 
#    y 0.000000 3.489250 0.000000 
#    z -0.743710 0.000000 2.949190 
# 
# 
# High freq. dielectric constant tensor:
#      x y z
#    x 1.777360 0.000000 0.007620 
#    y 0.000000 1.766480 0.000000 
#    z 0.007620 0.000000 1.807760 
# 
# From -- ./inp_files/338575.got.cif
#   From: 2010.06.25/outbox.cif.g09.slc.cpg/sg12_170_cif.got.tgz:338575.got - 2010.06.28 00:19:55.
