data_PCOD8093230
_publ_section_title
;
Structure prediction by ZEFSAII (Michael W. Deem and Ramdas Pophale) SiO2 
 PCOD8093230
Probable space group: C 2/M
;
_chemical_formula_sum "Si O2"
_cell_formula_units_Z 32
_cell_length_a 8.725585
_cell_length_b 18.324935
_cell_length_c 13.417033
_cell_angle_alpha 90.000000
_cell_angle_beta 51.611124
_cell_angle_gamma 90.000000
_cell_volume 1681.537365
_symmetry_space_group_name_H-M "C 2/M"
_symmetry_group_IT_number 12
_symmetry_cell_setting 'monoclinic'
loop_
_space_group_symop_operation_xyz
x,y,z
-x,y,-z
-x,-y,-z
x,-y,z
1/2+x,1/2+y,z
1/2-x,1/2+y,-z
1/2-x,1/2-y,-z
1/2+x,1/2-y,z
loop_
_atom_site_type_symbol
_atom_site_label
_atom_site_fract_x
_atom_site_fract_y
_atom_site_fract_z
Si Si1 0.216699 0.082374 0.371467
Si Si2 0.476423 0.829716 0.627027
Si Si3 0.321802 0.693504 0.781166
Si Si4 0.930243 0.824973 0.132092
O O1 0.351974 0.123693 0.395138
O O2 0.222463 0.120825 0.262221
O O3 0.000000 0.083394 0.500000
O O4 0.292907 0.000000 0.327007
O O5 0.500000 0.831799 0.500000
O O6 0.487511 0.745232 0.660980
O O7 0.265360 0.863923 0.744963
O O8 0.121467 0.739839 0.869330
O O9 0.393365 0.669496 0.861161
O O10 0.000000 0.861856 0.000000
#
# Coordination Sequence:
#
# PCOD8093230 Si02
#       4
#     8   8   8   8
#     4  11  23  37  56  87 124 155 189 238 297 346
#     4  10  20  36  59  89 113 152 192 245 280 340
#     4  10  19  35  60  87 114 149 193 241 282 337
#     4  10  20  34  61  90 114 148 195 244 287 336
#
# _framework density 19.030204000000001
#
# number of rings (size 3 to 8) (size 9 to 14) (size 15 to 20)
#    1.500    0.250    2.500    3.000    0.000    3.500 
#    0.000    1.250    0.000    8.250    0.000    0.000 
#    0.000    0.000    0.000    0.000    0.000    0.000 
#
# Total GULP energy -198311.759358 kJ/mol
# GULP energy per Si atom -12394.484960 kJ/mol
# Density = 1.898689 g / cm^3
# Si number density = 19.030204 Si / 1000 Ang^3
#
#
#
# Elastic Constant Matrix: (Units=GPa)
#
#
# Indices 1 2 3 4 5 6 
#
# 1 96.1054 32.9303 42.1675 0.0000 41.0794 0.0000
# 2 32.9303 84.1218 20.3357 0.0000 12.9531 0.0000
# 3 42.1675 20.3357 133.9930 0.0000 24.8558 0.0000
# 4 0.0000 0.0000 0.0000 12.2521 0.0000 -1.1605
# 5 41.0794 12.9531 24.8558 0.0000 39.7676 0.0000
# 6 0.0000 0.0000 0.0000 -1.1605 0.0000 13.5210
#
#
#
# Elastic Compliance Matrix: (Units=1/GPa)
#
#
# Indices 1 2 3 4 5 6 
#
# 1 0.021130 -0.004795 -0.002446 0.000000 -0.018737 0.000000
# 2 -0.004795 0.013805 -0.000759 0.000000 0.000931 0.000000
# 3 -0.002446 -0.000759 0.008861 0.000000 -0.002764 0.000000
# 4 0.000000 0.000000 0.000000 0.082287 0.000000 0.007063
# 5 -0.018737 0.000931 -0.002764 0.000000 0.045925 0.000000
# 6 0.000000 0.000000 0.000000 0.007063 0.000000 0.074565
#
#
# Mechanical properties :
#
#
# Convention : Reuss Voigt Hill
#
# Bulk Modulus (GPa) = 35.97746 56.12082 46.04914
# Shear Modulus (GPa) = 18.39322 27.69394 23.04358
#
# Velocity S-wave (km/s) = 3.11228 3.81893 3.48357
# Velocity P-wave (km/s) = 5.64460 7.00000 6.35852
#
# Compressibility (1/GPa) = 0.02779518
#
# Stress axis : x y z
#
# Youngs Moduli (GPa) = 47.32498 72.43900 112.85630
#
# Poissons Ratio (x) = 0.34737 0.27609
# Poissons Ratio (y) = 0.22694 0.08563
# Poissons Ratio (z) = 0.11577 0.05496
#
# Static dielectric constant tensor:
#      x y z
#    x 3.493290 0.000000 0.003700 
#    y 0.000000 3.243410 0.000000 
#    z 0.003700 0.000000 3.401000 
# 
# 
# High freq. dielectric constant tensor:
#      x y z
#    x 1.752580 0.000000 0.009200 
#    y 0.000000 1.691110 0.000000 
#    z 0.009200 0.000000 1.739310 
# 
# From -- ./inp_files/37746.got.cif
#   From: 2010.06.25/outbox.cif.g09.slc.cpg/sg12_19_cif.got.tgz:37746.got - 2010.06.28 00:19:55.
