data_PCOD8093735
_publ_section_title
;
Structure prediction by ZEFSAII (Michael W. Deem and Ramdas Pophale) SiO2 
 PCOD8093735
Probable space group: C 2/M
;
_chemical_formula_sum "Si O2"
_cell_formula_units_Z 56
_cell_length_a 8.633248
_cell_length_b 18.726907
_cell_length_c 25.635236
_cell_angle_alpha 90.000000
_cell_angle_beta 39.787954
_cell_angle_gamma 90.000000
_cell_volume 2652.298409
_symmetry_space_group_name_H-M "C 2/M"
_symmetry_group_IT_number 12
_symmetry_cell_setting 'monoclinic'
loop_
_space_group_symop_operation_xyz
x,y,z
-x,y,-z
-x,-y,-z
x,-y,z
1/2+x,1/2+y,z
1/2-x,1/2+y,-z
1/2-x,1/2-y,-z
1/2+x,1/2-y,z
loop_
_atom_site_type_symbol
_atom_site_label
_atom_site_fract_x
_atom_site_fract_y
_atom_site_fract_z
Si Si1 0.690463 0.179691 0.905980
Si Si2 0.241549 0.917375 0.541248
Si Si3 0.067598 0.079504 0.770521
Si Si4 0.552405 0.197409 0.329439
Si Si5 0.061446 0.294781 0.824634
Si Si6 0.967250 0.795538 0.565504
Si Si7 0.806142 0.923000 0.729554
O O1 0.558976 0.179693 0.884821
O O2 0.904403 0.120784 0.855642
O O3 0.805058 0.258448 0.881345
O O4 0.500000 0.163015 0.000000
O O5 0.500000 0.899722 0.500000
O O6 0.163495 0.861481 0.516201
O O7 0.036853 0.900597 0.636497
O O8 0.237216 0.000000 0.522687
O O9 0.310005 0.123465 0.693824
O O10 0.900358 0.074200 0.763699
O O11 0.138525 0.000000 0.771826
O O12 0.710216 0.245144 0.248988
O O13 0.310527 0.177725 0.359833
O O14 0.488082 0.237950 0.400406
O O15 0.090075 0.365447 0.780946
O O16 0.000000 0.758710 0.500000
O O17 0.703174 0.000000 0.738784
#
# Coordination Sequence:
#
# PCOD8093735 Si02
#       7
#     8   8   8   8   8   8   8
#     4  10  20  34  59  91 121 152 186 239 299 358
#     4  10  23  41  62  87 121 161 203 251 307 363
#     4   9  20  37  61  87 114 154 196 244 297 354
#     4  11  23  41  59  86 120 157 207 257 297 361
#     4  10  19  36  59  82 117 153 198 238 288 356
#     4  12  26  39  60  87 122 162 204 262 310 354
#     4   9  17  34  60  82 108 155 205 241 283 353
#
# _framework density 21.113762999999999
#
# number of rings (size 3 to 8) (size 9 to 14) (size 15 to 20)
#    0.000    1.857    1.429    3.429    2.000    1.714 
#    0.000    0.000    0.000    0.857    0.000    0.000 
#    0.000    0.000    0.000    0.000    0.000    0.000 
#
# Total GULP energy -347017.163232 kJ/mol
# GULP energy per Si atom -12393.470115 kJ/mol
# Density = 2.106571 g / cm^3
# Si number density = 21.113763 Si / 1000 Ang^3
#
#
#
# Elastic Constant Matrix: (Units=GPa)
#
#
# Indices 1 2 3 4 5 6 
#
# 1 58.7618 32.6231 25.9051 -0.0066 -6.5457 -0.0029
# 2 32.6231 132.1677 38.0394 0.0040 -8.3347 -0.0190
# 3 25.9051 38.0394 70.5218 0.0268 9.4066 -0.0354
# 4 -0.0066 0.0040 0.0268 24.9673 -0.0084 -5.6830
# 5 -6.5457 -8.3347 9.4066 -0.0084 32.5554 -0.0024
# 6 -0.0029 -0.0190 -0.0354 -5.6830 -0.0024 26.2838
#
#
#
# Elastic Compliance Matrix: (Units=1/GPa)
#
#
# Indices 1 2 3 4 5 6 
#
# 1 0.022675 -0.003076 -0.007461 0.000015 0.005927 -0.000006
# 2 -0.003076 0.009860 -0.004621 0.000004 0.003241 0.000002
# 3 -0.007461 -0.004621 0.020563 -0.000022 -0.008625 0.000018
# 4 0.000015 0.000004 -0.000022 0.042126 0.000022 0.009108
# 5 0.005927 0.003241 -0.008625 0.000022 0.035230 -0.000001
# 6 -0.000006 0.000002 0.000018 0.009108 -0.000001 0.040016
#
#
# Mechanical properties :
#
#
# Convention : Reuss Voigt Hill
#
# Bulk Modulus (GPa) = 43.89179 50.50961 47.20070
# Shear Modulus (GPa) = 23.99480 27.75354 25.87417
#
# Velocity S-wave (km/s) = 3.37479 3.62950 3.50446
# Velocity P-wave (km/s) = 6.00158 6.44507 6.22727
#
# Compressibility (1/GPa) = 0.02278330
#
# Stress axis : x y z
#
# Youngs Moduli (GPa) = 44.10189 101.42383 48.62995
#
# Poissons Ratio (x) = 0.31195 0.36282
# Poissons Ratio (y) = 0.13565 0.22471
# Poissons Ratio (z) = 0.32903 0.46865
#
# Static dielectric constant tensor:
#      x y z
#    x 3.668460 0.000050 -0.002830 
#    y 0.000050 4.333180 0.000030 
#    z -0.002830 0.000030 3.757930 
# 
# 
# High freq. dielectric constant tensor:
#      x y z
#    x 1.807130 0.000000 0.001450 
#    y 0.000000 1.831480 0.000000 
#    z 0.001450 0.000000 1.822080 
# 
# From -- ./inp_files/356681.got.cif
#   From: 2010.06.25/outbox.cif.g09.slc.cpg/sg12_179_cif.got.tgz:356681.got - 2010.06.28 00:19:55.
