data_PCOD8093215
_publ_section_title
;
Structure prediction by ZEFSAII (Michael W. Deem and Ramdas Pophale) SiO2 
 PCOD8093215
Probable space group: C 2/M
;
_chemical_formula_sum "Si O2"
_cell_formula_units_Z 56
_cell_length_a 18.205273
_cell_length_b 8.815406
_cell_length_c 20.232116
_cell_angle_alpha 90.000000
_cell_angle_beta 63.912998
_cell_angle_gamma 90.000000
_cell_volume 2916.209671
_symmetry_space_group_name_H-M "C 2/M"
_symmetry_group_IT_number 12
_symmetry_cell_setting 'monoclinic'
loop_
_space_group_symop_operation_xyz
x,y,z
-x,y,-z
-x,-y,-z
x,-y,z
1/2+x,1/2+y,z
1/2-x,1/2+y,-z
1/2-x,1/2-y,-z
1/2+x,1/2-y,z
loop_
_atom_site_type_symbol
_atom_site_label
_atom_site_fract_x
_atom_site_fract_y
_atom_site_fract_z
Si Si1 0.323426 0.322629 0.933658
Si Si2 0.452664 0.679014 0.584264
Si Si3 0.999615 0.178171 0.923548
Si Si4 0.206348 0.667390 0.310916
Si Si5 0.028072 0.824234 0.691539
Si Si6 0.878184 0.678823 0.232984
Si Si7 0.876913 0.665942 0.794186
O O1 0.310734 0.500000 0.930855
O O2 0.410268 0.281020 0.931715
O O3 0.311849 0.236806 0.869200
O O4 0.250000 0.250000 0.000000
O O5 0.500000 0.728967 0.500000
O O6 0.439316 0.500000 0.594514
O O7 0.362571 0.753404 0.616043
O O8 0.509252 0.732402 0.624030
O O9 0.068520 0.252623 0.848701
O O10 0.017772 0.000000 0.914463
O O11 0.000000 0.236043 0.000000
O O12 0.229532 0.500000 0.330717
O O13 0.284328 0.771151 0.266796
O O14 0.164850 0.642487 0.258060
O O15 0.097418 0.729973 0.702073
O O16 0.947451 0.792682 0.766151
O O17 0.051859 0.000000 0.684126
O O18 0.884197 0.500000 0.224545
O O19 0.910186 0.500000 0.804640
#
# Coordination Sequence:
#
# PCOD8093215 Si02
#       7
#     8   8   8   8   8   8   8
#     4  11  23  37  56  80 111 148 189 241 293 344
#     4   9  19  38  64  93 123 152 188 236 286 341
#     4  10  23  42  60  80 112 155 197 241 298 350
#     4  10  22  38  59  86 118 154 194 236 286 345
#     4  10  19  35  60  86 115 152 189 228 284 344
#     4  12  24  38  59  86 118 154 198 246 289 342
#     4  10  20  36  57  81 109 145 190 239 286 338
#
# _framework density 19.203008000000001
#
# number of rings (size 3 to 8) (size 9 to 14) (size 15 to 20)
#    0.000    1.714    1.429    3.000    2.000    3.429 
#    0.000    0.714    0.000    0.000    0.000    0.000 
#    0.000    0.000    0.000    0.000    0.000    0.000 
#
# Total GULP energy -346965.016153 kJ/mol
# GULP energy per Si atom -12391.607720 kJ/mol
# Density = 1.915930 g / cm^3
# Si number density = 19.203008 Si / 1000 Ang^3
#
#
#
# Elastic Constant Matrix: (Units=GPa)
#
#
# Indices 1 2 3 4 5 6 
#
# 1 50.4112 41.6678 26.1838 0.0001 -23.1804 0.0000
# 2 41.6678 98.4192 50.2118 0.0002 -6.8859 0.0000
# 3 26.1838 50.2118 127.0600 0.0000 -18.8885 0.0001
# 4 0.0001 0.0002 0.0000 21.5825 0.0000 -6.4295
# 5 -23.1804 -6.8859 -18.8885 0.0000 24.6574 0.0001
# 6 0.0000 0.0000 0.0001 -6.4295 0.0001 30.1930
#
#
#
# Elastic Compliance Matrix: (Units=1/GPa)
#
#
# Indices 1 2 3 4 5 6 
#
# 1 0.066263 -0.026848 0.005756 0.000000 0.059205 0.000000
# 2 -0.026848 0.023607 -0.007413 0.000000 -0.024326 0.000000
# 3 0.005756 -0.007413 0.011409 0.000000 0.012081 0.000000
# 4 0.000000 0.000000 0.000000 0.049472 0.000000 0.010535
# 5 0.059205 -0.024326 0.012081 0.000000 0.098676 0.000000
# 6 0.000000 0.000000 0.000000 0.010535 0.000000 0.035364
#
#
# Mechanical properties :
#
#
# Convention : Reuss Voigt Hill
#
# Bulk Modulus (GPa) = 22.58849 56.89077 39.73963
# Shear Modulus (GPa) = 14.02299 25.80839 19.91569
#
# Velocity S-wave (km/s) = 2.70525 3.67001 3.22392
# Velocity P-wave (km/s) = 4.64180 6.90282 5.88197
#
# Compressibility (1/GPa) = 0.04427033
#
# Stress axis : x y z
#
# Youngs Moduli (GPa) = 15.09142 42.36003 87.64690
#
# Poissons Ratio (x) = 1.13729 -0.50451
# Poissons Ratio (y) = 0.40518 0.64969
# Poissons Ratio (z) = -0.08687 0.31400
#
# Static dielectric constant tensor:
#      x y z
#    x 3.749990 0.000000 0.025570 
#    y 0.000000 3.816600 0.000000 
#    z 0.025570 0.000000 3.623200 
# 
# 
# High freq. dielectric constant tensor:
#      x y z
#    x 1.742110 0.000000 0.001590 
#    y 0.000000 1.755820 0.000000 
#    z 0.001590 0.000000 1.744970 
# 
# From -- ./inp_files/275617.got.cif
#   From: 2010.06.25/outbox.cif.g09.slc.cpg/sg12_138_cif.got.tgz:275617.got - 2010.06.28 00:19:55.
