data_PCOD8093989
_publ_section_title
;
Structure prediction by ZEFSAII (Michael W. Deem and Ramdas Pophale) SiO2 
 PCOD8093989
Probable space group: C 2/M
;
_chemical_formula_sum "Si O2"
_cell_formula_units_Z 52
_cell_length_a 24.515625
_cell_length_b 7.574073
_cell_length_c 21.884755
_cell_angle_alpha 90.000000
_cell_angle_beta 140.290291
_cell_angle_gamma 90.000000
_cell_volume 2596.245761
_symmetry_space_group_name_H-M "C 2/M"
_symmetry_group_IT_number 12
_symmetry_cell_setting 'monoclinic'
loop_
_space_group_symop_operation_xyz
x,y,z
-x,y,-z
-x,-y,-z
x,-y,z
1/2+x,1/2+y,z
1/2-x,1/2+y,-z
1/2-x,1/2-y,-z
1/2+x,1/2-y,z
loop_
_atom_site_type_symbol
_atom_site_label
_atom_site_fract_x
_atom_site_fract_y
_atom_site_fract_z
Si Si1 0.992494 0.795766 0.352605
Si Si2 0.596531 0.500000 0.158244
Si Si3 0.990105 0.303321 0.215384
Si Si4 0.924431 0.000000 0.077770
Si Si5 0.799144 0.000000 0.866504
Si Si6 0.156241 0.795712 0.560502
Si Si7 0.675166 0.706005 0.714501
Si Si8 0.657932 0.798464 0.294938
O O1 0.971232 0.701622 0.270744
O O2 0.915897 0.764452 0.332893
O O3 0.077655 0.708534 0.456004
O O4 0.007365 0.000000 0.350247
O O5 0.496659 0.500000 0.087620
O O6 0.616742 0.500000 0.103984
O O7 0.639544 0.676242 0.221494
O O8 0.970077 0.500000 0.174025
O O9 0.930386 0.171572 0.126009
O O10 0.090622 0.256056 0.290927
O O11 0.833158 0.000000 0.965531
O O12 0.744533 0.177152 0.809623
O O13 0.166597 0.720786 0.638014
O O14 0.244513 0.762577 0.599129
O O15 0.133344 0.000000 0.548073
O O16 0.703000 0.500000 0.741123
O O17 0.650052 0.000000 0.265184
#
# Coordination Sequence:
#
# PCOD8093989 Si02
#       8
#     8   4   8   4   4   8   8   8
#     4  10  20  37  61  83 116 162 196 232 286 333
#     4  10  19  36  61  88 116 146 181 238 296 345
#     4  10  21  39  60  82 116 156 192 242 286 339
#     4  10  23  42  62  85 117 146 194 240 293 352
#     4  12  23  38  64  92 109 151 192 241 297 344
#     4   9  17  34  59  86 118 157 190 228 285 350
#     4  10  22  39  58  84 124 151 190 240 287 344
#     4   9  18  34  56  84 119 155 184 230 286 339
#
# _framework density 20.028919999999999
#
# number of rings (size 3 to 8) (size 9 to 14) (size 15 to 20)
#    0.000    2.154    2.308    0.692    1.077    3.077 
#    2.769    1.538    0.000    4.615    0.000    0.000 
#    0.000    0.000    0.000    0.000    0.000    0.000 
#
# Total GULP energy -322330.828878 kJ/mol
# GULP energy per Si atom -12397.339572 kJ/mol
# Density = 1.998333 g / cm^3
# Si number density = 20.028920 Si / 1000 Ang^3
#
#
#
# Elastic Constant Matrix: (Units=GPa)
#
#
# Indices 1 2 3 4 5 6 
#
# 1 45.2834 12.8280 12.3887 0.0000 -8.1773 -0.0001
# 2 12.8280 87.2837 40.4789 -0.0002 -2.1084 -0.0001
# 3 12.3887 40.4789 122.4611 0.0000 -6.8354 0.0000
# 4 0.0000 -0.0002 0.0000 17.4351 0.0000 3.3475
# 5 -8.1773 -2.1084 -6.8354 0.0000 18.5196 0.0000
# 6 -0.0001 -0.0001 0.0000 3.3475 0.0000 19.5271
#
#
#
# Elastic Compliance Matrix: (Units=1/GPa)
#
#
# Indices 1 2 3 4 5 6 
#
# 1 0.025067 -0.002983 -0.000971 0.000000 0.010370 0.000000
# 2 -0.002983 0.013886 -0.004363 0.000000 -0.001347 0.000000
# 3 -0.000971 -0.004363 0.009858 0.000000 0.002713 0.000000
# 4 0.000000 0.000000 0.000000 0.059308 0.000000 -0.010167
# 5 0.010370 -0.001347 0.002713 0.000000 0.059424 0.000000
# 6 0.000000 0.000000 0.000000 -0.010167 0.000000 0.052954
#
#
# Mechanical properties :
#
#
# Convention : Reuss Voigt Hill
#
# Bulk Modulus (GPa) = 31.07952 42.93550 37.00751
# Shear Modulus (GPa) = 20.17296 23.71852 21.94574
#
# Velocity S-wave (km/s) = 3.17707 3.44497 3.31373
# Velocity P-wave (km/s) = 5.38604 6.10795 5.75832
#
# Compressibility (1/GPa) = 0.03217553
#
# Stress axis : x y z
#
# Youngs Moduli (GPa) = 39.89388 72.01291 101.44223
#
# Poissons Ratio (x) = 0.21483 0.09849
# Poissons Ratio (y) = 0.11901 0.44264
# Poissons Ratio (z) = 0.03873 0.31423
#
# Static dielectric constant tensor:
#      x y z
#    x 3.638220 0.000000 0.103650 
#    y 0.000000 3.630680 0.000000 
#    z 0.103650 0.000000 3.407490 
# 
# 
# High freq. dielectric constant tensor:
#      x y z
#    x 1.783840 0.000000 0.007890 
#    y 0.000000 1.782550 0.000000 
#    z 0.007890 0.000000 1.755800 
# 
# From -- ./inp_files/324413.got.cif
#   From: 2010.06.25/outbox.cif.g09.slc.cpg/sg12_163_cif.got.tgz:324413.got - 2010.06.28 00:19:55.
