data_PCOD8093273
_publ_section_title
;
Structure prediction by ZEFSAII (Michael W. Deem and Ramdas Pophale) SiO2 
 PCOD8093273
Probable space group: C 2/M
;
_chemical_formula_sum "Si O2"
_cell_formula_units_Z 48
_cell_length_a 17.924801
_cell_length_b 14.365059
_cell_length_c 8.943226
_cell_angle_alpha 90.000000
_cell_angle_beta 80.233107
_cell_angle_gamma 90.000000
_cell_volume 2269.422065
_symmetry_space_group_name_H-M "C 2/M"
_symmetry_group_IT_number 12
_symmetry_cell_setting 'monoclinic'
loop_
_space_group_symop_operation_xyz
x,y,z
-x,y,-z
-x,-y,-z
x,-y,z
1/2+x,1/2+y,z
1/2-x,1/2+y,-z
1/2-x,1/2-y,-z
1/2+x,1/2-y,z
loop_
_atom_site_type_symbol
_atom_site_label
_atom_site_fract_x
_atom_site_fract_y
_atom_site_fract_z
Si Si1 0.000335 0.719142 0.176972
Si Si2 0.231667 0.148821 0.944422
Si Si3 0.069904 0.897700 0.864030
Si Si4 0.149421 0.286859 0.301782
Si Si5 0.238116 0.899018 0.262967
Si Si6 0.612016 0.106886 0.608859
O O1 0.952875 0.813325 0.239449
O O2 0.963049 0.631912 0.273066
O O3 0.086484 0.728220 0.197455
O O4 0.000000 0.702593 0.000000
O O5 0.146179 0.130690 0.923495
O O6 0.287593 0.139458 0.782397
O O7 0.250000 0.250000 0.000000
O O8 0.249240 0.084368 0.080736
O O9 0.080492 0.000000 0.782974
O O10 0.000000 0.904878 0.000000
O O11 0.181163 0.183520 0.325272
O O12 0.114891 0.328803 0.462618
O O13 0.317533 0.871876 0.308908
O O14 0.209975 0.000000 0.335493
O O15 0.606859 0.000000 0.560934
#
# Coordination Sequence:
#
# PCOD8093273 Si02
#       6
#     8   8   8   8   8   8
#     4  11  22  40  64  88 118 157 200 248 298 356
#     4  10  19  35  60  90 123 158 200 244 287 345
#     4  10  20  35  59  92 126 157 193 242 300 357
#     4  11  23  39  61  88 122 158 197 248 303 358
#     4  10  20  37  62  89 118 153 197 246 295 353
#     4  11  25  43  61  84 118 159 202 250 305 362
#
# _framework density 21.150759000000001
#
# number of rings (size 3 to 8) (size 9 to 14) (size 15 to 20)
#    0.000    1.500    0.000    8.500    0.000    5.000 
#    0.000    2.500    0.000    2.000    0.000    0.000 
#    0.000    0.000    0.000    0.000    0.000    0.000 
#
# Total GULP energy -297398.696968 kJ/mol
# GULP energy per Si atom -12391.612374 kJ/mol
# Density = 2.110262 g / cm^3
# Si number density = 21.150759 Si / 1000 Ang^3
#
#
#
# Elastic Constant Matrix: (Units=GPa)
#
#
# Indices 1 2 3 4 5 6 
#
# 1 119.1856 43.1469 31.5248 0.0000 15.6592 0.0000
# 2 43.1469 119.3401 32.0468 0.0000 -7.1899 0.0000
# 3 31.5248 32.0468 72.4687 0.0000 -10.4310 0.0000
# 4 0.0000 0.0000 0.0000 21.9559 0.0000 -3.2781
# 5 15.6592 -7.1899 -10.4310 0.0000 28.8062 0.0000
# 6 0.0000 0.0000 0.0000 -3.2781 0.0000 23.0808
#
#
#
# Elastic Compliance Matrix: (Units=1/GPa)
#
#
# Indices 1 2 3 4 5 6 
#
# 1 0.012299 -0.003647 -0.005097 0.000000 -0.009442 0.000000
# 2 -0.003647 0.010612 -0.002574 0.000000 0.003699 0.000000
# 3 -0.005097 -0.002574 0.018421 0.000000 0.008798 0.000000
# 4 0.000000 0.000000 0.000000 0.046532 0.000000 0.006609
# 5 -0.009442 0.003699 0.008798 0.000000 0.043957 0.000000
# 6 0.000000 0.000000 0.000000 0.006609 0.000000 0.044265
#
#
# Mechanical properties :
#
#
# Convention : Reuss Voigt Hill
#
# Bulk Modulus (GPa) = 53.48410 58.27015 55.87713
# Shear Modulus (GPa) = 24.39589 28.38698 26.39143
#
# Velocity S-wave (km/s) = 3.39990 3.66748 3.53622
# Velocity P-wave (km/s) = 6.38392 6.74860 6.56879
#
# Compressibility (1/GPa) = 0.01869715
#
# Stress axis : x y z
#
# Youngs Moduli (GPa) = 81.30716 94.23316 54.28660
#
# Poissons Ratio (x) = 0.34366 0.27667
# Poissons Ratio (y) = 0.29652 0.13973
# Poissons Ratio (z) = 0.41438 0.24254
#
# Static dielectric constant tensor:
#      x y z
#    x 4.041400 0.000000 -0.062380 
#    y 0.000000 4.678530 0.000000 
#    z -0.062380 0.000000 4.110370 
# 
# 
# High freq. dielectric constant tensor:
#      x y z
#    x 1.840570 0.000000 0.011150 
#    y 0.000000 1.841090 0.000000 
#    z 0.011150 0.000000 1.806330 
# 
# From -- ./inp_files/73648.got.cif
#   From: 2010.06.25/outbox.cif.g09.slc.cpg/sg12_37_cif.got.tgz:73648.got - 2010.06.28 00:19:55.
