data_PCOD8093276
_publ_section_title
;
Structure prediction by ZEFSAII (Michael W. Deem and Ramdas Pophale) SiO2 
 PCOD8093276
Probable space group: C 2/M
;
_chemical_formula_sum "Si O2"
_cell_formula_units_Z 48
_cell_length_a 15.400631
_cell_length_b 18.756382
_cell_length_c 12.462435
_cell_angle_alpha 90.000000
_cell_angle_beta 144.598730
_cell_angle_gamma 90.000000
_cell_volume 2085.419592
_symmetry_space_group_name_H-M "C 2/M"
_symmetry_group_IT_number 12
_symmetry_cell_setting 'monoclinic'
loop_
_space_group_symop_operation_xyz
x,y,z
-x,y,-z
-x,-y,-z
x,-y,z
1/2+x,1/2+y,z
1/2-x,1/2+y,-z
1/2-x,1/2-y,-z
1/2+x,1/2-y,z
loop_
_atom_site_type_symbol
_atom_site_label
_atom_site_fract_x
_atom_site_fract_y
_atom_site_fract_z
Si Si1 0.135212 0.420300 0.217386
Si Si2 0.954185 0.797322 0.747185
Si Si3 0.250125 0.175962 0.151382
Si Si4 0.316572 0.418889 0.729425
Si Si5 0.504479 0.919948 0.315855
Si Si6 0.208676 0.217168 0.627668
O O1 0.203839 0.500000 0.286288
O O2 0.266570 0.365559 0.315809
O O3 0.075246 0.399613 0.273792
O O4 0.000000 0.414107 0.000000
O O5 0.896419 0.878108 0.711255
O O6 0.925635 0.776091 0.594288
O O7 0.864888 0.744400 0.735173
O O8 0.131017 0.789508 0.948699
O O9 0.153626 0.119725 0.126591
O O10 0.376370 0.136645 0.210735
O O11 0.327980 0.236573 0.303861
O O12 0.374888 0.500000 0.789775
O O13 0.136093 0.415075 0.536154
O O14 0.436390 0.000000 0.245851
#
# Coordination Sequence:
#
# PCOD8093276 Si02
#       6
#     8   8   8   8   8   8
#     4  10  20  38  67  91 115 164 219 258 293 359
#     4  10  21  36  60  86 125 171 208 251 302 373
#     4  11  22  36  60  92 130 165 196 261 321 368
#     4  10  19  35  60  90 127 170 208 247 304 375
#     4  10  21  38  62  95 129 161 200 256 316 366
#     4  10  20  39  60  82 126 163 213 252 299 371
#
# _framework density 23.016950000000001
#
# number of rings (size 3 to 8) (size 9 to 14) (size 15 to 20)
#    0.000    1.833    1.667    4.000    0.000    3.333 
#    0.000    3.333    7.333    0.000    0.000    3.500 
#    0.000    1.333    0.000    0.000    0.000    0.167 
#
# Total GULP energy -297664.425957 kJ/mol
# GULP energy per Si atom -12402.684415 kJ/mol
# Density = 2.296456 g / cm^3
# Si number density = 23.016950 Si / 1000 Ang^3
#
#
#
# Elastic Constant Matrix: (Units=GPa)
#
#
# Indices 1 2 3 4 5 6 
#
# 1 27.9646 35.8900 25.6250 0.0000 -2.1136 0.0000
# 2 35.8900 128.1987 27.2781 0.0000 -11.5514 0.0000
# 3 25.6250 27.2781 119.1116 0.0000 -14.3066 0.0000
# 4 0.0000 0.0000 0.0000 35.3490 0.0000 0.4116
# 5 -2.1136 -11.5514 -14.3066 0.0000 17.9091 0.0000
# 6 0.0000 0.0000 0.0000 0.4116 0.0000 41.2373
#
#
#
# Elastic Compliance Matrix: (Units=1/GPa)
#
#
# Indices 1 2 3 4 5 6 
#
# 1 0.069038 -0.017895 -0.012347 0.000000 -0.013258 0.000000
# 2 -0.017895 0.013133 0.001776 0.000000 0.007778 0.000000
# 3 -0.012347 0.001776 0.011733 0.000000 0.009062 0.000000
# 4 0.000000 0.000000 0.000000 0.028293 0.000000 -0.000282
# 5 -0.013258 0.007778 0.009062 0.000000 0.066529 0.000000
# 6 0.000000 0.000000 0.000000 -0.000282 0.000000 0.024253
#
#
# Mechanical properties :
#
#
# Convention : Reuss Voigt Hill
#
# Bulk Modulus (GPa) = 27.04622 50.31792 38.68207
# Shear Modulus (GPa) = 17.71583 31.33120 24.52351
#
# Velocity S-wave (km/s) = 2.77733 3.69348 3.26767
# Velocity P-wave (km/s) = 4.69690 6.33228 5.57488
#
# Compressibility (1/GPa) = 0.03697374
#
# Stress axis : x y z
#
# Youngs Moduli (GPa) = 14.48477 76.14352 85.22778
#
# Poissons Ratio (x) = 1.36260 1.05228
# Poissons Ratio (y) = 0.25921 -0.15140
# Poissons Ratio (z) = 0.17884 -0.13526
#
# Static dielectric constant tensor:
#      x y z
#    x 3.717630 0.000000 -0.374850 
#    y 0.000000 4.478070 0.000000 
#    z -0.374850 0.000000 4.313120 
# 
# 
# High freq. dielectric constant tensor:
#      x y z
#    x 1.874410 0.000000 -0.019090 
#    y 0.000000 1.926300 0.000000 
#    z -0.019090 0.000000 1.909770 
# 
# From -- ./inp_files/226744.got.cif
#   From: 2010.06.25/outbox.cif.g09.slc.cpg/sg12_114_cif.got.tgz:226744.got - 2010.06.28 00:19:55.
