data_PCOD8093934
_publ_section_title
;
Structure prediction by ZEFSAII (Michael W. Deem and Ramdas Pophale) SiO2 
 PCOD8093934
Probable space group: C 2/M
;
_chemical_formula_sum "Si O2"
_cell_formula_units_Z 64
_cell_length_a 20.193174
_cell_length_b 9.130694
_cell_length_c 20.105540
_cell_angle_alpha 90.000000
_cell_angle_beta 107.146474
_cell_angle_gamma 90.000000
_cell_volume 3542.251903
_symmetry_space_group_name_H-M "C 2/M"
_symmetry_group_IT_number 12
_symmetry_cell_setting 'monoclinic'
loop_
_space_group_symop_operation_xyz
x,y,z
-x,y,-z
-x,-y,-z
x,-y,z
1/2+x,1/2+y,z
1/2-x,1/2+y,-z
1/2-x,1/2-y,-z
1/2+x,1/2-y,z
loop_
_atom_site_type_symbol
_atom_site_label
_atom_site_fract_x
_atom_site_fract_y
_atom_site_fract_z
Si Si1 0.666883 0.327693 0.645328
Si Si2 0.419327 0.834583 0.992640
Si Si3 0.948662 0.828984 0.127821
Si Si4 0.564744 0.671841 0.729697
Si Si5 0.105716 0.168916 0.141078
Si Si6 0.577748 0.670232 0.372162
Si Si7 0.421248 0.827119 0.492933
Si Si8 0.307908 0.668271 0.705619
O O1 0.663058 0.500000 0.629661
O O2 0.630953 0.287916 0.704888
O O3 0.628554 0.242849 0.575910
O O4 0.745614 0.276894 0.671780
O O5 0.376738 0.760272 0.920072
O O6 0.393508 0.000000 0.991845
O O7 0.500000 0.822975 0.000000
O O8 0.404942 0.753686 0.058082
O O9 0.923810 0.767364 0.192242
O O10 0.030010 0.793500 0.146939
O O11 0.933609 0.000000 0.114534
O O12 0.552066 0.500000 0.732750
O O13 0.495312 0.735926 0.675308
O O14 0.161473 0.209996 0.213493
O O15 0.109760 0.000000 0.122364
O O16 0.571098 0.500000 0.390310
O O17 0.600944 0.762408 0.442805
O O18 0.634008 0.694312 0.332121
O O19 0.500000 0.783139 0.500000
O O20 0.409999 0.000000 0.489916
O O21 0.282490 0.500000 0.697088
#
# Coordination Sequence:
#
# PCOD8093934 Si02
#       8
#     8   8   8   8   8   8   8   8
#     4  11  23  38  58  81 109 145 180 218 269 329
#     4   9  17  27  41  71 111 142 169 211 265 314
#     4   9  15  28  51  77 102 132 177 223 260 309
#     4   9  17  32  56  82 104 134 181 225 262 313
#     4   9  16  29  51  75 101 139 177 214 262 313
#     4  10  19  36  61  83 105 140 182 224 267 317
#     4  11  23  38  57  83 112 140 175 224 274 318
#     4  10  21  37  57  82 112 142 179 226 271 317
#
# _framework density 18.067602000000001
#
# number of rings (size 3 to 8) (size 9 to 14) (size 15 to 20)
#    0.000    2.250    2.500    1.125    0.000    3.500 
#    0.000    1.875    0.000    0.750    0.000    0.000 
#    0.000    0.000    0.000    0.000    0.000    0.000 
#
# Total GULP energy -396833.419194 kJ/mol
# GULP energy per Si atom -12401.044350 kJ/mol
# Density = 1.802648 g / cm^3
# Si number density = 18.067602 Si / 1000 Ang^3
#
#
#
# Elastic Constant Matrix: (Units=GPa)
#
#
# Indices 1 2 3 4 5 6 
#
# 1 50.6871 28.0124 25.4399 0.0000 3.0488 0.0000
# 2 28.0124 71.7221 54.2860 0.0000 -2.7166 0.0000
# 3 25.4399 54.2860 131.0242 0.0000 -13.6704 0.0000
# 4 0.0000 0.0000 0.0000 4.5747 0.0000 1.9195
# 5 3.0488 -2.7166 -13.6704 0.0000 25.8651 0.0000
# 6 0.0000 0.0000 0.0000 1.9195 0.0000 20.2144
#
#
#
# Elastic Compliance Matrix: (Units=1/GPa)
#
#
# Indices 1 2 3 4 5 6 
#
# 1 0.025871 -0.008885 -0.001860 0.000000 -0.004966 0.000000
# 2 -0.008885 0.023512 -0.008096 0.000000 -0.000762 0.000000
# 3 -0.001860 -0.008096 0.011940 0.000000 0.005680 0.000000
# 4 0.000000 0.000000 0.000000 0.227667 0.000000 -0.021619
# 5 -0.004966 -0.000762 0.005680 0.000000 0.042169 0.000000
# 6 0.000000 0.000000 0.000000 -0.021619 0.000000 0.051522
#
#
# Mechanical properties :
#
#
# Convention : Reuss Voigt Hill
#
# Bulk Modulus (GPa) = 42.29797 52.10111 47.19954
# Shear Modulus (GPa) = 11.67560 19.84384 15.75972
#
# Velocity S-wave (km/s) = 2.54484 3.31767 2.95662
# Velocity P-wave (km/s) = 5.66540 6.60116 6.15110
#
# Compressibility (1/GPa) = 0.02364180
#
# Stress axis : x y z
#
# Youngs Moduli (GPa) = 38.65274 42.53234 83.75065
#
# Poissons Ratio (x) = 0.37788 0.15580
# Poissons Ratio (y) = 0.34341 0.67803
# Poissons Ratio (z) = 0.07191 0.34433
#
# Static dielectric constant tensor:
#      x y z
#    x 3.111090 0.000000 -0.153850 
#    y 0.000000 3.228290 0.000000 
#    z -0.153850 0.000000 3.546800 
# 
# 
# High freq. dielectric constant tensor:
#      x y z
#    x 1.670330 0.000000 -0.013440 
#    y 0.000000 1.688100 0.000000 
#    z -0.013440 0.000000 1.715280 
# 
# From -- ./inp_files/320099.got.cif
#   From: 2010.06.25/outbox.cif.g09.slc.cpg/sg12_161_cif.got.tgz:320099.got - 2010.06.28 00:19:55.
