data_PCOD8093902
_publ_section_title
;
Structure prediction by ZEFSAII (Michael W. Deem and Ramdas Pophale) SiO2 
 PCOD8093902
Probable space group: C 2/M
;
_chemical_formula_sum "Si O2"
_cell_formula_units_Z 64
_cell_length_a 15.381710
_cell_length_b 8.611948
_cell_length_c 33.349767
_cell_angle_alpha 90.000000
_cell_angle_beta 46.054385
_cell_angle_gamma 90.000000
_cell_volume 3180.757949
_symmetry_space_group_name_H-M "C 2/M"
_symmetry_group_IT_number 12
_symmetry_cell_setting 'monoclinic'
loop_
_space_group_symop_operation_xyz
x,y,z
-x,y,-z
-x,-y,-z
x,-y,z
1/2+x,1/2+y,z
1/2-x,1/2+y,-z
1/2-x,1/2-y,-z
1/2+x,1/2-y,z
loop_
_atom_site_type_symbol
_atom_site_label
_atom_site_fract_x
_atom_site_fract_y
_atom_site_fract_z
Si Si1 0.702128 0.182291 0.056474
Si Si2 0.619189 0.817168 0.939006
Si Si3 0.521829 0.679440 0.836936
Si Si4 0.018147 0.817329 0.239552
Si Si5 0.558357 0.183673 0.439496
Si Si6 0.830272 0.184697 0.363865
Si Si7 0.368005 0.316389 0.441500
Si Si8 0.773364 0.176910 0.170872
O O1 0.764278 0.273088 0.072809
O O2 0.560679 0.217429 0.107000
O O3 0.728580 0.000000 0.049733
O O4 0.750000 0.250000 0.000000
O O5 0.630049 0.731577 0.893226
O O6 0.613675 0.000000 0.933368
O O7 0.500000 0.757359 0.000000
O O8 0.479602 0.500000 0.852441
O O9 0.512370 0.747329 0.794935
O O10 0.659960 0.695137 0.807686
O O11 0.153754 0.779275 0.209233
O O12 0.924255 0.744797 0.301510
O O13 0.002055 0.000000 0.244327
O O14 0.500000 0.237924 0.500000
O O15 0.696356 0.242593 0.395091
O O16 0.489391 0.261043 0.424454
O O17 0.548046 0.000000 0.437911
O O18 0.869469 0.244659 0.395225
O O19 0.831994 0.000000 0.362982
O O20 0.359845 0.500000 0.445551
O O21 0.250000 0.250000 0.500000
O O22 0.736255 0.000000 0.174207
#
# Coordination Sequence:
#
# PCOD8093902 Si02
#       8
#     8   8   8   8   8   8   8   8
#     4  12  24  38  60  89 123 156 196 248 303 360
#     4  11  23  39  60  88 121 158 200 245 301 366
#     4  10  22  40  62  87 119 157 201 246 301 360
#     4  10  21  41  65  85 116 166 209 247 296 362
#     4  10  19  36  60  87 121 161 201 247 304 364
#     4   9  20  38  60  86 120 162 206 246 300 363
#     4  11  21  36  58  88 123 160 204 251 305 362
#     4  11  23  39  61  91 122 156 199 253 303 352
#
# _framework density 20.120989999999999
#
# number of rings (size 3 to 8) (size 9 to 14) (size 15 to 20)
#    0.000    1.500    2.500    3.000    0.000    5.250 
#    0.000    3.125    0.000    0.000    0.000    0.000 
#    0.000    0.000    0.000    0.000    0.000    0.000 
#
# Total GULP energy -396894.131277 kJ/mol
# GULP energy per Si atom -12402.941602 kJ/mol
# Density = 2.007519 g / cm^3
# Si number density = 20.120990 Si / 1000 Ang^3
#
#
#
# Elastic Constant Matrix: (Units=GPa)
#
#
# Indices 1 2 3 4 5 6 
#
# 1 147.8563 16.0260 64.9944 -0.0014 5.9311 -0.0004
# 2 16.0260 25.5215 17.9234 -0.0039 8.3263 -0.0005
# 3 64.9944 17.9234 155.9601 -0.0008 1.9754 0.0002
# 4 -0.0014 -0.0039 -0.0008 17.2917 -0.0015 -0.0603
# 5 5.9311 8.3263 1.9754 -0.0015 31.4102 -0.0009
# 6 -0.0004 -0.0005 0.0002 -0.0603 -0.0009 30.8032
#
#
#
# Elastic Compliance Matrix: (Units=1/GPa)
#
#
# Indices 1 2 3 4 5 6 
#
# 1 0.008512 -0.002883 -0.003208 0.000000 -0.000641 0.000000
# 2 -0.002883 0.047768 -0.004138 0.000009 -0.011858 0.000000
# 3 -0.003208 -0.004138 0.008209 -0.000001 0.001186 0.000000
# 4 0.000000 0.000009 -0.000001 0.057832 0.000000 0.000113
# 5 -0.000641 -0.011858 0.001186 0.000000 0.035027 0.000001
# 6 0.000000 0.000000 0.000000 0.000113 0.000001 0.032464
#
#
# Mechanical properties :
#
#
# Convention : Reuss Voigt Hill
#
# Bulk Modulus (GPa) = 22.71116 58.58061 40.64588
# Shear Modulus (GPa) = 22.22768 31.26063 26.74415
#
# Velocity S-wave (km/s) = 3.32731 3.94589 3.64973
# Velocity P-wave (km/s) = 5.10618 7.06664 6.16484
#
# Compressibility (1/GPa) = 0.04403122
#
# Stress axis : x y z
#
# Youngs Moduli (GPa) = 117.48771 20.93473 121.81505
#
# Poissons Ratio (x) = 0.06035 0.39074
# Poissons Ratio (y) = 0.33870 0.50407
# Poissons Ratio (z) = 0.37686 0.08663
#
# Static dielectric constant tensor:
#      x y z
#    x 3.838710 -0.000010 0.068590 
#    y -0.000010 3.372580 -0.000010 
#    z 0.068590 -0.000010 3.830900 
# 
# 
# High freq. dielectric constant tensor:
#      x y z
#    x 1.800360 0.000000 0.002580 
#    y 0.000000 1.768420 0.000000 
#    z 0.002580 0.000000 1.784400 
# 
# From -- ./inp_files/375429.got.cif
#   From: 2010.06.25/outbox.cif.g09.slc.cpg/sg12_188_cif.got.tgz:375429.got - 2010.06.28 00:19:55.
