data_PCOD8093010
_publ_section_title
;
Structure prediction by ZEFSAII (Michael W. Deem and Ramdas Pophale) SiO2 
 PCOD8093010
Probable space group: C 2/M
;
_chemical_formula_sum "Si O2"
_cell_formula_units_Z 64
_cell_length_a 30.075313
_cell_length_b 9.129653
_cell_length_c 15.945028
_cell_angle_alpha 90.000000
_cell_angle_beta 47.835465
_cell_angle_gamma 90.000000
_cell_volume 3245.166477
_symmetry_space_group_name_H-M "C 2/M"
_symmetry_group_IT_number 12
_symmetry_cell_setting 'monoclinic'
loop_
_space_group_symop_operation_xyz
x,y,z
-x,y,-z
-x,-y,-z
x,-y,z
1/2+x,1/2+y,z
1/2-x,1/2+y,-z
1/2-x,1/2-y,-z
1/2+x,1/2-y,z
loop_
_atom_site_type_symbol
_atom_site_label
_atom_site_fract_x
_atom_site_fract_y
_atom_site_fract_z
Si Si1 0.206351 0.673711 0.619770
Si Si2 0.417639 0.170292 0.293425
Si Si3 0.081205 0.832389 0.232058
Si Si4 0.240878 0.327089 0.764171
Si Si5 0.627424 0.667568 0.352387
Si Si6 0.541705 0.170244 0.579680
Si Si7 0.971538 0.667074 0.945560
Si Si8 0.136726 0.827335 0.985587
O O1 0.211053 0.500000 0.601515
O O2 0.250000 0.750000 0.500000
O O3 0.140237 0.735135 0.680491
O O4 0.222099 0.720220 0.694307
O O5 0.414144 0.198997 0.397222
O O6 0.479723 0.237464 0.179921
O O7 0.420638 0.000000 0.267177
O O8 0.125869 0.813622 0.254135
O O9 0.117856 0.781837 0.103677
O O10 0.023196 0.733928 0.318610
O O11 0.059789 0.000000 0.249920
O O12 0.233833 0.500000 0.786686
O O13 0.308964 0.274976 0.693958
O O14 0.200289 0.245161 0.883775
O O15 0.617903 0.500000 0.391472
O O16 0.572128 0.757476 0.460668
O O17 0.533441 0.000000 0.571690
O O18 0.953926 0.500000 0.944593
O O19 0.912211 0.765195 0.017497
O O20 0.000000 0.675103 0.000000
O O21 0.142253 0.000000 0.967514
#
# Coordination Sequence:
#
# PCOD8093010 Si02
#       8
#     8   8   8   8   8   8   8   8
#     4  10  20  36  57  83 114 149 189 231 280 336
#     4   9  18  32  52  80 112 144 178 223 278 335
#     4  10  22  40  59  82 116 155 191 238 298 351
#     4  10  22  40  61  84 114 155 200 239 284 350
#     4  10  22  40  60  82 112 153 197 240 294 352
#     4  11  21  35  58  88 118 147 189 242 294 349
#     4  10  19  35  59  82 109 149 191 230 280 342
#     4  11  23  38  58  85 118 152 191 243 294 341
#
# _framework density 19.721639
#
# number of rings (size 3 to 8) (size 9 to 14) (size 15 to 20)
#    0.000    1.875    1.250    2.625    0.000    6.250 
#    0.000    1.250    0.000    0.000    0.000    0.000 
#    0.000    0.000    0.000    0.000    0.000    0.000 
#
# Total GULP energy -396875.662563 kJ/mol
# GULP energy per Si atom -12402.364455 kJ/mol
# Density = 1.967675 g / cm^3
# Si number density = 19.721639 Si / 1000 Ang^3
#
#
#
# Elastic Constant Matrix: (Units=GPa)
#
#
# Indices 1 2 3 4 5 6 
#
# 1 95.4695 33.9282 34.9163 -0.0001 -1.3566 0.0001
# 2 33.9282 65.5876 52.0489 0.0007 -3.0763 0.0002
# 3 34.9163 52.0489 130.0350 -0.0001 -4.3415 0.0000
# 4 -0.0001 0.0007 -0.0001 36.0098 -0.0001 -4.2840
# 5 -1.3566 -3.0763 -4.3415 -0.0001 31.5087 0.0000
# 6 0.0001 0.0002 0.0000 -4.2840 0.0000 21.9432
#
#
#
# Elastic Compliance Matrix: (Units=1/GPa)
#
#
# Indices 1 2 3 4 5 6 
#
# 1 0.012954 -0.005780 -0.001170 0.000000 -0.000168 0.000000
# 2 -0.005780 0.024952 -0.008401 -0.000001 0.001030 0.000000
# 3 -0.001170 -0.008401 0.011391 0.000000 0.000699 0.000000
# 4 0.000000 -0.000001 0.000000 0.028431 0.000000 0.005551
# 5 -0.000168 0.001030 0.000699 0.000000 0.031927 0.000000
# 6 0.000000 0.000000 0.000000 0.005551 0.000000 0.046656
#
#
# Mechanical properties :
#
#
# Convention : Reuss Voigt Hill
#
# Bulk Modulus (GPa) = 53.78222 59.20875 56.49549
# Shear Modulus (GPa) = 25.87835 29.23894 27.55864
#
# Velocity S-wave (km/s) = 3.62633 3.85461 3.74221
# Velocity P-wave (km/s) = 6.69803 7.06386 6.88337
#
# Compressibility (1/GPa) = 0.01859351
#
# Stress axis : x y z
#
# Youngs Moduli (GPa) = 77.19349 40.07669 87.79242
#
# Poissons Ratio (x) = 0.23166 0.10275
# Poissons Ratio (y) = 0.44621 0.73755
# Poissons Ratio (z) = 0.09034 0.33669
#
# Static dielectric constant tensor:
#      x y z
#    x 3.810280 0.000000 0.032310 
#    y 0.000000 3.422900 0.000000 
#    z 0.032310 0.000000 3.706000 
# 
# 
# High freq. dielectric constant tensor:
#      x y z
#    x 1.777670 0.000000 0.003640 
#    y 0.000000 1.749000 0.000000 
#    z 0.003640 0.000000 1.776780 
# 
# From -- ./inp_files/249708.got.cif
#   From: 2010.06.25/outbox.cif.g09.slc.cpg/sg12_125_cif.got.tgz:249708.got - 2010.06.28 00:19:55.
