data_PCOD8093889
_publ_section_title
;
Structure prediction by ZEFSAII (Michael W. Deem and Ramdas Pophale) SiO2 
 PCOD8093889
Probable space group: C 2/M
;
_chemical_formula_sum "Si O2"
_cell_formula_units_Z 64
_cell_length_a 9.833669
_cell_length_b 26.436635
_cell_length_c 18.402627
_cell_angle_alpha 90.000000
_cell_angle_beta 141.004173
_cell_angle_gamma 90.000000
_cell_volume 3010.470145
_symmetry_space_group_name_H-M "C 2/M"
_symmetry_group_IT_number 12
_symmetry_cell_setting 'monoclinic'
loop_
_space_group_symop_operation_xyz
x,y,z
-x,y,-z
-x,-y,-z
x,-y,z
1/2+x,1/2+y,z
1/2-x,1/2+y,-z
1/2-x,1/2-y,-z
1/2+x,1/2-y,z
loop_
_atom_site_type_symbol
_atom_site_label
_atom_site_fract_x
_atom_site_fract_y
_atom_site_fract_z
Si Si1 0.040527 0.440308 0.855862
Si Si2 0.135188 0.608617 0.744558
Si Si3 0.597194 0.708938 0.816400
Si Si4 0.881293 0.796609 0.881722
Si Si5 0.873631 0.098328 0.241555
Si Si6 0.332394 0.891505 0.487165
Si Si7 0.715490 0.774582 0.561210
Si Si8 0.433920 0.443309 0.119310
O O1 0.996803 0.500000 0.845079
O O2 0.096043 0.426367 0.797029
O O3 0.830177 0.408373 0.790650
O O4 0.242589 0.422742 0.988701
O O5 0.173932 0.668158 0.776527
O O6 0.355897 0.591678 0.797306
O O7 0.925959 0.601202 0.606800
O O8 0.805661 0.741944 0.880960
O O9 0.545773 0.708554 0.881522
O O10 0.630372 0.653282 0.797618
O O11 0.399454 0.737290 0.695539
O O12 0.000000 0.822888 0.000000
O O13 0.090532 0.086284 0.378440
O O14 0.852427 0.057446 0.168435
O O15 0.500000 0.917689 0.500000
O O16 0.316121 0.833593 0.460189
O O17 0.500000 0.747975 0.500000
O O18 0.750000 0.750000 0.500000
O O19 0.494873 0.500000 0.121127
#
# Coordination Sequence:
#
# PCOD8093889 Si02
#       8
#     8   8   8   8   8   8   8   8
#     4  11  26  44  66  99 133 169 217 276 335 391
#     4  12  23  43  69  96 132 173 220 272 329 388
#     4  11  24  41  63  96 130 173 218 265 323 388
#     4  12  25  42  64  96 134 176 219 265 321 389
#     4  11  23  43  68  96 134 172 214 273 334 387
#     4  10  20  41  65  91 125 171 219 266 321 397
#     4  10  19  36  60  86 120 163 213 267 311 369
#     4  11  22  43  71  96 123 168 224 270 323 396
#
# _framework density 21.259136999999999
#
# number of rings (size 3 to 8) (size 9 to 14) (size 15 to 20)
#    0.000    1.000    2.500    5.625    1.750    3.500 
#    4.500    3.750    0.000    0.000    0.000    0.000 
#    0.000    0.000    0.000    0.000    0.000    0.000 
#
# Total GULP energy -396764.638082 kJ/mol
# GULP energy per Si atom -12398.894940 kJ/mol
# Density = 2.121075 g / cm^3
# Si number density = 21.259137 Si / 1000 Ang^3
#
#
#
# Elastic Constant Matrix: (Units=GPa)
#
#
# Indices 1 2 3 4 5 6 
#
# 1 80.5921 23.4153 19.9227 -0.0029 -1.6582 -0.0013
# 2 23.4153 59.4432 21.7078 -0.0005 4.2162 -0.0001
# 3 19.9227 21.7078 139.3005 -0.0089 -12.7981 -0.0039
# 4 -0.0029 -0.0005 -0.0089 13.6714 -0.0025 -1.8675
# 5 -1.6582 4.2162 -12.7981 -0.0025 36.3092 -0.0010
# 6 -0.0013 -0.0001 -0.0039 -1.8675 -0.0010 33.6656
#
#
#
# Elastic Compliance Matrix: (Units=1/GPa)
#
#
# Indices 1 2 3 4 5 6 
#
# 1 0.014233 -0.005252 -0.001138 0.000002 0.000859 0.000001
# 2 -0.005252 0.020132 -0.002711 -0.000003 -0.003533 -0.000001
# 3 -0.001138 -0.002711 0.008049 0.000006 0.003100 0.000001
# 4 0.000002 -0.000003 0.000006 0.073704 0.000008 0.004088
# 5 0.000859 -0.003533 0.003100 0.000008 0.029083 0.000002
# 6 0.000001 -0.000001 0.000001 0.004088 0.000002 0.029931
#
#
# Mechanical properties :
#
#
# Convention : Reuss Voigt Hill
#
# Bulk Modulus (GPa) = 41.30150 45.49192 43.39671
# Shear Modulus (GPa) = 24.82571 31.01524 27.92047
#
# Velocity S-wave (km/s) = 3.42097 3.82372 3.62793
# Velocity P-wave (km/s) = 5.92232 6.39841 6.16496
#
# Compressibility (1/GPa) = 0.02421219
#
# Stress axis : x y z
#
# Youngs Moduli (GPa) = 70.25889 49.67211 124.24293
#
# Poissons Ratio (x) = 0.26087 0.14143
# Poissons Ratio (y) = 0.36898 0.33679
# Poissons Ratio (z) = 0.07998 0.13465
#
# Static dielectric constant tensor:
#      x y z
#    x 3.874390 0.000000 0.086240 
#    y 0.000000 3.603680 0.000000 
#    z 0.086240 0.000000 4.187130 
# 
# 
# High freq. dielectric constant tensor:
#      x y z
#    x 1.836710 0.000000 -0.003380 
#    y 0.000000 1.820450 0.000000 
#    z -0.003380 0.000000 1.847690 
# 
# From -- ./inp_files/260352.got.cif
#   From: 2010.06.25/outbox.cif.g09.slc.cpg/sg12_131_cif.got.tgz:260352.got - 2010.06.28 00:19:55.
