data_PCOD8093100
_publ_section_title
;
Structure prediction by ZEFSAII (Michael W. Deem and Ramdas Pophale) SiO2 
 PCOD8093100
Probable space group: C 2/M
;
_chemical_formula_sum "Si O2"
_cell_formula_units_Z 64
_cell_length_a 28.561375
_cell_length_b 11.248445
_cell_length_c 13.696080
_cell_angle_alpha 90.000000
_cell_angle_beta 132.587943
_cell_angle_gamma 90.000000
_cell_volume 3239.567280
_symmetry_space_group_name_H-M "C 2/M"
_symmetry_group_IT_number 12
_symmetry_cell_setting 'monoclinic'
loop_
_space_group_symop_operation_xyz
x,y,z
-x,y,-z
-x,-y,-z
x,-y,z
1/2+x,1/2+y,z
1/2-x,1/2+y,-z
1/2-x,1/2-y,-z
1/2+x,1/2-y,z
loop_
_atom_site_type_symbol
_atom_site_label
_atom_site_fract_x
_atom_site_fract_y
_atom_site_fract_z
Si Si1 0.328143 0.366173 0.104954
Si Si2 0.886182 0.638516 0.698205
Si Si3 0.830489 0.366787 0.420329
Si Si4 0.528007 0.366928 0.732151
Si Si5 0.487144 0.281385 0.089366
Si Si6 0.365253 0.867988 0.881511
Si Si7 0.751983 0.280770 0.839224
Si Si8 0.469372 0.866844 0.560606
O O1 0.319323 0.500000 0.059580
O O2 0.401876 0.331096 0.204706
O O3 0.303475 0.350272 0.181473
O O4 0.287537 0.296008 0.969594
O O5 0.896202 0.500000 0.690985
O O6 0.846760 0.690247 0.550052
O O7 0.848086 0.665499 0.744581
O O8 0.956447 0.691912 0.804274
O O9 0.803859 0.500000 0.395391
O O10 0.776301 0.294205 0.289489
O O11 0.893528 0.366266 0.442608
O O12 0.509139 0.500000 0.663231
O O13 0.520113 0.382020 0.838194
O O14 0.486381 0.251380 0.646051
O O15 0.500000 0.337542 0.000000
O O16 0.419744 0.215591 0.999440
O O17 0.302797 0.867110 0.860491
O O18 0.393698 0.000000 0.922506
O O19 0.500000 0.848510 0.500000
O O20 0.489638 0.000000 0.631363
#
# Coordination Sequence:
#
# PCOD8093100 Si02
#       8
#     8   8   8   8   8   8   8   8
#     4  10  22  39  55  78 113 149 190 237 287 337
#     4   9  18  34  58  86 116 143 181 241 297 345
#     4  10  20  35  57  81 111 149 188 234 287 339
#     4  11  22  38  59  87 119 154 191 237 299 352
#     4  10  19  35  59  86 114 148 186 236 291 347
#     4  10  20  34  56  87 114 146 191 240 292 340
#     4  11  21  36  57  80 109 150 195 235 280 336
#     4  10  21  38  60  88 116 149 197 245 286 342
#
# _framework density 19.755725000000002
#
# number of rings (size 3 to 8) (size 9 to 14) (size 15 to 20)
#    0.000    1.875    2.500    1.875    0.000    3.000 
#    0.000    1.875    0.000    0.000    0.000    0.000 
#    0.000    0.000    0.000    0.000    0.000    0.000 
#
# Total GULP energy -396441.810638 kJ/mol
# GULP energy per Si atom -12388.806582 kJ/mol
# Density = 1.971076 g / cm^3
# Si number density = 19.755725 Si / 1000 Ang^3
#
#
#
# Elastic Constant Matrix: (Units=GPa)
#
#
# Indices 1 2 3 4 5 6 
#
# 1 111.6766 7.0009 12.6926 0.0000 -9.6404 0.0000
# 2 7.0009 67.3921 28.9299 0.0000 1.0586 0.0000
# 3 12.6926 28.9299 57.4161 0.0000 -12.6371 0.0000
# 4 0.0000 0.0000 0.0000 28.5417 0.0000 4.3467
# 5 -9.6404 1.0586 -12.6371 0.0000 27.4030 0.0000
# 6 0.0000 0.0000 0.0000 4.3467 0.0000 31.1362
#
#
#
# Elastic Compliance Matrix: (Units=1/GPa)
#
#
# Indices 1 2 3 4 5 6 
#
# 1 0.009361 -0.000494 -0.001215 0.000000 0.002752 0.000000
# 2 -0.000494 0.019798 -0.011211 0.000000 -0.006109 0.000000
# 3 -0.001215 -0.011211 0.025971 0.000000 0.011983 0.000000
# 4 0.000000 0.000000 0.000000 0.035798 0.000000 -0.004997
# 5 0.002752 -0.006109 0.011983 0.000000 0.043222 0.000000
# 6 0.000000 0.000000 0.000000 -0.004997 0.000000 0.032815
#
#
# Mechanical properties :
#
#
# Convention : Reuss Voigt Hill
#
# Bulk Modulus (GPa) = 34.13998 37.08130 35.61064
# Shear Modulus (GPa) = 24.68298 29.94028 27.31163
#
# Velocity S-wave (km/s) = 3.53853 3.89720 3.72219
# Velocity P-wave (km/s) = 5.83211 6.24992 6.04463
#
# Compressibility (1/GPa) = 0.02929117
#
# Stress axis : x y z
#
# Youngs Moduli (GPa) = 106.82575 50.50900 38.50402
#
# Poissons Ratio (x) = 0.02497 0.04677
# Poissons Ratio (y) = 0.05280 0.43167
# Poissons Ratio (z) = 0.12975 0.56625
#
# Static dielectric constant tensor:
#      x y z
#    x 3.977640 0.000000 -0.208560 
#    y 0.000000 3.450060 0.000000 
#    z -0.208560 0.000000 3.498340 
# 
# 
# High freq. dielectric constant tensor:
#      x y z
#    x 1.788680 0.000000 -0.011680 
#    y 0.000000 1.756910 0.000000 
#    z -0.011680 0.000000 1.752210 
# 
# From -- ./inp_files/250860.got.cif
#   From: 2010.06.25/outbox.cif.g09.slc.cpg/sg12_126_cif.got.tgz:250860.got - 2010.06.28 00:19:55.
