data_PCOD8093866
_publ_section_title
;
Structure prediction by ZEFSAII (Michael W. Deem and Ramdas Pophale) SiO2 
 PCOD8093866
Probable space group: C 2/M
;
_chemical_formula_sum "Si O2"
_cell_formula_units_Z 64
_cell_length_a 18.744519
_cell_length_b 13.586849
_cell_length_c 14.565751
_cell_angle_alpha 90.000000
_cell_angle_beta 57.825078
_cell_angle_gamma 90.000000
_cell_volume 3139.894753
_symmetry_space_group_name_H-M "C 2/M"
_symmetry_group_IT_number 12
_symmetry_cell_setting 'monoclinic'
loop_
_space_group_symop_operation_xyz
x,y,z
-x,y,-z
-x,-y,-z
x,-y,z
1/2+x,1/2+y,z
1/2-x,1/2+y,-z
1/2-x,1/2-y,-z
1/2+x,1/2-y,z
loop_
_atom_site_type_symbol
_atom_site_label
_atom_site_fract_x
_atom_site_fract_y
_atom_site_fract_z
Si Si1 0.554943 0.304802 0.207819
Si Si2 0.177361 0.383759 0.798143
Si Si3 0.144715 0.395061 0.159613
Si Si4 0.261383 0.651869 0.933210
Si Si5 0.243625 0.885745 0.744246
Si Si6 0.217560 0.223344 0.421999
Si Si7 0.953386 0.109131 0.437921
Si Si8 0.936047 0.791406 0.124333
O O1 0.575280 0.188214 0.190650
O O2 0.638546 0.371102 0.132198
O O3 0.519801 0.335305 0.329275
O O4 0.481791 0.324655 0.185475
O O5 0.160087 0.500000 0.813902
O O6 0.232963 0.346467 0.846373
O O7 0.224501 0.355988 0.671141
O O8 0.088902 0.324553 0.860123
O O9 0.100694 0.500000 0.214595
O O10 0.205259 0.358524 0.199463
O O11 0.201453 0.421433 0.030520
O O12 0.250000 0.750000 0.000000
O O13 0.284630 0.824937 0.633054
O O14 0.147019 0.857166 0.828513
O O15 0.249968 0.000000 0.714577
O O16 0.250000 0.250000 0.500000
O O17 0.126203 0.178237 0.495336
O O18 0.000000 0.093792 0.500000
O O19 0.928450 0.000000 0.416709
O O20 0.000000 0.815636 0.000000
#
# Coordination Sequence:
#
# PCOD8093866 Si02
#       8
#     8   8   8   8   8   8   8   8
#     4  11  22  36  57  86 118 148 187 240 291 344
#     4  11  23  39  61  88 119 158 203 245 290 354
#     4  10  20  37  61  85 114 154 193 229 277 346
#     4  10  19  36  60  85 118 156 194 234 281 348
#     4  10  22  41  62  84 113 154 202 241 282 349
#     4  11  23  41  61  82 114 156 200 247 297 350
#     4  11  23  39  61  87 115 146 186 245 307 353
#     4  11  22  37  57  86 124 157 185 232 293 346
#
# _framework density 20.382849
#
# number of rings (size 3 to 8) (size 9 to 14) (size 15 to 20)
#    0.000    1.375    0.000    9.000    0.000    5.500 
#    0.000    0.625    0.000    2.250    0.000    0.000 
#    0.000    0.000    0.000    0.000    0.000    0.000 
#
# Total GULP energy -396623.103616 kJ/mol
# GULP energy per Si atom -12394.471988 kJ/mol
# Density = 2.033646 g / cm^3
# Si number density = 20.382849 Si / 1000 Ang^3
#
#
#
# Elastic Constant Matrix: (Units=GPa)
#
#
# Indices 1 2 3 4 5 6 
#
# 1 74.4134 3.1714 27.2873 0.0000 5.1263 0.0000
# 2 3.1714 95.9066 36.6545 0.0000 -9.4241 0.0000
# 3 27.2873 36.6545 119.6358 0.0000 1.9226 0.0000
# 4 0.0000 0.0000 0.0000 13.9636 0.0000 -2.9761
# 5 5.1263 -9.4241 1.9226 0.0000 41.4916 0.0000
# 6 0.0000 0.0000 0.0000 -2.9761 0.0000 19.6168
#
#
#
# Elastic Compliance Matrix: (Units=1/GPa)
#
#
# Indices 1 2 3 4 5 6 
#
# 1 0.014824 0.000731 -0.003581 0.000000 -0.001499 0.000000
# 2 0.000731 0.012193 -0.003948 0.000000 0.002862 0.000000
# 3 -0.003581 -0.003948 0.010400 0.000000 -0.000936 0.000000
# 4 0.000000 0.000000 0.000000 0.074008 0.000000 0.011228
# 5 -0.001499 0.002862 -0.000936 0.000000 0.024980 0.000000
# 6 0.000000 0.000000 0.000000 0.011228 0.000000 0.052680
#
#
# Mechanical properties :
#
#
# Convention : Reuss Voigt Hill
#
# Bulk Modulus (GPa) = 41.98118 47.13135 44.55626
# Shear Modulus (GPa) = 23.73928 29.87058 26.80493
#
# Velocity S-wave (km/s) = 3.41643 3.83231 3.63033
# Velocity P-wave (km/s) = 6.01695 6.53876 6.28327
#
# Compressibility (1/GPa) = 0.02382020
#
# Stress axis : x y z
#
# Youngs Moduli (GPa) = 67.45942 82.01467 96.15129
#
# Poissons Ratio (x) = -0.05996 0.34432
# Poissons Ratio (y) = -0.04932 0.37965
# Poissons Ratio (z) = 0.24157 0.32383
#
# Static dielectric constant tensor:
#      x y z
#    x 1.774340 0.000000 -0.094630 
#    y 0.000000 3.989460 0.000000 
#    z -0.094630 0.000000 4.016350 
# 
# 
# High freq. dielectric constant tensor:
#      x y z
#    x 1.795640 0.000000 0.008660 
#    y 0.000000 1.805440 0.000000 
#    z 0.008660 0.000000 1.803100 
# 
# From -- ./inp_files/225269.got.cif
#   From: 2010.06.25/outbox.cif.g09.slc.cpg/sg12_113_cif.got.tgz:225269.got - 2010.06.28 00:19:55.
