data_PCOD8093933
_publ_section_title
;
Structure prediction by ZEFSAII (Michael W. Deem and Ramdas Pophale) SiO2 
 PCOD8093933
Probable space group: C 2/M
;
_chemical_formula_sum "Si O2"
_cell_formula_units_Z 64
_cell_length_a 8.912079
_cell_length_b 20.692370
_cell_length_c 23.780922
_cell_angle_alpha 90.000000
_cell_angle_beta 130.930295
_cell_angle_gamma 90.000000
_cell_volume 3313.267819
_symmetry_space_group_name_H-M "C 2/M"
_symmetry_group_IT_number 12
_symmetry_cell_setting 'monoclinic'
loop_
_space_group_symop_operation_xyz
x,y,z
-x,y,-z
-x,-y,-z
x,-y,z
1/2+x,1/2+y,z
1/2-x,1/2+y,-z
1/2-x,1/2-y,-z
1/2+x,1/2-y,z
loop_
_atom_site_type_symbol
_atom_site_label
_atom_site_fract_x
_atom_site_fract_y
_atom_site_fract_z
Si Si1 0.637688 0.661817 0.584150
Si Si2 0.081926 0.800787 0.250570
Si Si3 0.352244 0.568741 0.787160
Si Si4 0.491695 0.256179 0.647903
Si Si5 0.019268 0.893819 0.066221
Si Si6 0.575768 0.925965 0.281219
Si Si7 0.580391 0.825635 0.844496
Si Si8 0.139434 0.316341 0.981110
O O1 0.500000 0.636512 0.500000
O O2 0.499477 0.699140 0.594974
O O3 0.736744 0.599698 0.637511
O O4 0.801440 0.710091 0.598964
O O5 0.033466 0.871393 0.213089
O O6 0.314429 0.787996 0.299445
O O7 0.020970 0.802294 0.300716
O O8 0.957622 0.745918 0.188221
O O9 0.410037 0.500000 0.772220
O O10 0.405120 0.559374 0.866258
O O11 0.115238 0.578447 0.725092
O O12 0.181233 0.835669 0.100982
O O13 0.000000 0.928151 0.000000
O O14 0.804491 0.870207 0.032755
O O15 0.545603 0.879166 0.220160
O O16 0.615075 0.000000 0.271492
O O17 0.514236 0.831141 0.893440
O O18 0.250000 0.250000 0.000000
O O19 0.000000 0.314863 0.000000
#
# Coordination Sequence:
#
# PCOD8093933 Si02
#       8
#     8   8   8   8   8   8   8   8
#     4  11  21  38  60  91 124 155 188 236 298 350
#     4  11  19  35  59  84 114 146 196 234 290 339
#     4  10  20  34  57  83 112 151 192 243 288 342
#     4  10  20  35  58  88 117 149 186 241 278 340
#     4   9  19  35  53  80 108 143 193 238 290 346
#     4  10  20  38  60  87 115 152 204 243 287 352
#     4  10  19  36  61  82 112 152 192 246 291 338
#     4  11  22  35  52  81 116 150 190 244 297 347
#
# _framework density 19.316276999999999
#
# number of rings (size 3 to 8) (size 9 to 14) (size 15 to 20)
#    0.000    1.750    3.750    3.000    0.000    3.500 
#    0.000    2.500    0.000    0.750    0.000    1.750 
#    0.000    0.000    0.000    0.000    0.000    0.125 
#
# Total GULP energy -396673.568858 kJ/mol
# GULP energy per Si atom -12396.049027 kJ/mol
# Density = 1.927231 g / cm^3
# Si number density = 19.316277 Si / 1000 Ang^3
#
#
#
# Elastic Constant Matrix: (Units=GPa)
#
#
# Indices 1 2 3 4 5 6 
#
# 1 103.7769 33.9583 36.6882 0.0000 -9.8175 0.0000
# 2 33.9583 133.2619 45.5381 0.0000 -12.0531 0.0000
# 3 36.6882 45.5381 125.4151 0.0000 -7.3396 0.0000
# 4 0.0000 0.0000 0.0000 6.8489 0.0000 -6.4132
# 5 -9.8175 -12.0531 -7.3396 0.0000 13.6451 0.0000
# 6 0.0000 0.0000 0.0000 -6.4132 0.0000 16.4663
#
#
#
# Elastic Compliance Matrix: (Units=1/GPa)
#
#
# Indices 1 2 3 4 5 6 
#
# 1 0.011561 -0.001595 -0.002476 0.000000 0.005577 0.000000
# 2 -0.001595 0.009306 -0.002580 0.000000 0.005685 0.000000
# 3 -0.002476 -0.002580 0.009702 0.000000 0.001158 0.000000
# 4 0.000000 0.000000 0.000000 0.229825 0.000000 0.089511
# 5 0.005577 0.005685 0.001158 0.000000 0.082944 0.000000
# 6 0.000000 0.000000 0.000000 0.089511 0.000000 0.095593
#
#
# Mechanical properties :
#
#
# Convention : Reuss Voigt Hill
#
# Bulk Modulus (GPa) = 57.91428 66.09146 62.00287
# Shear Modulus (GPa) = 10.91727 23.81002 17.36365
#
# Velocity S-wave (km/s) = 2.37994 3.51471 3.00144
# Velocity P-wave (km/s) = 6.13183 7.12465 6.64680
#
# Compressibility (1/GPa) = 0.01726690
#
# Stress axis : x y z
#
# Youngs Moduli (GPa) = 86.49649 107.45412 103.06706
#
# Poissons Ratio (x) = 0.17144 0.25523
# Poissons Ratio (y) = 0.13800 0.26588
# Poissons Ratio (z) = 0.21420 0.27720
#
# Static dielectric constant tensor:
#      x y z
#    x 5.702490 0.000000 0.375880 
#    y 0.000000 3.378270 0.000000 
#    z 0.375880 0.000000 3.705630 
# 
# 
# High freq. dielectric constant tensor:
#      x y z
#    x 1.741450 0.000000 -0.000110 
#    y 0.000000 1.734960 0.000000 
#    z -0.000110 0.000000 1.752510 
# 
# From -- ./inp_files/333779.got.cif
#   From: 2010.06.25/outbox.cif.g09.slc.cpg/sg12_167_cif.got.tgz:333779.got - 2010.06.28 00:19:55.
