data_PCOD8093808
_publ_section_title
;
Structure prediction by ZEFSAII (Michael W. Deem and Ramdas Pophale) SiO2 
 PCOD8093808
Probable space group: C 2/M
;
_chemical_formula_sum "Si O2"
_cell_formula_units_Z 64
_cell_length_a 19.657290
_cell_length_b 8.744516
_cell_length_c 30.692581
_cell_angle_alpha 90.000000
_cell_angle_beta 38.436741
_cell_angle_gamma 90.000000
_cell_volume 3279.736158
_symmetry_space_group_name_H-M "C 2/M"
_symmetry_group_IT_number 12
_symmetry_cell_setting 'monoclinic'
loop_
_space_group_symop_operation_xyz
x,y,z
-x,y,-z
-x,-y,-z
x,-y,z
1/2+x,1/2+y,z
1/2-x,1/2+y,-z
1/2-x,1/2-y,-z
1/2+x,1/2-y,z
loop_
_atom_site_type_symbol
_atom_site_label
_atom_site_fract_x
_atom_site_fract_y
_atom_site_fract_z
Si Si1 0.299114 0.319890 0.369233
Si Si2 0.182909 0.321576 0.732469
Si Si3 0.976159 0.819163 0.879547
Si Si4 0.468475 0.681794 0.723363
Si Si5 0.063944 0.318555 0.510218
Si Si6 0.420394 0.819393 0.999706
Si Si7 0.914416 0.821696 0.656210
Si Si8 0.170610 0.819525 0.126730
O O1 0.289320 0.500000 0.376245
O O2 0.317975 0.275527 0.310340
O O3 0.405778 0.260306 0.341276
O O4 0.187658 0.250883 0.445553
O O5 0.172682 0.500000 0.727008
O O6 0.085589 0.269181 0.812141
O O7 0.295182 0.280548 0.699653
O O8 0.952460 0.772380 0.940675
O O9 0.878065 0.766951 0.895831
O O10 0.994875 0.000000 0.867077
O O11 0.465019 0.500000 0.729266
O O12 0.415332 0.738549 0.705262
O O13 0.402720 0.752704 0.797499
O O14 0.063229 0.500000 0.510595
O O15 0.000000 0.255203 0.500000
O O16 0.008107 0.261699 0.582028
O O17 0.428975 0.000000 0.986260
O O18 0.500000 0.773397 0.000000
O O19 0.295665 0.767630 0.071853
O O20 0.940816 0.000000 0.640432
O O21 0.164440 0.000000 0.132512
#
# Coordination Sequence:
#
# PCOD8093808 Si02
#       8
#     8   8   8   8   8   8   8   8
#     4  10  19  36  60  81 107 149 191 228 276 335
#     4  11  22  35  56  86 114 142 187 240 283 326
#     4  11  22  38  61  84 112 153 192 228 273 331
#     4   9  18  35  58  82 110 145 189 229 274 335
#     4  10  20  34  55  81 112 148 186 229 280 340
#     4  10  22  38  60  89 119 149 183 229 280 328
#     4  10  22  36  56  83 112 147 185 234 285 332
#     4   9  18  35  61  85 109 149 190 225 271 331
#
# _framework density 19.513764999999999
#
# number of rings (size 3 to 8) (size 9 to 14) (size 15 to 20)
#    0.000    2.000    2.500    1.125    1.750    2.000 
#    0.000    1.250    0.000    0.000    0.000    0.000 
#    0.000    0.000    0.000    0.000    0.000    0.000 
#
# Total GULP energy -396726.643449 kJ/mol
# GULP energy per Si atom -12397.707608 kJ/mol
# Density = 1.946935 g / cm^3
# Si number density = 19.513765 Si / 1000 Ang^3
#
#
#
# Elastic Constant Matrix: (Units=GPa)
#
#
# Indices 1 2 3 4 5 6 
#
# 1 96.0539 -23.6999 35.3139 0.0088 -8.5075 -0.0085
# 2 -23.6999 -20.8156 -12.6718 0.0030 -8.5034 0.0199
# 3 35.3139 -12.6718 120.6054 0.0088 -17.2802 0.0068
# 4 0.0088 0.0030 0.0088 26.1752 0.0014 9.7960
# 5 -8.5075 -8.5034 -17.2802 0.0014 39.9238 0.0046
# 6 -0.0085 0.0199 0.0068 9.7960 0.0046 15.8526
#
#
#
# Elastic Compliance Matrix: (Units=1/GPa)
#
#
# Indices 1 2 3 4 5 6 
#
# 1 0.009714 -0.008140 -0.003893 -0.000010 -0.001349 0.000024
# 2 -0.008140 -0.033195 -0.002522 -0.000010 -0.009897 0.000047
# 3 -0.003893 -0.002522 0.009564 0.000000 0.002773 -0.000004
# 4 -0.000010 -0.000010 0.000000 0.049697 -0.000002 -0.030710
# 5 -0.001349 -0.009897 0.002773 -0.000002 0.023853 0.000005
# 6 0.000024 0.000047 -0.000004 -0.030710 0.000005 0.082059
#
#
# Mechanical properties :
#
#
# Convention : Reuss Voigt Hill
#
# Bulk Modulus (GPa) = -23.24129 21.52535 -0.85797
# Shear Modulus (GPa) = 31.95735 29.51708 30.73721
#
# Velocity S-wave (km/s) = 4.05122 3.89347 3.97313
# Velocity P-wave (km/s) = 3.15390 5.59169 4.53950
#
# Compressibility (1/GPa) = -0.04302688
#
# Stress axis : x y z
#
# Youngs Moduli (GPa) = 102.94167 -30.12495 104.56338
#
# Poissons Ratio (x) = -0.24521 0.40705
# Poissons Ratio (y) = 0.83790 0.26375
# Poissons Ratio (z) = 0.40073 -0.07599
#
# Static dielectric constant tensor:
#      x y z
#    x 3.718980 -0.000010 -0.172510 
#    y -0.000010 3.217200 0.000010 
#    z -0.172510 0.000010 3.834840 
# 
# 
# High freq. dielectric constant tensor:
#      x y z
#    x 1.770150 0.000000 -0.007260 
#    y 0.000000 1.725720 0.000000 
#    z -0.007260 0.000000 1.774730 
# 
# From -- ./inp_files/378040.got.cif
#   From: 2010.06.25/outbox.cif.g09.slc.cpg/sg12_190_cif.got.tgz:378040.got - 2010.06.28 00:19:55.
