data_PCOD8093644
_publ_section_title
;
Structure prediction by ZEFSAII (Michael W. Deem and Ramdas Pophale) SiO2 
 PCOD8093644
Probable space group: C 2/M
;
_chemical_formula_sum "Si O2"
_cell_formula_units_Z 64
_cell_length_a 15.346590
_cell_length_b 8.653744
_cell_length_c 24.440424
_cell_angle_alpha 90.000000
_cell_angle_beta 89.671454
_cell_angle_gamma 90.000000
_cell_volume 3245.768417
_symmetry_space_group_name_H-M "C 2/M"
_symmetry_group_IT_number 12
_symmetry_cell_setting 'monoclinic'
loop_
_space_group_symop_operation_xyz
x,y,z
-x,y,-z
-x,-y,-z
x,-y,z
1/2+x,1/2+y,z
1/2-x,1/2+y,-z
1/2-x,1/2-y,-z
1/2+x,1/2-y,z
loop_
_atom_site_type_symbol
_atom_site_label
_atom_site_fract_x
_atom_site_fract_y
_atom_site_fract_z
Si Si1 0.967760 0.182682 0.440338
Si Si2 0.276998 0.824135 0.170901
Si Si3 0.204222 0.322270 0.948566
Si Si4 0.974071 0.683070 0.169934
Si Si5 0.474554 0.678949 0.058966
Si Si6 0.126702 0.183201 0.366551
Si Si7 0.280662 0.182886 0.442679
Si Si8 0.620199 0.684414 0.242708
O O1 0.876681 0.262156 0.425895
O O2 0.000000 0.233829 0.500000
O O3 0.039581 0.243326 0.397038
O O4 0.954240 0.000000 0.437672
O O5 0.240993 0.815639 0.108154
O O6 0.374535 0.752632 0.177266
O O7 0.204078 0.745953 0.209897
O O8 0.285393 0.000000 0.189849
O O9 0.175768 0.500000 0.960414
O O10 0.127069 0.206241 0.935937
O O11 0.250000 0.250000 0.000000
O O12 0.974690 0.500000 0.169620
O O13 0.016729 0.738599 0.111826
O O14 0.030987 0.748238 0.219040
O O15 0.500909 0.500000 0.060637
O O16 0.500000 0.752300 0.000000
O O17 0.213267 0.243565 0.396865
O O18 0.127673 0.244694 0.304647
O O19 0.125900 0.000000 0.367712
O O20 0.250000 0.250000 0.500000
O O21 0.278511 0.000000 0.446926
O O22 0.616129 0.500000 0.238582
#
# Coordination Sequence:
#
# PCOD8093644 Si02
#       8
#     8   8   8   8   8   8   8   8
#     4  10  19  36  58  82 119 159 189 235 292 340
#     4   8  18  36  56  76 107 146 183 225 281 338
#     4  10  20  34  52  79 112 145 182 230 287 345
#     4  10  21  38  57  82 114 147 184 238 298 343
#     4  10  21  36  55  80 109 144 186 232 286 348
#     4   9  20  37  57  83 115 152 194 231 283 344
#     4  11  21  36  58  87 118 155 196 239 288 344
#     4  10  20  38  62  82 106 152 199 231 272 345
#
# _framework density 19.717980000000001
#
# number of rings (size 3 to 8) (size 9 to 14) (size 15 to 20)
#    0.000    2.250    1.250    2.250    1.750    2.250 
#    0.000    6.250    0.000    0.000    0.000    0.000 
#    0.000    0.000    0.000    0.000    0.000    0.000 
#
# Total GULP energy -396589.376878 kJ/mol
# GULP energy per Si atom -12393.418027 kJ/mol
# Density = 1.967310 g / cm^3
# Si number density = 19.717980 Si / 1000 Ang^3
#
#
#
# Elastic Constant Matrix: (Units=GPa)
#
#
# Indices 1 2 3 4 5 6 
#
# 1 140.7542 28.3259 86.2863 0.0000 3.9234 0.0000
# 2 28.3259 42.7446 34.5435 0.0000 2.7238 0.0000
# 3 86.2863 34.5435 178.9061 0.0000 5.8843 0.0000
# 4 0.0000 0.0000 0.0000 19.5901 0.0000 4.5516
# 5 3.9234 2.7238 5.8843 0.0000 39.0585 0.0000
# 6 0.0000 0.0000 0.0000 4.5516 0.0000 29.8658
#
#
#
# Elastic Compliance Matrix: (Units=1/GPa)
#
#
# Indices 1 2 3 4 5 6 
#
# 1 0.010487 -0.003384 -0.004399 0.000000 -0.000155 0.000000
# 2 -0.003384 0.028862 -0.003905 0.000000 -0.001085 0.000000
# 3 -0.004399 -0.003905 0.008484 0.000000 -0.000564 0.000000
# 4 0.000000 0.000000 0.000000 0.052920 0.000000 -0.008065
# 5 -0.000155 -0.001085 -0.000564 0.000000 0.025779 0.000000
# 6 0.000000 0.000000 0.000000 -0.008065 0.000000 0.034712
#
#
# Mechanical properties :
#
#
# Convention : Reuss Voigt Hill
#
# Bulk Modulus (GPa) = 40.88974 73.41293 57.15133
# Shear Modulus (GPa) = 25.93725 31.91949 28.92837
#
# Velocity S-wave (km/s) = 3.63079 4.02780 3.83444
# Velocity P-wave (km/s) = 6.19348 7.67745 6.97504
#
# Compressibility (1/GPa) = 0.02445602
#
# Stress axis : x y z
#
# Youngs Moduli (GPa) = 95.35764 34.64731 117.87197
#
# Poissons Ratio (x) = 0.11726 0.51855
# Poissons Ratio (y) = 0.32272 0.46027
# Poissons Ratio (z) = 0.41950 0.13529
#
# Static dielectric constant tensor:
#      x y z
#    x 3.786120 0.000000 -0.119780 
#    y 0.000000 3.077350 0.000000 
#    z -0.119780 0.000000 3.666630 
# 
# 
# High freq. dielectric constant tensor:
#      x y z
#    x 1.770300 0.000000 0.000540 
#    y 0.000000 1.741150 0.000000 
#    z 0.000540 0.000000 1.775700 
# 
# From -- ./inp_files/338746.got.cif
#   From: 2010.06.25/outbox.cif.g09.slc.cpg/sg12_170_cif.got.tgz:338746.got - 2010.06.28 00:19:55.
