data_PCOD8093234
_publ_section_title
;
Structure prediction by ZEFSAII (Michael W. Deem and Ramdas Pophale) SiO2 
 PCOD8093234
Probable space group: C 2/M
;
_chemical_formula_sum "Si O2"
_cell_formula_units_Z 64
_cell_length_a 21.509280
_cell_length_b 9.264140
_cell_length_c 25.053723
_cell_angle_alpha 90.000000
_cell_angle_beta 42.201644
_cell_angle_gamma 90.000000
_cell_volume 3353.556726
_symmetry_space_group_name_H-M "C 2/M"
_symmetry_group_IT_number 12
_symmetry_cell_setting 'monoclinic'
loop_
_space_group_symop_operation_xyz
x,y,z
-x,y,-z
-x,-y,-z
x,-y,z
1/2+x,1/2+y,z
1/2-x,1/2+y,-z
1/2-x,1/2-y,-z
1/2+x,1/2-y,z
loop_
_atom_site_type_symbol
_atom_site_label
_atom_site_fract_x
_atom_site_fract_y
_atom_site_fract_z
Si Si1 0.985497 0.838245 0.370291
Si Si2 0.734610 0.167363 0.954674
Si Si3 0.445829 0.831918 0.196904
Si Si4 0.690152 0.162088 0.497523
Si Si5 0.454075 0.167255 0.975741
Si Si6 0.240002 0.836827 0.664410
Si Si7 0.911854 0.161812 0.590244
Si Si8 0.063340 0.833489 0.207664
O O1 0.909501 0.734336 0.444070
O O2 0.069170 0.839834 0.358787
O O3 0.021999 0.780680 0.290338
O O4 0.944423 0.000000 0.389821
O O5 0.825990 0.185801 0.860459
O O6 0.715583 0.000000 0.981100
O O7 0.750000 0.250000 0.000000
O O8 0.646977 0.231398 0.976879
O O9 0.475332 0.806609 0.117332
O O10 0.347534 0.758765 0.266222
O O11 0.521890 0.762928 0.187153
O O12 0.437791 0.000000 0.216034
O O13 0.750000 0.250000 0.500000
O O14 0.745606 0.165371 0.407629
O O15 0.676484 0.000000 0.527002
O O16 0.438138 0.000000 0.998190
O O17 0.500000 0.239080 0.000000
O O18 0.329147 0.772460 0.636198
O O19 0.224832 0.000000 0.694484
O O20 0.000000 0.215390 0.500000
O O21 0.884453 0.000000 0.588133
O O22 0.036913 0.000000 0.213477
#
# Coordination Sequence:
#
# PCOD8093234 Si02
#       8
#     8   8   8   8   8   8   8   8
#     4  10  21  37  57  84 115 146 188 238 290 342
#     4  10  19  35  60  87 116 155 197 238 291 352
#     4  11  22  37  60  88 117 152 197 247 293 346
#     4  11  23  37  55  79 109 149 192 235 285 341
#     4   9  19  36  60  90 121 155 198 246 294 351
#     4  11  24  39  57  82 116 156 194 234 292 355
#     4  10  20  37  61  85 110 147 195 243 284 339
#     4  10  21  36  58  87 120 155 190 241 301 355
#
# _framework density 19.084216000000001
#
# number of rings (size 3 to 8) (size 9 to 14) (size 15 to 20)
#    0.000    1.750    2.500    1.875    0.000    6.750 
#    0.000    3.750    0.000    4.875    0.000    0.000 
#    0.000    0.000    0.000    0.000    0.000    0.000 
#
# Total GULP energy -396817.699845 kJ/mol
# GULP energy per Si atom -12400.553120 kJ/mol
# Density = 1.904078 g / cm^3
# Si number density = 19.084216 Si / 1000 Ang^3
#
#
#
# Elastic Constant Matrix: (Units=GPa)
#
#
# Indices 1 2 3 4 5 6 
#
# 1 135.0523 51.8487 48.2562 0.0001 -2.6033 -0.0001
# 2 51.8487 97.5151 45.6626 -0.0001 -7.8205 0.0008
# 3 48.2562 45.6626 93.2112 0.0001 -8.0819 0.0001
# 4 0.0001 -0.0001 0.0001 19.0965 0.0001 0.9545
# 5 -2.6033 -7.8205 -8.0819 0.0001 36.8097 0.0000
# 6 -0.0001 0.0008 0.0001 0.9545 0.0000 29.2917
#
#
#
# Elastic Compliance Matrix: (Units=1/GPa)
#
#
# Indices 1 2 3 4 5 6 
#
# 1 0.010078 -0.003827 -0.003417 0.000000 -0.000850 0.000000
# 2 -0.003827 0.014834 -0.005134 0.000000 0.001754 0.000000
# 3 -0.003417 -0.005134 0.015186 0.000000 0.002002 0.000000
# 4 0.000000 0.000000 0.000000 0.052451 0.000000 -0.001709
# 5 -0.000850 0.001754 0.002002 0.000000 0.027919 0.000000
# 6 0.000000 0.000000 0.000000 -0.001709 0.000000 0.034195
#
#
# Mechanical properties :
#
#
# Convention : Reuss Voigt Hill
#
# Bulk Modulus (GPa) = 65.17392 68.59039 66.88216
# Shear Modulus (GPa) = 27.09563 29.04032 28.06797
#
# Velocity S-wave (km/s) = 3.77210 3.90512 3.83919
# Velocity P-wave (km/s) = 7.29359 7.50681 7.40097
#
# Compressibility (1/GPa) = 0.01534356
#
# Stress axis : x y z
#
# Youngs Moduli (GPa) = 99.22474 67.41196 65.85191
#
# Poissons Ratio (x) = 0.25798 0.22499
# Poissons Ratio (y) = 0.37972 0.33807
# Poissons Ratio (z) = 0.33900 0.34607
#
# Static dielectric constant tensor:
#      x y z
#    x 3.638000 0.000000 -0.046790 
#    y 0.000000 3.402490 0.000010 
#    z -0.046790 0.000010 3.467450 
# 
# 
# High freq. dielectric constant tensor:
#      x y z
#    x 1.749320 0.000000 -0.003290 
#    y 0.000000 1.730780 0.000000 
#    z -0.003290 0.000000 1.745160 
# 
# From -- ./inp_files/346094.got.cif
#   From: 2010.06.25/outbox.cif.g09.slc.cpg/sg12_174_cif.got.tgz:346094.got - 2010.06.28 00:19:55.
