data_PCOD8093180
_publ_section_title
;
Structure prediction by ZEFSAII (Michael W. Deem and Ramdas Pophale) SiO2 
 PCOD8093180
Probable space group: C 2/M
;
_chemical_formula_sum "Si O2"
_cell_formula_units_Z 56
_cell_length_a 27.623917
_cell_length_b 8.869289
_cell_length_c 18.839073
_cell_angle_alpha 90.000000
_cell_angle_beta 143.836899
_cell_angle_gamma 90.000000
_cell_volume 2723.634335
_symmetry_space_group_name_H-M "C 2/M"
_symmetry_group_IT_number 12
_symmetry_cell_setting 'monoclinic'
loop_
_space_group_symop_operation_xyz
x,y,z
-x,y,-z
-x,-y,-z
x,-y,z
1/2+x,1/2+y,z
1/2-x,1/2+y,-z
1/2-x,1/2-y,-z
1/2+x,1/2-y,z
loop_
_atom_site_type_symbol
_atom_site_label
_atom_site_fract_x
_atom_site_fract_y
_atom_site_fract_z
Si Si1 0.828850 0.824331 0.558798
Si Si2 0.884137 0.832373 0.004527
Si Si3 0.542001 0.173925 0.194277
Si Si4 0.777744 0.676213 0.107064
Si Si5 0.309893 0.821746 0.394697
Si Si6 0.407611 0.820561 0.373772
Si Si7 0.876596 0.169380 0.829832
O O1 0.750000 0.750000 0.500000
O O2 0.903832 0.790269 0.698223
O O3 0.854712 0.755598 0.513727
O O4 0.812495 0.000000 0.532047
O O5 0.948866 0.708412 0.108424
O O6 0.903892 0.000000 0.057842
O O7 0.792923 0.786091 0.919457
O O8 0.895085 0.833552 0.933936
O O9 0.560899 0.215548 0.134509
O O10 0.562182 0.000000 0.233610
O O11 0.785613 0.500000 0.101301
O O12 0.863724 0.733227 0.246828
O O13 0.750000 0.750000 0.000000
O O14 0.350359 0.762526 0.370003
O O15 0.215741 0.771609 0.289411
O O16 0.319982 0.000000 0.411762
O O17 0.500000 0.758226 0.500000
O O18 0.410239 0.000000 0.374952
O O19 0.886996 0.000000 0.810905
#
# Coordination Sequence:
#
# PCOD8093180 Si02
#       7
#     8   8   8   8   8   8   8
#     4  12  24  39  58  84 119 160 199 244 298 357
#     4  10  21  39  60  84 118 162 206 247 301 366
#     4  12  25  38  56  87 122 158 202 252 301 355
#     4  10  21  39  63  92 124 163 206 252 312 372
#     4  10  19  35  61  89 116 156 202 242 291 357
#     4   9  18  36  64  95 123 155 202 255 304 366
#     4  10  19  35  60  84 114 159 203 241 291 357
#
# _framework density 20.560762
#
# number of rings (size 3 to 8) (size 9 to 14) (size 15 to 20)
#    0.000    1.571    2.857    3.000    0.000    4.000 
#    0.000    2.143    0.000    0.857    0.000    0.000 
#    0.000    0.000    0.000    0.000    0.000    0.000 
#
# Total GULP energy -346997.178471 kJ/mol
# GULP energy per Si atom -12392.756374 kJ/mol
# Density = 2.051397 g / cm^3
# Si number density = 20.560762 Si / 1000 Ang^3
#
#
#
# Elastic Constant Matrix: (Units=GPa)
#
#
# Indices 1 2 3 4 5 6 
#
# 1 76.7165 29.5022 50.3168 0.0000 -6.0181 0.0000
# 2 29.5022 53.5026 27.4367 0.0000 5.1238 0.0000
# 3 50.3168 27.4367 129.4373 0.0000 3.8023 0.0000
# 4 0.0000 0.0000 0.0000 28.2656 0.0000 -3.8140
# 5 -6.0181 5.1238 3.8023 0.0000 34.0278 0.0000
# 6 0.0000 0.0000 0.0000 -3.8140 0.0000 20.2314
#
#
#
# Elastic Compliance Matrix: (Units=1/GPa)
#
#
# Indices 1 2 3 4 5 6 
#
# 1 0.021191 -0.008897 -0.006523 0.000000 0.005816 0.000000
# 2 -0.008897 0.024950 -0.001679 0.000000 -0.005143 0.000000
# 3 -0.006523 -0.001679 0.010679 0.000000 -0.002094 0.000000
# 4 0.000000 0.000000 0.000000 0.036302 0.000000 0.006844
# 5 0.005816 -0.005143 -0.002094 0.000000 0.031425 0.000000
# 6 0.000000 0.000000 0.000000 0.006844 0.000000 0.050718
#
#
# Mechanical properties :
#
#
# Convention : Reuss Voigt Hill
#
# Bulk Modulus (GPa) = 44.20398 52.68531 48.44464
# Shear Modulus (GPa) = 23.04118 26.66501 24.85309
#
# Velocity S-wave (km/s) = 3.35123 3.60514 3.48050
# Velocity P-wave (km/s) = 6.04319 6.55814 6.30592
#
# Compressibility (1/GPa) = 0.02262240
#
# Stress axis : x y z
#
# Youngs Moduli (GPa) = 47.19042 40.07987 93.64446
#
# Poissons Ratio (x) = 0.35659 0.61080
# Poissons Ratio (y) = 0.41986 0.15723
# Poissons Ratio (z) = 0.30780 0.06729
#
# Static dielectric constant tensor:
#      x y z
#    x 3.788460 0.000000 -0.006740 
#    y 0.000000 3.921230 0.000000 
#    z -0.006740 0.000000 3.062900 
# 
# 
# High freq. dielectric constant tensor:
#      x y z
#    x 1.798540 0.000000 -0.002010 
#    y 0.000000 1.771900 0.000000 
#    z -0.002010 0.000000 1.817300 
# 
# From -- ./inp_files/329722.got.cif
#   From: 2010.06.25/outbox.cif.g09.slc.cpg/sg12_165_cif.got.tgz:329722.got - 2010.06.28 00:19:55.
