data_PCOD8093233
_publ_section_title
;
Structure prediction by ZEFSAII (Michael W. Deem and Ramdas Pophale) SiO2 
 PCOD8093233
Probable space group: C 2/M
;
_chemical_formula_sum "Si O2"
_cell_formula_units_Z 64
_cell_length_a 20.501421
_cell_length_b 8.847628
_cell_length_c 18.506767
_cell_angle_alpha 90.000000
_cell_angle_beta 97.025603
_cell_angle_gamma 90.000000
_cell_volume 3331.717830
_symmetry_space_group_name_H-M "C 2/M"
_symmetry_group_IT_number 12
_symmetry_cell_setting 'monoclinic'
loop_
_space_group_symop_operation_xyz
x,y,z
-x,y,-z
-x,-y,-z
x,-y,z
1/2+x,1/2+y,z
1/2-x,1/2+y,-z
1/2-x,1/2-y,-z
1/2+x,1/2-y,z
loop_
_atom_site_type_symbol
_atom_site_label
_atom_site_fract_x
_atom_site_fract_y
_atom_site_fract_z
Si Si1 0.977081 0.173699 0.803888
Si Si2 0.140786 0.179832 0.596813
Si Si3 0.993156 0.178518 0.352477
Si Si4 0.057146 0.826269 0.955022
Si Si5 0.186339 0.322771 0.025706
Si Si6 0.628931 0.320386 0.432504
Si Si7 0.769090 0.179135 0.673021
Si Si8 0.659071 0.177203 0.185302
O O1 0.916717 0.279638 0.816063
O O2 0.006551 0.225347 0.731352
O O3 0.034953 0.193240 0.869455
O O4 0.952089 0.000000 0.797377
O O5 0.071988 0.243196 0.618495
O O6 0.147514 0.235641 0.515026
O O7 0.197557 0.251962 0.652323
O O8 0.145144 0.000000 0.603352
O O9 0.057756 0.245857 0.400462
O O10 0.993299 0.000000 0.361505
O O11 0.072598 0.000000 0.976385
O O12 0.122351 0.730209 0.973870
O O13 0.000000 0.764808 0.000000
O O14 0.192041 0.500000 0.017893
O O15 0.181778 0.275001 0.108613
O O16 0.250000 0.250000 0.000000
O O17 0.626347 0.500000 0.429159
O O18 0.682958 0.259024 0.383604
O O19 0.795554 0.231527 0.753648
O O20 0.764874 0.000000 0.670921
O O21 0.667578 0.000000 0.200398
#
# Coordination Sequence:
#
# PCOD8093233 Si02
#       8
#     8   8   8   8   8   8   8   8
#     4  10  19  35  60  87 115 150 192 236 284 342
#     4  10  20  34  55  84 117 149 191 243 289 336
#     4   9  17  32  56  84 112 147 191 236 281 334
#     4  10  20  35  60  90 119 155 195 236 286 342
#     4  11  25  42  62  88 121 156 193 240 293 349
#     4   9  17  32  57  84 109 149 197 238 282 341
#     4  11  22  37  58  82 114 153 193 235 289 351
#     4  11  23  39  60  86 114 148 192 240 285 337
#
# _framework density 19.209309000000001
#
# number of rings (size 3 to 8) (size 9 to 14) (size 15 to 20)
#    0.000    1.875    2.500    1.875    0.000    4.750 
#    0.000    3.750    0.000    0.750    0.000    0.000 
#    0.000    0.000    0.000    0.000    0.000    0.000 
#
# Total GULP energy -396904.645835 kJ/mol
# GULP energy per Si atom -12403.270182 kJ/mol
# Density = 1.916559 g / cm^3
# Si number density = 19.209309 Si / 1000 Ang^3
#
#
#
# Elastic Constant Matrix: (Units=GPa)
#
#
# Indices 1 2 3 4 5 6 
#
# 1 134.1462 28.6807 48.9781 0.0000 5.9190 0.0000
# 2 28.6807 34.8433 29.7020 0.0000 3.5877 0.0000
# 3 48.9781 29.7020 116.9408 0.0000 6.1601 0.0000
# 4 0.0000 0.0000 0.0000 17.3533 0.0000 -1.0169
# 5 5.9190 3.5877 6.1601 0.0000 28.3306 0.0000
# 6 0.0000 0.0000 0.0000 -1.0169 0.0000 29.4148
#
#
#
# Elastic Compliance Matrix: (Units=1/GPa)
#
#
# Indices 1 2 3 4 5 6 
#
# 1 0.009633 -0.005676 -0.002554 0.000000 -0.000738 0.000000
# 2 -0.005676 0.040173 -0.007709 0.000000 -0.002225 0.000000
# 3 -0.002554 -0.007709 0.011633 0.000000 -0.001020 0.000000
# 4 0.000000 0.000000 0.000000 0.057743 0.000000 0.001996
# 5 -0.000738 -0.002225 -0.001020 0.000000 0.035955 0.000000
# 6 0.000000 0.000000 0.000000 0.001996 0.000000 0.034066
#
#
# Mechanical properties :
#
#
# Convention : Reuss Voigt Hill
#
# Bulk Modulus (GPa) = 33.82919 55.62801 44.72860
# Shear Modulus (GPa) = 21.65118 26.92438 24.28778
#
# Velocity S-wave (km/s) = 3.36090 3.74790 3.55966
# Velocity P-wave (km/s) = 5.71926 6.91019 6.34274
#
# Compressibility (1/GPa) = 0.02956027
#
# Stress axis : x y z
#
# Youngs Moduli (GPa) = 103.80726 24.89248 85.96404
#
# Poissons Ratio (x) = 0.14129 0.21956
# Poissons Ratio (y) = 0.58923 0.66270
# Poissons Ratio (z) = 0.26513 0.19190
#
# Static dielectric constant tensor:
#      x y z
#    x 3.559770 0.000000 -0.135210 
#    y 0.000000 3.222030 0.000000 
#    z -0.135210 0.000000 3.454500 
# 
# 
# High freq. dielectric constant tensor:
#      x y z
#    x 1.753270 0.000000 0.003430 
#    y 0.000000 1.718060 0.000000 
#    z 0.003430 0.000000 1.763070 
# 
# From -- ./inp_files/281356.got.cif
#   From: 2010.06.25/outbox.cif.g09.slc.cpg/sg12_141_cif.got.tgz:281356.got - 2010.06.28 00:19:55.
