data_PCOD8093084
_publ_section_title
;
Structure prediction by ZEFSAII (Michael W. Deem and Ramdas Pophale) SiO2 
 PCOD8093084
Probable space group: C 2/M
;
_chemical_formula_sum "Si O2"
_cell_formula_units_Z 56
_cell_length_a 19.039116
_cell_length_b 8.908675
_cell_length_c 25.029847
_cell_angle_alpha 90.000000
_cell_angle_beta 44.541417
_cell_angle_gamma 90.000000
_cell_volume 2977.824666
_symmetry_space_group_name_H-M "C 2/M"
_symmetry_group_IT_number 12
_symmetry_cell_setting 'monoclinic'
loop_
_space_group_symop_operation_xyz
x,y,z
-x,y,-z
-x,-y,-z
x,-y,z
1/2+x,1/2+y,z
1/2-x,1/2+y,-z
1/2-x,1/2-y,-z
1/2+x,1/2-y,z
loop_
_atom_site_type_symbol
_atom_site_label
_atom_site_fract_x
_atom_site_fract_y
_atom_site_fract_z
Si Si1 0.747855 0.822264 0.244678
Si Si2 0.888146 0.178749 0.072105
Si Si3 0.660429 0.821754 0.580993
Si Si4 0.341738 0.327483 0.304494
Si Si5 0.243524 0.327558 0.059361
Si Si6 0.938523 0.838795 0.809256
Si Si7 0.541316 0.332995 0.326291
O O1 0.834537 0.764861 0.156122
O O2 0.774334 0.776548 0.290967
O O3 0.641001 0.748413 0.291982
O O4 0.736632 0.000000 0.244011
O O5 0.822192 0.240907 0.058668
O O6 0.891215 0.000000 0.071194
O O7 0.000000 0.242742 0.000000
O O8 0.750000 0.750000 0.500000
O O9 0.674903 0.776955 0.635203
O O10 0.558263 0.763785 0.608032
O O11 0.662736 0.000000 0.575378
O O12 0.319478 0.500000 0.332956
O O13 0.454788 0.310682 0.220847
O O14 0.265381 0.500000 0.039956
O O15 0.132112 0.301341 0.141153
O O16 0.250000 0.250000 0.000000
O O17 0.956569 0.851788 0.737478
O O18 0.894167 0.000000 0.853939
O O19 0.533710 0.500000 0.356513
#
# Coordination Sequence:
#
# PCOD8093084 Si02
#       7
#     8   8   8   8   8   8   8
#     4  10  19  35  59  85 115 152 196 239 285 344
#     4   9  19  34  54  78 107 147 194 240 287 340
#     4  11  22  39  64  90 120 151 189 232 280 339
#     4   9  20  36  58  87 118 151 189 232 283 341
#     4  11  22  34  52  75 104 139 188 240 289 346
#     4   9  18  34  54  76 105 143 185 231 281 332
#     4  10  20  36  59  85 116 150 188 232 283 337
#
# _framework density 18.805674
#
# number of rings (size 3 to 8) (size 9 to 14) (size 15 to 20)
#    0.000    2.143    1.429    3.000    2.000    2.857 
#    0.000    0.714    0.000    6.429    0.000    0.000 
#    0.000    0.000    0.000    0.000    0.000    0.000 
#
# Total GULP energy -347008.253685 kJ/mol
# GULP energy per Si atom -12393.151917 kJ/mol
# Density = 1.876287 g / cm^3
# Si number density = 18.805674 Si / 1000 Ang^3
#
#
#
# Elastic Constant Matrix: (Units=GPa)
#
#
# Indices 1 2 3 4 5 6 
#
# 1 129.1319 46.1446 57.9834 0.0000 -16.3955 0.0000
# 2 46.1446 83.7787 44.6932 0.0001 -8.3722 -0.0004
# 3 57.9834 44.6932 106.0500 0.0000 -20.1034 0.0000
# 4 0.0000 0.0001 0.0000 30.1141 0.0000 -3.1348
# 5 -16.3955 -8.3722 -20.1034 0.0000 28.2753 0.0000
# 6 0.0000 -0.0004 0.0000 -3.1348 0.0000 24.4661
#
#
#
# Elastic Compliance Matrix: (Units=1/GPa)
#
#
# Indices 1 2 3 4 5 6 
#
# 1 0.011240 -0.003761 -0.004087 0.000000 0.002498 0.000000
# 2 -0.003761 0.016657 -0.005134 0.000000 -0.000899 0.000000
# 3 -0.004087 -0.005134 0.015129 0.000000 0.006867 0.000000
# 4 0.000000 0.000000 0.000000 0.033656 0.000000 0.004312
# 5 0.002498 -0.000899 0.006867 0.000000 0.041431 0.000000
# 6 0.000000 0.000000 0.000000 0.004312 0.000000 0.041425
#
#
# Mechanical properties :
#
#
# Convention : Reuss Voigt Hill
#
# Bulk Modulus (GPa) = 58.60764 68.51142 63.55953
# Shear Modulus (GPa) = 26.15192 27.91371 27.03282
#
# Velocity S-wave (km/s) = 3.73317 3.85687 3.79553
# Velocity P-wave (km/s) = 7.05795 7.50628 7.28557
#
# Compressibility (1/GPa) = 0.01706262
#
# Stress axis : x y z
#
# Youngs Moduli (GPa) = 88.96435 60.03613 66.09648
#
# Poissons Ratio (x) = 0.22580 0.27014
# Poissons Ratio (y) = 0.33461 0.33932
# Poissons Ratio (z) = 0.36361 0.30821
#
# Static dielectric constant tensor:
#      x y z
#    x 3.645960 0.000000 -0.026330 
#    y 0.000000 3.455590 0.000000 
#    z -0.026330 0.000000 3.270000 
# 
# 
# High freq. dielectric constant tensor:
#      x y z
#    x 1.737990 0.000000 -0.007860 
#    y 0.000000 1.717090 0.000000 
#    z -0.007860 0.000000 1.720710 
# 
# From -- ./inp_files/342237.got.cif
#   From: 2010.06.25/outbox.cif.g09.slc.cpg/sg12_172_cif.got.tgz:342237.got - 2010.06.28 00:19:55.
