data_PCOD8093194
_publ_section_title
;
Structure prediction by ZEFSAII (Michael W. Deem and Ramdas Pophale) SiO2 
 PCOD8093194
Probable space group: C 2/M
;
_chemical_formula_sum "Si O2"
_cell_formula_units_Z 64
_cell_length_a 25.690400
_cell_length_b 8.779030
_cell_length_c 14.650165
_cell_angle_alpha 90.000000
_cell_angle_beta 80.220153
_cell_angle_gamma 90.000000
_cell_volume 3256.134325
_symmetry_space_group_name_H-M "C 2/M"
_symmetry_group_IT_number 12
_symmetry_cell_setting 'monoclinic'
loop_
_space_group_symop_operation_xyz
x,y,z
-x,y,-z
-x,-y,-z
x,-y,z
1/2+x,1/2+y,z
1/2-x,1/2+y,-z
1/2-x,1/2-y,-z
1/2+x,1/2-y,z
loop_
_atom_site_type_symbol
_atom_site_label
_atom_site_fract_x
_atom_site_fract_y
_atom_site_fract_z
Si Si1 0.033057 0.672802 0.900174
Si Si2 0.638429 0.676946 0.842154
Si Si3 0.094455 0.822224 0.573536
Si Si4 0.998856 0.324675 0.710476
Si Si5 0.269344 0.819642 0.087399
Si Si6 0.182273 0.679490 0.652611
Si Si7 0.287259 0.320460 0.711169
Si Si8 0.596805 0.678809 0.364711
O O1 0.055482 0.500000 0.893026
O O2 0.078910 0.797101 0.891199
O O3 0.998302 0.699806 0.819548
O O4 0.000000 0.703941 0.000000
O O5 0.649038 0.500000 0.818365
O O6 0.675252 0.737627 0.911880
O O7 0.647261 0.778895 0.750419
O O8 0.050508 0.750657 0.651394
O O9 0.153689 0.758787 0.575208
O O10 0.080186 0.785641 0.473336
O O11 0.095328 0.000000 0.592907
O O12 0.000248 0.500000 0.682242
O O13 0.944914 0.253908 0.689877
O O14 0.228901 0.776599 0.180915
O O15 0.277191 0.000000 0.077584
O O16 0.250000 0.750000 0.000000
O O17 0.181244 0.500000 0.637897
O O18 0.242339 0.739574 0.652892
O O19 0.289311 0.500000 0.699016
O O20 0.344765 0.251129 0.671836
O O21 0.596848 0.500000 0.345144
#
# Coordination Sequence:
#
# PCOD8093194 Si02
#       8
#     8   8   8   8   8   8   8   8
#     4  10  22  40  60  84 115 152 192 240 300 352
#     4  11  21  35  57  84 114 149 191 237 289 347
#     4  11  22  36  59  88 115 151 195 242 294 349
#     4  11  23  39  60  84 115 154 196 242 291 348
#     4  10  20  36  59  85 115 152 195 240 290 348
#     4  10  19  35  60  85 113 151 192 238 288 343
#     4   8  18  37  58  81 114 155 192 234 292 349
#     4  10  22  40  59  82 118 157 194 239 293 351
#
# _framework density 19.655208999999999
#
# number of rings (size 3 to 8) (size 9 to 14) (size 15 to 20)
#    0.000    1.875    1.250    3.750    0.000    4.750 
#    0.000    6.250    0.000    0.000    0.000    0.000 
#    0.000    0.000    0.000    0.000    0.000    0.000 
#
# Total GULP energy -396782.082005 kJ/mol
# GULP energy per Si atom -12399.440063 kJ/mol
# Density = 1.961047 g / cm^3
# Si number density = 19.655209 Si / 1000 Ang^3
#
#
#
# Elastic Constant Matrix: (Units=GPa)
#
#
# Indices 1 2 3 4 5 6 
#
# 1 143.9082 42.5589 57.5646 0.0000 10.0495 0.0000
# 2 42.5589 55.1054 42.8388 0.0000 10.9779 0.0000
# 3 57.5646 42.8388 94.6165 0.0000 10.5906 0.0000
# 4 0.0000 0.0000 0.0000 24.2112 0.0000 7.9375
# 5 10.0495 10.9779 10.5906 0.0000 30.3821 0.0000
# 6 0.0000 0.0000 0.0000 7.9375 0.0000 34.4406
#
#
#
# Elastic Compliance Matrix: (Units=1/GPa)
#
#
# Indices 1 2 3 4 5 6 
#
# 1 0.009877 -0.004517 -0.003935 0.000000 -0.000263 0.000000
# 2 -0.004517 0.031135 -0.010673 0.000000 -0.006036 0.000000
# 3 -0.003935 -0.010673 0.017917 0.000000 -0.001087 0.000000
# 4 0.000000 0.000000 0.000000 0.044679 0.000000 -0.010297
# 5 -0.000263 -0.006036 -0.001087 0.000000 0.035561 0.000000
# 6 0.000000 0.000000 0.000000 -0.010297 0.000000 0.031409
#
#
# Mechanical properties :
#
#
# Convention : Reuss Voigt Hill
#
# Bulk Modulus (GPa) = 48.35652 64.39497 56.37574
# Shear Modulus (GPa) = 23.17810 27.85128 25.51469
#
# Velocity S-wave (km/s) = 3.43772 3.76838 3.60684
# Velocity P-wave (km/s) = 6.35713 7.19497 6.78899
#
# Compressibility (1/GPa) = 0.02067973
#
# Stress axis : x y z
#
# Youngs Moduli (GPa) = 101.24571 32.11784 55.81319
#
# Poissons Ratio (x) = 0.14508 0.21960
# Poissons Ratio (y) = 0.45733 0.59571
# Poissons Ratio (z) = 0.39835 0.34280
#
# Static dielectric constant tensor:
#      x y z
#    x 3.905170 0.000000 0.075130 
#    y 0.000000 3.522370 0.000000 
#    z 0.075130 0.000000 3.575450 
# 
# 
# High freq. dielectric constant tensor:
#      x y z
#    x 1.775580 0.000000 0.011340 
#    y 0.000000 1.759440 0.000000 
#    z 0.011340 0.000000 1.761880 
# 
# From -- ./inp_files/243949.got.cif
#   From: 2010.06.25/outbox.cif.g09.slc.cpg/sg12_122_cif.got.tgz:243949.got - 2010.06.28 00:19:55.
