data_PCOD8093187
_publ_section_title
;
Structure prediction by ZEFSAII (Michael W. Deem and Ramdas Pophale) SiO2 
 PCOD8093187
Probable space group: C 2/M
;
_chemical_formula_sum "Si O2"
_cell_formula_units_Z 64
_cell_length_a 12.325973
_cell_length_b 14.426520
_cell_length_c 27.373073
_cell_angle_alpha 90.000000
_cell_angle_beta 139.925561
_cell_angle_gamma 90.000000
_cell_volume 3133.613236
_symmetry_space_group_name_H-M "C 2/M"
_symmetry_group_IT_number 12
_symmetry_cell_setting 'monoclinic'
loop_
_space_group_symop_operation_xyz
x,y,z
-x,y,-z
-x,-y,-z
x,-y,z
1/2+x,1/2+y,z
1/2-x,1/2+y,-z
1/2-x,1/2-y,-z
1/2+x,1/2-y,z
loop_
_atom_site_type_symbol
_atom_site_label
_atom_site_fract_x
_atom_site_fract_y
_atom_site_fract_z
Si Si1 0.549522 0.391090 0.801207
Si Si2 0.662056 0.166885 0.174110
Si Si3 0.449633 0.653419 0.087990
Si Si4 0.678983 0.898148 0.922159
Si Si5 0.718038 0.899833 0.830612
Si Si6 0.736004 0.243106 0.692400
Si Si7 0.333639 0.604659 0.412444
Si Si8 0.477015 0.105930 0.329520
O O1 0.498404 0.500000 0.778176
O O2 0.703043 0.369635 0.817994
O O3 0.606796 0.370532 0.876506
O O4 0.396841 0.321508 0.735449
O O5 0.559220 0.254240 0.118538
O O6 0.516874 0.090268 0.131482
O O7 0.745423 0.191658 0.254271
O O8 0.586974 0.580064 0.115922
O O9 0.282975 0.660695 0.997525
O O10 0.695709 0.846485 0.874876
O O11 0.761598 0.000000 0.948541
O O12 0.613367 0.851082 0.750703
O O13 0.630255 0.000000 0.808105
O O14 0.689285 0.314376 0.634208
O O15 0.581619 0.171025 0.646316
O O16 0.500000 0.626218 0.500000
O O17 0.341523 0.500000 0.392124
O O18 0.177415 0.609850 0.395757
O O19 0.413715 0.000000 0.315804
#
# Coordination Sequence:
#
# PCOD8093187 Si02
#       8
#     8   8   8   8   8   8   8   8
#     4  11  23  41  63  89 124 161 209 260 313 370
#     4  11  24  37  57  87 120 158 202 256 315 373
#     4  11  23  38  59  80 116 160 210 260 311 372
#     4  11  23  38  56  80 115 157 208 266 322 369
#     4  10  19  35  60  85 110 150 207 263 306 357
#     4  11  22  39  67  92 118 161 208 252 293 364
#     4  10  23  42  65  96 132 163 193 239 300 361
#     4  10  19  37  64  91 119 159 206 251 301 360
#
# _framework density 20.423708000000001
#
# number of rings (size 3 to 8) (size 9 to 14) (size 15 to 20)
#    0.000    1.375    2.500    4.125    3.500    4.000 
#    2.250    1.250    0.000    1.500    0.000    0.000 
#    0.000    0.000    0.000    0.000    0.000    0.000 
#
# Total GULP energy -396525.269424 kJ/mol
# GULP energy per Si atom -12391.414670 kJ/mol
# Density = 2.037722 g / cm^3
# Si number density = 20.423708 Si / 1000 Ang^3
#
#
#
# Elastic Constant Matrix: (Units=GPa)
#
#
# Indices 1 2 3 4 5 6 
#
# 1 138.2834 40.7697 45.3348 0.0000 11.4929 0.0000
# 2 40.7697 110.0046 32.0447 0.0000 -10.3969 0.0000
# 3 45.3348 32.0447 57.0031 0.0000 11.9064 0.0000
# 4 0.0000 0.0000 0.0000 17.9496 0.0000 3.2416
# 5 11.4929 -10.3969 11.9064 0.0000 25.1329 0.0000
# 6 0.0000 0.0000 0.0000 3.2416 0.0000 32.1013
#
#
#
# Elastic Compliance Matrix: (Units=1/GPa)
#
#
# Indices 1 2 3 4 5 6 
#
# 1 0.010155 -0.002158 -0.006333 0.000000 -0.002536 0.000000
# 2 -0.002158 0.013102 -0.007754 0.000000 0.010081 0.000000
# 3 -0.006333 -0.007754 0.029969 0.000000 -0.014509 0.000000
# 4 0.000000 0.000000 0.000000 0.056747 0.000000 -0.005730
# 5 -0.002536 0.010081 -0.014509 0.000000 0.051992 0.000000
# 6 0.000000 0.000000 0.000000 -0.005730 0.000000 0.031730
#
#
# Mechanical properties :
#
#
# Convention : Reuss Voigt Hill
#
# Bulk Modulus (GPa) = 48.22847 60.17661 54.20254
# Shear Modulus (GPa) = 21.45016 27.51290 24.48153
#
# Velocity S-wave (km/s) = 3.24428 3.67428 3.46595
# Velocity P-wave (km/s) = 6.13996 6.89409 6.52792
#
# Compressibility (1/GPa) = 0.02073464
#
# Stress axis : x y z
#
# Youngs Moduli (GPa) = 98.47425 76.32351 33.36733
#
# Poissons Ratio (x) = 0.16474 0.21132
# Poissons Ratio (y) = 0.21255 0.25874
# Poissons Ratio (z) = 0.62364 0.59184
#
# Static dielectric constant tensor:
#      x y z
#    x 3.895400 0.000000 0.175530 
#    y 0.000000 4.007050 0.000000 
#    z 0.175530 0.000000 3.530680 
# 
# 
# High freq. dielectric constant tensor:
#      x y z
#    x 1.801930 0.000000 0.013870 
#    y 0.000000 1.813720 0.000000 
#    z 0.013870 0.000000 1.769720 
# 
# From -- ./inp_files/358445.got.cif
#   From: 2010.06.25/outbox.cif.g09.slc.cpg/sg12_180_cif.got.tgz:358445.got - 2010.06.28 00:19:55.
