data_PCOD8093939
_publ_section_title
;
Structure prediction by ZEFSAII (Michael W. Deem and Ramdas Pophale) SiO2 
 PCOD8093939
Probable space group: C 2/M
;
_chemical_formula_sum "Si O2"
_cell_formula_units_Z 64
_cell_length_a 20.278743
_cell_length_b 17.031526
_cell_length_c 11.672523
_cell_angle_alpha 90.000000
_cell_angle_beta 125.706132
_cell_angle_gamma 90.000000
_cell_volume 3273.607670
_symmetry_space_group_name_H-M "C 2/M"
_symmetry_group_IT_number 12
_symmetry_cell_setting 'monoclinic'
loop_
_space_group_symop_operation_xyz
x,y,z
-x,y,-z
-x,-y,-z
x,-y,z
1/2+x,1/2+y,z
1/2-x,1/2+y,-z
1/2-x,1/2-y,-z
1/2+x,1/2-y,z
loop_
_atom_site_type_symbol
_atom_site_label
_atom_site_fract_x
_atom_site_fract_y
_atom_site_fract_z
Si Si1 0.871737 0.834130 0.185145
Si Si2 0.178184 0.827809 0.308805
Si Si3 0.058924 0.656544 0.400019
Si Si4 0.215062 0.908432 0.108624
Si Si5 0.680101 0.588715 0.652081
Si Si6 0.446398 0.337734 0.639448
Si Si7 0.885194 0.656862 0.286764
Si Si8 0.188382 0.345106 0.363392
O O1 0.813893 0.883428 0.211175
O O2 0.868997 0.743129 0.218341
O O3 0.962728 0.870891 0.279940
O O4 0.836634 0.850338 0.023906
O O5 0.196133 0.879574 0.216951
O O6 0.097818 0.864946 0.287834
O O7 0.166384 0.734832 0.271599
O O8 0.252407 0.830052 0.470978
O O9 0.046743 0.745116 0.349876
O O10 0.108274 0.657027 0.568954
O O11 0.108947 0.616249 0.345518
O O12 0.968850 0.619476 0.321448
O O13 0.310528 0.898758 0.177395
O O14 0.191361 0.000000 0.070142
O O15 0.652269 0.500000 0.615300
O O16 0.608384 0.639471 0.523990
O O17 0.768573 0.597287 0.683044
#
# Coordination Sequence:
#
# PCOD8093939 Si02
#       8
#     8   8   8   8   8   8   8   8
#     4  11  22  38  57  78 109 153 196 226 271 330
#     4   9  18  34  57  78 106 145 183 225 278 327
#     4   9  16  34  63  87 104 132 181 245 287 318
#     4  12  25  38  52  80 123 158 182 221 278 348
#     4  11  21  32  52  83 113 146 187 232 277 326
#     4   9  19  35  58  83 105 138 190 245 279 315
#     4  10  19  36  61  84 106 141 187 233 279 329
#     4   9  17  34  58  83 108 137 181 236 284 325
#
# _framework density 19.550295999999999
#
# number of rings (size 3 to 8) (size 9 to 14) (size 15 to 20)
#    0.000    2.000    2.500    2.625    0.000    4.000 
#    0.000    2.500    0.000    2.250    0.000    1.750 
#    0.000    0.000    0.000    0.000    0.000    0.000 
#
# Total GULP energy -396542.695674 kJ/mol
# GULP energy per Si atom -12391.959240 kJ/mol
# Density = 1.950580 g / cm^3
# Si number density = 19.550296 Si / 1000 Ang^3
#
#
#
# Elastic Constant Matrix: (Units=GPa)
#
#
# Indices 1 2 3 4 5 6 
#
# 1 128.5291 15.2515 32.9092 0.0000 0.5909 0.0000
# 2 15.2515 34.8881 17.2129 0.0000 -5.9310 0.0000
# 3 32.9092 17.2129 50.2935 0.0000 -3.7003 0.0000
# 4 0.0000 0.0000 0.0000 6.5530 0.0000 2.3482
# 5 0.5909 -5.9310 -3.7003 0.0000 20.2343 0.0000
# 6 0.0000 0.0000 0.0000 2.3482 0.0000 14.0393
#
#
#
# Elastic Compliance Matrix: (Units=1/GPa)
#
#
# Indices 1 2 3 4 5 6 
#
# 1 0.009456 -0.001590 -0.005776 0.000000 -0.001798 0.000000
# 2 -0.001590 0.036101 -0.010677 0.000000 0.008676 0.000000
# 3 -0.005776 -0.010677 0.027468 0.000000 0.002062 0.000000
# 4 0.000000 0.000000 0.000000 0.162331 0.000000 -0.027151
# 5 -0.001798 0.008676 0.002062 0.000000 0.052394 0.000000
# 6 0.000000 0.000000 0.000000 -0.027151 0.000000 0.075769
#
#
# Mechanical properties :
#
#
# Convention : Reuss Voigt Hill
#
# Bulk Modulus (GPa) = 27.07060 38.27308 32.67184
# Shear Modulus (GPa) = 12.13835 18.05446 15.09641
#
# Velocity S-wave (km/s) = 2.49445 3.04219 2.78183
# Velocity P-wave (km/s) = 4.70883 5.65324 5.20251
#
# Compressibility (1/GPa) = 0.03694045
#
# Stress axis : x y z
#
# Youngs Moduli (GPa) = 105.75173 27.70034 36.40545
#
# Poissons Ratio (x) = 0.04404 0.21027
# Poissons Ratio (y) = 0.16814 0.38869
# Poissons Ratio (z) = 0.61079 0.29575
#
# Static dielectric constant tensor:
#      x y z
#    x 4.332740 0.000000 0.132590 
#    y 0.000000 3.190080 0.000000 
#    z 0.132590 0.000000 3.263610 
# 
# 
# High freq. dielectric constant tensor:
#      x y z
#    x 1.789170 0.000000 -0.001340 
#    y 0.000000 1.727320 0.000000 
#    z -0.001340 0.000000 1.728570 
# 
# From -- ./inp_files/168814.got.cif
#   From: 2010.06.25/outbox.cif.g09.slc.cpg/sg12_85_cif.got.tgz:168814.got - 2010.06.28 00:19:55.
