data_PCOD8093131
_publ_section_title
;
Structure prediction by ZEFSAII (Michael W. Deem and Ramdas Pophale) SiO2 
 PCOD8093131
Probable space group: C 2/M
;
_chemical_formula_sum "Si O2"
_cell_formula_units_Z 56
_cell_length_a 17.977534
_cell_length_b 18.453368
_cell_length_c 9.114003
_cell_angle_alpha 90.000000
_cell_angle_beta 110.616597
_cell_angle_gamma 90.000000
_cell_volume 2829.900027
_symmetry_space_group_name_H-M "C 2/M"
_symmetry_group_IT_number 12
_symmetry_cell_setting 'monoclinic'
loop_
_space_group_symop_operation_xyz
x,y,z
-x,y,-z
-x,-y,-z
x,-y,z
1/2+x,1/2+y,z
1/2-x,1/2+y,-z
1/2-x,1/2-y,-z
1/2+x,1/2-y,z
loop_
_atom_site_type_symbol
_atom_site_label
_atom_site_fract_x
_atom_site_fract_y
_atom_site_fract_z
Si Si1 0.378748 0.586450 0.579320
Si Si2 0.270332 0.915242 0.342903
Si Si3 0.030302 0.325403 0.860137
Si Si4 0.155152 0.916114 0.776610
Si Si5 0.065329 0.582429 0.420521
Si Si6 0.021378 0.838073 0.843109
Si Si7 0.189580 0.416341 0.951899
O O1 0.388566 0.500000 0.600099
O O2 0.305002 0.617067 0.623579
O O3 0.365068 0.610433 0.401526
O O4 0.456533 0.624732 0.694361
O O5 0.352642 0.883091 0.463543
O O6 0.264221 0.897719 0.166584
O O7 0.272365 0.000000 0.373205
O O8 0.033472 0.244458 0.798214
O O9 0.115325 0.363718 0.915115
O O10 0.962515 0.371149 0.734873
O O11 0.000000 0.317196 0.000000
O O12 0.104909 0.876010 0.866749
O O13 0.134757 0.000000 0.779009
O O14 0.248851 0.902552 0.872830
O O15 0.076620 0.500000 0.375415
O O16 0.000000 0.587572 0.500000
O O17 0.000000 0.847485 0.000000
O O18 0.159488 0.500000 0.928605
#
# Coordination Sequence:
#
# PCOD8093131 Si02
#       7
#     8   8   8   8   8   8   8
#     4  10  21  39  64  93 119 146 191 249 300 351
#     4   9  18  34  59  90 119 148 189 241 293 348
#     4  11  25  39  57  84 122 161 203 242 287 347
#     4  10  22  39  64  93 118 147 192 247 301 353
#     4  10  19  35  59  87 119 156 200 246 291 344
#     4  11  24  42  60  82 120 161 200 240 291 353
#     4  10  20  38  62  90 120 154 195 241 293 347
#
# _framework density 19.788685000000001
#
# number of rings (size 3 to 8) (size 9 to 14) (size 15 to 20)
#    0.000    1.857    1.429    2.143    2.000    6.286 
#    0.000    0.714    0.000    0.000    0.000    0.000 
#    0.000    0.000    0.000    0.000    0.000    0.000 
#
# Total GULP energy -347197.228343 kJ/mol
# GULP energy per Si atom -12399.901012 kJ/mol
# Density = 1.974365 g / cm^3
# Si number density = 19.788685 Si / 1000 Ang^3
#
#
#
# Elastic Constant Matrix: (Units=GPa)
#
#
# Indices 1 2 3 4 5 6 
#
# 1 96.6235 39.1470 23.9236 0.0000 6.0032 0.0000
# 2 39.1470 75.9523 41.8487 0.0000 6.1997 0.0000
# 3 23.9236 41.8487 101.3143 0.0000 19.3420 0.0000
# 4 0.0000 0.0000 0.0000 14.6976 0.0000 -11.4743
# 5 6.0032 6.1997 19.3420 0.0000 32.0518 0.0000
# 6 0.0000 0.0000 0.0000 -11.4743 0.0000 14.5126
#
#
#
# Elastic Compliance Matrix: (Units=1/GPa)
#
#
# Indices 1 2 3 4 5 6 
#
# 1 0.013126 -0.006581 -0.000175 0.000000 -0.001080 0.000000
# 2 -0.006581 0.020378 -0.007172 0.000000 0.001619 0.000000
# 3 -0.000175 -0.007172 0.014244 0.000000 -0.007176 0.000000
# 4 0.000000 0.000000 0.000000 0.177763 0.000000 0.140547
# 5 -0.001080 0.001619 -0.007176 0.000000 0.035419 0.000000
# 6 0.000000 0.000000 0.000000 0.140547 0.000000 0.180029
#
#
# Mechanical properties :
#
#
# Convention : Reuss Voigt Hill
#
# Bulk Modulus (GPa) = 50.27277 53.74762 52.01019
# Shear Modulus (GPa) = 10.51647 23.51713 17.01680
#
# Velocity S-wave (km/s) = 2.30780 3.45108 2.93563
# Velocity P-wave (km/s) = 5.70624 6.56503 6.15064
#
# Compressibility (1/GPa) = 0.01989148
#
# Stress axis : x y z
#
# Youngs Moduli (GPa) = 76.18415 49.07326 70.20433
#
# Poissons Ratio (x) = 0.32294 0.01229
# Poissons Ratio (y) = 0.50135 0.50353
# Poissons Ratio (z) = 0.01334 0.35197
#
# Static dielectric constant tensor:
#      x y z
#    x 3.672200 0.000000 0.023140 
#    y 0.000000 3.560310 0.000000 
#    z 0.023140 0.000000 3.739240 
# 
# 
# High freq. dielectric constant tensor:
#      x y z
#    x 1.780480 0.000000 0.005380 
#    y 0.000000 1.747250 0.000000 
#    z 0.005380 0.000000 1.783570 
# 
# From -- ./inp_files/75971.got.cif
#   From: 2010.06.25/outbox.cif.g09.slc.cpg/sg12_38_cif.got.tgz:75971.got - 2010.06.28 00:19:55.
