data_PCOD8093356
_publ_section_title
;
Structure prediction by ZEFSAII (Michael W. Deem and Ramdas Pophale) SiO2 
 PCOD8093356
Probable space group: C 2/M
;
_chemical_formula_sum "Si O2"
_cell_formula_units_Z 56
_cell_length_a 29.309253
_cell_length_b 8.829753
_cell_length_c 21.241429
_cell_angle_alpha 90.000000
_cell_angle_beta 29.484187
_cell_angle_gamma 90.000000
_cell_volume 2705.602165
_symmetry_space_group_name_H-M "C 2/M"
_symmetry_group_IT_number 12
_symmetry_cell_setting 'monoclinic'
loop_
_space_group_symop_operation_xyz
x,y,z
-x,y,-z
-x,-y,-z
x,-y,z
1/2+x,1/2+y,z
1/2-x,1/2+y,-z
1/2-x,1/2-y,-z
1/2+x,1/2-y,z
loop_
_atom_site_type_symbol
_atom_site_label
_atom_site_fract_x
_atom_site_fract_y
_atom_site_fract_z
Si Si1 0.842539 0.321829 0.070082
Si Si2 0.289872 0.172926 0.265236
Si Si3 0.951432 0.674079 0.159704
Si Si4 0.119551 0.324218 0.525899
Si Si5 0.034054 0.320993 0.389203
Si Si6 0.780056 0.818301 0.896117
Si Si7 0.652017 0.325588 0.609230
O O1 0.845743 0.500000 0.062147
O O2 0.779184 0.274244 0.205587
O O3 0.800338 0.260924 0.055389
O O4 0.944330 0.263428 0.965591
O O5 0.397938 0.185559 0.157050
O O6 0.225186 0.281653 0.383287
O O7 0.255912 0.000000 0.314941
O O8 0.946177 0.500000 0.190635
O O9 0.904048 0.794247 0.261317
O O10 0.112721 0.500000 0.547361
O O11 0.092472 0.240427 0.622622
O O12 0.050843 0.274361 0.553326
O O13 0.054314 0.500000 0.365389
O O14 0.123990 0.239559 0.250653
O O15 0.000000 0.267167 0.500000
O O16 0.784981 0.000000 0.896189
O O17 0.750000 0.750000 0.000000
O O18 0.668739 0.500000 0.577208
O O19 0.750000 0.250000 0.500000
#
# Coordination Sequence:
#
# PCOD8093356 Si02
#       7
#     8   8   8   8   8   8   8
#     4   9  20  38  61  88 119 158 200 243 302 365
#     4  10  19  35  61  91 121 155 196 242 295 364
#     4  10  20  36  60  88 120 157 196 240 295 363
#     4  11  23  38  61  89 122 160 199 249 308 363
#     4  10  23  44  68  94 125 165 212 264 325 384
#     4  11  24  42  64  91 126 167 214 267 318 375
#     4  12  24  39  58  85 121 159 202 248 299 359
#
# _framework density 20.697796
#
# number of rings (size 3 to 8) (size 9 to 14) (size 15 to 20)
#    0.000    1.571    1.429    3.429    2.000    3.143 
#    0.000    2.143    0.000    1.714    0.000    0.000 
#    0.000    0.000    0.000    0.000    0.000    0.000 
#
# Total GULP energy -346984.433694 kJ/mol
# GULP energy per Si atom -12392.301203 kJ/mol
# Density = 2.065069 g / cm^3
# Si number density = 20.697796 Si / 1000 Ang^3
#
#
#
# Elastic Constant Matrix: (Units=GPa)
#
#
# Indices 1 2 3 4 5 6 
#
# 1 145.9103 46.5107 45.7484 0.0031 12.0175 -0.0015
# 2 46.5107 78.2300 29.9582 -0.0056 2.7522 0.0014
# 3 45.7484 29.9582 101.3734 0.0046 4.7905 -0.0032
# 4 0.0031 -0.0056 0.0046 30.5145 -0.0007 5.4327
# 5 12.0175 2.7522 4.7905 -0.0007 38.1439 0.0002
# 6 -0.0015 0.0014 -0.0032 5.4327 0.0002 25.9697
#
#
#
# Elastic Compliance Matrix: (Units=1/GPa)
#
#
# Indices 1 2 3 4 5 6 
#
# 1 0.009317 -0.004387 -0.002801 -0.000001 -0.002267 0.000001
# 2 -0.004387 0.016489 -0.002920 0.000004 0.000559 -0.000002
# 3 -0.002801 -0.002920 0.012011 -0.000002 -0.000415 0.000002
# 4 -0.000001 0.000004 -0.000002 0.034039 0.000001 -0.007121
# 5 -0.002267 0.000559 -0.000415 0.000001 0.026943 -0.000001
# 6 0.000001 -0.000002 0.000002 -0.007121 -0.000001 0.039996
#
#
# Mechanical properties :
#
#
# Convention : Reuss Voigt Hill
#
# Bulk Modulus (GPa) = 56.81112 63.32761 60.06936
# Shear Modulus (GPa) = 30.32557 32.47871 31.40214
#
# Velocity S-wave (km/s) = 3.83189 3.96559 3.89932
# Velocity P-wave (km/s) = 6.86188 7.18545 7.02553
#
# Compressibility (1/GPa) = 0.01760219
#
# Stress axis : x y z
#
# Youngs Moduli (GPa) = 107.33290 60.64511 83.25658
#
# Poissons Ratio (x) = 0.26604 0.23320
# Poissons Ratio (y) = 0.47085 0.24309
# Poissons Ratio (z) = 0.30064 0.17707
#
# Static dielectric constant tensor:
#      x y z
#    x 4.434510 0.000000 -0.050450 
#    y 0.000000 3.511010 -0.000020 
#    z -0.050450 -0.000020 4.609990 
# 
# 
# High freq. dielectric constant tensor:
#      x y z
#    x 1.831110 0.000000 0.005540 
#    y 0.000000 1.789080 0.000000 
#    z 0.005540 0.000000 1.810020 
# 
# From -- ./inp_files/329467.got.cif
#   From: 2010.06.25/outbox.cif.g09.slc.cpg/sg12_165_cif.got.tgz:329467.got - 2010.06.28 00:19:55.
