data_PCOD8093702
_publ_section_title
;
Structure prediction by ZEFSAII (Michael W. Deem and Ramdas Pophale) SiO2 
 PCOD8093702
Probable space group: C 2/M
;
_chemical_formula_sum "Si O2"
_cell_formula_units_Z 44
_cell_length_a 19.955873
_cell_length_b 13.888735
_cell_length_c 9.007538
_cell_angle_alpha 90.000000
_cell_angle_beta 115.792999
_cell_angle_gamma 90.000000
_cell_volume 2247.819738
_symmetry_space_group_name_H-M "C 2/M"
_symmetry_group_IT_number 12
_symmetry_cell_setting 'monoclinic'
loop_
_space_group_symop_operation_xyz
x,y,z
-x,y,-z
-x,-y,-z
x,-y,z
1/2+x,1/2+y,z
1/2-x,1/2+y,-z
1/2-x,1/2-y,-z
1/2+x,1/2-y,z
loop_
_atom_site_type_symbol
_atom_site_label
_atom_site_fract_x
_atom_site_fract_y
_atom_site_fract_z
Si Si1 0.192808 0.612634 0.901513
Si Si2 0.045465 0.717390 0.818546
Si Si3 0.366720 0.395833 0.544065
Si Si4 0.401614 0.740428 0.824039
Si Si5 0.500000 0.339082 0.500000
Si Si6 0.745075 0.713464 0.762880
O O1 0.202947 0.500000 0.872033
O O2 0.104892 0.630437 0.855676
O O3 0.219939 0.679434 0.790796
O O4 0.247108 0.640690 0.090537
O O5 0.042541 0.772790 0.661170
O O6 0.961324 0.689869 0.793363
O O7 0.075400 0.783723 0.983759
O O8 0.328301 0.500000 0.523131
O O9 0.392984 0.360146 0.730438
O O10 0.440364 0.407901 0.516973
O O11 0.313719 0.320411 0.413942
O O12 0.322013 0.791065 0.747583
#
# Coordination Sequence:
#
# PCOD8093702 Si02
#       6
#     8   8   8   8   4   8
#     4  10  20  36  61  88 114 151 194 236 285 341
#     4   9  18  38  59  82 111 151 190 229 289 333
#     4  11  21  35  56  85 114 150 192 232 282 344
#     4   9  20  36  58  78 115 156 181 234 290 337
#     4  10  19  36  59  80 112 152 185 240 285 332
#     4  10  20  37  57  84 119 152 185 238 288 335
#
# _framework density 19.574522000000002
#
# number of rings (size 3 to 8) (size 9 to 14) (size 15 to 20)
#    0.000    2.182    1.818    1.364    0.000    0.727 
#    0.000   16.818    0.000    1.091    0.000    0.000 
#    0.000    0.000    0.000    0.000    0.000    0.000 
#
# Total GULP energy -272543.008510 kJ/mol
# GULP energy per Si atom -12388.318569 kJ/mol
# Density = 1.952997 g / cm^3
# Si number density = 19.574522 Si / 1000 Ang^3
#
#
#
# Elastic Constant Matrix: (Units=GPa)
#
#
# Indices 1 2 3 4 5 6 
#
# 1 95.3372 29.1726 24.2661 0.0000 10.1642 0.0000
# 2 29.1726 115.0253 43.3760 0.0000 4.6196 0.0000
# 3 24.2661 43.3760 105.5581 0.0000 0.4223 0.0000
# 4 0.0000 0.0000 0.0000 15.2962 0.0000 3.7188
# 5 10.1642 4.6196 0.4223 0.0000 25.1884 0.0000
# 6 0.0000 0.0000 0.0000 3.7188 0.0000 15.8584
#
#
#
# Elastic Compliance Matrix: (Units=1/GPa)
#
#
# Indices 1 2 3 4 5 6 
#
# 1 0.012109 -0.002188 -0.001867 0.000000 -0.004454 0.000000
# 2 -0.002188 0.010767 -0.003917 0.000000 -0.001026 0.000000
# 3 -0.001867 -0.003917 0.011507 0.000000 0.001279 0.000000
# 4 0.000000 0.000000 0.000000 0.069328 0.000000 -0.016257
# 5 -0.004454 -0.001026 0.001279 0.000000 0.041665 0.000000
# 6 0.000000 0.000000 0.000000 -0.016257 0.000000 0.066871
#
#
# Mechanical properties :
#
#
# Convention : Reuss Voigt Hill
#
# Bulk Modulus (GPa) = 54.23385 56.61667 55.42526
# Shear Modulus (GPa) = 21.33684 25.87565 23.60624
#
# Velocity S-wave (km/s) = 3.30514 3.63974 3.47647
# Velocity P-wave (km/s) = 6.50629 6.83009 6.67015
#
# Compressibility (1/GPa) = 0.01843867
#
# Stress axis : x y z
#
# Youngs Moduli (GPa) = 82.58611 92.87525 86.90269
#
# Poissons Ratio (x) = 0.20323 0.16221
# Poissons Ratio (y) = 0.18072 0.34042
# Poissons Ratio (z) = 0.15415 0.36382
#
# Static dielectric constant tensor:
#      x y z
#    x 4.051400 0.000000 0.077410 
#    y 0.000000 3.031450 0.000000 
#    z 0.077410 0.000000 3.738050 
# 
# 
# High freq. dielectric constant tensor:
#      x y z
#    x 1.783360 0.000000 0.003800 
#    y 0.000000 1.709610 0.000000 
#    z 0.003800 0.000000 1.775070 
# 
# From -- ./inp_files/86039.got.cif
#   From: 2010.06.25/outbox.cif.g09.slc.cpg/sg12_44_cif.got.tgz:86039.got - 2010.06.28 00:19:55.
