data_PCOD8093618
_publ_section_title
;
Structure prediction by ZEFSAII (Michael W. Deem and Ramdas Pophale) SiO2 
 PCOD8093618
Probable space group: C 2/M
;
_chemical_formula_sum "Si O2"
_cell_formula_units_Z 64
_cell_length_a 24.699255
_cell_length_b 18.895605
_cell_length_c 9.083210
_cell_angle_alpha 90.000000
_cell_angle_beta 127.197217
_cell_angle_gamma 90.000000
_cell_volume 3376.774926
_symmetry_space_group_name_H-M "C 2/M"
_symmetry_group_IT_number 12
_symmetry_cell_setting 'monoclinic'
loop_
_space_group_symop_operation_xyz
x,y,z
-x,y,-z
-x,-y,-z
x,-y,z
1/2+x,1/2+y,z
1/2-x,1/2+y,-z
1/2-x,1/2-y,-z
1/2+x,1/2-y,z
loop_
_atom_site_type_symbol
_atom_site_label
_atom_site_fract_x
_atom_site_fract_y
_atom_site_fract_z
Si Si1 0.068147 0.672131 0.051271
Si Si2 0.044153 0.825776 0.698807
Si Si3 0.693549 0.919145 0.251534
Si Si4 0.167362 0.081460 0.015622
Si Si5 0.694986 0.081917 0.910135
Si Si6 0.948754 0.181178 0.808806
Si Si7 0.829866 0.918884 0.634940
Si Si8 0.066752 0.327072 0.698148
O O1 0.132713 0.628436 0.212751
O O2 0.074944 0.750589 0.133905
O O3 0.061704 0.667208 0.865484
O O4 0.000000 0.635311 0.000000
O O5 0.078294 0.756006 0.681759
O O6 0.000000 0.865532 0.500000
O O7 0.991529 0.797325 0.735818
O O8 0.101967 0.876777 0.852791
O O9 0.759902 0.894732 0.447677
O O10 0.675214 0.000000 0.256379
O O11 0.706779 0.907047 0.101839
O O12 0.236532 0.109664 0.055442
O O13 0.175287 0.093345 0.200846
O O14 0.155721 0.000000 0.954534
O O15 0.631174 0.127623 0.747290
O O16 0.680734 0.000000 0.847327
O O17 0.887107 0.131355 0.659787
O O18 0.000000 0.137041 0.000000
O O19 0.847204 0.000000 0.623451
O O20 0.000000 0.354908 0.500000
#
# Coordination Sequence:
#
# PCOD8093618 Si02
#       8
#     8   8   8   8   8   8   8   8
#     4  10  19  36  58  79 111 145 178 222 276 323
#     4  11  23  38  56  82 111 142 184 227 268 322
#     4   9  20  37  56  82 111 142 183 225 269 323
#     4  10  21  38  56  80 113 145 181 225 269 319
#     4   9  20  38  57  79 112 147 180 224 272 319
#     4  11  20  38  57  79 112 144 179 225 273 319
#     4  10  21  36  57  83 111 144 183 224 267 321
#     4  10  20  36  57  81 111 143 182 224 270 322
#
# _framework density 18.952997
#
# number of rings (size 3 to 8) (size 9 to 14) (size 15 to 20)
#    0.000    2.000    3.750    0.000    1.750    3.500 
#    0.000    0.000    0.000    0.000    0.000    0.000 
#    0.000    0.000    0.000    0.000    0.000    0.000 
#
# Total GULP energy -396655.424780 kJ/mol
# GULP energy per Si atom -12395.482024 kJ/mol
# Density = 1.890986 g / cm^3
# Si number density = 18.952997 Si / 1000 Ang^3
#
#
#
# Elastic Constant Matrix: (Units=GPa)
#
#
# Indices 1 2 3 4 5 6 
#
# 1 105.7102 57.2792 42.3302 0.0000 28.4177 0.0000
# 2 57.2792 79.2427 56.7490 0.0000 27.6655 0.0000
# 3 42.3302 56.7490 136.5082 0.0000 33.9962 0.0000
# 4 0.0000 0.0000 0.0000 24.9195 0.0000 13.4805
# 5 28.4177 27.6655 33.9962 0.0000 31.8282 0.0000
# 6 0.0000 0.0000 0.0000 13.4805 0.0000 22.7503
#
#
#
# Elastic Compliance Matrix: (Units=1/GPa)
#
#
# Indices 1 2 3 4 5 6 
#
# 1 0.016416 -0.010069 0.000771 0.000000 -0.006728 0.000000
# 2 -0.010069 0.027091 -0.006151 0.000000 -0.007989 0.000000
# 3 0.000771 -0.006151 0.011558 0.000000 -0.007687 0.000000
# 4 0.000000 0.000000 0.000000 0.059061 0.000000 -0.034996
# 5 -0.006728 -0.007989 -0.007687 0.000000 0.052581 0.000000
# 6 0.000000 0.000000 0.000000 -0.034996 0.000000 0.064692
#
#
# Mechanical properties :
#
#
# Convention : Reuss Voigt Hill
#
# Bulk Modulus (GPa) = 41.37723 70.46420 55.92071
# Shear Modulus (GPa) = 18.49446 26.90645 22.70045
#
# Velocity S-wave (km/s) = 3.12718 3.77190 3.46457
# Velocity P-wave (km/s) = 5.90914 7.49858 6.75080
#
# Compressibility (1/GPa) = 0.02416788
#
# Stress axis : x y z
#
# Youngs Moduli (GPa) = 60.91743 36.91221 86.52136
#
# Poissons Ratio (x) = 0.37167 -0.06672
# Poissons Ratio (y) = 0.61338 0.53215
# Poissons Ratio (z) = -0.04697 0.22703
#
# Static dielectric constant tensor:
#      x y z
#    x 3.544220 0.000000 0.078270 
#    y 0.000000 3.401630 0.000000 
#    z 0.078270 0.000000 3.649520 
# 
# 
# High freq. dielectric constant tensor:
#      x y z
#    x 1.736040 0.000000 0.002910 
#    y 0.000000 1.722550 0.000000 
#    z 0.002910 0.000000 1.748430 
# 
# From -- ./inp_files/99116.got.cif
#   From: 2010.06.25/outbox.cif.g09.slc.cpg/sg12_50_cif.got.tgz:99116.got - 2010.06.28 00:19:55.
