data_PCOD8093793
_publ_section_title
;
Structure prediction by ZEFSAII (Michael W. Deem and Ramdas Pophale) SiO2 
 PCOD8093793
Probable space group: C 2/M
;
_chemical_formula_sum "Si O2"
_cell_formula_units_Z 48
_cell_length_a 28.468897
_cell_length_b 19.635109
_cell_length_c 12.630748
_cell_angle_alpha 90.000000
_cell_angle_beta 159.083008
_cell_angle_gamma 90.000000
_cell_volume 2520.690571
_symmetry_space_group_name_H-M "C 2/M"
_symmetry_group_IT_number 12
_symmetry_cell_setting 'monoclinic'
loop_
_space_group_symop_operation_xyz
x,y,z
-x,y,-z
-x,-y,-z
x,-y,z
1/2+x,1/2+y,z
1/2-x,1/2+y,-z
1/2-x,1/2-y,-z
1/2+x,1/2-y,z
loop_
_atom_site_type_symbol
_atom_site_label
_atom_site_fract_x
_atom_site_fract_y
_atom_site_fract_z
Si Si1 0.086528 0.424202 0.077944
Si Si2 0.300065 0.924711 0.072093
Si Si3 0.559079 0.250145 0.362392
Si Si4 0.633179 0.301974 0.724941
Si Si5 0.510073 0.892747 0.348575
Si Si6 0.288907 0.218182 0.690406
O O1 0.150171 0.500000 0.228138
O O2 0.193313 0.363914 0.284890
O O3 0.000000 0.405916 0.000000
O O4 0.999878 0.427909 0.788050
O O5 0.370329 0.890578 0.116955
O O6 0.393742 0.933499 0.371502
O O7 0.250617 0.000000 0.936647
O O8 0.177757 0.878042 0.849441
O O9 0.592465 0.308735 0.516155
O O10 0.567965 0.182046 0.451848
O O11 0.669611 0.257621 0.509092
O O12 0.418670 0.254096 0.009834
O O13 0.500000 0.278076 0.500000
O O14 0.750000 0.250000 0.000000
O O15 0.250000 0.250000 0.500000
#
# Coordination Sequence:
#
# PCOD8093793 Si02
#       6
#     8   8   8   8   8   8
#     4  10  20  36  60  89 120 156 201 256 307 359
#     4  11  22  36  60  88 124 163 200 253 308 364
#     4  11  22  36  61  88 118 157 200 248 305 351
#     4  12  23  39  59  86 121 158 203 250 296 367
#     4  10  19  36  59  90 120 153 204 251 302 367
#     4  11  22  39  61  91 120 154 199 257 304 360
#
# _framework density 19.042401000000002
#
# number of rings (size 3 to 8) (size 9 to 14) (size 15 to 20)
#    0.000    1.167    1.667    8.500    0.000    0.333 
#    0.000    0.000    0.000    3.000    0.000    0.000 
#    0.000    0.000    0.000    0.000    0.000    0.000 
#
# Total GULP energy -297357.059300 kJ/mol
# GULP energy per Si atom -12389.877471 kJ/mol
# Density = 1.899906 g / cm^3
# Si number density = 19.042401 Si / 1000 Ang^3
#
#
#
# Elastic Constant Matrix: (Units=GPa)
#
#
# Indices 1 2 3 4 5 6 
#
# 1 143.8862 31.6052 62.0314 0.0000 -4.4580 0.0000
# 2 31.6052 126.9554 48.5804 0.0000 8.9404 0.0000
# 3 62.0314 48.5804 127.4058 0.0000 5.1783 0.0000
# 4 0.0000 0.0000 0.0000 18.8608 0.0000 0.4894
# 5 -4.4580 8.9404 5.1783 0.0000 42.1536 0.0000
# 6 0.0000 0.0000 0.0000 0.4894 0.0000 22.3519
#
#
#
# Elastic Compliance Matrix: (Units=1/GPa)
#
#
# Indices 1 2 3 4 5 6 
#
# 1 0.008949 -0.000760 -0.004133 0.000000 0.001615 0.000000
# 2 -0.000760 0.009386 -0.003141 0.000000 -0.001685 0.000000
# 3 -0.004133 -0.003141 0.011105 0.000000 -0.001135 0.000000
# 4 0.000000 0.000000 0.000000 0.053050 0.000000 -0.001162
# 5 0.001615 -0.001685 -0.001135 0.000000 0.024390 0.000000
# 6 0.000000 0.000000 0.000000 -0.001162 0.000000 0.044764
#
#
# Mechanical properties :
#
#
# Convention : Reuss Voigt Hill
#
# Bulk Modulus (GPa) = 74.77696 75.85350 75.31523
# Shear Modulus (GPa) = 29.04123 33.74197 31.39160
#
# Velocity S-wave (km/s) = 3.90947 4.21401 4.06459
# Velocity P-wave (km/s) = 7.72868 7.97481 7.85271
#
# Compressibility (1/GPa) = 0.01337310
#
# Stress axis : x y z
#
# Youngs Moduli (GPa) = 111.74904 106.53678 90.05177
#
# Poissons Ratio (x) = 0.08097 0.37216
# Poissons Ratio (y) = 0.08494 0.28281
# Poissons Ratio (z) = 0.46183 0.33458
#
# Static dielectric constant tensor:
#      x y z
#    x 3.640330 0.000000 -0.153340 
#    y 0.000000 3.582880 0.000000 
#    z -0.153340 0.000000 3.404250 
# 
# 
# High freq. dielectric constant tensor:
#      x y z
#    x 1.760170 0.000000 -0.017380 
#    y 0.000000 1.739050 0.000000 
#    z -0.017380 0.000000 1.718700 
# 
# From -- ./inp_files/185042.got.cif
#   From: 2010.06.25/outbox.cif.g09.slc.cpg/sg12_93_cif.got.tgz:185042.got - 2010.06.28 00:19:55.
