data_PCOD8093895
_publ_section_title
;
Structure prediction by ZEFSAII (Michael W. Deem and Ramdas Pophale) SiO2 
 PCOD8093895
Probable space group: C 2/M
;
_chemical_formula_sum "Si O2"
_cell_formula_units_Z 56
_cell_length_a 19.866148
_cell_length_b 8.869281
_cell_length_c 18.864927
_cell_angle_alpha 90.000000
_cell_angle_beta 119.533331
_cell_angle_gamma 90.000000
_cell_volume 2892.084311
_symmetry_space_group_name_H-M "C 2/M"
_symmetry_group_IT_number 12
_symmetry_cell_setting 'monoclinic'
loop_
_space_group_symop_operation_xyz
x,y,z
-x,y,-z
-x,-y,-z
x,-y,z
1/2+x,1/2+y,z
1/2-x,1/2+y,-z
1/2-x,1/2-y,-z
1/2+x,1/2-y,z
loop_
_atom_site_type_symbol
_atom_site_label
_atom_site_fract_x
_atom_site_fract_y
_atom_site_fract_z
Si Si1 0.766594 0.177820 0.433375
Si Si2 0.862627 0.824571 0.727814
Si Si3 0.304860 0.324283 0.850830
Si Si4 0.582264 0.321890 0.571419
Si Si5 0.521409 0.825026 0.810803
Si Si6 0.932704 0.823791 0.021027
Si Si7 0.365162 0.176043 0.257994
O O1 0.750000 0.250000 0.500000
O O2 0.702758 0.230754 0.345080
O O3 0.850564 0.229702 0.448177
O O4 0.762363 0.000000 0.439492
O O5 0.855634 0.792432 0.807581
O O6 0.946717 0.769089 0.747844
O O7 0.852858 0.000000 0.703757
O O8 0.292695 0.500000 0.855151
O O9 0.219835 0.250785 0.799614
O O10 0.352625 0.265307 0.943630
O O11 0.500000 0.262369 0.500000
O O12 0.582087 0.500000 0.579578
O O13 0.594742 0.253739 0.654949
O O14 0.554866 0.774111 0.903135
O O15 0.586193 0.791558 0.786590
O O16 0.498992 0.000000 0.802762
O O17 0.929945 0.000000 0.040310
O O18 0.000000 0.793934 0.000000
O O19 0.358695 0.000000 0.272426
#
# Coordination Sequence:
#
# PCOD8093895 Si02
#       7
#     8   8   8   8   8   8   8
#     4  11  24  41  62  93 126 157 197 247 296 352
#     4  11  21  39  65  87 115 160 204 248 296 351
#     4   9  18  36  62  85 112 153 202 244 287 353
#     4  10  23  42  62  88 121 156 196 244 292 346
#     4  11  24  38  56  90 127 156 195 251 303 353
#     4  10  19  36  60  87 115 155 205 247 293 355
#     4  10  22  41  61  85 119 160 199 240 296 360
#
# _framework density 19.363199000000002
#
# number of rings (size 3 to 8) (size 9 to 14) (size 15 to 20)
#    0.000    1.714    2.857    1.286    2.000    2.857 
#    0.000    0.714    0.000    0.000    0.000    0.000 
#    0.000    0.000    0.000    0.000    0.000    0.000 
#
# Total GULP energy -347250.149894 kJ/mol
# GULP energy per Si atom -12401.791068 kJ/mol
# Density = 1.931913 g / cm^3
# Si number density = 19.363199 Si / 1000 Ang^3
#
#
#
# Elastic Constant Matrix: (Units=GPa)
#
#
# Indices 1 2 3 4 5 6 
#
# 1 84.4920 17.6736 53.2946 0.0000 13.7900 0.0000
# 2 17.6736 24.3176 31.1729 0.0000 -7.7345 0.0000
# 3 53.2946 31.1729 121.2823 0.0000 12.1535 0.0000
# 4 0.0000 0.0000 0.0000 36.0350 0.0000 0.6722
# 5 13.7900 -7.7345 12.1535 0.0000 39.0466 0.0000
# 6 0.0000 0.0000 0.0000 0.6722 0.0000 23.6699
#
#
#
# Elastic Compliance Matrix: (Units=1/GPa)
#
#
# Indices 1 2 3 4 5 6 
#
# 1 0.017832 -0.008654 -0.004963 0.000000 -0.006467 0.000000
# 2 -0.008654 0.080024 -0.019261 0.000000 0.024903 0.000000
# 3 -0.004963 -0.019261 0.016085 0.000000 -0.007069 0.000000
# 4 0.000000 0.000000 0.000000 0.027766 0.000000 -0.000788
# 5 -0.006467 0.024903 -0.007069 0.000000 0.035028 0.000000
# 6 0.000000 0.000000 0.000000 -0.000788 0.000000 0.042270
#
#
# Mechanical properties :
#
#
# Convention : Reuss Voigt Hill
#
# Bulk Modulus (GPa) = 20.75386 48.26380 34.50883
# Shear Modulus (GPa) = 16.62109 28.28034 22.45071
#
# Velocity S-wave (km/s) = 2.93300 3.82582 3.40877
# Velocity P-wave (km/s) = 4.71290 6.67050 5.77525
#
# Compressibility (1/GPa) = 0.04818381
#
# Stress axis : x y z
#
# Youngs Moduli (GPa) = 56.07919 12.49627 62.16884
#
# Poissons Ratio (x) = 0.10815 0.30857
# Poissons Ratio (y) = 0.48533 1.19743
# Poissons Ratio (z) = 0.27834 0.24069
#
# Static dielectric constant tensor:
#      x y z
#    x 3.847670 0.000000 0.073710 
#    y 0.000000 3.465250 0.000000 
#    z 0.073710 0.000000 2.456030 
# 
# 
# High freq. dielectric constant tensor:
#      x y z
#    x 1.764700 0.000000 0.008980 
#    y 0.000000 1.738600 0.000000 
#    z 0.008980 0.000000 1.766250 
# 
# From -- ./inp_files/275631.got.cif
#   From: 2010.06.25/outbox.cif.g09.slc.cpg/sg12_138_cif.got.tgz:275631.got - 2010.06.28 00:19:55.
