data_PCOD8093024
_publ_section_title
;
Structure prediction by ZEFSAII (Michael W. Deem and Ramdas Pophale) SiO2 
 PCOD8093024
Probable space group: C 2/M
;
_chemical_formula_sum "Si O2"
_cell_formula_units_Z 56
_cell_length_a 14.866442
_cell_length_b 15.353155
_cell_length_c 16.641686
_cell_angle_alpha 90.000000
_cell_angle_beta 50.413942
_cell_angle_gamma 90.000000
_cell_volume 2927.315344
_symmetry_space_group_name_H-M "C 2/M"
_symmetry_group_IT_number 12
_symmetry_cell_setting 'monoclinic'
loop_
_space_group_symop_operation_xyz
x,y,z
-x,y,-z
-x,-y,-z
x,-y,z
1/2+x,1/2+y,z
1/2-x,1/2+y,-z
1/2-x,1/2-y,-z
1/2+x,1/2-y,z
loop_
_atom_site_type_symbol
_atom_site_label
_atom_site_fract_x
_atom_site_fract_y
_atom_site_fract_z
Si Si1 0.168595 0.099930 0.584271
Si Si2 0.584499 0.399417 0.022796
Si Si3 0.637764 0.596739 0.422149
Si Si4 0.132304 0.400444 0.405487
Si Si5 0.289768 0.212160 0.893021
Si Si6 0.749212 0.742490 0.255684
Si Si7 0.475824 0.284155 0.217480
O O1 0.184702 0.127428 0.482527
O O2 0.294333 0.109346 0.554376
O O3 0.076273 0.165967 0.676146
O O4 0.122475 0.000000 0.616721
O O5 0.566941 0.500000 0.046641
O O6 0.547129 0.354648 0.126396
O O7 0.500000 0.365472 0.000000
O O8 0.720645 0.379641 0.923846
O O9 0.500000 0.596099 0.500000
O O10 0.685766 0.500000 0.375147
O O11 0.678163 0.662530 0.331484
O O12 0.139754 0.500000 0.368543
O O13 0.186033 0.335387 0.308894
O O14 0.000000 0.373604 0.500000
O O15 0.245457 0.271089 0.843236
O O16 0.431537 0.208719 0.808242
O O17 0.250000 0.250000 0.000000
O O18 0.877710 0.738751 0.219865
#
# Coordination Sequence:
#
# PCOD8093024 Si02
#       7
#     8   8   8   8   8   8   8
#     4   9  18  33  53  80 109 140 184 229 269 320
#     4  10  19  35  59  83 108 138 177 227 282 334
#     4  10  21  36  54  76 105 145 190 230 263 311
#     4   9  19  33  52  79 113 144 173 220 280 336
#     4  10  22  37  54  80 109 140 177 224 279 329
#     4  11  21  35  55  80 108 145 187 225 275 329
#     4  10  20  34  56  82 111 144 178 222 280 333
#
# _framework density 19.130155999999999
#
# number of rings (size 3 to 8) (size 9 to 14) (size 15 to 20)
#    0.000    2.143    1.429    1.714    0.000    4.571 
#    0.000    3.571    0.000    0.000    0.000    6.000 
#    0.000    0.000    0.000    0.000    0.000    0.000 
#
# Total GULP energy -347075.992697 kJ/mol
# GULP energy per Si atom -12395.571168 kJ/mol
# Density = 1.908662 g / cm^3
# Si number density = 19.130156 Si / 1000 Ang^3
#
#
#
# Elastic Constant Matrix: (Units=GPa)
#
#
# Indices 1 2 3 4 5 6 
#
# 1 94.9726 26.5384 32.0354 0.0000 -3.9666 0.0000
# 2 26.5384 64.8966 34.0840 0.0000 0.3796 0.0000
# 3 32.0354 34.0840 70.8611 0.0000 6.9317 0.0000
# 4 0.0000 0.0000 0.0000 6.8381 0.0000 -8.2772
# 5 -3.9666 0.3796 6.9317 0.0000 46.4005 0.0000
# 6 0.0000 0.0000 0.0000 -8.2772 0.0000 19.4343
#
#
#
# Elastic Compliance Matrix: (Units=1/GPa)
#
#
# Indices 1 2 3 4 5 6 
#
# 1 0.012982 -0.002867 -0.004669 0.000000 0.001831 0.000000
# 2 -0.002867 0.021332 -0.009056 0.000000 0.000933 0.000000
# 3 -0.004669 -0.009056 0.020916 0.000000 -0.003450 0.000000
# 4 0.000000 0.000000 0.000000 0.301863 0.000000 0.128567
# 5 0.001831 0.000933 -0.003450 0.000000 0.022216 0.000000
# 6 0.000000 0.000000 0.000000 0.128567 0.000000 0.106213
#
#
# Mechanical properties :
#
#
# Convention : Reuss Voigt Hill
#
# Bulk Modulus (GPa) = 45.35891 46.22732 45.79311
# Shear Modulus (GPa) = 9.50470 23.73939 16.62204
#
# Velocity S-wave (km/s) = 2.23142 3.52652 2.95090
# Velocity P-wave (km/s) = 5.51372 6.38740 5.96657
#
# Compressibility (1/GPa) = 0.02204638
#
# Stress axis : x y z
#
# Youngs Moduli (GPa) = 77.03028 46.87708 47.80999
#
# Poissons Ratio (x) = 0.13441 0.22322
# Poissons Ratio (y) = 0.22087 0.43296
# Poissons Ratio (z) = 0.35964 0.42451
#
# Static dielectric constant tensor:
#      x y z
#    x 3.077170 0.000000 -1.300510 
#    y 0.000000 3.471520 0.000000 
#    z -1.300510 0.000000 1.728970 
# 
# 
# High freq. dielectric constant tensor:
#      x y z
#    x 1.760800 0.000000 0.002190 
#    y 0.000000 1.724090 0.000000 
#    z 0.002190 0.000000 1.737770 
# 
# From -- ./inp_files/145689.got.cif
#   From: 2010.06.25/outbox.cif.g09.slc.cpg/sg12_73_cif.got.tgz:145689.got - 2010.06.28 00:19:55.
