data_PCOD8093566
_publ_section_title
;
Structure prediction by ZEFSAII (Michael W. Deem and Ramdas Pophale) SiO2 
 PCOD8093566
Probable space group: C 2/M
;
_chemical_formula_sum "Si O2"
_cell_formula_units_Z 64
_cell_length_a 24.008373
_cell_length_b 8.911685
_cell_length_c 28.497099
_cell_angle_alpha 90.000000
_cell_angle_beta 32.762787
_cell_angle_gamma 90.000000
_cell_volume 3299.518952
_symmetry_space_group_name_H-M "C 2/M"
_symmetry_group_IT_number 12
_symmetry_cell_setting 'monoclinic'
loop_
_space_group_symop_operation_xyz
x,y,z
-x,y,-z
-x,-y,-z
x,-y,z
1/2+x,1/2+y,z
1/2-x,1/2+y,-z
1/2-x,1/2-y,-z
1/2+x,1/2-y,z
loop_
_atom_site_type_symbol
_atom_site_label
_atom_site_fract_x
_atom_site_fract_y
_atom_site_fract_z
Si Si1 0.820432 0.678107 0.249876
Si Si2 0.408965 0.322722 0.843696
Si Si3 0.218577 0.173362 0.418440
Si Si4 0.551790 0.822734 0.088608
Si Si5 0.968401 0.323717 0.403792
Si Si6 0.312860 0.678857 0.742547
Si Si7 0.264180 0.823097 0.103800
Si Si8 0.915768 0.327323 0.335837
O O1 0.824798 0.500000 0.245561
O O2 0.770701 0.733249 0.333716
O O3 0.753738 0.740033 0.253827
O O4 0.936725 0.741186 0.162875
O O5 0.403538 0.500000 0.852665
O O6 0.393783 0.250352 0.905181
O O7 0.319501 0.258298 0.873368
O O8 0.518351 0.276442 0.744991
O O9 0.117504 0.271252 0.498622
O O10 0.296841 0.195484 0.406317
O O11 0.186182 0.000000 0.436326
O O12 0.550270 0.000000 0.097891
O O13 0.620658 0.779658 0.994367
O O14 0.984244 0.500000 0.396880
O O15 0.932377 0.275685 0.377387
O O16 0.073219 0.242214 0.342813
O O17 0.319124 0.500000 0.737926
O O18 0.258488 0.741511 0.828344
O O19 0.250765 0.000000 0.115109
O O20 0.948801 0.500000 0.304703
#
# Coordination Sequence:
#
# PCOD8093566 Si02
#       8
#     8   8   8   8   8   8   8   8
#     4   9  19  35  59  82 105 143 191 229 271 319
#     4  11  20  32  53  85 115 145 180 219 274 331
#     4  10  20  37  58  82 109 143 182 226 274 325
#     4  10  19  36  57  81 113 147 183 227 271 324
#     4  11  23  37  56  85 111 144 182 222 278 331
#     4  10  20  38  58  80 109 145 187 232 271 319
#     4   9  19  33  55  84 113 143 182 227 274 319
#     4  10  20  36  58  81 110 145 181 220 274 331
#
# _framework density 19.396766
#
# number of rings (size 3 to 8) (size 9 to 14) (size 15 to 20)
#    0.000    2.000    2.500    1.500    0.000    2.000 
#    0.000    7.500    0.000    0.000    0.000    1.750 
#    0.000    0.000    0.000    0.000    0.000    0.000 
#
# Total GULP energy -396856.252200 kJ/mol
# GULP energy per Si atom -12401.757881 kJ/mol
# Density = 1.935262 g / cm^3
# Si number density = 19.396766 Si / 1000 Ang^3
#
#
#
# Elastic Constant Matrix: (Units=GPa)
#
#
# Indices 1 2 3 4 5 6 
#
# 1 133.9798 18.3232 51.1942 -0.0144 -9.0741 0.0075
# 2 18.3232 31.9781 20.0506 -0.0244 -1.4174 0.0223
# 3 51.1942 20.0506 129.4627 -0.0122 -4.6421 0.0057
# 4 -0.0144 -0.0244 -0.0122 20.2842 0.0048 1.2145
# 5 -9.0741 -1.4174 -4.6421 0.0048 19.1089 -0.0031
# 6 0.0075 0.0223 0.0057 1.2145 -0.0031 22.6340
#
#
#
# Elastic Compliance Matrix: (Units=1/GPa)
#
#
# Indices 1 2 3 4 5 6 
#
# 1 0.009310 -0.003268 -0.003052 0.000000 0.003437 0.000001
# 2 -0.003268 0.035813 -0.004252 0.000040 0.000071 -0.000035
# 3 -0.003052 -0.004252 0.009610 -0.000002 0.000570 0.000003
# 4 0.000000 0.000040 -0.000002 0.049458 -0.000010 -0.002654
# 5 0.003437 0.000071 0.000570 -0.000010 0.054107 0.000007
# 6 0.000001 -0.000035 0.000003 -0.002654 0.000007 0.044324
#
#
# Mechanical properties :
#
#
# Convention : Reuss Voigt Hill
#
# Bulk Modulus (GPa) = 29.77170 52.72852 41.25011
# Shear Modulus (GPa) = 21.27996 26.12892 23.70444
#
# Velocity S-wave (km/s) = 3.31583 3.67424 3.49962
# Velocity P-wave (km/s) = 5.48103 6.72631 6.13535
#
# Compressibility (1/GPa) = 0.03358894
#
# Stress axis : x y z
#
# Youngs Moduli (GPa) = 107.41420 27.92270 104.05835
#
# Poissons Ratio (x) = 0.09126 0.31758
# Poissons Ratio (y) = 0.35108 0.44241
# Poissons Ratio (z) = 0.32782 0.11871
#
# Static dielectric constant tensor:
#      x y z
#    x 3.746110 -0.000010 0.056720 
#    y -0.000010 3.199250 0.000010 
#    z 0.056720 0.000010 3.641900 
# 
# 
# High freq. dielectric constant tensor:
#      x y z
#    x 1.756480 0.000000 0.000670 
#    y 0.000000 1.720310 0.000000 
#    z 0.000670 0.000000 1.766790 
# 
# From -- ./inp_files/238728.got.cif
#   From: 2010.06.25/outbox.cif.g09.slc.cpg/sg12_120_cif.got.tgz:238728.got - 2010.06.28 00:19:55.
