data_PCOD8093821
_publ_section_title
;
Structure prediction by ZEFSAII (Michael W. Deem and Ramdas Pophale) SiO2 
 PCOD8093821
Probable space group: C 2/M
;
_chemical_formula_sum "Si O2"
_cell_formula_units_Z 56
_cell_length_a 14.464688
_cell_length_b 8.720053
_cell_length_c 25.938819
_cell_angle_alpha 90.000000
_cell_angle_beta 114.058047
_cell_angle_gamma 90.000000
_cell_volume 2987.530815
_symmetry_space_group_name_H-M "C 2/M"
_symmetry_group_IT_number 12
_symmetry_cell_setting 'monoclinic'
loop_
_space_group_symop_operation_xyz
x,y,z
-x,y,-z
-x,-y,-z
x,-y,z
1/2+x,1/2+y,z
1/2-x,1/2+y,-z
1/2-x,1/2-y,-z
1/2+x,1/2-y,z
loop_
_atom_site_type_symbol
_atom_site_label
_atom_site_fract_x
_atom_site_fract_y
_atom_site_fract_z
Si Si1 0.574111 0.319204 0.766259
Si Si2 0.498925 0.182550 0.851463
Si Si3 0.933869 0.824505 0.436414
Si Si4 0.298188 0.318447 0.061682
Si Si5 0.709995 0.180361 0.148941
Si Si6 0.725311 0.173884 0.440740
Si Si7 0.487174 0.820595 0.644854
O O1 0.566345 0.500000 0.774422
O O2 0.506356 0.235334 0.793901
O O3 0.691163 0.264011 0.796705
O O4 0.533801 0.277289 0.701257
O O5 0.589776 0.251224 0.905796
O O6 0.393490 0.249438 0.851008
O O7 0.503464 0.000000 0.855400
O O8 0.816218 0.808991 0.421790
O O9 0.950492 0.711773 0.392705
O O10 0.000000 0.768289 0.500000
O O11 0.963389 0.000000 0.429268
O O12 0.307255 0.500000 0.059348
O O13 0.225971 0.270307 0.093047
O O14 0.250000 0.250000 0.000000
O O15 0.701251 0.000000 0.151227
O O16 0.750000 0.250000 0.500000
O O17 0.626401 0.242665 0.390534
O O18 0.701198 0.000000 0.449265
O O19 0.491298 0.000000 0.659667
#
# Coordination Sequence:
#
# PCOD8093821 Si02
#       7
#     8   8   8   8   8   8   8
#     4  10  21  39  58  79 109 145 183 226 274 331
#     4  10  19  36  60  83 108 144 187 233 278 323
#     4  10  20  36  57  78 103 139 178 214 265 330
#     4  10  20  36  55  83 119 155 192 229 274 325
#     4   8  18  36  58  79 107 148 187 224 275 331
#     4  10  21  36  55  78 106 138 174 216 268 327
#     4  11  23  37  55  82 111 140 177 226 276 325
#
# _framework density 18.744575000000001
#
# number of rings (size 3 to 8) (size 9 to 14) (size 15 to 20)
#    0.000    2.143    1.429    2.571    0.000    3.143 
#    0.000   17.143    0.000    0.000    0.000    0.000 
#    0.000    0.000    0.000    0.000    0.000    0.000 
#
# Total GULP energy -347199.214575 kJ/mol
# GULP energy per Si atom -12399.971949 kJ/mol
# Density = 1.870191 g / cm^3
# Si number density = 18.744575 Si / 1000 Ang^3
#
#
#
# Elastic Constant Matrix: (Units=GPa)
#
#
# Indices 1 2 3 4 5 6 
#
# 1 150.9714 36.1283 68.4086 0.0000 4.1767 0.0000
# 2 36.1283 58.2291 34.1987 0.0000 2.6124 0.0000
# 3 68.4086 34.1987 150.6298 0.0000 3.0530 0.0000
# 4 0.0000 0.0000 0.0000 35.0931 0.0000 -2.7363
# 5 4.1767 2.6124 3.0530 0.0000 19.7248 0.0000
# 6 0.0000 0.0000 0.0000 -2.7363 0.0000 27.1881
#
#
#
# Elastic Compliance Matrix: (Units=1/GPa)
#
#
# Indices 1 2 3 4 5 6 
#
# 1 0.008985 -0.003632 -0.003237 0.000000 -0.000920 0.000000
# 2 -0.003632 0.021358 -0.003168 0.000000 -0.001569 0.000000
# 3 -0.003237 -0.003168 0.008834 0.000000 -0.000262 0.000000
# 4 0.000000 0.000000 0.000000 0.028721 0.000000 0.002891
# 5 -0.000920 -0.001569 -0.000262 0.000000 0.051141 0.000000
# 6 0.000000 0.000000 0.000000 0.002891 0.000000 0.037072
#
#
# Mechanical properties :
#
#
# Convention : Reuss Voigt Hill
#
# Bulk Modulus (GPa) = 52.34996 70.81129 61.58063
# Shear Modulus (GPa) = 27.38935 31.14086 29.26511
#
# Velocity S-wave (km/s) = 3.82670 4.08036 3.95556
# Velocity P-wave (km/s) = 6.89300 7.74971 7.33388
#
# Compressibility (1/GPa) = 0.01910221
#
# Stress axis : x y z
#
# Youngs Moduli (GPa) = 111.29149 46.82079 113.20481
#
# Poissons Ratio (x) = 0.17007 0.36649
# Poissons Ratio (y) = 0.40425 0.35859
# Poissons Ratio (z) = 0.36029 0.14831
#
# Static dielectric constant tensor:
#      x y z
#    x 3.877790 0.000000 0.177280 
#    y 0.000000 3.368670 0.000000 
#    z 0.177280 0.000000 3.414560 
# 
# 
# High freq. dielectric constant tensor:
#      x y z
#    x 1.736580 0.000000 0.004150 
#    y 0.000000 1.720430 0.000000 
#    z 0.004150 0.000000 1.730050 
# 
# From -- ./inp_files/338185.got.cif
#   From: 2010.06.25/outbox.cif.g09.slc.cpg/sg12_170_cif.got.tgz:338185.got - 2010.06.28 00:19:55.
