data_PCOD8093863
_publ_section_title
;
Structure prediction by ZEFSAII (Michael W. Deem and Ramdas Pophale) SiO2 
 PCOD8093863
Probable space group: C 2/M
;
_chemical_formula_sum "Si O2"
_cell_formula_units_Z 36
_cell_length_a 18.217331
_cell_length_b 12.320113
_cell_length_c 7.939496
_cell_angle_alpha 90.000000
_cell_angle_beta 97.655244
_cell_angle_gamma 90.000000
_cell_volume 1766.055711
_symmetry_space_group_name_H-M "C 2/M"
_symmetry_group_IT_number 12
_symmetry_cell_setting 'monoclinic'
loop_
_space_group_symop_operation_xyz
x,y,z
-x,y,-z
-x,-y,-z
x,-y,z
1/2+x,1/2+y,z
1/2-x,1/2+y,-z
1/2-x,1/2-y,-z
1/2+x,1/2-y,z
loop_
_atom_site_type_symbol
_atom_site_label
_atom_site_fract_x
_atom_site_fract_y
_atom_site_fract_z
Si Si1 0.342978 0.127729 0.453936
Si Si2 0.000000 0.270296 0.500000
Si Si3 0.221129 0.727544 0.238423
Si Si4 0.171617 0.880426 0.964069
Si Si5 0.514533 0.623323 0.813546
O O1 0.428556 0.155414 0.440352
O O2 0.288041 0.195436 0.319338
O O3 0.322637 0.159551 0.637585
O O4 0.330585 0.000000 0.420965
O O5 0.020900 0.196993 0.343506
O O6 0.253883 0.641860 0.116389
O O7 0.161674 0.801665 0.121872
O O8 0.102987 0.870717 0.814612
O O9 0.175759 0.000000 0.043091
O O10 0.484389 0.500000 0.783694
O O11 0.500000 0.664975 0.000000
#
# Coordination Sequence:
#
# PCOD8093863 Si02
#       5
#     8   4   8   8   8
#     4  11  23  39  59  86 119 160 200 244 297 357
#     4  12  22  40  60  88 126 164 198 244 298 368
#     4  10  21  38  60  86 114 152 199 251 296 354
#     4  10  19  36  60  85 114 148 193 251 303 350
#     4  10  21  37  59  89 121 156 199 248 303 356
#
# _framework density 20.384409000000002
#
# number of rings (size 3 to 8) (size 9 to 14) (size 15 to 20)
#    0.000    1.556    2.222    3.333    0.000    0.000 
#    0.000    2.222    0.000    2.667    0.000    0.000 
#    0.000    0.000    0.000    0.000    0.000    0.000 
#
# Total GULP energy -223168.481765 kJ/mol
# GULP energy per Si atom -12398.248987 kJ/mol
# Density = 2.033801 g / cm^3
# Si number density = 20.384409 Si / 1000 Ang^3
#
#
#
# Elastic Constant Matrix: (Units=GPa)
#
#
# Indices 1 2 3 4 5 6 
#
# 1 56.7391 21.9075 1.2087 0.0000 -1.6725 0.0000
# 2 21.9075 81.2045 13.0114 0.0000 2.8641 0.0000
# 3 1.2087 13.0114 69.2428 0.0000 -8.6932 0.0000
# 4 0.0000 0.0000 0.0000 21.8491 0.0000 4.5821
# 5 -1.6725 2.8641 -8.6932 0.0000 32.5541 0.0000
# 6 0.0000 0.0000 0.0000 4.5821 0.0000 24.1362
#
#
#
# Elastic Compliance Matrix: (Units=1/GPa)
#
#
# Indices 1 2 3 4 5 6 
#
# 1 0.019800 -0.005550 0.000917 0.000000 0.001750 0.000000
# 2 -0.005550 0.014357 -0.002892 0.000000 -0.002321 0.000000
# 3 0.000917 -0.002892 0.015528 0.000000 0.004448 0.000000
# 4 0.000000 0.000000 0.000000 0.047666 0.000000 -0.009049
# 5 0.001750 -0.002321 0.004448 0.000000 0.032200 0.000000
# 6 0.000000 0.000000 0.000000 -0.009049 0.000000 0.043149
#
#
# Mechanical properties :
#
#
# Convention : Reuss Voigt Hill
#
# Bulk Modulus (GPa) = 28.87358 31.04905 29.96131
# Shear Modulus (GPa) = 25.08831 27.11179 26.10005
#
# Velocity S-wave (km/s) = 3.51202 3.65091 3.58214
# Velocity P-wave (km/s) = 5.53544 5.74778 5.64261
#
# Compressibility (1/GPa) = 0.03463373
#
# Stress axis : x y z
#
# Youngs Moduli (GPa) = 50.50611 69.65129 64.40029
#
# Poissons Ratio (x) = 0.38658 -0.05906
# Poissons Ratio (y) = 0.28032 0.18627
# Poissons Ratio (z) = -0.04632 0.20145
#
# Static dielectric constant tensor:
#      x y z
#    x 3.609400 0.000000 0.055850 
#    y 0.000000 3.605870 0.000000 
#    z 0.055850 0.000000 3.650080 
# 
# 
# High freq. dielectric constant tensor:
#      x y z
#    x 1.798840 0.000000 -0.000680 
#    y 0.000000 1.791530 0.000000 
#    z -0.000680 0.000000 1.796330 
# 
# From -- ./inp_files/70918.got.cif
#   From: 2010.06.25/outbox.cif.g09.slc.cpg/sg12_36_cif.got.tgz:70918.got - 2010.06.28 00:19:55.
