data_PCOD8093178
_publ_section_title
;
Structure prediction by ZEFSAII (Michael W. Deem and Ramdas Pophale) SiO2 
 PCOD8093178
Probable space group: C 2/M
;
_chemical_formula_sum "Si O2"
_cell_formula_units_Z 64
_cell_length_a 28.901895
_cell_length_b 8.873305
_cell_length_c 12.623857
_cell_angle_alpha 90.000000
_cell_angle_beta 84.874627
_cell_angle_gamma 90.000000
_cell_volume 3224.510769
_symmetry_space_group_name_H-M "C 2/M"
_symmetry_group_IT_number 12
_symmetry_cell_setting 'monoclinic'
loop_
_space_group_symop_operation_xyz
x,y,z
-x,y,-z
-x,-y,-z
x,-y,z
1/2+x,1/2+y,z
1/2-x,1/2+y,-z
1/2-x,1/2-y,-z
1/2+x,1/2-y,z
loop_
_atom_site_type_symbol
_atom_site_label
_atom_site_fract_x
_atom_site_fract_y
_atom_site_fract_z
Si Si1 0.133365 0.172488 0.866573
Si Si2 0.935952 0.677501 0.758583
Si Si3 0.297310 0.676796 0.529515
Si Si4 0.379298 0.679874 0.362578
Si Si5 0.157998 0.823013 0.261791
Si Si6 0.483119 0.677716 0.387349
Si Si7 0.299219 0.679714 0.969048
Si Si8 0.950731 0.826992 0.971355
O O1 0.134975 0.247144 0.749779
O O2 0.148246 0.000000 0.852046
O O3 0.168495 0.246578 0.943824
O O4 0.081410 0.188400 0.919790
O O5 0.936591 0.500000 0.746569
O O6 0.891063 0.741808 0.706339
O O7 0.931105 0.724416 0.881877
O O8 0.983746 0.743627 0.704219
O O9 0.292328 0.500000 0.513317
O O10 0.250000 0.750000 0.500000
O O11 0.341031 0.739134 0.453202
O O12 0.306639 0.717119 0.650363
O O13 0.380763 0.500000 0.359672
O O14 0.430518 0.738281 0.383996
O O15 0.181049 0.765401 0.148113
O O16 0.147398 0.000000 0.260459
O O17 0.500000 0.723758 0.500000
O O18 0.486187 0.500000 0.367600
O O19 0.296823 0.500000 0.970566
O O20 0.250000 0.750000 0.000000
O O21 0.952925 0.000000 0.930766
O O22 0.000000 0.766455 0.000000
#
# Coordination Sequence:
#
# PCOD8093178 Si02
#       8
#     8   8   8   8   8   8   8   8
#     4   9  17  32  54  82 112 143 183 237 283 327
#     4  12  24  36  56  88 124 155 187 242 306 352
#     4  10  22  39  62  88 115 149 189 240 291 343
#     4   9  18  34  57  86 113 143 192 240 283 337
#     4  10  21  41  62  82 114 156 203 240 278 351
#     4  10  20  37  62  86 111 153 204 245 284 345
#     4  10  21  36  57  82 111 147 190 240 291 342
#     4  10  19  35  60  84 111 154 201 238 281 346
#
# _framework density 19.847973
#
# number of rings (size 3 to 8) (size 9 to 14) (size 15 to 20)
#    0.000    2.000    1.250    2.625    1.750    5.500 
#    0.000    0.625    0.000    1.500    0.000    0.000 
#    0.000    0.000    0.000    0.000    0.000    0.000 
#
# Total GULP energy -396819.286959 kJ/mol
# GULP energy per Si atom -12400.602717 kJ/mol
# Density = 1.980280 g / cm^3
# Si number density = 19.847973 Si / 1000 Ang^3
#
#
#
# Elastic Constant Matrix: (Units=GPa)
#
#
# Indices 1 2 3 4 5 6 
#
# 1 168.2809 28.9499 70.8820 0.0000 9.5133 0.0000
# 2 28.9499 34.8164 25.6913 0.0000 2.2971 0.0000
# 3 70.8820 25.6913 147.6155 0.0000 10.9037 0.0000
# 4 0.0000 0.0000 0.0000 14.2983 0.0000 0.5087
# 5 9.5133 2.2971 10.9037 0.0000 37.0860 0.0000
# 6 0.0000 0.0000 0.0000 0.5087 0.0000 27.9710
#
#
#
# Elastic Compliance Matrix: (Units=1/GPa)
#
#
# Indices 1 2 3 4 5 6 
#
# 1 0.008020 -0.004379 -0.003022 0.000000 -0.000897 0.000000
# 2 -0.004379 0.035350 -0.004059 0.000000 0.000127 0.000000
# 3 -0.003022 -0.004059 0.009053 0.000000 -0.001635 0.000000
# 4 0.000000 0.000000 0.000000 0.069984 0.000000 -0.001273
# 5 -0.000897 0.000127 -0.001635 0.000000 0.027667 0.000000
# 6 0.000000 0.000000 0.000000 -0.001273 0.000000 0.035774
#
#
# Mechanical properties :
#
#
# Convention : Reuss Voigt Hill
#
# Bulk Modulus (GPa) = 33.89642 66.86215 50.37928
# Shear Modulus (GPa) = 22.87253 30.88369 26.87811
#
# Velocity S-wave (km/s) = 3.39836 3.94891 3.68394
# Velocity P-wave (km/s) = 5.70207 7.38594 6.59794
#
# Compressibility (1/GPa) = 0.02950164
#
# Stress axis : x y z
#
# Youngs Moduli (GPa) = 124.69502 28.28853 110.46172
#
# Poissons Ratio (x) = 0.12387 0.33387
# Poissons Ratio (y) = 0.54601 0.44838
# Poissons Ratio (z) = 0.37689 0.11483
#
# Static dielectric constant tensor:
#      x y z
#    x 3.781820 0.000000 0.082900 
#    y 0.000000 3.164000 0.000000 
#    z 0.082900 0.000000 3.900740 
# 
# 
# High freq. dielectric constant tensor:
#      x y z
#    x 1.787310 0.000000 0.003760 
#    y 0.000000 1.725220 0.000000 
#    z 0.003760 0.000000 1.789210 
# 
# From -- ./inp_files/187490.got.cif
#   From: 2010.06.25/outbox.cif.g09.slc.cpg/sg12_94_cif.got.tgz:187490.got - 2010.06.28 00:19:55.
