data_PCOD8093798
_publ_section_title
;
Structure prediction by ZEFSAII (Michael W. Deem and Ramdas Pophale) SiO2 
 PCOD8093798
Probable space group: C 2/M
;
_chemical_formula_sum "Si O2"
_cell_formula_units_Z 56
_cell_length_a 8.798180
_cell_length_b 16.751357
_cell_length_c 24.144547
_cell_angle_alpha 90.000000
_cell_angle_beta 127.931003
_cell_angle_gamma 90.000000
_cell_volume 2806.739711
_symmetry_space_group_name_H-M "C 2/M"
_symmetry_group_IT_number 12
_symmetry_cell_setting 'monoclinic'
loop_
_space_group_symop_operation_xyz
x,y,z
-x,y,-z
-x,-y,-z
x,-y,z
1/2+x,1/2+y,z
1/2-x,1/2+y,-z
1/2-x,1/2-y,-z
1/2+x,1/2-y,z
loop_
_atom_site_type_symbol
_atom_site_label
_atom_site_fract_x
_atom_site_fract_y
_atom_site_fract_z
Si Si1 0.795458 0.713995 0.950990
Si Si2 0.898347 0.909775 0.639959
Si Si3 0.625531 0.312047 0.138902
Si Si4 0.061833 0.358535 0.637698
Si Si5 0.960035 0.588397 0.246745
Si Si6 0.318648 0.592842 0.497677
Si Si7 0.775204 0.794662 0.269580
O O1 0.597260 0.666188 0.893884
O O2 0.839908 0.783494 0.916267
O O3 0.750000 0.750000 0.000000
O O4 0.000000 0.663627 0.000000
O O5 0.695828 0.905226 0.625074
O O6 0.874497 0.880212 0.571753
O O7 0.051622 0.854521 0.706053
O O8 0.976875 0.000000 0.658295
O O9 0.747246 0.392247 0.175645
O O10 0.700982 0.241567 0.195619
O O11 0.043355 0.412469 0.687962
O O12 0.150106 0.272085 0.671094
O O13 0.853539 0.351024 0.562489
O O14 0.019898 0.500000 0.239421
O O15 0.104536 0.656704 0.259791
O O16 0.500000 0.609429 0.500000
O O17 0.255292 0.500000 0.481851
#
# Coordination Sequence:
#
# PCOD8093798 Si02
#       7
#     8   8   8   8   8   8   8
#     4   9  18  34  62  94 119 153 196 236 277 336
#     4  11  23  38  58  84 113 152 197 245 298 353
#     4  10  19  36  59  93 119 153 198 242 281 337
#     4  11  22  38  59  85 112 149 199 253 295 337
#     4  11  22  37  59  86 121 160 194 236 296 354
#     4  10  21  38  59  81 114 155 197 243 301 367
#     4  11  23  38  58  84 122 152 194 246 289 347
#
# _framework density 19.951975000000001
#
# number of rings (size 3 to 8) (size 9 to 14) (size 15 to 20)
#    0.000    1.571    1.429    4.714    2.000    2.857 
#    0.000    1.429    0.000    4.286    0.000    0.000 
#    0.000    0.000    0.000    0.000    0.000    0.000 
#
# Total GULP energy -347098.184747 kJ/mol
# GULP energy per Si atom -12396.363741 kJ/mol
# Density = 1.990656 g / cm^3
# Si number density = 19.951975 Si / 1000 Ang^3
#
#
#
# Elastic Constant Matrix: (Units=GPa)
#
#
# Indices 1 2 3 4 5 6 
#
# 1 125.8071 26.3342 52.5515 0.0000 10.2331 0.0000
# 2 26.3342 91.2624 38.6911 0.0000 10.5877 0.0000
# 3 52.5515 38.6911 103.1703 0.0000 7.6475 0.0000
# 4 0.0000 0.0000 0.0000 -27.7372 0.0000 -36.9549
# 5 10.2331 10.5877 7.6475 0.0000 52.0566 0.0000
# 6 0.0000 0.0000 0.0000 -36.9549 0.0000 -13.3381
#
#
#
# Elastic Compliance Matrix: (Units=1/GPa)
#
#
# Indices 1 2 3 4 5 6 
#
# 1 0.010222 -0.000767 -0.004834 0.000000 -0.001143 0.000000
# 2 -0.000767 0.013286 -0.004451 0.000000 -0.001897 0.000000
# 3 -0.004834 -0.004451 0.013837 0.000000 -0.000177 0.000000
# 4 0.000000 0.000000 0.000000 0.013396 0.000000 -0.037114
# 5 -0.001143 -0.001897 -0.000177 0.000000 0.019847 0.000000
# 6 0.000000 0.000000 0.000000 -0.037114 0.000000 0.027857
#
#
# Mechanical properties :
#
#
# Convention : Reuss Voigt Hill
#
# Bulk Modulus (GPa) = 58.00441 61.71036 59.85739
# Shear Modulus (GPa) = 40.22676 15.70713 27.96694
#
# Velocity S-wave (km/s) = 4.49506 2.80884 3.74801
# Velocity P-wave (km/s) = 7.48838 6.44329 6.98541
#
# Compressibility (1/GPa) = 0.01724007
#
# Stress axis : x y z
#
# Youngs Moduli (GPa) = 97.83282 75.26710 72.26841
#
# Poissons Ratio (x) = 0.05777 0.34934
# Poissons Ratio (y) = 0.07509 0.32166
# Poissons Ratio (z) = 0.47292 0.33501
#
# Static dielectric constant tensor:
#      x y z
#    x 4.020730 0.000000 0.299170 
#    y 0.000000 3.312010 0.000000 
#    z 0.299170 0.000000 3.902600 
# 
# 
# High freq. dielectric constant tensor:
#      x y z
#    x 1.802120 0.000000 0.006950 
#    y 0.000000 1.741930 0.000000 
#    z 0.006950 0.000000 1.786680 
# 
# From -- ./inp_files/333002.got.cif
#   From: 2010.06.25/outbox.cif.g09.slc.cpg/sg12_167_cif.got.tgz:333002.got - 2010.06.28 00:19:55.
