data_PCOD8093163
_publ_section_title
;
Structure prediction by ZEFSAII (Michael W. Deem and Ramdas Pophale) SiO2 
 PCOD8093163
Probable space group: C 2/M
;
_chemical_formula_sum "Si O2"
_cell_formula_units_Z 64
_cell_length_a 23.651154
_cell_length_b 14.362360
_cell_length_c 9.129327
_cell_angle_alpha 90.000000
_cell_angle_beta 90.238228
_cell_angle_gamma 90.000000
_cell_volume 3101.081309
_symmetry_space_group_name_H-M "C 2/M"
_symmetry_group_IT_number 12
_symmetry_cell_setting 'monoclinic'
loop_
_space_group_symop_operation_xyz
x,y,z
-x,y,-z
-x,-y,-z
x,-y,z
1/2+x,1/2+y,z
1/2-x,1/2+y,-z
1/2-x,1/2-y,-z
1/2+x,1/2-y,z
loop_
_atom_site_type_symbol
_atom_site_label
_atom_site_fract_x
_atom_site_fract_y
_atom_site_fract_z
Si Si1 0.187004 0.732079 0.458009
Si Si2 0.673813 0.600653 0.253218
Si Si3 0.065191 0.294113 0.995547
Si Si4 0.660359 0.891060 0.186077
Si Si5 0.868308 0.771475 0.256599
Si Si6 0.466690 0.392572 0.361654
Si Si7 0.943819 0.900427 0.877933
Si Si8 0.782035 0.890500 0.060462
O O1 0.250000 0.750000 0.500000
O O2 0.172386 0.829995 0.386252
O O3 0.173514 0.647558 0.347952
O O4 0.156424 0.710321 0.610989
O O5 0.700626 0.500000 0.297018
O O6 0.608122 0.586488 0.228080
O O7 0.705054 0.639274 0.107245
O O8 0.096070 0.304349 0.838909
O O9 0.103882 0.342677 0.119774
O O10 0.065769 0.181918 0.008112
O O11 0.000000 0.332564 0.000000
O O12 0.715452 0.872204 0.086207
O O13 0.647444 0.000000 0.198609
O O14 0.906558 0.846429 0.338645
O O15 0.819338 0.825573 0.166420
O O16 0.500000 0.347586 0.500000
O O17 0.455886 0.500000 0.394131
O O18 0.501828 0.373849 0.215423
O O19 0.952293 0.000000 0.962123
O O20 0.797454 0.000000 0.084599
#
# Coordination Sequence:
#
# PCOD8093163 Si02
#       8
#     8   8   8   8   8   8   8   8
#     4  12  25  40  64  96 133 173 208 258 326 394
#     4  10  21  38  63  93 132 171 211 253 310 391
#     4  12  25  43  69  98 125 171 225 277 325 380
#     4  11  26  49  69  89 127 171 223 280 332 380
#     4  12  23  36  64  97 133 164 211 267 321 399
#     4  10  21  34  53  88 138 181 207 242 308 392
#     4  10  19  35  59  91 132 172 202 246 311 380
#     4  10  21  39  65  95 126 171 215 262 323 384
#
# _framework density 20.637964
#
# number of rings (size 3 to 8) (size 9 to 14) (size 15 to 20)
#    0.000    1.125    5.000    1.125    1.750    4.500 
#    0.000    0.625    0.000    0.750    0.000    0.000 
#    0.000    0.000    0.000    0.000    0.000    0.000 
#
# Total GULP energy -396543.944127 kJ/mol
# GULP energy per Si atom -12391.998254 kJ/mol
# Density = 2.059099 g / cm^3
# Si number density = 20.637964 Si / 1000 Ang^3
#
#
#
# Elastic Constant Matrix: (Units=GPa)
#
#
# Indices 1 2 3 4 5 6 
#
# 1 132.6894 28.8790 40.9822 0.0000 5.7970 0.0000
# 2 28.8790 70.1237 34.7587 0.0000 2.1349 0.0000
# 3 40.9822 34.7587 91.7895 0.0000 -1.4589 0.0000
# 4 0.0000 0.0000 0.0000 3.7955 0.0000 -16.3776
# 5 5.7970 2.1349 -1.4589 0.0000 34.9681 0.0000
# 6 0.0000 0.0000 0.0000 -16.3776 0.0000 9.8448
#
#
#
# Elastic Compliance Matrix: (Units=1/GPa)
#
#
# Indices 1 2 3 4 5 6 
#
# 1 0.009067 -0.002055 -0.003294 0.000000 -0.001515 0.000000
# 2 -0.002055 0.018086 -0.005947 0.000000 -0.001012 0.000000
# 3 -0.003294 -0.005947 0.014641 0.000000 0.001520 0.000000
# 4 0.000000 0.000000 0.000000 -0.042644 0.000000 -0.070942
# 5 -0.001515 -0.001012 0.001520 0.000000 0.028974 0.000000
# 6 0.000000 0.000000 0.000000 -0.070942 0.000000 -0.016441
#
#
# Mechanical properties :
#
#
# Convention : Reuss Voigt Hill
#
# Bulk Modulus (GPa) = 52.07958 55.98248 54.03103
# Shear Modulus (GPa) = 122.91933 22.38720 72.65326
#
# Velocity S-wave (km/s) = 7.72587 3.29714 5.93971
# Velocity P-wave (km/s) = 10.24086 6.45598 8.56022
#
# Compressibility (1/GPa) = 0.01920138
#
# Stress axis : x y z
#
# Youngs Moduli (GPa) = 110.28604 55.29287 68.29920
#
# Poissons Ratio (x) = 0.11364 0.22499
# Poissons Ratio (y) = 0.22666 0.40618
# Poissons Ratio (z) = 0.36330 0.32883
#
# Static dielectric constant tensor:
#      x y z
#    x 3.999650 0.000000 -0.045640 
#    y 0.000000 3.416740 0.000000 
#    z -0.045640 0.000000 3.688570 
# 
# 
# High freq. dielectric constant tensor:
#      x y z
#    x 1.824430 0.000000 0.000690 
#    y 0.000000 1.780400 0.000000 
#    z 0.000690 0.000000 1.811880 
# 
# From -- ./inp_files/96903.got.cif
#   From: 2010.06.25/outbox.cif.g09.slc.cpg/sg12_49_cif.got.tgz:96903.got - 2010.06.28 00:19:55.
