data_PCOD8093110
_publ_section_title
;
Structure prediction by ZEFSAII (Michael W. Deem and Ramdas Pophale) SiO2 
 PCOD8093110
Probable space group: C 2/M
;
_chemical_formula_sum "Si O2"
_cell_formula_units_Z 64
_cell_length_a 30.531952
_cell_length_b 9.226406
_cell_length_c 11.824821
_cell_angle_alpha 90.000000
_cell_angle_beta 90.073192
_cell_angle_gamma 90.000000
_cell_volume 3331.051547
_symmetry_space_group_name_H-M "C 2/M"
_symmetry_group_IT_number 12
_symmetry_cell_setting 'monoclinic'
loop_
_space_group_symop_operation_xyz
x,y,z
-x,y,-z
-x,-y,-z
x,-y,z
1/2+x,1/2+y,z
1/2-x,1/2+y,-z
1/2-x,1/2-y,-z
1/2+x,1/2-y,z
loop_
_atom_site_type_symbol
_atom_site_label
_atom_site_fract_x
_atom_site_fract_y
_atom_site_fract_z
Si Si1 0.332026 0.169281 0.736701
Si Si2 0.417866 0.668820 0.736314
Si Si3 0.324930 0.835014 0.254723
Si Si4 0.003486 0.168603 0.868074
Si Si5 0.075802 0.667914 0.731785
Si Si6 0.294998 0.832726 0.501474
Si Si7 0.050514 0.168409 0.511286
Si Si8 0.252579 0.328688 0.118675
O O1 0.374918 0.250574 0.782373
O O2 0.323746 0.219947 0.607791
O O3 0.290448 0.214633 0.811360
O O4 0.341347 0.000000 0.745858
O O5 0.410732 0.500000 0.757048
O O6 0.459385 0.724297 0.807854
O O7 0.425279 0.705403 0.605142
O O8 0.375213 0.812130 0.219884
O O9 0.321734 0.801336 0.388016
O O10 0.295397 0.724455 0.184938
O O11 0.309731 0.000000 0.229427
O O12 0.044288 0.256733 0.821093
O O13 0.011265 0.000000 0.840576
O O14 0.000000 0.199351 0.000000
O O15 0.063378 0.500000 0.720563
O O16 0.072771 0.737887 0.608364
O O17 0.250000 0.750000 0.500000
O O18 0.283141 0.000000 0.517562
O O19 0.000000 0.212547 0.500000
O O20 0.054753 0.000000 0.543501
O O21 0.256213 0.500000 0.100909
O O22 0.250000 0.250000 0.000000
#
# Coordination Sequence:
#
# PCOD8093110 Si02
#       8
#     8   8   8   8   8   8   8   8
#     4  10  22  39  59  87 121 153 187 237 296 349
#     4  10  21  37  60  89 117 152 195 239 290 347
#     4  10  22  39  60  88 123 156 190 240 294 348
#     4  10  22  42  63  83 114 155 201 249 293 344
#     4  11  23  38  60  90 122 155 194 241 296 353
#     4  10  19  35  59  86 119 152 188 235 287 347
#     4  10  19  36  60  86 122 157 191 240 291 348
#     4  11  24  42  63  86 116 156 201 246 293 346
#
# _framework density 19.213152000000001
#
# number of rings (size 3 to 8) (size 9 to 14) (size 15 to 20)
#    0.000    1.750    2.500    1.500    0.000    6.000 
#    0.000    2.500    0.000    0.000    0.000    0.000 
#    0.000    0.000    0.000    0.000    0.000    0.000 
#
# Total GULP energy -396938.634144 kJ/mol
# GULP energy per Si atom -12404.332317 kJ/mol
# Density = 1.916942 g / cm^3
# Si number density = 19.213152 Si / 1000 Ang^3
#
#
#
# Elastic Constant Matrix: (Units=GPa)
#
#
# Indices 1 2 3 4 5 6 
#
# 1 141.5658 62.5061 56.2398 0.0000 -4.1040 0.0000
# 2 62.5061 76.8165 53.9355 0.0000 -2.7832 0.0000
# 3 56.2398 53.9355 114.8868 0.0000 -3.5033 0.0000
# 4 0.0000 0.0000 0.0000 28.1342 0.0000 -0.4931
# 5 -4.1040 -2.7832 -3.5033 0.0000 7.6297 0.0000
# 6 0.0000 0.0000 0.0000 -0.4931 0.0000 37.0537
#
#
#
# Elastic Compliance Matrix: (Units=1/GPa)
#
#
# Indices 1 2 3 4 5 6 
#
# 1 0.011314 -0.007879 -0.001766 0.000000 0.002400 0.000000
# 2 -0.007879 0.024972 -0.007827 0.000000 0.001277 0.000000
# 3 -0.001766 -0.007827 0.013314 0.000000 0.002308 0.000000
# 4 0.000000 0.000000 0.000000 0.035552 0.000000 0.000473
# 5 0.002400 0.001277 0.002308 0.000000 0.133884 0.000000
# 6 0.000000 0.000000 0.000000 0.000473 0.000000 0.026994
#
#
# Mechanical properties :
#
#
# Convention : Reuss Voigt Hill
#
# Bulk Modulus (GPa) = 68.24116 75.40354 71.82235
# Shear Modulus (GPa) = 17.49107 25.26935 21.38021
#
# Velocity S-wave (km/s) = 3.02051 3.63052 3.33947
# Velocity P-wave (km/s) = 6.91084 7.54355 7.23412
#
# Compressibility (1/GPa) = 0.01465391
#
# Stress axis : x y z
#
# Youngs Moduli (GPa) = 88.38553 40.04564 75.10951
#
# Poissons Ratio (x) = 0.31553 0.13266
# Poissons Ratio (y) = 0.69641 0.58790
# Poissons Ratio (z) = 0.15611 0.31345
#
# Static dielectric constant tensor:
#      x y z
#    x 3.156710 0.000000 0.004120 
#    y 0.000000 3.366170 0.000000 
#    z 0.004120 0.000000 3.560780 
# 
# 
# High freq. dielectric constant tensor:
#      x y z
#    x 1.757340 0.000000 -0.001310 
#    y 0.000000 1.743770 0.000000 
#    z -0.001310 0.000000 1.749080 
# 
# From -- ./inp_files/187441.got.cif
#   From: 2010.06.25/outbox.cif.g09.slc.cpg/sg12_94_cif.got.tgz:187441.got - 2010.06.28 00:19:55.
