data_PCOD8093722
_publ_section_title
;
Structure prediction by ZEFSAII (Michael W. Deem and Ramdas Pophale) SiO2 
 PCOD8093722
Probable space group: C 2/M
;
_chemical_formula_sum "Si O2"
_cell_formula_units_Z 48
_cell_length_a 23.268399
_cell_length_b 8.751882
_cell_length_c 12.608584
_cell_angle_alpha 90.000000
_cell_angle_beta 90.975831
_cell_angle_gamma 90.000000
_cell_volume 2567.268434
_symmetry_space_group_name_H-M "C 2/M"
_symmetry_group_IT_number 12
_symmetry_cell_setting 'monoclinic'
loop_
_space_group_symop_operation_xyz
x,y,z
-x,y,-z
-x,-y,-z
x,-y,z
1/2+x,1/2+y,z
1/2-x,1/2+y,-z
1/2-x,1/2-y,-z
1/2+x,1/2-y,z
loop_
_atom_site_type_symbol
_atom_site_label
_atom_site_fract_x
_atom_site_fract_y
_atom_site_fract_z
Si Si1 0.619498 0.180799 0.788916
Si Si2 0.875690 0.321516 0.831210
Si Si3 0.688387 0.319928 0.977791
Si Si4 0.997910 0.321153 0.117923
Si Si5 0.808311 0.321555 0.620599
Si Si6 0.676350 0.322228 0.597358
O O1 0.666411 0.258951 0.865022
O O2 0.556073 0.243881 0.817650
O O3 0.632425 0.228779 0.669031
O O4 0.624134 0.000000 0.801157
O O5 0.864728 0.500000 0.854061
O O6 0.841899 0.267295 0.726122
O O7 0.943245 0.286273 0.817182
O O8 0.855077 0.226637 0.931175
O O9 0.694130 0.500000 0.971476
O O10 0.750000 0.250000 0.000000
O O11 0.988132 0.500000 0.104267
O O12 0.000000 0.247325 0.000000
O O13 0.817446 0.500000 0.598162
O O14 0.741396 0.282164 0.634006
O O15 0.834494 0.227831 0.523730
O O16 0.663218 0.500000 0.608915
#
# Coordination Sequence:
#
# PCOD8093722 Si02
#       6
#     8   8   8   8   8   8
#     4  11  21  36  58  82 111 147 188 230 275 331
#     4  10  19  36  59  82 110 144 187 234 276 327
#     4  12  24  36  53  81 114 146 182 226 281 336
#     4   9  17  33  57  82 109 146 188 227 275 328
#     4   9  19  35  57  81 106 142 185 228 279 335
#     4  10  20  35  55  81 113 145 182 231 283 336
#
# _framework density 18.696915000000001
#
# number of rings (size 3 to 8) (size 9 to 14) (size 15 to 20)
#    0.000    1.833    1.667    3.500    0.000    2.667 
#    0.000    3.333    0.000    5.000    0.000    0.000 
#    0.000    0.000    0.000    0.000    0.000    0.000 
#
# Total GULP energy -297675.225935 kJ/mol
# GULP energy per Si atom -12403.134414 kJ/mol
# Density = 1.865436 g / cm^3
# Si number density = 18.696915 Si / 1000 Ang^3
#
#
#
# Elastic Constant Matrix: (Units=GPa)
#
#
# Indices 1 2 3 4 5 6 
#
# 1 74.4778 22.2668 25.6502 0.0000 -21.0743 0.0000
# 2 22.2668 73.4369 25.2001 0.0000 -10.6257 0.0000
# 3 25.6502 25.2001 91.4877 0.0000 -13.4820 0.0000
# 4 0.0000 0.0000 0.0000 32.7633 0.0000 -0.9250
# 5 -21.0743 -10.6257 -13.4820 0.0000 32.8479 0.0000
# 6 0.0000 0.0000 0.0000 -0.9250 0.0000 17.8339
#
#
#
# Elastic Compliance Matrix: (Units=1/GPa)
#
#
# Indices 1 2 3 4 5 6 
#
# 1 0.017979 -0.003136 -0.002796 0.000000 0.009373 0.000000
# 2 -0.003136 0.015944 -0.003245 0.000000 0.001814 0.000000
# 3 -0.002796 -0.003245 0.012974 0.000000 0.002481 0.000000
# 4 0.000000 0.000000 0.000000 0.030567 0.000000 0.001585
# 5 0.009373 0.001814 0.002481 0.000000 0.038062 0.000000
# 6 0.000000 0.000000 0.000000 0.001585 0.000000 0.056155
#
#
# Mechanical properties :
#
#
# Convention : Reuss Voigt Hill
#
# Bulk Modulus (GPa) = 35.03442 42.84849 38.94146
# Shear Modulus (GPa) = 25.05642 27.77474 26.41558
#
# Velocity S-wave (km/s) = 3.66476 3.85843 3.76284
# Velocity P-wave (km/s) = 6.05690 6.54348 6.30489
#
# Compressibility (1/GPa) = 0.02854335
#
# Stress axis : x y z
#
# Youngs Moduli (GPa) = 55.61894 62.71947 77.07803
#
# Poissons Ratio (x) = 0.19668 0.21550
# Poissons Ratio (y) = 0.17442 0.25014
# Poissons Ratio (z) = 0.15550 0.20354
#
# Static dielectric constant tensor:
#      x y z
#    x 3.577480 0.000000 -0.053410 
#    y 0.000000 3.327790 0.000000 
#    z -0.053410 0.000000 3.432560 
# 
# 
# High freq. dielectric constant tensor:
#      x y z
#    x 1.726770 0.000000 -0.004210 
#    y 0.000000 1.712100 0.000000 
#    z -0.004210 0.000000 1.726790 
# 
# From -- ./inp_files/172302.got.cif
#   From: 2010.06.25/outbox.cif.g09.slc.cpg/sg12_87_cif.got.tgz:172302.got - 2010.06.28 00:19:55.
