data_PCOD8093494
_publ_section_title
;
Structure prediction by ZEFSAII (Michael W. Deem and Ramdas Pophale) SiO2 
 PCOD8093494
Probable space group: C 2/M
;
_chemical_formula_sum "Si O2"
_cell_formula_units_Z 64
_cell_length_a 22.122305
_cell_length_b 8.969489
_cell_length_c 24.159838
_cell_angle_alpha 90.000000
_cell_angle_beta 46.567500
_cell_angle_gamma 90.000000
_cell_volume 3481.282437
_symmetry_space_group_name_H-M "C 2/M"
_symmetry_group_IT_number 12
_symmetry_cell_setting 'monoclinic'
loop_
_space_group_symop_operation_xyz
x,y,z
-x,y,-z
-x,-y,-z
x,-y,z
1/2+x,1/2+y,z
1/2-x,1/2+y,-z
1/2-x,1/2-y,-z
1/2+x,1/2-y,z
loop_
_atom_site_type_symbol
_atom_site_label
_atom_site_fract_x
_atom_site_fract_y
_atom_site_fract_z
Si Si1 0.839475 0.824712 0.454111
Si Si2 0.100214 0.670365 0.289767
Si Si3 0.013500 0.672614 0.142899
Si Si4 0.319345 0.323509 0.992093
Si Si5 0.727313 0.669014 0.859571
Si Si6 0.455375 0.168307 0.298987
Si Si7 0.443896 0.330994 0.087249
Si Si8 0.518164 0.323496 0.551419
O O1 0.750000 0.750000 0.500000
O O2 0.893456 0.784477 0.366379
O O3 0.892715 0.772067 0.476051
O O4 0.824776 0.000000 0.466221
O O5 0.108691 0.500000 0.305196
O O6 0.189997 0.744317 0.218460
O O7 0.058714 0.763209 0.364879
O O8 0.046719 0.680178 0.267661
O O9 0.039560 0.500000 0.125305
O O10 0.963038 0.711543 0.230089
O O11 0.954429 0.712784 0.129206
O O12 0.093557 0.775366 0.087888
O O13 0.313815 0.500000 0.993779
O O14 0.305870 0.259045 0.062552
O O15 0.250000 0.250000 0.000000
O O16 0.753435 0.500000 0.856621
O O17 0.653650 0.677323 0.862284
O O18 0.420283 0.000000 0.328492
O O19 0.470428 0.500000 0.087379
O O20 0.500000 0.281252 0.000000
O O21 0.500000 0.266126 0.500000
O O22 0.515555 0.500000 0.554721
#
# Coordination Sequence:
#
# PCOD8093494 Si02
#       8
#     8   8   8   8   8   8   8   8
#     4  10  20  36  60  86 113 146 184 224 273 334
#     4   9  17  33  57  80 103 137 179 222 263 315
#     4  11  22  36  54  79 108 141 182 229 277 323
#     4  11  21  35  54  78 106 140 179 223 273 327
#     4   9  18  34  54  74 104 142 179 218 271 324
#     4   9  19  36  56  78 110 145 179 223 276 322
#     4  10  19  36  56  73 102 149 189 222 270 327
#     4   9  19  37  58  81 112 146 175 214 273 332
#
# _framework density 18.384031
#
# number of rings (size 3 to 8) (size 9 to 14) (size 15 to 20)
#    0.000    2.250    1.250    1.875    0.000    4.000 
#    2.250    4.375    0.000    0.000    0.000    0.000 
#    0.000    0.000    0.000    0.000    0.000    0.000 
#
# Total GULP energy -396629.980324 kJ/mol
# GULP energy per Si atom -12394.686885 kJ/mol
# Density = 1.834219 g / cm^3
# Si number density = 18.384031 Si / 1000 Ang^3
#
#
#
# Elastic Constant Matrix: (Units=GPa)
#
#
# Indices 1 2 3 4 5 6 
#
# 1 114.4601 38.5002 63.5740 -0.0004 1.6699 0.0011
# 2 38.5002 44.5040 37.0467 -0.0006 2.3189 0.0019
# 3 63.5740 37.0467 104.4521 -0.0003 1.4588 0.0006
# 4 -0.0004 -0.0006 -0.0003 29.2344 0.0002 0.4078
# 5 1.6699 2.3189 1.4588 0.0002 38.7120 -0.0003
# 6 0.0011 0.0019 0.0006 0.4078 -0.0003 29.2653
#
#
#
# Elastic Compliance Matrix: (Units=1/GPa)
#
#
# Indices 1 2 3 4 5 6 
#
# 1 0.014781 -0.007521 -0.006330 0.000000 0.000051 0.000000
# 2 -0.007521 0.035795 -0.008097 0.000001 -0.001515 -0.000002
# 3 -0.006330 -0.008097 0.016296 0.000000 0.000144 0.000000
# 4 0.000000 0.000001 0.000000 0.034213 0.000000 -0.000477
# 5 0.000051 -0.001515 0.000144 0.000000 0.025915 0.000000
# 6 0.000000 -0.000002 0.000000 -0.000477 0.000000 0.034177
#
#
# Mechanical properties :
#
#
# Convention : Reuss Voigt Hill
#
# Bulk Modulus (GPa) = 43.52101 60.18424 51.85263
# Shear Modulus (GPa) = 23.50370 27.72867 25.61618
#
# Velocity S-wave (km/s) = 3.57947 3.88790 3.73687
# Velocity P-wave (km/s) = 6.38812 7.27754 6.84729
#
# Compressibility (1/GPa) = 0.02297741
#
# Stress axis : x y z
#
# Youngs Moduli (GPa) = 67.65252 27.93657 61.36383
#
# Poissons Ratio (x) = 0.21011 0.38842
# Poissons Ratio (y) = 0.50880 0.49687
# Poissons Ratio (z) = 0.42823 0.22621
#
# Static dielectric constant tensor:
#      x y z
#    x 3.478870 0.000000 0.077610 
#    y 0.000000 3.275070 0.000000 
#    z 0.077610 0.000000 3.378210 
# 
# 
# High freq. dielectric constant tensor:
#      x y z
#    x 1.718930 0.000000 -0.002330 
#    y 0.000000 1.697510 0.000000 
#    z -0.002330 0.000000 1.710910 
# 
# From -- ./inp_files/345938.got.cif
#   From: 2010.06.25/outbox.cif.g09.slc.cpg/sg12_173_cif.got.tgz:345938.got - 2010.06.28 00:19:55.
