data_PCOD8093064
_publ_section_title
;
Structure prediction by ZEFSAII (Michael W. Deem and Ramdas Pophale) SiO2 
 PCOD8093064
Probable space group: C 2/M
;
_chemical_formula_sum "Si O2"
_cell_formula_units_Z 48
_cell_length_a 20.701708
_cell_length_b 8.648479
_cell_length_c 14.019889
_cell_angle_alpha 90.000000
_cell_angle_beta 90.639642
_cell_angle_gamma 90.000000
_cell_volume 2509.940492
_symmetry_space_group_name_H-M "C 2/M"
_symmetry_group_IT_number 12
_symmetry_cell_setting 'monoclinic'
loop_
_space_group_symop_operation_xyz
x,y,z
-x,y,-z
-x,-y,-z
x,-y,z
1/2+x,1/2+y,z
1/2-x,1/2+y,-z
1/2-x,1/2-y,-z
1/2+x,1/2-y,z
loop_
_atom_site_type_symbol
_atom_site_label
_atom_site_fract_x
_atom_site_fract_y
_atom_site_fract_z
Si Si1 0.130020 0.680037 0.792909
Si Si2 0.624017 0.183735 0.218788
Si Si3 0.498422 0.183835 0.106479
Si Si4 0.430393 0.179837 0.404842
Si Si5 0.568720 0.681785 0.396865
Si Si6 0.251894 0.818629 0.894821
O O1 0.141198 0.500000 0.816234
O O2 0.121311 0.708492 0.679867
O O3 0.189836 0.776444 0.831879
O O4 0.066320 0.743666 0.844315
O O5 0.561047 0.245635 0.162455
O O6 0.623007 0.261557 0.323245
O O7 0.685898 0.243978 0.161396
O O8 0.624827 0.000000 0.230577
O O9 0.499704 0.000000 0.105971
O O10 0.500000 0.251228 0.000000
O O11 0.407006 0.274140 0.496847
O O12 0.501196 0.233964 0.372201
O O13 0.434983 0.000000 0.430744
O O14 0.558279 0.500000 0.390345
O O15 0.256931 0.000000 0.907006
O O16 0.250000 0.750000 0.000000
#
# Coordination Sequence:
#
# PCOD8093064 Si02
#       6
#     8   8   8   8   8   8
#     4  10  20  36  59  85 113 150 192 238 286 338
#     4  10  20  38  59  81 111 154 199 231 280 348
#     4   9  16  30  55  82 106 138 188 239 277 330
#     4  10  19  35  59  84 115 156 195 230 279 354
#     4  11  21  33  55  88 121 148 183 243 298 335
#     4  11  24  40  61  84 116 157 194 238 285 345
#
# _framework density 19.123958999999999
#
# number of rings (size 3 to 8) (size 9 to 14) (size 15 to 20)
#    0.000    1.833    1.667    4.500    0.000    5.333 
#    0.000    0.833    0.000    2.000    0.000    0.000 
#    0.000    0.000    0.000    0.000    0.000    0.000 
#
# Total GULP energy -297647.148165 kJ/mol
# GULP energy per Si atom -12401.964507 kJ/mol
# Density = 1.908043 g / cm^3
# Si number density = 19.123959 Si / 1000 Ang^3
#
#
#
# Elastic Constant Matrix: (Units=GPa)
#
#
# Indices 1 2 3 4 5 6 
#
# 1 130.5495 25.0586 67.2946 0.0000 -10.1451 0.0000
# 2 25.0586 48.6023 26.8831 0.0000 -4.3902 0.0000
# 3 67.2946 26.8831 139.2136 0.0000 -13.4257 0.0000
# 4 0.0000 0.0000 0.0000 26.7288 0.0000 1.5456
# 5 -10.1451 -4.3902 -13.4257 0.0000 35.9374 0.0000
# 6 0.0000 0.0000 0.0000 1.5456 0.0000 26.6689
#
#
#
# Elastic Compliance Matrix: (Units=1/GPa)
#
#
# Indices 1 2 3 4 5 6 
#
# 1 0.010596 -0.002904 -0.004468 0.000000 0.000967 0.000000
# 2 -0.002904 0.023881 -0.003118 0.000000 0.000933 0.000000
# 3 -0.004468 -0.003118 0.010152 0.000000 0.002151 0.000000
# 4 0.000000 0.000000 0.000000 0.037539 0.000000 -0.002176
# 5 0.000967 0.000933 0.002151 0.000000 0.029017 0.000000
# 6 0.000000 0.000000 0.000000 -0.002176 0.000000 0.037623
#
#
# Mechanical properties :
#
#
# Convention : Reuss Voigt Hill
#
# Bulk Modulus (GPa) = 42.28389 61.87088 52.07739
# Shear Modulus (GPa) = 28.14205 31.14230 29.64218
#
# Velocity S-wave (km/s) = 3.84025 4.03978 3.94128
# Velocity P-wave (km/s) = 6.46698 7.36088 6.92836
#
# Compressibility (1/GPa) = 0.02364967
#
# Stress axis : x y z
#
# Youngs Moduli (GPa) = 94.37947 41.87366 98.49990
#
# Poissons Ratio (x) = 0.12162 0.44006
# Poissons Ratio (y) = 0.27411 0.30710
# Poissons Ratio (z) = 0.42165 0.13055
#
# Static dielectric constant tensor:
#      x y z
#    x 3.459510 0.000000 -0.076850 
#    y 0.000000 3.254840 0.000000 
#    z -0.076850 0.000000 3.741320 
# 
# 
# High freq. dielectric constant tensor:
#      x y z
#    x 1.727010 0.000000 -0.002620 
#    y 0.000000 1.727240 0.000000 
#    z -0.002620 0.000000 1.763090 
# 
# From -- ./inp_files/229308.got.cif
#   From: 2010.06.25/outbox.cif.g09.slc.cpg/sg12_115_cif.got.tgz:229308.got - 2010.06.28 00:19:55.
