data_PCOD8093690
_publ_section_title
;
Structure prediction by ZEFSAII (Michael W. Deem and Ramdas Pophale) SiO2 
 PCOD8093690
Probable space group: C 2/M
;
_chemical_formula_sum "Si O2"
_cell_formula_units_Z 56
_cell_length_a 14.478295
_cell_length_b 8.712775
_cell_length_c 24.681197
_cell_angle_alpha 90.000000
_cell_angle_beta 106.793324
_cell_angle_gamma 90.000000
_cell_volume 2980.659164
_symmetry_space_group_name_H-M "C 2/M"
_symmetry_group_IT_number 12
_symmetry_cell_setting 'monoclinic'
loop_
_space_group_symop_operation_xyz
x,y,z
-x,y,-z
-x,-y,-z
x,-y,z
1/2+x,1/2+y,z
1/2-x,1/2+y,-z
1/2-x,1/2-y,-z
1/2+x,1/2-y,z
loop_
_atom_site_type_symbol
_atom_site_label
_atom_site_fract_x
_atom_site_fract_y
_atom_site_fract_z
Si Si1 0.640334 0.180680 0.265974
Si Si2 0.359127 0.676679 0.067847
Si Si3 0.434932 0.322218 0.854788
Si Si4 0.971963 0.680585 0.649434
Si Si5 0.319904 0.182635 0.351342
Si Si6 0.664540 0.320683 0.055765
Si Si7 0.776958 0.681676 0.561847
O O1 0.603423 0.220770 0.200500
O O2 0.560140 0.236772 0.296017
O O3 0.741714 0.264718 0.293776
O O4 0.658340 0.000000 0.274774
O O5 0.325353 0.500000 0.059204
O O6 0.450514 0.696909 0.121696
O O7 0.276127 0.777293 0.080781
O O8 0.378131 0.736066 0.009324
O O9 0.406207 0.500000 0.840867
O O10 0.391837 0.249985 0.902768
O O11 0.983171 0.500000 0.651799
O O12 0.887379 0.730090 0.593527
O O13 0.075359 0.749602 0.649299
O O14 0.295710 0.251290 0.405858
O O15 0.320511 0.000000 0.355468
O O16 0.649376 0.500000 0.057703
O O17 0.765247 0.500000 0.559505
O O18 0.750000 0.750000 0.500000
#
# Coordination Sequence:
#
# PCOD8093690 Si02
#       7
#     8   8   8   8   8   8   8
#     4  10  21  37  53  75 105 135 170 216 261 305
#     4   9  18  33  52  74 100 130 168 212 255 305
#     4  10  20  34  52  74 100 134 172 209 255 311
#     4   8  18  36  56  74 101 140 175 207 254 308
#     4  10  19  36  59  79 101 138 179 214 256 306
#     4   9  18  33  52  73 100 133 167 207 259 314
#     4  10  20  36  55  82 115 144 175 214 255 299
#
# _framework density 18.787790999999999
#
# number of rings (size 3 to 8) (size 9 to 14) (size 15 to 20)
#    0.000    2.571    0.000    2.571    0.000    4.571 
#    0.000   15.714    0.000    4.286    0.000    0.000 
#    0.000    0.000    0.000    0.000    0.000    0.000 
#
# Total GULP energy -347128.975312 kJ/mol
# GULP energy per Si atom -12397.463404 kJ/mol
# Density = 1.874503 g / cm^3
# Si number density = 18.787791 Si / 1000 Ang^3
#
#
#
# Elastic Constant Matrix: (Units=GPa)
#
#
# Indices 1 2 3 4 5 6 
#
# 1 125.7922 24.7163 49.7095 0.0000 3.3742 0.0000
# 2 24.7163 44.2430 25.3879 0.0000 -0.0026 0.0000
# 3 49.7095 25.3879 106.8961 0.0000 7.5155 0.0000
# 4 0.0000 0.0000 0.0000 31.5009 0.0000 0.4889
# 5 3.3742 -0.0026 7.5155 0.0000 17.5073 0.0000
# 6 0.0000 0.0000 0.0000 0.4889 0.0000 27.3005
#
#
#
# Elastic Compliance Matrix: (Units=1/GPa)
#
#
# Indices 1 2 3 4 5 6 
#
# 1 0.010173 -0.003450 -0.003891 0.000000 -0.000291 0.000000
# 2 -0.003450 0.027469 -0.005121 0.000000 0.002867 0.000000
# 3 -0.003891 -0.005121 0.012711 0.000000 -0.004708 0.000000
# 4 0.000000 0.000000 0.000000 0.031754 0.000000 -0.000569
# 5 -0.000291 0.002867 -0.004708 0.000000 0.059196 0.000000
# 6 0.000000 0.000000 0.000000 -0.000569 0.000000 0.036639
#
#
# Mechanical properties :
#
#
# Convention : Reuss Voigt Hill
#
# Bulk Modulus (GPa) = 39.32546 52.95096 46.13821
# Shear Modulus (GPa) = 23.65821 27.06960 25.36391
#
# Velocity S-wave (km/s) = 3.55242 3.79992 3.67825
# Velocity P-wave (km/s) = 6.14842 6.89183 6.53071
#
# Compressibility (1/GPa) = 0.02542882
#
# Stress axis : x y z
#
# Youngs Moduli (GPa) = 98.30051 36.40506 78.66993
#
# Poissons Ratio (x) = 0.12562 0.30608
# Poissons Ratio (y) = 0.33918 0.40286
# Poissons Ratio (z) = 0.38246 0.18643
#
# Static dielectric constant tensor:
#      x y z
#    x 3.671240 0.000000 -0.062220 
#    y 0.000000 3.285950 0.000000 
#    z -0.062220 0.000000 3.444630 
# 
# 
# High freq. dielectric constant tensor:
#      x y z
#    x 1.734290 0.000000 -0.000790 
#    y 0.000000 1.714340 0.000000 
#    z -0.000790 0.000000 1.731310 
# 
# From -- ./inp_files/338207.got.cif
#   From: 2010.06.25/outbox.cif.g09.slc.cpg/sg12_170_cif.got.tgz:338207.got - 2010.06.28 00:19:55.
