data_PCOD8093830
_publ_section_title
;
Structure prediction by ZEFSAII (Michael W. Deem and Ramdas Pophale) SiO2 
 PCOD8093830
Probable space group: C 2/M
;
_chemical_formula_sum "Si O2"
_cell_formula_units_Z 56
_cell_length_a 18.424062
_cell_length_b 18.247571
_cell_length_c 9.376882
_cell_angle_alpha 90.000000
_cell_angle_beta 113.697615
_cell_angle_gamma 90.000000
_cell_volume 2886.637887
_symmetry_space_group_name_H-M "C 2/M"
_symmetry_group_IT_number 12
_symmetry_cell_setting 'monoclinic'
loop_
_space_group_symop_operation_xyz
x,y,z
-x,y,-z
-x,-y,-z
x,-y,z
1/2+x,1/2+y,z
1/2-x,1/2+y,-z
1/2-x,1/2-y,-z
1/2+x,1/2-y,z
loop_
_atom_site_type_symbol
_atom_site_label
_atom_site_fract_x
_atom_site_fract_y
_atom_site_fract_z
Si Si1 0.166127 0.083231 0.732709
Si Si2 0.025905 0.324556 0.862448
Si Si3 0.020202 0.820710 0.679175
Si Si4 0.273926 0.086423 0.313084
Si Si5 0.371312 0.415257 0.619862
Si Si6 0.436286 0.085927 0.571650
Si Si7 0.685012 0.914336 0.969095
O O1 0.099493 0.132068 0.753284
O O2 0.168414 0.093525 0.565632
O O3 0.145868 0.000000 0.759278
O O4 0.252478 0.105059 0.858485
O O5 0.036797 0.252131 0.778876
O O6 0.107327 0.368226 0.936146
O O7 0.959101 0.374973 0.736750
O O8 0.000000 0.302785 0.000000
O O9 0.000000 0.801232 0.500000
O O10 0.949803 0.866878 0.695987
O O11 0.192818 0.116347 0.318450
O O12 0.351731 0.118083 0.453864
O O13 0.275782 0.109159 0.149773
O O14 0.275752 0.000000 0.334370
O O15 0.393742 0.500000 0.667104
O O16 0.500000 0.104156 0.500000
O O17 0.432679 0.000000 0.599663
O O18 0.661614 0.000000 0.948354
#
# Coordination Sequence:
#
# PCOD8093830 Si02
#       7
#     8   8   8   8   8   8   8
#     4   9  19  37  63  90 115 144 185 240 295 341
#     4  12  26  38  55  82 120 156 197 236 281 336
#     4  10  22  41  60  82 115 157 195 231 284 345
#     4   9  18  33  58  89 115 143 184 234 285 339
#     4   9  18  36  64  92 113 140 189 244 287 338
#     4  10  19  36  60  83 113 154 196 236 283 338
#     4  10  21  38  59  87 118 149 187 234 290 342
#
# _framework density 19.399732
#
# number of rings (size 3 to 8) (size 9 to 14) (size 15 to 20)
#    0.000    2.143    1.429    1.286    2.000    4.571 
#    0.000    0.714    0.000    4.286    0.000    0.000 
#    0.000    0.000    0.000    0.000    0.000    0.000 
#
# Total GULP energy -347259.949378 kJ/mol
# GULP energy per Si atom -12402.141049 kJ/mol
# Density = 1.935558 g / cm^3
# Si number density = 19.399732 Si / 1000 Ang^3
#
#
#
# Elastic Constant Matrix: (Units=GPa)
#
#
# Indices 1 2 3 4 5 6 
#
# 1 113.2010 44.9930 25.9065 0.0000 -2.0576 0.0000
# 2 44.9930 74.1224 38.8037 0.0000 6.0923 0.0000
# 3 25.9065 38.8037 67.5975 0.0000 6.7012 0.0000
# 4 0.0000 0.0000 0.0000 5.6678 0.0000 6.0412
# 5 -2.0576 6.0923 6.7012 0.0000 31.3220 0.0000
# 6 0.0000 0.0000 0.0000 6.0412 0.0000 1.0939
#
#
#
# Elastic Compliance Matrix: (Units=1/GPa)
#
#
# Indices 1 2 3 4 5 6 
#
# 1 0.011817 -0.006965 -0.000758 0.000000 0.002293 0.000000
# 2 -0.006965 0.023453 -0.010520 0.000000 -0.002769 0.000000
# 3 -0.000758 -0.010520 0.021378 0.000000 -0.002577 0.000000
# 4 0.000000 0.000000 0.000000 -0.036106 0.000000 0.199405
# 5 0.002293 -0.002769 -0.002577 0.000000 0.033167 0.000000
# 6 0.000000 0.000000 0.000000 0.199405 0.000000 -0.187082
#
#
# Mechanical properties :
#
#
# Convention : Reuss Voigt Hill
#
# Bulk Modulus (GPa) = 49.59353 52.70302 51.14828
# Shear Modulus (GPa) = -55.45385 17.29792 -19.07796
#
# Velocity S-wave (km/s) = -5.35228 2.98930 -3.13935
# Velocity P-wave (km/s) = 3.54632 6.25623 3.64445
#
# Compressibility (1/GPa) = 0.02016392
#
# Stress axis : x y z
#
# Youngs Moduli (GPa) = 84.62198 42.63760 46.77663
#
# Poissons Ratio (x) = 0.29696 0.03547
# Poissons Ratio (y) = 0.58937 0.49207
# Poissons Ratio (z) = 0.06416 0.44853
#
# Static dielectric constant tensor:
#      x y z
#    x 3.679160 0.000000 0.030010 
#    y 0.000000 3.380130 0.000000 
#    z 0.030010 0.000000 3.627300 
# 
# 
# High freq. dielectric constant tensor:
#      x y z
#    x 1.760590 0.000000 0.004650 
#    y 0.000000 1.736120 0.000000 
#    z 0.004650 0.000000 1.758010 
# 
# From -- ./inp_files/75957.got.cif
#   From: 2010.06.25/outbox.cif.g09.slc.cpg/sg12_38_cif.got.tgz:75957.got - 2010.06.28 00:19:55.
