data_PCOD8093529
_publ_section_title
;
Structure prediction by ZEFSAII (Michael W. Deem and Ramdas Pophale) SiO2 
 PCOD8093529
Probable space group: C 2/M
;
_chemical_formula_sum "Si O2"
_cell_formula_units_Z 64
_cell_length_a 11.893151
_cell_length_b 18.704299
_cell_length_c 27.000787
_cell_angle_alpha 90.000000
_cell_angle_beta 146.070690
_cell_angle_gamma 90.000000
_cell_volume 3352.594266
_symmetry_space_group_name_H-M "C 2/M"
_symmetry_group_IT_number 12
_symmetry_cell_setting 'monoclinic'
loop_
_space_group_symop_operation_xyz
x,y,z
-x,y,-z
-x,-y,-z
x,-y,z
1/2+x,1/2+y,z
1/2-x,1/2+y,-z
1/2-x,1/2-y,-z
1/2+x,1/2-y,z
loop_
_atom_site_type_symbol
_atom_site_label
_atom_site_fract_x
_atom_site_fract_y
_atom_site_fract_z
Si Si1 0.255460 0.176385 0.971318
Si Si2 0.899091 0.085083 0.413128
Si Si3 0.047209 0.415467 0.741531
Si Si4 0.410059 0.661972 0.912175
Si Si5 0.899497 0.416387 0.348557
Si Si6 0.221942 0.915376 0.455014
Si Si7 0.700526 0.179633 0.126987
Si Si8 0.454396 0.583431 0.711693
O O1 0.211179 0.183603 0.896649
O O2 0.080178 0.131355 0.935513
O O3 0.250000 0.250000 0.000000
O O4 0.480617 0.142254 0.054323
O O5 0.671964 0.113946 0.322508
O O6 0.000000 0.115437 0.500000
O O7 0.030689 0.113586 0.415682
O O8 0.895309 0.000000 0.414354
O O9 0.049422 0.500000 0.742174
O O10 0.219069 0.390448 0.842418
O O11 0.090817 0.383572 0.702793
O O12 0.326208 0.739137 0.864136
O O13 0.500000 0.667521 0.000000
O O14 0.945182 0.500000 0.361987
O O15 0.677026 0.401951 0.287665
O O16 0.071873 0.382243 0.447246
O O17 0.187696 0.893155 0.385834
O O18 0.234630 0.000000 0.463598
O O19 0.850194 0.133606 0.215552
O O20 0.520179 0.500000 0.731770
#
# Coordination Sequence:
#
# PCOD8093529 Si02
#       8
#     8   8   8   8   8   8   8   8
#     4   9  17  36  57  73  91 131 180 214 240 308
#     4   9  15  28  49  72 104 140 174 210 247 302
#     4  10  20  32  52  82 106 131 170 215 263 305
#     4  11  21  36  57  75  99 136 176 216 257 311
#     4   9  16  30  51  75 106 138 171 209 253 311
#     4   9  16  28  48  74 105 142 173 205 253 309
#     4  10  19  36  57  75  99 136 175 214 254 313
#     4  10  20  31  49  81 110 131 169 219 262 303
#
# _framework density 19.089694999999999
#
# number of rings (size 3 to 8) (size 9 to 14) (size 15 to 20)
#    0.000    2.375    3.750    1.125    0.000    2.750 
#    0.000    1.875    0.000    2.250    0.000    0.000 
#    0.000    0.000    0.000    0.000    0.000    0.000 
#
# Total GULP energy -396481.374085 kJ/mol
# GULP energy per Si atom -12390.042940 kJ/mol
# Density = 1.904625 g / cm^3
# Si number density = 19.089695 Si / 1000 Ang^3
#
#
#
# Elastic Constant Matrix: (Units=GPa)
#
#
# Indices 1 2 3 4 5 6 
#
# 1 78.2005 17.0511 19.7746 0.0001 12.2846 0.0000
# 2 17.0511 24.1473 33.6005 -0.0003 3.3532 -0.0001
# 3 19.7746 33.6005 113.2162 -0.0016 14.5573 -0.0005
# 4 0.0001 -0.0003 -0.0016 13.6651 -0.0005 3.6865
# 5 12.2846 3.3532 14.5573 -0.0005 28.5103 -0.0001
# 6 0.0000 -0.0001 -0.0005 3.6865 -0.0001 12.5914
#
#
#
# Elastic Compliance Matrix: (Units=1/GPa)
#
#
# Indices 1 2 3 4 5 6 
#
# 1 0.016188 -0.013207 0.001915 0.000000 -0.006400 0.000000
# 2 -0.013207 0.081495 -0.022881 -0.000001 0.007789 0.000000
# 3 0.001915 -0.022881 0.016106 0.000001 -0.006358 0.000000
# 4 0.000000 -0.000001 0.000001 0.079455 0.000001 -0.023263
# 5 -0.006400 0.007789 -0.006358 0.000001 0.040163 0.000000
# 6 0.000000 0.000000 0.000000 -0.023263 0.000000 0.086230
#
#
# Mechanical properties :
#
#
# Convention : Reuss Voigt Hill
#
# Bulk Modulus (GPa) = 22.00517 39.60183 30.80350
# Shear Modulus (GPa) = 12.40289 20.62921 16.51605
#
# Velocity S-wave (km/s) = 2.55172 3.29089 2.94459
# Velocity P-wave (km/s) = 4.49822 5.93549 5.26612
#
# Compressibility (1/GPa) = 0.04544386
#
# Stress axis : x y z
#
# Youngs Moduli (GPa) = 61.77241 12.27065 62.08733
#
# Poissons Ratio (x) = 0.16206 -0.11890
# Poissons Ratio (y) = 0.81583 1.42062
# Poissons Ratio (z) = -0.11829 0.28076
#
# Static dielectric constant tensor:
#      x y z
#    x 3.961510 0.000000 0.272480 
#    y 0.000000 2.868350 0.000000 
#    z 0.272480 0.000000 3.693720 
# 
# 
# High freq. dielectric constant tensor:
#      x y z
#    x 1.758110 0.000000 0.010120 
#    y 0.000000 1.667840 0.000000 
#    z 0.010120 0.000000 1.750820 
# 
# From -- ./inp_files/359011.got.cif
#   From: 2010.06.25/outbox.cif.g09.slc.cpg/sg12_180_cif.got.tgz:359011.got - 2010.06.28 00:19:55.
