data_PCOD8093745
_publ_section_title
;
Structure prediction by ZEFSAII (Michael W. Deem and Ramdas Pophale) SiO2 
 PCOD8093745
Probable space group: C 2/M
;
_chemical_formula_sum "Si O2"
_cell_formula_units_Z 56
_cell_length_a 9.234916
_cell_length_b 17.728884
_cell_length_c 18.688218
_cell_angle_alpha 90.000000
_cell_angle_beta 113.154166
_cell_angle_gamma 90.000000
_cell_volume 2813.263697
_symmetry_space_group_name_H-M "C 2/M"
_symmetry_group_IT_number 12
_symmetry_cell_setting 'monoclinic'
loop_
_space_group_symop_operation_xyz
x,y,z
-x,y,-z
-x,-y,-z
x,-y,z
1/2+x,1/2+y,z
1/2-x,1/2+y,-z
1/2-x,1/2-y,-z
1/2+x,1/2-y,z
loop_
_atom_site_type_symbol
_atom_site_label
_atom_site_fract_x
_atom_site_fract_y
_atom_site_fract_z
Si Si1 0.166662 0.589156 0.000589
Si Si2 0.063174 0.170724 0.862746
Si Si3 0.070479 0.164794 0.443402
Si Si4 0.218752 0.669849 0.863373
Si Si5 0.566325 0.586000 0.294970
Si Si6 0.597252 0.913978 0.704971
Si Si7 0.074980 0.332806 0.445084
O O1 0.164990 0.500000 0.001101
O O2 0.196551 0.615300 0.925863
O O3 0.313893 0.615917 0.075706
O O4 0.000000 0.620152 0.000000
O O5 0.146082 0.250660 0.870672
O O6 0.902833 0.177035 0.877974
O O7 0.030606 0.137546 0.778249
O O8 0.032317 0.113359 0.368244
O O9 0.000425 0.249211 0.416650
O O10 0.248154 0.174281 0.498692
O O11 0.000000 0.125098 0.500000
O O12 0.116680 0.635267 0.779558
O O13 0.509272 0.500000 0.275425
O O14 0.750947 0.593409 0.315860
O O15 0.450348 0.882793 0.630820
O O16 0.565150 0.000000 0.721376
O O17 0.000000 0.372574 0.500000
#
# Coordination Sequence:
#
# PCOD8093745 Si02
#       7
#     8   8   8   8   8   8   8
#     4  11  24  43  66  95 130 161 196 245 301 358
#     4  11  23  41  66  92 121 162 206 250 301 358
#     4  10  21  36  56  84 118 153 197 245 299 360
#     4  11  23  41  65  92 124 160 206 251 297 360
#     4  10  21  38  59  85 119 155 197 247 301 360
#     4  10  21  37  60  88 115 152 202 250 297 354
#     4  10  19  36  59  83 113 154 199 244 295 354
#
# _framework density 19.905707
#
# number of rings (size 3 to 8) (size 9 to 14) (size 15 to 20)
#    0.000    1.571    1.429    3.429    0.000    3.429 
#    5.143    0.000    0.000    0.000    0.000    0.000 
#    0.000    0.000    0.000    0.000    0.000    0.000 
#
# Total GULP energy -347153.260539 kJ/mol
# GULP energy per Si atom -12398.330734 kJ/mol
# Density = 1.986040 g / cm^3
# Si number density = 19.905707 Si / 1000 Ang^3
#
#
#
# Elastic Constant Matrix: (Units=GPa)
#
#
# Indices 1 2 3 4 5 6 
#
# 1 95.1441 30.9692 48.1188 0.0000 -13.9661 0.0000
# 2 30.9692 86.9482 36.8199 0.0000 -3.1217 0.0000
# 3 48.1188 36.8199 126.3620 0.0000 -9.4646 0.0000
# 4 0.0000 0.0000 0.0000 14.7613 0.0000 3.7146
# 5 -13.9661 -3.1217 -9.4646 0.0000 34.9798 0.0000
# 6 0.0000 0.0000 0.0000 3.7146 0.0000 25.3283
#
#
#
# Elastic Compliance Matrix: (Units=1/GPa)
#
#
# Indices 1 2 3 4 5 6 
#
# 1 0.014292 -0.003158 -0.004201 0.000000 0.004288 0.000000
# 2 -0.003158 0.013818 -0.002885 0.000000 -0.000808 0.000000
# 3 -0.004201 -0.002885 0.010420 0.000000 0.000885 0.000000
# 4 0.000000 0.000000 0.000000 0.070341 0.000000 -0.010316
# 5 0.004288 -0.000808 0.000885 0.000000 0.030467 0.000000
# 6 0.000000 0.000000 0.000000 -0.010316 0.000000 0.040995
#
#
# Mechanical properties :
#
#
# Convention : Reuss Voigt Hill
#
# Bulk Modulus (GPa) = 55.41956 60.03003 57.72479
# Shear Modulus (GPa) = 24.17384 27.85029 26.01207
#
# Velocity S-wave (km/s) = 3.48863 3.74453 3.61884
# Velocity P-wave (km/s) = 6.64296 6.99414 6.82081
#
# Compressibility (1/GPa) = 0.01804417
#
# Stress axis : x y z
#
# Youngs Moduli (GPa) = 69.96744 72.36797 95.96547
#
# Poissons Ratio (x) = 0.22851 0.40318
# Poissons Ratio (y) = 0.22093 0.27682
# Poissons Ratio (z) = 0.29396 0.20875
#
# Static dielectric constant tensor:
#      x y z
#    x 3.640590 0.000000 -0.047040 
#    y 0.000000 3.665980 0.000000 
#    z -0.047040 0.000000 3.685610 
# 
# 
# High freq. dielectric constant tensor:
#      x y z
#    x 1.773130 0.000000 -0.003350 
#    y 0.000000 1.780120 0.000000 
#    z -0.003350 0.000000 1.790590 
# 
# From -- ./inp_files/257176.got.cif
#   From: 2010.06.25/outbox.cif.g09.slc.cpg/sg12_129_cif.got.tgz:257176.got - 2010.06.28 00:19:55.
