data_PCOD8093052
_publ_section_title
;
Structure prediction by ZEFSAII (Michael W. Deem and Ramdas Pophale) SiO2 
 PCOD8093052
Probable space group: C 2/M
;
_chemical_formula_sum "Si O2"
_cell_formula_units_Z 64
_cell_length_a 18.095173
_cell_length_b 14.910246
_cell_length_c 14.131326
_cell_angle_alpha 90.000000
_cell_angle_beta 59.833861
_cell_angle_gamma 90.000000
_cell_volume 3296.336917
_symmetry_space_group_name_H-M "C 2/M"
_symmetry_group_IT_number 12
_symmetry_cell_setting 'monoclinic'
loop_
_space_group_symop_operation_xyz
x,y,z
-x,y,-z
-x,-y,-z
x,-y,z
1/2+x,1/2+y,z
1/2-x,1/2+y,-z
1/2-x,1/2-y,-z
1/2+x,1/2-y,z
loop_
_atom_site_type_symbol
_atom_site_label
_atom_site_fract_x
_atom_site_fract_y
_atom_site_fract_z
Si Si1 0.108978 0.101189 0.240029
Si Si2 0.683836 0.247997 0.732833
Si Si3 0.098808 0.396350 0.922004
Si Si4 0.447579 0.286729 0.343688
Si Si5 0.451582 0.150205 0.617746
Si Si6 0.362142 0.679194 0.586420
Si Si7 0.272784 0.898111 0.801462
Si Si8 0.764924 0.604531 0.017575
O O1 0.127470 0.101670 0.341391
O O2 0.028669 0.157745 0.256188
O O3 0.092788 0.000000 0.219006
O O4 0.190260 0.144298 0.132714
O O5 0.634711 0.172370 0.822675
O O6 0.621047 0.285739 0.694553
O O7 0.763183 0.200358 0.630263
O O8 0.717553 0.332941 0.771069
O O9 0.115474 0.500000 0.879361
O O10 0.143954 0.375992 0.993016
O O11 0.000000 0.376848 0.000000
O O12 0.477568 0.184897 0.351588
O O13 0.406938 0.342232 0.458107
O O14 0.500000 0.097761 0.500000
O O15 0.409829 0.237946 0.601525
O O16 0.374511 0.093868 0.712509
O O17 0.263105 0.855686 0.912871
O O18 0.236986 0.000000 0.816194
O O19 0.749532 0.500000 0.017358
#
# Coordination Sequence:
#
# PCOD8093052 Si02
#       8
#     8   8   8   8   8   8   8   8
#     4  10  19  35  59  84 112 150 198 246 293 343
#     4  11  22  37  58  85 119 157 190 232 295 358
#     4  10  22  39  59  87 120 148 189 249 302 344
#     4  10  21  34  55  84 117 149 190 239 298 343
#     4   8  17  35  56  79 107 146 196 242 282 330
#     4   9  18  36  55  79 112 152 192 242 288 340
#     4  10  22  38  58  83 116 160 199 231 279 348
#     4   9  19  37  58  81 113 151 190 241 292 338
#
# _framework density 19.415489999999998
#
# number of rings (size 3 to 8) (size 9 to 14) (size 15 to 20)
#    0.000    2.375    1.250    1.500    1.750    3.250 
#    0.000    0.000    0.000   10.125    0.000    0.000 
#    0.000    0.000    0.000    0.000    0.000    0.000 
#
# Total GULP energy -396594.097849 kJ/mol
# GULP energy per Si atom -12393.565558 kJ/mol
# Density = 1.937130 g / cm^3
# Si number density = 19.415490 Si / 1000 Ang^3
#
#
#
# Elastic Constant Matrix: (Units=GPa)
#
#
# Indices 1 2 3 4 5 6 
#
# 1 133.5843 11.7025 48.6016 0.0000 -6.7584 0.0000
# 2 11.7025 40.9937 18.1130 0.0000 -7.4187 0.0000
# 3 48.6016 18.1130 107.3036 0.0000 -6.6875 0.0000
# 4 0.0000 0.0000 0.0000 12.6970 0.0000 -2.0277
# 5 -6.7584 -7.4187 -6.6875 0.0000 32.1833 0.0000
# 6 0.0000 0.0000 0.0000 -2.0277 0.0000 25.9294
#
#
#
# Elastic Compliance Matrix: (Units=1/GPa)
#
#
# Indices 1 2 3 4 5 6 
#
# 1 0.009015 -0.000678 -0.003911 0.000000 0.000924 0.000000
# 2 -0.000678 0.027306 -0.003970 0.000000 0.005327 0.000000
# 3 -0.003911 -0.003970 0.011806 0.000000 0.000717 0.000000
# 4 0.000000 0.000000 0.000000 0.079755 0.000000 0.006237
# 5 0.000924 0.005327 0.000717 0.000000 0.032643 0.000000
# 6 0.000000 0.000000 0.000000 0.006237 0.000000 0.039054
#
#
# Mechanical properties :
#
#
# Convention : Reuss Voigt Hill
#
# Bulk Modulus (GPa) = 32.25005 48.74618 40.49811
# Shear Modulus (GPa) = 22.02325 27.72624 24.87475
#
# Velocity S-wave (km/s) = 3.37161 3.78305 3.58324
# Velocity P-wave (km/s) = 5.63946 6.65157 6.16631
#
# Compressibility (1/GPa) = 0.03100771
#
# Stress axis : x y z
#
# Youngs Moduli (GPa) = 110.92553 36.62225 84.70505
#
# Poissons Ratio (x) = 0.02484 0.33130
# Poissons Ratio (y) = 0.07522 0.33629
# Poissons Ratio (z) = 0.43385 0.14539
#
# Static dielectric constant tensor:
#      x y z
#    x 3.721930 0.000000 -0.252920 
#    y 0.000000 3.306880 0.000000 
#    z -0.252920 0.000000 4.164870 
# 
# 
# High freq. dielectric constant tensor:
#      x y z
#    x 1.753740 0.000000 -0.013420 
#    y 0.000000 1.734350 0.000000 
#    z -0.013420 0.000000 1.763800 
# 
# From -- ./inp_files/225253.got.cif
#   From: 2010.06.25/outbox.cif.g09.slc.cpg/sg12_113_cif.got.tgz:225253.got - 2010.06.28 00:19:55.
