data_PCOD8093577
_publ_section_title
;
Structure prediction by ZEFSAII (Michael W. Deem and Ramdas Pophale) SiO2 
 PCOD8093577
Probable space group: C 2/M
;
_chemical_formula_sum "Si O2"
_cell_formula_units_Z 64
_cell_length_a 31.839760
_cell_length_b 8.921343
_cell_length_c 24.825443
_cell_angle_alpha 90.000000
_cell_angle_beta 25.350608
_cell_angle_gamma 90.000000
_cell_volume 3019.251695
_symmetry_space_group_name_H-M "C 2/M"
_symmetry_group_IT_number 12
_symmetry_cell_setting 'monoclinic'
loop_
_space_group_symop_operation_xyz
x,y,z
-x,y,-z
-x,-y,-z
x,-y,z
1/2+x,1/2+y,z
1/2-x,1/2+y,-z
1/2-x,1/2-y,-z
1/2+x,1/2-y,z
loop_
_atom_site_type_symbol
_atom_site_label
_atom_site_fract_x
_atom_site_fract_y
_atom_site_fract_z
Si Si1 0.081155 0.324904 0.580061
Si Si2 0.414162 0.664524 0.721515
Si Si3 0.086630 0.674844 0.940675
Si Si4 0.203935 0.330164 0.001263
Si Si5 0.049674 0.822209 0.100327
Si Si6 0.900812 0.657340 0.638738
Si Si7 0.145314 0.175348 0.613385
Si Si8 0.776343 0.675494 0.682969
O O1 0.088400 0.500000 0.584902
O O2 0.106616 0.226358 0.601156
O O3 0.154322 0.277472 0.447193
O O4 0.967806 0.283809 0.698237
O O5 0.455485 0.500000 0.687716
O O6 0.297140 0.667603 0.854816
O O7 0.435445 0.708643 0.636230
O O8 0.095892 0.500000 0.943283
O O9 0.177386 0.730136 0.799394
O O10 0.074844 0.757622 0.012075
O O11 0.000000 0.710864 0.000000
O O12 0.168545 0.500000 0.055861
O O13 0.250000 0.250000 0.000000
O O14 0.117702 0.243505 0.069651
O O15 0.936096 0.782684 0.246683
O O16 0.066372 0.000000 0.079887
O O17 0.857316 0.500000 0.715741
O O18 0.827560 0.719492 0.679135
O O19 0.000000 0.596753 0.500000
O O20 0.250000 0.250000 0.500000
O O21 0.163221 0.000000 0.592739
O O22 0.752089 0.500000 0.707038
#
# Coordination Sequence:
#
# PCOD8093577 Si02
#       8
#     8   8   8   8   8   8   8   8
#     4  11  23  41  65  96 130 170 216 265 320 383
#     4  11  23  37  57  91 130 168 211 260 314 375
#     4  11  26  45  67  97 130 169 217 272 334 393
#     4  11  24  41  64  95 132 174 219 267 320 383
#     4  11  25  46  70  97 131 173 222 272 325 393
#     4  10  19  36  57  84 122 164 206 250 302 369
#     4  11  26  46  69  98 128 164 211 266 326 387
#     4  10  22  40  64  93 128 170 217 264 318 383
#
# _framework density 21.197305
#
# number of rings (size 3 to 8) (size 9 to 14) (size 15 to 20)
#    0.000    1.250    1.250    3.750    1.750   11.750 
#    0.000    0.000    0.000    0.000    0.000    0.000 
#    0.000    0.000    0.000    0.000    0.000    0.000 
#
# Total GULP energy -396447.585285 kJ/mol
# GULP energy per Si atom -12388.987040 kJ/mol
# Density = 2.114906 g / cm^3
# Si number density = 21.197305 Si / 1000 Ang^3
#
#
#
# Elastic Constant Matrix: (Units=GPa)
#
#
# Indices 1 2 3 4 5 6 
#
# 1 87.3292 39.2238 22.0863 0.0086 -2.0805 -0.0056
# 2 39.2238 97.1911 47.4958 0.0061 -2.8738 -0.0102
# 3 22.0863 47.4958 79.2676 0.0184 -18.2652 -0.0089
# 4 0.0086 0.0061 0.0184 34.0146 -0.0094 -0.9134
# 5 -2.0805 -2.8738 -18.2652 -0.0094 31.5914 0.0034
# 6 -0.0056 -0.0102 -0.0089 -0.9134 0.0034 42.8447
#
#
#
# Elastic Compliance Matrix: (Units=1/GPa)
#
#
# Indices 1 2 3 4 5 6 
#
# 1 0.014016 -0.005303 -0.000723 -0.000002 0.000023 0.000000
# 2 -0.005303 0.017077 -0.009780 0.000002 -0.004450 0.000002
# 3 -0.000723 -0.009780 0.021298 -0.000006 0.011377 0.000001
# 4 -0.000002 0.000002 -0.000006 0.029416 0.000005 0.000627
# 5 0.000023 -0.004450 0.011377 0.000005 0.037829 -0.000002
# 6 0.000000 0.000002 0.000001 0.000627 -0.000002 0.023353
#
#
# Mechanical properties :
#
#
# Convention : Reuss Voigt Hill
#
# Bulk Modulus (GPa) = 48.12274 53.48886 50.80580
# Shear Modulus (GPa) = 27.54411 32.02228 29.78320
#
# Velocity S-wave (km/s) = 3.60865 3.89096 3.75246
# Velocity P-wave (km/s) = 6.33362 6.74349 6.54177
#
# Compressibility (1/GPa) = 0.02078019
#
# Stress axis : x y z
#
# Youngs Moduli (GPa) = 71.34753 58.55897 46.95170
#
# Poissons Ratio (x) = 0.31051 0.03394
# Poissons Ratio (y) = 0.37833 0.45919
# Poissons Ratio (z) = 0.05157 0.57272
#
# Static dielectric constant tensor:
#      x y z
#    x 5.161660 -0.000440 -1.108640 
#    y -0.000440 3.917810 0.000400 
#    z -1.108640 0.000400 5.007130 
# 
# 
# High freq. dielectric constant tensor:
#      x y z
#    x 1.834110 0.000000 -0.004330 
#    y 0.000000 1.841560 0.000000 
#    z -0.004330 0.000000 1.841110 
# 
# From -- ./inp_files/353359.got.cif
#   From: 2010.06.25/outbox.cif.g09.slc.cpg/sg12_177_cif.got.tgz:353359.got - 2010.06.28 00:19:55.
