data_PCOD8093575
_publ_section_title
;
Structure prediction by ZEFSAII (Michael W. Deem and Ramdas Pophale) SiO2 
 PCOD8093575
Probable space group: C 2/M
;
_chemical_formula_sum "Si O2"
_cell_formula_units_Z 36
_cell_length_a 7.469286
_cell_length_b 21.543119
_cell_length_c 11.886471
_cell_angle_alpha 90.000000
_cell_angle_beta 72.715535
_cell_angle_gamma 90.000000
_cell_volume 1826.298837
_symmetry_space_group_name_H-M "C 2/M"
_symmetry_group_IT_number 12
_symmetry_cell_setting 'monoclinic'
loop_
_space_group_symop_operation_xyz
x,y,z
-x,y,-z
-x,-y,-z
x,-y,z
1/2+x,1/2+y,z
1/2-x,1/2+y,-z
1/2-x,1/2-y,-z
1/2+x,1/2-y,z
loop_
_atom_site_type_symbol
_atom_site_label
_atom_site_fract_x
_atom_site_fract_y
_atom_site_fract_z
Si Si1 0.985203 0.695177 0.766726
Si Si2 0.000000 0.367197 0.000000
Si Si3 0.888600 0.928296 0.909607
Si Si4 0.596338 0.665646 0.722669
Si Si5 0.304960 0.820514 0.478292
O O1 0.787287 0.670101 0.758936
O O2 0.012005 0.677899 0.890851
O O3 0.983812 0.769576 0.752299
O O4 0.160427 0.664905 0.661044
O O5 0.826152 0.413165 0.026792
O O6 0.966041 0.888791 0.791673
O O7 0.912688 0.000000 0.873659
O O8 0.000000 0.909920 0.000000
O O9 0.642660 0.645929 0.582883
O O10 0.500000 0.834936 0.500000
O O11 0.250000 0.750000 0.500000
#
# Coordination Sequence:
#
# PCOD8093575 Si02
#       5
#     8   4   8   8   8
#     4  10  20  32  57  90 118 148 181 234 294 340
#     4  12  23  38  60  86 115 144 190 240 288 344
#     4  11  24  41  59  80 113 156 196 234 279 335
#     4  10  19  36  57  84 118 149 190 233 284 340
#     4   8  16  31  52  80 114 148 179 222 280 338
#
# _framework density 19.711997
#
# number of rings (size 3 to 8) (size 9 to 14) (size 15 to 20)
#    0.000    2.000    2.222    1.667    1.556    3.556 
#    0.000    0.000    0.000   10.000    0.000    0.000 
#    0.000    0.000    0.000    0.000    0.000    0.000 
#
# Total GULP energy -223009.979652 kJ/mol
# GULP energy per Si atom -12389.443314 kJ/mol
# Density = 1.966713 g / cm^3
# Si number density = 19.711997 Si / 1000 Ang^3
#
#
#
# Elastic Constant Matrix: (Units=GPa)
#
#
# Indices 1 2 3 4 5 6 
#
# 1 67.1804 21.5553 39.7445 0.0000 -17.8405 0.0000
# 2 21.5553 62.7507 49.6783 0.0000 -12.7885 0.0000
# 3 39.7445 49.6783 182.7452 0.0000 -13.5143 0.0000
# 4 0.0000 0.0000 0.0000 13.0125 0.0000 2.3403
# 5 -17.8405 -12.7885 -13.5143 0.0000 32.2398 0.0000
# 6 0.0000 0.0000 0.0000 2.3403 0.0000 19.4493
#
#
#
# Elastic Compliance Matrix: (Units=1/GPa)
#
#
# Indices 1 2 3 4 5 6 
#
# 1 0.019783 -0.002719 -0.002924 0.000000 0.008643 0.000000
# 2 -0.002719 0.021839 -0.004970 0.000000 0.005075 0.000000
# 3 -0.002924 -0.004970 0.007424 0.000000 -0.000478 0.000000
# 4 0.000000 0.000000 0.000000 0.078549 0.000000 -0.009452
# 5 0.008643 0.005075 -0.000478 0.000000 0.037613 0.000000
# 6 0.000000 0.000000 0.000000 -0.009452 0.000000 0.052553
#
#
# Mechanical properties :
#
#
# Convention : Reuss Voigt Hill
#
# Bulk Modulus (GPa) = 35.94682 59.40361 47.67521
# Shear Modulus (GPa) = 20.14008 26.38686 23.26347
#
# Velocity S-wave (km/s) = 3.19990 3.66268 3.43908
# Velocity P-wave (km/s) = 5.65049 6.93456 6.32520
#
# Compressibility (1/GPa) = 0.02781888
#
# Stress axis : x y z
#
# Youngs Moduli (GPa) = 50.54858 45.78937 134.70093
#
# Poissons Ratio (x) = 0.12451 0.39389
# Poissons Ratio (y) = 0.13745 0.66949
# Poissons Ratio (z) = 0.14781 0.22758
#
# Static dielectric constant tensor:
#      x y z
#    x 3.789930 0.000000 -0.204910 
#    y 0.000000 3.097940 0.000000 
#    z -0.204910 0.000000 4.354930 
# 
# 
# High freq. dielectric constant tensor:
#      x y z
#    x 1.783000 0.000000 -0.012090 
#    y 0.000000 1.709600 0.000000 
#    z -0.012090 0.000000 1.794290 
# 
# From -- ./inp_files/118757.got.cif
#   From: 2010.06.25/outbox.cif.g09.slc.cpg/sg12_60_cif.got.tgz:118757.got - 2010.06.28 00:19:55.
