data_PCOD8093508
_publ_section_title
;
Structure prediction by ZEFSAII (Michael W. Deem and Ramdas Pophale) SiO2 
 PCOD8093508
Probable space group: C 2/M
;
_chemical_formula_sum "Si O2"
_cell_formula_units_Z 56
_cell_length_a 26.496395
_cell_length_b 16.901906
_cell_length_c 18.346803
_cell_angle_alpha 90.000000
_cell_angle_beta 19.835924
_cell_angle_gamma 90.000000
_cell_volume 2788.061074
_symmetry_space_group_name_H-M "C 2/M"
_symmetry_group_IT_number 12
_symmetry_cell_setting 'monoclinic'
loop_
_space_group_symop_operation_xyz
x,y,z
-x,y,-z
-x,-y,-z
x,-y,z
1/2+x,1/2+y,z
1/2-x,1/2+y,-z
1/2-x,1/2-y,-z
1/2+x,1/2-y,z
loop_
_atom_site_type_symbol
_atom_site_label
_atom_site_fract_x
_atom_site_fract_y
_atom_site_fract_z
Si Si1 0.183065 0.792424 0.484426
Si Si2 0.984228 0.344009 0.348271
Si Si3 0.872608 0.664024 0.987975
Si Si4 0.653056 0.199731 0.254678
Si Si5 0.940896 0.799895 0.195881
Si Si6 0.210766 0.093853 0.809639
Si Si7 0.347837 0.089859 0.168909
O O1 0.046838 0.746847 0.631946
O O2 0.139527 0.831629 0.621180
O O3 0.314333 0.726137 0.310679
O O4 0.215863 0.862147 0.384797
O O5 0.837359 0.389271 0.576855
O O6 0.118286 0.340095 0.224092
O O7 0.044685 0.382674 0.190619
O O8 0.742442 0.717952 0.130093
O O9 0.828650 0.598789 0.107545
O O10 0.976962 0.719777 0.894410
O O11 0.500000 0.223316 0.500000
O O12 0.738788 0.131435 0.182405
O O13 0.050537 0.865091 0.010143
O O14 0.188232 0.000000 0.847448
O O15 0.323115 0.000000 0.223601
O O16 0.500000 0.120172 0.000000
#
# Coordination Sequence:
#
# PCOD8093508 Si02
#       7
#     8   8   8   8   8   8   8
#     4  10  19  36  59  80 109 140 188 240 275 329
#     4  10  21  33  58  86 110 151 192 233 281 328
#     4  10  19  36  56  81 114 143 192 240 272 333
#     4   9  18  34  58  85 107 149 195 236 284 331
#     4   9  19  35  59  82 102 144 187 230 284 324
#     4  10  21  36  55  82 116 148 183 228 284 348
#     4  11  22  34  54  81 111 149 184 227 286 342
#
# _framework density 20.085643000000001
#
# number of rings (size 3 to 8) (size 9 to 14) (size 15 to 20)
#    0.000    2.143    1.429    3.000    0.000    3.714 
#    0.000    1.429    0.000    3.857    0.000    0.000 
#    0.000    0.000    0.000    0.000    0.000    0.000 
#
# Total GULP energy -346991.656940 kJ/mol
# GULP energy per Si atom -12392.559176 kJ/mol
# Density = 2.003993 g / cm^3
# Si number density = 20.085643 Si / 1000 Ang^3
#
#
#
# Elastic Constant Matrix: (Units=GPa)
#
#
# Indices 1 2 3 4 5 6 
#
# 1 73.8647 26.7088 30.9430 0.0003 15.1891 -0.0006
# 2 26.7088 61.9802 31.0932 -0.0005 12.0597 -0.0001
# 3 30.9430 31.0932 86.1703 -0.0011 12.2201 -0.0001
# 4 0.0003 -0.0005 -0.0011 12.7765 -0.0001 -2.8681
# 5 15.1891 12.0597 12.2201 -0.0001 32.4427 0.0004
# 6 -0.0006 -0.0001 -0.0001 -2.8681 0.0004 11.6604
#
#
#
# Elastic Compliance Matrix: (Units=1/GPa)
#
#
# Indices 1 2 3 4 5 6 
#
# 1 0.017994 -0.004734 -0.004023 -0.000001 -0.005149 0.000001
# 2 -0.004734 0.021714 -0.005604 0.000001 -0.003744 0.000000
# 3 -0.004023 -0.005604 0.015328 0.000001 -0.001807 0.000000
# 4 -0.000001 0.000001 0.000001 0.082843 0.000000 0.020377
# 5 -0.005149 -0.003744 -0.001807 0.000000 0.035307 -0.000001
# 6 0.000001 0.000000 0.000000 0.020377 -0.000001 0.090772
#
#
# Mechanical properties :
#
#
# Convention : Reuss Voigt Hill
#
# Bulk Modulus (GPa) = 38.00300 44.38946 41.19623
# Shear Modulus (GPa) = 16.58636 20.26061 18.42348
#
# Velocity S-wave (km/s) = 2.87676 3.17947 3.03189
# Velocity P-wave (km/s) = 5.47685 5.96881 5.72812
#
# Compressibility (1/GPa) = 0.02631371
#
# Stress axis : x y z
#
# Youngs Moduli (GPa) = 55.57320 46.05277 65.23997
#
# Poissons Ratio (x) = 0.21801 0.26247
# Poissons Ratio (y) = 0.26308 0.36562
# Poissons Ratio (z) = 0.22358 0.25809
#
# Static dielectric constant tensor:
#      x y z
#    x 3.926160 0.000000 0.034180 
#    y 0.000000 3.192880 0.000000 
#    z 0.034180 0.000000 3.885840 
# 
# 
# High freq. dielectric constant tensor:
#      x y z
#    x 1.791670 0.000000 0.009050 
#    y 0.000000 1.742490 0.000000 
#    z 0.009050 0.000000 1.788410 
# 
# From -- ./inp_files/293826.got.cif
#   From: 2010.06.25/outbox.cif.g09.slc.cpg/sg12_147_cif.got.tgz:293826.got - 2010.06.28 00:19:55.
