data_PCOD8093860
_publ_section_title
;
Structure prediction by ZEFSAII (Michael W. Deem and Ramdas Pophale) SiO2 
 PCOD8093860
Probable space group: C 2/M
;
_chemical_formula_sum "Si O2"
_cell_formula_units_Z 64
_cell_length_a 19.297757
_cell_length_b 9.050251
_cell_length_c 29.950830
_cell_angle_alpha 90.000000
_cell_angle_beta 38.905299
_cell_angle_gamma 90.000000
_cell_volume 3285.187701
_symmetry_space_group_name_H-M "C 2/M"
_symmetry_group_IT_number 12
_symmetry_cell_setting 'monoclinic'
loop_
_space_group_symop_operation_xyz
x,y,z
-x,y,-z
-x,-y,-z
x,-y,z
1/2+x,1/2+y,z
1/2-x,1/2+y,-z
1/2-x,1/2-y,-z
1/2+x,1/2-y,z
loop_
_atom_site_type_symbol
_atom_site_label
_atom_site_fract_x
_atom_site_fract_y
_atom_site_fract_z
Si Si1 0.176410 0.672343 0.123698
Si Si2 0.297567 0.330467 0.263512
Si Si3 0.907518 0.168773 0.665149
Si Si4 0.055006 0.325760 0.519327
Si Si5 0.071525 0.173905 0.007426
Si Si6 0.783316 0.168963 0.372246
Si Si7 0.478767 0.331045 0.730199
Si Si8 0.014911 0.326242 0.126884
O O1 0.169239 0.500000 0.136819
O O2 0.302617 0.726953 0.061724
O O3 0.113912 0.749867 0.195206
O O4 0.123274 0.710732 0.102098
O O5 0.315406 0.500000 0.240035
O O6 0.207563 0.256348 0.276768
O O7 0.249823 0.317722 0.337278
O O8 0.412395 0.245126 0.203806
O O9 0.953952 0.181501 0.691032
O O10 0.997748 0.238050 0.587474
O O11 0.885766 0.000000 0.661951
O O12 0.046923 0.500000 0.533353
O O13 0.182213 0.268206 0.452422
O O14 0.000000 0.287308 0.500000
O O15 0.064808 0.000000 0.020183
O O16 0.022018 0.257987 0.074395
O O17 0.000000 0.217985 0.000000
O O18 0.901335 0.246443 0.322236
O O19 0.798086 0.000000 0.378871
O O20 0.480341 0.500000 0.746283
O O21 0.995945 0.500000 0.131891
#
# Coordination Sequence:
#
# PCOD8093860 Si02
#       8
#     8   8   8   8   8   8   8   8
#     4  10  22  40  62  89 121 156 200 247 289 344
#     4  11  21  38  64  87 113 157 204 246 292 353
#     4  11  24  38  55  88 126 155 192 249 309 355
#     4  10  19  36  60  85 112 153 206 248 289 354
#     4  10  23  42  62  89 122 160 203 242 284 348
#     4   9  18  36  61  85 111 150 204 247 281 347
#     4  10  22  40  60  85 120 160 197 240 298 357
#     4  11  23  39  61  92 124 154 195 250 301 347
#
# _framework density 19.481383000000001
#
# number of rings (size 3 to 8) (size 9 to 14) (size 15 to 20)
#    0.000    1.750    2.500    1.500    1.750    3.000 
#    0.000    0.625    0.000    0.000    0.000    0.000 
#    0.000    0.000    0.000    0.000    0.000    0.000 
#
# Total GULP energy -396836.551860 kJ/mol
# GULP energy per Si atom -12401.142246 kJ/mol
# Density = 1.943704 g / cm^3
# Si number density = 19.481383 Si / 1000 Ang^3
#
#
#
# Elastic Constant Matrix: (Units=GPa)
#
#
# Indices 1 2 3 4 5 6 
#
# 1 84.3852 34.0498 43.4968 -0.0006 -9.4295 -0.0020
# 2 34.0498 57.6740 41.3316 0.0009 2.6464 0.0046
# 3 43.4968 41.3316 110.7213 -0.0005 -9.1939 -0.0019
# 4 -0.0006 0.0009 -0.0005 34.0308 -0.0003 -0.0507
# 5 -9.4295 2.6464 -9.1939 -0.0003 35.0623 -0.0006
# 6 -0.0020 0.0046 -0.0019 -0.0507 -0.0006 23.6121
#
#
#
# Elastic Compliance Matrix: (Units=1/GPa)
#
#
# Indices 1 2 3 4 5 6 
#
# 1 0.017335 -0.007935 -0.003487 0.000000 0.004347 0.000003
# 2 -0.007935 0.027923 -0.007829 -0.000001 -0.006294 -0.000007
# 3 -0.003487 -0.007829 0.013591 0.000000 0.003217 0.000002
# 4 0.000000 -0.000001 0.000000 0.029385 0.000001 0.000063
# 5 0.004347 -0.006294 0.003217 0.000001 0.031008 0.000003
# 6 0.000003 -0.000007 0.000002 0.000063 0.000003 0.042351
#
#
# Mechanical properties :
#
#
# Convention : Reuss Voigt Hill
#
# Bulk Modulus (GPa) = 49.14619 54.50412 51.82516
# Shear Modulus (GPa) = 24.16876 27.46786 25.81831
#
# Velocity S-wave (km/s) = 3.52605 3.75901 3.64439
# Velocity P-wave (km/s) = 6.46988 6.84679 6.66100
#
# Compressibility (1/GPa) = 0.02034746
#
# Stress axis : x y z
#
# Youngs Moduli (GPa) = 57.68547 35.81304 73.57690
#
# Poissons Ratio (x) = 0.28417 0.25658
# Poissons Ratio (y) = 0.45773 0.57602
# Poissons Ratio (z) = 0.20116 0.28038
#
# Static dielectric constant tensor:
#      x y z
#    x 3.666730 0.000000 -0.229900 
#    y 0.000000 3.490220 0.000000 
#    z -0.229900 0.000000 3.693660 
# 
# 
# High freq. dielectric constant tensor:
#      x y z
#    x 1.764810 0.000000 -0.010240 
#    y 0.000000 1.743820 0.000000 
#    z -0.010240 0.000000 1.771550 
# 
# From -- ./inp_files/378023.got.cif
#   From: 2010.06.25/outbox.cif.g09.slc.cpg/sg12_190_cif.got.tgz:378023.got - 2010.06.28 00:19:55.
