data_PCOD8093171
_publ_section_title
;
Structure prediction by ZEFSAII (Michael W. Deem and Ramdas Pophale) SiO2 
 PCOD8093171
Probable space group: C 2/M
;
_chemical_formula_sum "Si O2"
_cell_formula_units_Z 64
_cell_length_a 29.276405
_cell_length_b 14.004564
_cell_length_c 11.483000
_cell_angle_alpha 90.000000
_cell_angle_beta 139.465487
_cell_angle_gamma 90.000000
_cell_volume 3059.801351
_symmetry_space_group_name_H-M "C 2/M"
_symmetry_group_IT_number 12
_symmetry_cell_setting 'monoclinic'
loop_
_space_group_symop_operation_xyz
x,y,z
-x,y,-z
-x,-y,-z
x,-y,z
1/2+x,1/2+y,z
1/2-x,1/2+y,-z
1/2-x,1/2-y,-z
1/2+x,1/2-y,z
loop_
_atom_site_type_symbol
_atom_site_label
_atom_site_fract_x
_atom_site_fract_y
_atom_site_fract_z
Si Si1 0.782595 0.651104 0.028317
Si Si2 0.510079 0.606742 0.156211
Si Si3 0.279943 0.400451 0.868573
Si Si4 0.715425 0.110269 0.231272
Si Si5 0.621685 0.724046 0.072709
Si Si6 0.866977 0.607920 0.534290
Si Si7 0.926928 0.388430 0.404681
Si Si8 0.850403 0.197711 0.614337
O O1 0.745103 0.581644 0.047705
O O2 0.866151 0.658653 0.209343
O O3 0.750000 0.750000 0.000000
O O4 0.763356 0.615373 0.862648
O O5 0.495353 0.500000 0.179651
O O6 0.590675 0.635338 0.339133
O O7 0.500000 0.604295 0.000000
O O8 0.458335 0.690060 0.106183
O O9 0.316554 0.500000 0.900463
O O10 0.332922 0.314018 0.948970
O O11 0.212013 0.382196 0.660208
O O12 0.639283 0.162093 0.106214
O O13 0.774297 0.167159 0.419273
O O14 0.709807 0.000000 0.260701
O O15 0.648284 0.677044 0.245118
O O16 0.882150 0.500000 0.612471
O O17 0.918904 0.631200 0.527010
O O18 0.872868 0.690459 0.642954
O O19 0.923217 0.500000 0.371105
O O20 0.000000 0.344450 0.500000
#
# Coordination Sequence:
#
# PCOD8093171 Si02
#       8
#     8   8   8   8   8   8   8   8
#     4  11  20  38  58  81 123 154 191 236 297 358
#     4   9  20  39  62  82 108 152 201 247 287 337
#     4  10  19  35  60  83 109 147 199 245 280 332
#     4  12  24  37  58  90 125 157 187 241 313 362
#     4  11  22  39  59  87 112 151 207 251 283 344
#     4   9  18  33  55  85 117 153 192 238 292 344
#     4   9  18  34  57  84 110 148 201 241 274 333
#     4  11  22  40  58  86 122 155 198 241 298 361
#
# _framework density 20.91639
#
# number of rings (size 3 to 8) (size 9 to 14) (size 15 to 20)
#    0.000    1.750    2.500    3.750    0.000    3.000 
#    0.000    1.875    0.000    2.250    0.000    2.625 
#    0.000    0.000    0.000    0.000    0.000    0.000 
#
# Total GULP energy -396469.704065 kJ/mol
# GULP energy per Si atom -12389.678252 kJ/mol
# Density = 2.086878 g / cm^3
# Si number density = 20.916390 Si / 1000 Ang^3
#
#
#
# Elastic Constant Matrix: (Units=GPa)
#
#
# Indices 1 2 3 4 5 6 
#
# 1 69.9916 21.6098 15.1500 0.0000 16.5160 0.0000
# 2 21.6098 124.0334 11.7679 0.0000 22.1300 0.0000
# 3 15.1500 11.7679 35.2434 0.0000 6.8629 0.0000
# 4 0.0000 0.0000 0.0000 16.5889 0.0000 9.3038
# 5 16.5160 22.1300 6.8629 0.0000 32.9658 0.0000
# 6 0.0000 0.0000 0.0000 9.3038 0.0000 29.6638
#
#
#
# Elastic Compliance Matrix: (Units=1/GPa)
#
#
# Indices 1 2 3 4 5 6 
#
# 1 0.017525 -0.001309 -0.005793 0.000000 -0.006696 0.000000
# 2 -0.001309 0.009386 -0.001534 0.000000 -0.005326 0.000000
# 3 -0.005793 -0.001534 0.031904 0.000000 -0.002710 0.000000
# 4 0.000000 0.000000 0.000000 0.073149 0.000000 -0.022942
# 5 -0.006696 -0.005326 -0.002710 0.000000 0.037828 0.000000
# 6 0.000000 0.000000 0.000000 -0.022942 0.000000 0.040907
#
#
# Mechanical properties :
#
#
# Convention : Reuss Voigt Hill
#
# Bulk Modulus (GPa) = 24.07113 36.25822 30.16467
# Shear Modulus (GPa) = 20.67659 27.89307 24.28483
#
# Velocity S-wave (km/s) = 3.14751 3.65574 3.41110
# Velocity P-wave (km/s) = 4.97417 5.93226 5.47422
#
# Compressibility (1/GPa) = 0.04154354
#
# Stress axis : x y z
#
# Youngs Moduli (GPa) = 57.05993 106.53925 31.34391
#
# Poissons Ratio (x) = 0.13948 0.18157
# Poissons Ratio (y) = 0.07470 0.04809
# Poissons Ratio (z) = 0.33053 0.16346
#
# Static dielectric constant tensor:
#      x y z
#    x 4.049010 0.000000 0.224360 
#    y 0.000000 3.881050 0.000000 
#    z 0.224360 0.000000 3.398360 
# 
# 
# High freq. dielectric constant tensor:
#      x y z
#    x 1.820110 0.000000 0.004750 
#    y 0.000000 1.826430 0.000000 
#    z 0.004750 0.000000 1.783730 
# 
# From -- ./inp_files/189496.got.cif
#   From: 2010.06.25/outbox.cif.g09.slc.cpg/sg12_95_cif.got.tgz:189496.got - 2010.06.28 00:19:55.
