data_PCOD8093523
_publ_section_title
;
Structure prediction by ZEFSAII (Michael W. Deem and Ramdas Pophale) SiO2 
 PCOD8093523
Probable space group: C 2/M
;
_chemical_formula_sum "Si O2"
_cell_formula_units_Z 64
_cell_length_a 18.246611
_cell_length_b 19.922430
_cell_length_c 27.094831
_cell_angle_alpha 90.000000
_cell_angle_beta 159.770729
_cell_angle_gamma 90.000000
_cell_volume 3405.711326
_symmetry_space_group_name_H-M "C 2/M"
_symmetry_group_IT_number 12
_symmetry_cell_setting 'monoclinic'
loop_
_space_group_symop_operation_xyz
x,y,z
-x,y,-z
-x,-y,-z
x,-y,z
1/2+x,1/2+y,z
1/2-x,1/2+y,-z
1/2-x,1/2-y,-z
1/2+x,1/2-y,z
loop_
_atom_site_type_symbol
_atom_site_label
_atom_site_fract_x
_atom_site_fract_y
_atom_site_fract_z
Si Si1 0.626297 0.577410 0.478706
Si Si2 0.647794 0.880570 0.047621
Si Si3 0.787126 0.355786 0.754489
Si Si4 0.397319 0.424774 0.650034
Si Si5 0.338240 0.813187 0.675194
Si Si6 0.764302 0.774046 0.900922
Si Si7 0.734363 0.716904 0.208866
Si Si8 0.088499 0.678851 0.502621
O O1 0.688577 0.500000 0.525092
O O2 0.395924 0.589063 0.357034
O O3 0.625262 0.598545 0.420851
O O4 0.797462 0.621780 0.616007
O O5 0.725089 0.804835 0.100426
O O6 0.856224 0.926237 0.178203
O O7 0.500000 0.901561 0.000000
O O8 0.510452 0.890186 0.910618
O O9 0.792584 0.326605 0.703237
O O10 0.735728 0.295791 0.760383
O O11 0.308782 0.500000 0.600953
O O12 0.266282 0.375117 0.601776
O O13 0.583937 0.793665 0.825637
O O14 0.186403 0.753316 0.561261
O O15 0.709479 0.801870 0.811941
O O16 0.987612 0.802310 0.062883
O O17 0.890075 0.672374 0.340303
O O18 0.000000 0.661246 0.500000
#
# Coordination Sequence:
#
# PCOD8093523 Si02
#       8
#     8   8   8   8   8   8   8   8
#     4  11  23  40  60  84 119 157 195 242 293 357
#     4  11  19  36  61  87 119 155 192 238 296 355
#     4  11  21  35  56  88 121 151 191 231 291 366
#     4  11  25  41  61  88 115 159 208 242 294 352
#     4  12  23  36  59  92 120 156 194 242 301 353
#     4  10  20  34  58  85 120 150 192 248 287 340
#     4  10  19  36  56  86 116 151 198 237 293 346
#     4  12  23  37  61  88 122 157 195 250 298 344
#
# _framework density 18.791962999999999
#
# number of rings (size 3 to 8) (size 9 to 14) (size 15 to 20)
#    0.000    1.000    7.500    1.125    0.000    6.000 
#    0.000    0.000    0.000    0.750    0.000    3.500 
#    0.000    0.000    0.000    0.000    0.000    0.000 
#
# Total GULP energy -396850.135196 kJ/mol
# GULP energy per Si atom -12401.566725 kJ/mol
# Density = 1.874919 g / cm^3
# Si number density = 18.791963 Si / 1000 Ang^3
#
#
#
# Elastic Constant Matrix: (Units=GPa)
#
#
# Indices 1 2 3 4 5 6 
#
# 1 78.6894 42.2417 37.4241 0.0364 13.5656 -0.0187
# 2 42.2417 62.6554 29.0376 0.0176 3.8866 -0.0045
# 3 37.4241 29.0376 105.3730 0.0059 -0.1275 0.0026
# 4 0.0364 0.0176 0.0059 18.9278 0.0279 -2.4811
# 5 13.5656 3.8866 -0.1275 0.0279 32.4286 0.0173
# 6 -0.0187 -0.0045 0.0026 -2.4811 0.0173 19.8181
#
#
#
# Elastic Compliance Matrix: (Units=1/GPa)
#
#
# Indices 1 2 3 4 5 6 
#
# 1 0.023387 -0.013072 -0.004714 -0.000016 -0.008235 0.000025
# 2 -0.013072 0.025764 -0.002454 -0.000003 0.002371 -0.000009
# 3 -0.004714 -0.002454 0.011843 0.000003 0.002313 -0.000008
# 4 -0.000016 -0.000003 0.000003 0.053714 -0.000043 0.006725
# 5 -0.008235 0.002371 0.002313 -0.000043 0.034007 -0.000043
# 6 0.000025 -0.000009 -0.000008 0.006725 -0.000043 0.051301
#
#
# Mechanical properties :
#
#
# Convention : Reuss Voigt Hill
#
# Bulk Modulus (GPa) = 48.74689 51.56939 50.15814
# Shear Modulus (GPa) = 20.21563 23.43584 21.82573
#
# Velocity S-wave (km/s) = 3.28344 3.53529 3.41169
# Velocity P-wave (km/s) = 6.35383 6.64577 6.50144
#
# Compressibility (1/GPa) = 0.02051413
#
# Stress axis : x y z
#
# Youngs Moduli (GPa) = 42.75900 38.81452 84.43547
#
# Poissons Ratio (x) = 0.50737 0.39801
# Poissons Ratio (y) = 0.55894 0.20723
# Poissons Ratio (z) = 0.20156 0.09526
#
# Static dielectric constant tensor:
#      x y z
#    x 3.407100 0.000000 -0.026980 
#    y 0.000000 3.125220 -0.000190 
#    z -0.026980 -0.000190 3.719580 
# 
# 
# High freq. dielectric constant tensor:
#      x y z
#    x 1.726510 0.000000 -0.005300 
#    y 0.000000 1.696410 -0.000020 
#    z -0.005300 -0.000020 1.744190 
# 
# From -- ./inp_files/364783.got.cif
#   From: 2010.06.25/outbox.cif.g09.slc.cpg/sg12_183_cif.got.tgz:364783.got - 2010.06.28 00:19:55.
