data_PCOD8093430
_publ_section_title
;
Structure prediction by ZEFSAII (Michael W. Deem and Ramdas Pophale) SiO2 
 PCOD8093430
Probable space group: C 2/M
;
_chemical_formula_sum "Si O2"
_cell_formula_units_Z 56
_cell_length_a 9.473696
_cell_length_b 15.558217
_cell_length_c 22.216227
_cell_angle_alpha 90.000000
_cell_angle_beta 120.189659
_cell_angle_gamma 90.000000
_cell_volume 2830.394916
_symmetry_space_group_name_H-M "C 2/M"
_symmetry_group_IT_number 12
_symmetry_cell_setting 'monoclinic'
loop_
_space_group_symop_operation_xyz
x,y,z
-x,y,-z
-x,-y,-z
x,-y,z
1/2+x,1/2+y,z
1/2-x,1/2+y,-z
1/2-x,1/2-y,-z
1/2+x,1/2-y,z
loop_
_atom_site_type_symbol
_atom_site_label
_atom_site_fract_x
_atom_site_fract_y
_atom_site_fract_z
Si Si1 0.681977 0.772191 0.171620
Si Si2 0.597544 0.685475 0.960078
Si Si3 0.464783 0.768350 0.735683
Si Si4 0.319565 0.401952 0.657759
Si Si5 0.532264 0.905153 0.362976
Si Si6 0.671250 0.835483 0.507810
Si Si7 0.664017 0.097254 0.064506
O O1 0.531242 0.716088 0.116610
O O2 0.649550 0.796694 0.233691
O O3 0.704357 0.855785 0.135261
O O4 0.847897 0.716938 0.204576
O O5 0.684357 0.601685 0.949791
O O6 0.500000 0.663036 0.000000
O O7 0.750000 0.750000 0.000000
O O8 0.444879 0.668493 0.711263
O O9 0.411484 0.831877 0.671021
O O10 0.387622 0.500000 0.678702
O O11 0.287399 0.382912 0.580590
O O12 0.155946 0.390863 0.661034
O O13 0.642299 0.900389 0.446396
O O14 0.557383 0.000000 0.340077
O O15 0.500000 0.808433 0.500000
O O16 0.750000 0.750000 0.500000
O O17 0.625227 0.000000 0.072903
O O18 0.500000 0.140230 0.000000
#
# Coordination Sequence:
#
# PCOD8093430 Si02
#       7
#     8   8   8   8   8   8   8
#     4  12  23  39  63  91 120 166 204 239 307 374
#     4  12  20  40  70  92 117 161 205 252 301 366
#     4  12  23  38  62  90 124 168 208 250 303 380
#     4  10  21  39  62  89 122 164 211 256 311 370
#     4  10  21  39  62  90 121 160 211 262 305 363
#     4  10  19  35  65  89 116 157 209 263 311 362
#     4  11  24  42  65  96 127 154 202 264 312 362
#
# _framework density 19.785225000000001
#
# number of rings (size 3 to 8) (size 9 to 14) (size 15 to 20)
#    0.000    1.000    7.143    0.429    0.000    3.143 
#    0.000    0.714    0.000    0.857    0.000    0.000 
#    0.000    0.000    0.000    0.000    0.000    0.000 
#
# Total GULP energy -347167.187391 kJ/mol
# GULP energy per Si atom -12398.828121 kJ/mol
# Density = 1.974019 g / cm^3
# Si number density = 19.785225 Si / 1000 Ang^3
#
#
#
# Elastic Constant Matrix: (Units=GPa)
#
#
# Indices 1 2 3 4 5 6 
#
# 1 105.1981 37.1285 39.1683 0.0000 -18.1329 0.0000
# 2 37.1285 103.8592 34.3947 0.0000 -13.9554 0.0000
# 3 39.1683 34.3947 94.9429 0.0000 -12.6595 0.0000
# 4 0.0000 0.0000 0.0000 24.0857 0.0000 0.8892
# 5 -18.1329 -13.9554 -12.6595 0.0000 38.9754 0.0000
# 6 0.0000 0.0000 0.0000 0.8892 0.0000 25.7885
#
#
#
# Elastic Compliance Matrix: (Units=1/GPa)
#
#
# Indices 1 2 3 4 5 6 
#
# 1 0.012467 -0.002757 -0.003661 0.000000 0.003624 0.000000
# 2 -0.002757 0.011840 -0.002882 0.000000 0.002020 0.000000
# 3 -0.003661 -0.002882 0.013298 0.000000 0.001584 0.000000
# 4 0.000000 0.000000 0.000000 0.041571 0.000000 -0.001433
# 5 0.003624 0.002020 0.001584 0.000000 0.028581 0.000000
# 6 0.000000 0.000000 0.000000 -0.001433 0.000000 0.038826
#
#
# Mechanical properties :
#
#
# Convention : Reuss Voigt Hill
#
# Bulk Modulus (GPa) = 52.62123 58.37591 55.49857
# Shear Modulus (GPa) = 29.15106 30.65717 29.90412
#
# Velocity S-wave (km/s) = 3.84262 3.94064 3.89194
# Velocity P-wave (km/s) = 6.80747 7.09039 6.95037
#
# Compressibility (1/GPa) = 0.01900374
#
# Stress axis : x y z
#
# Youngs Moduli (GPa) = 80.21316 84.45816 75.19709
#
# Poissons Ratio (x) = 0.23289 0.27530
# Poissons Ratio (y) = 0.22118 0.21674
# Poissons Ratio (z) = 0.29366 0.24344
#
# Static dielectric constant tensor:
#      x y z
#    x 3.720260 0.000000 -0.025270 
#    y 0.000000 3.756940 0.000000 
#    z -0.025270 0.000000 3.757300 
# 
# 
# High freq. dielectric constant tensor:
#      x y z
#    x 1.770610 0.000000 -0.004180 
#    y 0.000000 1.756090 0.000000 
#    z -0.004180 0.000000 1.780560 
# 
# From -- ./inp_files/333009.got.cif
#   From: 2010.06.25/outbox.cif.g09.slc.cpg/sg12_167_cif.got.tgz:333009.got - 2010.06.28 00:19:55.
