data_PCOD8093858
_publ_section_title
;
Structure prediction by ZEFSAII (Michael W. Deem and Ramdas Pophale) SiO2 
 PCOD8093858
Probable space group: C 2/M
;
_chemical_formula_sum "Si O2"
_cell_formula_units_Z 64
_cell_length_a 25.199105
_cell_length_b 9.158534
_cell_length_c 29.882577
_cell_angle_alpha 90.000000
_cell_angle_beta 151.520533
_cell_angle_gamma 90.000000
_cell_volume 3288.556107
_symmetry_space_group_name_H-M "C 2/M"
_symmetry_group_IT_number 12
_symmetry_cell_setting 'monoclinic'
loop_
_space_group_symop_operation_xyz
x,y,z
-x,y,-z
-x,-y,-z
x,-y,z
1/2+x,1/2+y,z
1/2-x,1/2+y,-z
1/2-x,1/2-y,-z
1/2+x,1/2-y,z
loop_
_atom_site_type_symbol
_atom_site_label
_atom_site_fract_x
_atom_site_fract_y
_atom_site_fract_z
Si Si1 0.813340 0.331108 0.249380
Si Si2 0.806809 0.170098 0.676056
Si Si3 0.762904 0.171739 0.962693
Si Si4 0.492842 0.669394 0.880253
Si Si5 0.896604 0.663928 0.891197
Si Si6 0.666039 0.674758 0.403687
Si Si7 0.062403 0.330808 0.748241
Si Si8 0.880767 0.326055 0.397231
O O1 0.779762 0.500000 0.226733
O O2 0.702583 0.242137 0.155674
O O3 0.903843 0.304194 0.278084
O O4 0.859968 0.273367 0.331201
O O5 0.930567 0.200134 0.787002
O O6 0.799292 0.230753 0.620083
O O7 0.712469 0.240366 0.638333
O O8 0.782385 0.000000 0.656042
O O9 0.663887 0.215361 0.855844
O O10 0.766202 0.000000 0.974063
O O11 0.750000 0.250000 0.000000
O O12 0.880062 0.223768 0.028250
O O13 0.487037 0.500000 0.888918
O O14 0.423498 0.754520 0.865552
O O15 0.861420 0.500000 0.853101
O O16 0.000000 0.668368 0.000000
O O17 0.672096 0.500000 0.412883
O O18 0.750000 0.750000 0.500000
O O19 0.540727 0.726219 0.319238
O O20 0.029855 0.500000 0.732016
O O21 0.879620 0.500000 0.398126
O O22 0.000000 0.263137 0.500000
#
# Coordination Sequence:
#
# PCOD8093858 Si02
#       8
#     8   8   8   8   8   8   8   8
#     4  10  20  37  62  86 113 153 196 241 286 339
#     4   9  18  34  58  87 115 146 192 242 286 342
#     4  10  21  36  57  85 118 154 198 249 297 351
#     4  10  19  36  60  85 111 146 197 244 285 342
#     4  11  23  36  52  81 120 157 189 230 289 351
#     4  11  24  41  63  88 118 157 196 243 296 349
#     4  10  22  39  59  88 120 153 198 247 295 350
#     4   9  17  30  56  90 113 138 184 239 288 333
#
# _framework density 19.461428999999999
#
# number of rings (size 3 to 8) (size 9 to 14) (size 15 to 20)
#    0.000    2.000    1.250    2.250    1.750    4.500 
#    0.000    1.250    0.000    0.375    0.000    0.000 
#    0.000    0.000    0.000    0.000    0.000    0.000 
#
# Total GULP energy -396812.950224 kJ/mol
# GULP energy per Si atom -12400.404695 kJ/mol
# Density = 1.941713 g / cm^3
# Si number density = 19.461429 Si / 1000 Ang^3
#
#
#
# Elastic Constant Matrix: (Units=GPa)
#
#
# Indices 1 2 3 4 5 6 
#
# 1 134.1269 38.8717 61.6037 0.0000 -8.6719 0.0000
# 2 38.8717 55.0558 37.9472 -0.0002 -0.0831 0.0002
# 3 61.6037 37.9472 131.6635 -0.0004 4.6413 0.0000
# 4 0.0000 -0.0002 -0.0004 24.5278 0.0001 -0.4938
# 5 -8.6719 -0.0831 4.6413 0.0001 35.2632 0.0000
# 6 0.0000 0.0002 0.0000 -0.4938 0.0000 29.2084
#
#
#
# Elastic Compliance Matrix: (Units=1/GPa)
#
#
# Indices 1 2 3 4 5 6 
#
# 1 0.010840 -0.005087 -0.003717 0.000000 0.003143 0.000000
# 2 -0.005087 0.025083 -0.004829 0.000000 -0.000556 0.000000
# 3 -0.003717 -0.004829 0.010809 0.000000 -0.002348 0.000000
# 4 0.000000 0.000000 0.000000 0.040784 0.000000 0.000690
# 5 0.003143 -0.000556 -0.002348 0.000000 0.029439 0.000000
# 6 0.000000 0.000000 0.000000 0.000690 0.000000 0.034248
#
#
# Mechanical properties :
#
#
# Convention : Reuss Voigt Hill
#
# Bulk Modulus (GPa) = 51.37293 66.41017 58.89155
# Shear Modulus (GPa) = 27.03317 29.96146 28.49732
#
# Velocity S-wave (km/s) = 3.73106 3.92794 3.83077
# Velocity P-wave (km/s) = 6.70937 7.40066 7.06348
#
# Compressibility (1/GPa) = 0.01946550
#
# Stress axis : x y z
#
# Youngs Moduli (GPa) = 92.24941 39.86762 92.51779
#
# Poissons Ratio (x) = 0.20282 0.34385
# Poissons Ratio (y) = 0.46929 0.44681
# Poissons Ratio (z) = 0.34285 0.19254
#
# Static dielectric constant tensor:
#      x y z
#    x 2.456440 0.000000 0.315380 
#    y 0.000000 3.371860 0.000000 
#    z 0.315380 0.000000 3.686240 
# 
# 
# High freq. dielectric constant tensor:
#      x y z
#    x 1.769270 0.000000 -0.001390 
#    y 0.000000 1.724500 0.000000 
#    z -0.001390 0.000000 1.770730 
# 
# From -- ./inp_files/382461.got.cif
#   From: 2010.06.25/outbox.cif.g09.slc.cpg/sg12_192_cif.got.tgz:382461.got - 2010.06.28 00:19:55.
