data_PCOD8093849
_publ_section_title
;
Structure prediction by ZEFSAII (Michael W. Deem and Ramdas Pophale) SiO2 
 PCOD8093849
Probable space group: C 2/M
;
_chemical_formula_sum "Si O2"
_cell_formula_units_Z 48
_cell_length_a 11.697631
_cell_length_b 13.739624
_cell_length_c 16.106213
_cell_angle_alpha 90.000000
_cell_angle_beta 106.994914
_cell_angle_gamma 90.000000
_cell_volume 2475.564828
_symmetry_space_group_name_H-M "C 2/M"
_symmetry_group_IT_number 12
_symmetry_cell_setting 'monoclinic'
loop_
_space_group_symop_operation_xyz
x,y,z
-x,y,-z
-x,-y,-z
x,-y,z
1/2+x,1/2+y,z
1/2-x,1/2+y,-z
1/2-x,1/2-y,-z
1/2+x,1/2-y,z
loop_
_atom_site_type_symbol
_atom_site_label
_atom_site_fract_x
_atom_site_fract_y
_atom_site_fract_z
Si Si1 0.929985 0.217097 0.564039
Si Si2 0.352277 0.232742 0.294847
Si Si3 0.910719 0.605316 0.163252
Si Si4 0.802272 0.385688 0.446383
Si Si5 0.634329 0.805529 0.013740
Si Si6 0.319584 0.109800 0.798271
O O1 0.877837 0.324210 0.529806
O O2 0.835583 0.134027 0.564736
O O3 0.000000 0.175256 0.500000
O O4 0.014747 0.226597 0.662091
O O5 0.339936 0.185447 0.201148
O O6 0.326803 0.152071 0.358973
O O7 0.260689 0.322369 0.278046
O O8 0.861835 0.500000 0.179793
O O9 0.050201 0.613635 0.214470
O O10 0.893284 0.613587 0.061069
O O11 0.833244 0.500000 0.460755
O O12 0.680443 0.853795 0.107266
O O13 0.500000 0.752859 0.000000
O O14 0.750000 0.750000 0.000000
O O15 0.268303 0.000000 0.785724
#
# Coordination Sequence:
#
# PCOD8093849 Si02
#       6
#     8   8   8   8   8   8
#     4   9  21  38  56  80 109 145 182 226 277 343
#     4  11  20  35  56  82 115 142 182 234 288 335
#     4  10  20  34  56  83 111 149 195 236 280 338
#     4  10  21  38  58  81 109 143 183 228 282 339
#     4  10  19  36  60  84 114 157 200 245 286 339
#     4  10  21  36  56  82 114 153 194 235 282 340
#
# _framework density 19.389513999999998
#
# number of rings (size 3 to 8) (size 9 to 14) (size 15 to 20)
#    0.000    2.000    1.667    2.000    0.000    6.667 
#    0.000   10.000    0.000    4.000    0.000    0.000 
#    0.000    0.000    0.000    0.000    0.000    0.000 
#
# Total GULP energy -297351.552969 kJ/mol
# GULP energy per Si atom -12389.648040 kJ/mol
# Density = 1.934538 g / cm^3
# Si number density = 19.389514 Si / 1000 Ang^3
#
#
#
# Elastic Constant Matrix: (Units=GPa)
#
#
# Indices 1 2 3 4 5 6 
#
# 1 92.6508 26.5900 1.4008 0.0000 8.8928 0.0000
# 2 26.5900 95.8473 18.5446 0.0000 11.3104 0.0000
# 3 1.4008 18.5446 56.7510 0.0000 12.3332 0.0000
# 4 0.0000 0.0000 0.0000 11.4650 0.0000 -14.7777
# 5 8.8928 11.3104 12.3332 0.0000 28.6880 0.0000
# 6 0.0000 0.0000 0.0000 -14.7777 0.0000 11.3603
#
#
#
# Elastic Compliance Matrix: (Units=1/GPa)
#
#
# Indices 1 2 3 4 5 6 
#
# 1 0.011996 -0.003244 0.001427 0.000000 -0.003053 0.000000
# 2 -0.003244 0.012273 -0.003417 0.000000 -0.002364 0.000000
# 3 0.001427 -0.003417 0.020413 0.000000 -0.007871 0.000000
# 4 0.000000 0.000000 0.000000 -0.128898 0.000000 -0.167673
# 5 -0.003053 -0.002364 -0.007871 0.000000 0.040120 0.000000
# 6 0.000000 0.000000 0.000000 -0.167673 0.000000 -0.130086
#
#
# Mechanical properties :
#
#
# Convention : Reuss Voigt Hill
#
# Bulk Modulus (GPa) = 29.22649 37.59110 33.40880
# Shear Modulus (GPa) = -32.82757 23.55025 -4.63866
#
# Velocity S-wave (km/s) = -4.11914 3.48887 -1.54840
# Velocity P-wave (km/s) = 2.74172 5.97152 3.75114
#
# Compressibility (1/GPa) = 0.03421553
#
# Stress axis : x y z
#
# Youngs Moduli (GPa) = 83.36386 81.47835 48.98938
#
# Poissons Ratio (x) = 0.26429 -0.06993
# Poissons Ratio (y) = 0.27041 0.16738
# Poissons Ratio (z) = -0.11899 0.27838
#
# Static dielectric constant tensor:
#      x y z
#    x 3.853010 0.000000 0.056660 
#    y 0.000000 3.315010 0.000000 
#    z 0.056660 0.000000 3.520130 
# 
# 
# High freq. dielectric constant tensor:
#      x y z
#    x 1.762300 0.000000 -0.001320 
#    y 0.000000 1.731580 0.000000 
#    z -0.001320 0.000000 1.762570 
# 
# From -- ./inp_files/204267.got.cif
#   From: 2010.06.25/outbox.cif.g09.slc.cpg/sg12_103_cif.got.tgz:204267.got - 2010.06.28 00:19:55.
