data_PCOD8093105
_publ_section_title
;
Structure prediction by ZEFSAII (Michael W. Deem and Ramdas Pophale) SiO2 
 PCOD8093105
Probable space group: C 2/M
;
_chemical_formula_sum "Si O2"
_cell_formula_units_Z 40
_cell_length_a 27.192759
_cell_length_b 8.732032
_cell_length_c 9.116216
_cell_angle_alpha 90.000000
_cell_angle_beta 71.340158
_cell_angle_gamma 90.000000
_cell_volume 2050.843465
_symmetry_space_group_name_H-M "C 2/M"
_symmetry_group_IT_number 12
_symmetry_cell_setting 'monoclinic'
loop_
_space_group_symop_operation_xyz
x,y,z
-x,y,-z
-x,-y,-z
x,-y,z
1/2+x,1/2+y,z
1/2-x,1/2+y,-z
1/2-x,1/2-y,-z
1/2+x,1/2-y,z
loop_
_atom_site_type_symbol
_atom_site_label
_atom_site_fract_x
_atom_site_fract_y
_atom_site_fract_z
Si Si1 0.797176 0.819450 0.365510
Si Si2 0.101509 0.678285 0.227556
Si Si3 0.797071 0.318626 0.044840
Si Si4 0.003235 0.171636 0.670873
Si Si5 0.391843 0.178300 0.439264
O O1 0.750000 0.750000 0.500000
O O2 0.797010 0.748268 0.205862
O O3 0.850756 0.780629 0.393329
O O4 0.789812 0.000000 0.361068
O O5 0.089885 0.500000 0.223499
O O6 0.113557 0.719866 0.384487
O O7 0.050818 0.764624 0.213900
O O8 0.149865 0.731732 0.084600
O O9 0.791425 0.500000 0.055701
O O10 0.750000 0.250000 0.000000
O O11 0.051134 0.277710 0.675611
O O12 0.000000 0.175362 0.500000
O O13 0.011988 0.000000 0.721540
O O14 0.381355 0.000000 0.418746
#
# Coordination Sequence:
#
# PCOD8093105 Si02
#       5
#     8   8   8   8   8
#     4  12  25  41  60  84 114 149 191 237 288 343
#     4   9  19  35  57  84 114 149 188 231 280 335
#     4  11  23  40  61  86 116 150 190 236 288 343
#     4   9  17  30  52  83 116 150 188 229 275 330
#     4  10  19  35  59  86 116 150 189 233 282 336
#
# _framework density 19.504169999999998
#
# number of rings (size 3 to 8) (size 9 to 14) (size 15 to 20)
#    0.000    1.800    0.000    4.800    0.000    6.400 
#    0.000    1.000    0.000    6.000    0.000    0.000 
#    0.000    0.000    0.000    0.000    0.000    0.000 
#
# Total GULP energy -248065.398593 kJ/mol
# GULP energy per Si atom -12403.269930 kJ/mol
# Density = 1.945978 g / cm^3
# Si number density = 19.504170 Si / 1000 Ang^3
#
#
#
# Elastic Constant Matrix: (Units=GPa)
#
#
# Indices 1 2 3 4 5 6 
#
# 1 148.4977 52.0839 72.9252 0.0000 -26.7771 0.0000
# 2 52.0839 87.1314 46.6126 0.0000 -19.5593 0.0000
# 3 72.9252 46.6126 115.5376 0.0000 -21.2837 0.0000
# 4 0.0000 0.0000 0.0000 28.4624 0.0000 -0.1233
# 5 -26.7771 -19.5593 -21.2837 0.0000 26.3532 0.0000
# 6 0.0000 0.0000 0.0000 -0.1233 0.0000 42.6847
#
#
#
# Elastic Compliance Matrix: (Units=1/GPa)
#
#
# Indices 1 2 3 4 5 6 
#
# 1 0.011062 -0.002835 -0.004882 0.000000 0.005193 0.000000
# 2 -0.002835 0.016610 -0.003726 0.000000 0.006438 0.000000
# 3 -0.004882 -0.003726 0.013882 0.000000 0.003486 0.000000
# 4 0.000000 0.000000 0.000000 0.035135 0.000000 0.000102
# 5 0.005193 0.006438 0.003486 0.000000 0.050817 0.000000
# 6 0.000000 0.000000 0.000000 0.000102 0.000000 0.023428
#
#
# Mechanical properties :
#
#
# Convention : Reuss Voigt Hill
#
# Bulk Modulus (GPa) = 53.56546 77.15668 65.36107
# Shear Modulus (GPa) = 27.77138 31.46973 29.62055
#
# Velocity S-wave (km/s) = 3.77751 4.02118 3.90125
# Velocity P-wave (km/s) = 6.82271 7.82335 7.34010
#
# Compressibility (1/GPa) = 0.01866875
#
# Stress axis : x y z
#
# Youngs Moduli (GPa) = 90.39616 60.20457 72.03711
#
# Poissons Ratio (x) = 0.17070 0.35167
# Poissons Ratio (y) = 0.25630 0.26838
# Poissons Ratio (z) = 0.44130 0.22430
#
# Static dielectric constant tensor:
#      x y z
#    x 3.788270 0.000000 -0.119670 
#    y 0.000000 3.481660 0.000000 
#    z -0.119670 0.000000 3.282750 
# 
# 
# High freq. dielectric constant tensor:
#      x y z
#    x 1.776580 0.000000 -0.012110 
#    y 0.000000 1.771160 0.000000 
#    z -0.012110 0.000000 1.741270 
# 
# From -- ./inp_files/92816.got.cif
#   From: 2010.06.25/outbox.cif.g09.slc.cpg/sg12_47_cif.got.tgz:92816.got - 2010.06.28 00:19:55.
