data_PCOD8093177
_publ_section_title
;
Structure prediction by ZEFSAII (Michael W. Deem and Ramdas Pophale) SiO2 
 PCOD8093177
Probable space group: C 2/M
;
_chemical_formula_sum "Si O2"
_cell_formula_units_Z 56
_cell_length_a 32.165557
_cell_length_b 9.132286
_cell_length_c 21.037615
_cell_angle_alpha 90.000000
_cell_angle_beta 152.643404
_cell_angle_gamma 90.000000
_cell_volume 2839.737567
_symmetry_space_group_name_H-M "C 2/M"
_symmetry_group_IT_number 12
_symmetry_cell_setting 'monoclinic'
loop_
_space_group_symop_operation_xyz
x,y,z
-x,y,-z
-x,-y,-z
x,-y,z
1/2+x,1/2+y,z
1/2-x,1/2+y,-z
1/2-x,1/2-y,-z
1/2+x,1/2-y,z
loop_
_atom_site_type_symbol
_atom_site_label
_atom_site_fract_x
_atom_site_fract_y
_atom_site_fract_z
Si Si1 0.437914 0.327199 0.791930
Si Si2 0.107136 0.830430 0.941965
Si Si3 0.150421 0.337315 0.434777
Si Si4 0.981009 0.670219 0.289071
Si Si5 0.329551 0.665516 0.756294
Si Si6 0.262784 0.171882 0.245595
Si Si7 0.546518 0.331101 0.495734
O O1 0.428388 0.500000 0.781932
O O2 0.536642 0.278127 0.901367
O O3 0.361437 0.273200 0.639297
O O4 0.415469 0.266921 0.833448
O O5 0.094820 0.736698 0.861264
O O6 0.089216 0.000000 0.901272
O O7 0.207990 0.805762 0.105578
O O8 0.130324 0.500000 0.381733
O O9 0.249325 0.323679 0.596798
O O10 0.080144 0.300721 0.395541
O O11 0.958766 0.500000 0.269328
O O12 0.980067 0.752348 0.355254
O O13 0.353640 0.500000 0.808098
O O14 0.299041 0.740403 0.780961
O O15 0.355795 0.256963 0.368006
O O16 0.283495 0.000000 0.286530
O O17 0.500000 0.313189 0.500000
O O18 0.558488 0.500000 0.492645
#
# Coordination Sequence:
#
# PCOD8093177 Si02
#       7
#     8   8   8   8   8   8   8
#     4   9  17  28  45  73 108 148 188 226 266 309
#     4   9  19  34  54  82 117 153 190 228 266 316
#     4   9  16  28  46  71 105 142 183 229 269 312
#     4  10  19  35  60  84 111 148 185 223 272 331
#     4   9  16  28  47  73 108 145 187 230 266 311
#     4  10  20  37  58  81 113 151 187 226 275 329
#     4  11  24  41  62  88 113 134 170 229 285 336
#
# _framework density 19.720130999999999
#
# number of rings (size 3 to 8) (size 9 to 14) (size 15 to 20)
#    0.000    2.429    1.429    1.286    0.000    2.857 
#    0.000    4.286    0.000    0.000    0.000    5.000 
#    0.000    0.000    0.000    0.000    0.000    0.000 
#
# Total GULP energy -347013.238652 kJ/mol
# GULP energy per Si atom -12393.329952 kJ/mol
# Density = 1.967525 g / cm^3
# Si number density = 19.720131 Si / 1000 Ang^3
#
#
#
# Elastic Constant Matrix: (Units=GPa)
#
#
# Indices 1 2 3 4 5 6 
#
# 1 93.0492 48.7952 43.1780 0.0000 -16.0393 0.0000
# 2 48.7952 77.7074 43.6191 0.0000 -13.5180 0.0000
# 3 43.1780 43.6191 72.6291 0.0000 -17.6620 0.0000
# 4 0.0000 0.0000 0.0000 26.7186 0.0000 -3.3960
# 5 -16.0393 -13.5180 -17.6620 0.0000 12.5006 0.0000
# 6 0.0000 0.0000 0.0000 -3.3960 0.0000 21.1235
#
#
#
# Elastic Compliance Matrix: (Units=1/GPa)
#
#
# Indices 1 2 3 4 5 6 
#
# 1 0.018186 -0.007529 -0.003954 0.000000 0.009606 0.000000
# 2 -0.007529 0.022928 -0.008552 0.000000 0.003050 0.000000
# 3 -0.003954 -0.008552 0.027075 0.000000 0.023934 0.000000
# 4 0.000000 0.000000 0.000000 0.038208 0.000000 0.006143
# 5 0.009606 0.003050 0.023934 0.000000 0.129435 0.000000
# 6 0.000000 0.000000 0.000000 0.006143 0.000000 0.048328
#
#
# Mechanical properties :
#
#
# Convention : Reuss Voigt Hill
#
# Bulk Modulus (GPa) = 35.56288 57.17447 46.36868
# Shear Modulus (GPa) = 14.98790 19.25475 17.12133
#
# Velocity S-wave (km/s) = 2.75986 3.12813 2.94975
# Velocity P-wave (km/s) = 5.31307 6.48867 5.93007
#
# Compressibility (1/GPa) = 0.02811921
#
# Stress axis : x y z
#
# Youngs Moduli (GPa) = 54.98822 43.61553 36.93409
#
# Poissons Ratio (x) = 0.32839 0.14603
# Poissons Ratio (y) = 0.41401 0.31586
# Poissons Ratio (z) = 0.21741 0.37299
#
# Static dielectric constant tensor:
#      x y z
#    x 3.694460 0.000000 -0.085080 
#    y 0.000000 3.457230 0.000000 
#    z -0.085080 0.000000 3.434830 
# 
# 
# High freq. dielectric constant tensor:
#      x y z
#    x 1.767750 0.000000 -0.009300 
#    y 0.000000 1.741080 0.000000 
#    z -0.009300 0.000000 1.760910 
# 
# From -- ./inp_files/329642.got.cif
#   From: 2010.06.25/outbox.cif.g09.slc.cpg/sg12_165_cif.got.tgz:329642.got - 2010.06.28 00:19:55.
