data_PCOD8093413
_publ_section_title
;
Structure prediction by ZEFSAII (Michael W. Deem and Ramdas Pophale) SiO2 
 PCOD8093413
Probable space group: C 2/M
;
_chemical_formula_sum "Si O2"
_cell_formula_units_Z 40
_cell_length_a 9.412631
_cell_length_b 18.011720
_cell_length_c 11.069377
_cell_angle_alpha 90.000000
_cell_angle_beta 92.818382
_cell_angle_gamma 90.000000
_cell_volume 1874.406427
_symmetry_space_group_name_H-M "C 2/M"
_symmetry_group_IT_number 12
_symmetry_cell_setting 'monoclinic'
loop_
_space_group_symop_operation_xyz
x,y,z
-x,y,-z
-x,-y,-z
x,-y,z
1/2+x,1/2+y,z
1/2-x,1/2+y,-z
1/2-x,1/2-y,-z
1/2+x,1/2-y,z
loop_
_atom_site_type_symbol
_atom_site_label
_atom_site_fract_x
_atom_site_fract_y
_atom_site_fract_z
Si Si1 0.494759 0.414657 0.129105
Si Si2 0.988264 0.299621 0.854314
Si Si3 0.666724 0.585825 0.481546
Si Si4 0.776569 0.586120 0.746451
Si Si5 0.287571 0.671580 0.747944
O O1 0.459530 0.500000 0.111506
O O2 0.367094 0.379523 0.201643
O O3 0.648934 0.405035 0.195827
O O4 0.500000 0.373762 0.000000
O O5 0.910870 0.375275 0.813595
O O6 0.907245 0.232237 0.786113
O O7 0.143431 0.302759 0.802434
O O8 0.000000 0.291740 0.000000
O O9 0.500000 0.599055 0.500000
O O10 0.686906 0.500000 0.437848
O O11 0.763432 0.599909 0.603168
O O12 0.725735 0.649845 0.393741
O O13 0.794785 0.500000 0.776028
#
# Coordination Sequence:
#
# PCOD8093413 Si02
#       5
#     8   8   8   8   8
#     4  10  19  35  63  94 124 166 217 265 320 388
#     4  12  27  45  65  94 134 177 219 274 329 383
#     4  10  21  42  72  99 130 170 216 270 324 387
#     4  10  22  42  66  96 132 169 215 272 328 386
#     4  12  24  41  65  93 129 175 220 265 324 390
#
# _framework density 21.34009
#
# number of rings (size 3 to 8) (size 9 to 14) (size 15 to 20)
#    0.000    1.200    2.000    4.200    0.000    3.600 
#    0.000    2.000    0.000    0.000    0.000    0.000 
#    0.000    0.000    0.000    0.000    0.000    0.000 
#
# Total GULP energy -247845.717339 kJ/mol
# GULP energy per Si atom -12392.285867 kJ/mol
# Density = 2.129152 g / cm^3
# Si number density = 21.340090 Si / 1000 Ang^3
#
#
#
# Elastic Constant Matrix: (Units=GPa)
#
#
# Indices 1 2 3 4 5 6 
#
# 1 136.8031 45.2377 50.6966 0.0000 -14.1352 0.0000
# 2 45.2377 76.3641 63.7144 0.0000 -1.0746 0.0000
# 3 50.6966 63.7144 140.2977 0.0000 -9.7971 0.0000
# 4 0.0000 0.0000 0.0000 21.0546 0.0000 15.6106
# 5 -14.1352 -1.0746 -9.7971 0.0000 37.6499 0.0000
# 6 0.0000 0.0000 0.0000 15.6106 0.0000 34.2954
#
#
#
# Elastic Compliance Matrix: (Units=1/GPa)
#
#
# Indices 1 2 3 4 5 6 
#
# 1 0.009611 -0.004728 -0.001103 0.000000 0.003186 0.000000
# 2 -0.004728 0.023548 -0.009230 0.000000 -0.003505 0.000000
# 3 -0.001103 -0.009230 0.011887 0.000000 0.002415 0.000000
# 4 0.000000 0.000000 0.000000 0.071690 0.000000 -0.032632
# 5 0.003186 -0.003505 0.002415 0.000000 0.028285 0.000000
# 6 0.000000 0.000000 0.000000 -0.032632 0.000000 0.044012
#
#
# Mechanical properties :
#
#
# Convention : Reuss Voigt Hill
#
# Bulk Modulus (GPa) = 67.01232 74.75138 70.88185
# Shear Modulus (GPa) = 22.30834 31.52106 26.91470
#
# Velocity S-wave (km/s) = 3.23673 3.84745 3.55523
# Velocity P-wave (km/s) = 6.74083 7.40553 7.08098
#
# Compressibility (1/GPa) = 0.01492263
#
# Stress axis : x y z
#
# Youngs Moduli (GPa) = 104.04266 42.46612 84.12677
#
# Poissons Ratio (x) = 0.20080 0.09281
# Poissons Ratio (y) = 0.49196 0.77651
# Poissons Ratio (z) = 0.11478 0.39197
#
# Static dielectric constant tensor:
#      x y z
#    x 3.936390 0.000000 -0.068130 
#    y 0.000000 3.907820 0.000000 
#    z -0.068130 0.000000 4.246500 
# 
# 
# High freq. dielectric constant tensor:
#      x y z
#    x 1.828600 0.000000 0.004700 
#    y 0.000000 1.840960 0.000000 
#    z 0.004700 0.000000 1.851720 
# 
# From -- ./inp_files/118944.got.cif
#   From: 2010.06.25/outbox.cif.g09.slc.cpg/sg12_60_cif.got.tgz:118944.got - 2010.06.28 00:19:55.
