data_PCOD8093881
_publ_section_title
;
Structure prediction by ZEFSAII (Michael W. Deem and Ramdas Pophale) SiO2 
 PCOD8093881
Probable space group: C 2/M
;
_chemical_formula_sum "Si O2"
_cell_formula_units_Z 52
_cell_length_a 15.727560
_cell_length_b 17.617670
_cell_length_c 15.594294
_cell_angle_alpha 90.000000
_cell_angle_beta 38.520608
_cell_angle_gamma 90.000000
_cell_volume 2691.047798
_symmetry_space_group_name_H-M "C 2/M"
_symmetry_group_IT_number 12
_symmetry_cell_setting 'monoclinic'
loop_
_space_group_symop_operation_xyz
x,y,z
-x,y,-z
-x,-y,-z
x,-y,z
1/2+x,1/2+y,z
1/2-x,1/2+y,-z
1/2-x,1/2-y,-z
1/2+x,1/2-y,z
loop_
_atom_site_type_symbol
_atom_site_label
_atom_site_fract_x
_atom_site_fract_y
_atom_site_fract_z
Si Si1 0.540438 0.230710 0.653609
Si Si2 0.765489 0.836374 0.596280
Si Si3 0.731720 0.154038 0.151449
Si Si4 0.912451 0.000000 0.814997
Si Si5 0.899447 0.000000 0.496231
Si Si6 0.324311 0.334606 0.890796
Si Si7 0.847600 0.714938 0.135373
Si Si8 0.878940 0.000000 0.029589
O O1 0.648821 0.178057 0.617613
O O2 0.609657 0.279155 0.522189
O O3 0.427497 0.172872 0.703145
O O4 0.473803 0.294224 0.769734
O O5 0.707981 0.819643 0.734639
O O6 0.807814 0.924454 0.567276
O O7 0.830644 0.193546 0.144827
O O8 0.770782 0.067160 0.125424
O O9 0.756086 0.186288 0.035396
O O10 0.823613 0.075360 0.876075
O O11 0.027539 0.000000 0.652782
O O12 0.963542 0.000000 0.873546
O O13 0.000000 0.000000 0.500000
O O14 0.242598 0.307098 0.873948
O O15 0.000000 0.686631 0.000000
O O16 0.000000 0.000000 0.000000
#
# Coordination Sequence:
#
# PCOD8093881 Si02
#       8
#     8   8   8   4   4   8   8   4
#     4  10  21  39  57  86 120 158 207 242 310 354
#     4  11  24  38  62  88 121 161 204 255 298 385
#     4  10  21  36  61  84 120 157 200 256 303 361
#     4  10  20  38  61  83 127 158 202 256 303 361
#     4  12  24  41  62  92 125 167 204 246 315 378
#     4  10  19  36  60  86 116 160 200 246 307 363
#     4  11  21  36  59  88 120 155 204 254 308 359
#     4  10  22  39  61  94 118 162 212 255 311 373
#
# _framework density 19.323328
#
# number of rings (size 3 to 8) (size 9 to 14) (size 15 to 20)
#    0.000    1.538    1.538    5.077    2.154    1.846 
#    0.000    3.077    0.000    1.846    0.000    0.000 
#    0.000    0.000    0.000    0.000    0.000    0.000 
#
# Total GULP energy -322172.822217 kJ/mol
# GULP energy per Si atom -12391.262393 kJ/mol
# Density = 1.927935 g / cm^3
# Si number density = 19.323328 Si / 1000 Ang^3
#
#
#
# Elastic Constant Matrix: (Units=GPa)
#
#
# Indices 1 2 3 4 5 6 
#
# 1 76.7788 52.8720 53.3217 0.0004 -3.5514 -0.0002
# 2 52.8720 132.7086 58.4445 0.0004 1.0721 -0.0002
# 3 53.3217 58.4445 146.0353 0.0011 0.0079 -0.0006
# 4 0.0004 0.0004 0.0011 27.7469 -0.0007 -11.4460
# 5 -3.5514 1.0721 0.0079 -0.0007 29.6139 0.0004
# 6 -0.0002 -0.0002 -0.0006 -11.4460 0.0004 24.8191
#
#
#
# Elastic Compliance Matrix: (Units=1/GPa)
#
#
# Indices 1 2 3 4 5 6 
#
# 1 0.020960 -0.006072 -0.005223 0.000000 0.002735 0.000000
# 2 -0.006072 0.010910 -0.002149 0.000000 -0.001123 0.000000
# 3 -0.005223 -0.002149 0.009615 0.000000 -0.000551 0.000000
# 4 0.000000 0.000000 0.000000 0.044507 0.000001 0.020526
# 5 0.002735 -0.001123 -0.000551 0.000001 0.034137 0.000000
# 6 0.000000 0.000000 0.000000 0.020526 0.000000 0.049757
#
#
# Mechanical properties :
#
#
# Convention : Reuss Voigt Hill
#
# Bulk Modulus (GPa) = 68.51242 76.08878 72.30060
# Shear Modulus (GPa) = 24.79662 29.16161 26.97911
#
# Velocity S-wave (km/s) = 3.58613 3.88898 3.74062
# Velocity P-wave (km/s) = 7.25809 7.72190 7.49358
#
# Compressibility (1/GPa) = 0.01459589
#
# Stress axis : x y z
#
# Youngs Moduli (GPa) = 47.71023 91.65804 104.00648
#
# Poissons Ratio (x) = 0.55659 0.54322
# Poissons Ratio (y) = 0.28972 0.22351
# Poissons Ratio (z) = 0.24919 0.19697
#
# Static dielectric constant tensor:
#      x y z
#    x 4.645790 0.000000 0.560000 
#    y 0.000000 4.140750 0.000000 
#    z 0.560000 0.000000 3.974710 
# 
# 
# High freq. dielectric constant tensor:
#      x y z
#    x 1.746760 0.000000 0.005220 
#    y 0.000000 1.767560 0.000000 
#    z 0.005220 0.000000 1.754720 
# 
# From -- ./inp_files/216733.got.cif
#   From: 2010.06.25/outbox.cif.g09.slc.cpg/sg12_109_cif.got.tgz:216733.got - 2010.06.28 00:19:55.
