data_PCOD8093138
_publ_section_title
;
Structure prediction by ZEFSAII (Michael W. Deem and Ramdas Pophale) SiO2 
 PCOD8093138
Probable space group: C 2/M
;
_chemical_formula_sum "Si O2"
_cell_formula_units_Z 48
_cell_length_a 9.783627
_cell_length_b 18.720990
_cell_length_c 21.160037
_cell_angle_alpha 90.000000
_cell_angle_beta 38.027169
_cell_angle_gamma 90.000000
_cell_volume 2387.539464
_symmetry_space_group_name_H-M "C 2/M"
_symmetry_group_IT_number 12
_symmetry_cell_setting 'monoclinic'
loop_
_space_group_symop_operation_xyz
x,y,z
-x,y,-z
-x,-y,-z
x,-y,z
1/2+x,1/2+y,z
1/2-x,1/2+y,-z
1/2-x,1/2-y,-z
1/2+x,1/2-y,z
loop_
_atom_site_type_symbol
_atom_site_label
_atom_site_fract_x
_atom_site_fract_y
_atom_site_fract_z
Si Si1 0.467739 0.580229 0.940432
Si Si2 0.834833 0.079241 0.501824
Si Si3 0.237417 0.695962 0.948062
Si Si4 0.564230 0.769292 0.734229
Si Si5 0.539108 0.919547 0.268524
Si Si6 0.037425 0.215150 0.606866
O O1 0.377053 0.500000 0.982091
O O2 0.289432 0.619999 0.961535
O O3 0.697507 0.581790 0.817819
O O4 0.500000 0.613316 0.000000
O O5 0.586921 0.096131 0.619057
O O6 0.915228 0.130306 0.416077
O O7 0.000000 0.089440 0.500000
O O8 0.845006 0.000000 0.469687
O O9 0.430167 0.720967 0.831411
O O10 0.250000 0.750000 0.000000
O O11 0.000000 0.693339 0.000000
O O12 0.516800 0.854772 0.759567
O O13 0.487788 0.738766 0.695368
O O14 0.826110 0.758699 0.644369
O O15 0.467273 0.000000 0.270085
O O16 0.250000 0.250000 0.500000
#
# Coordination Sequence:
#
# PCOD8093138 Si02
#       6
#     8   8   8   8   8   8
#     4  10  22  42  68  94 123 164 212 261 317 382
#     4  10  19  35  59  88 121 160 207 257 301 360
#     4  12  25  43  65  93 130 165 209 266 323 377
#     4  12  24  38  62  92 122 163 205 256 314 372
#     4  10  19  35  60  90 119 155 205 256 306 365
#     4  12  22  38  58  89 123 159 204 253 307 366
#
# _framework density 20.104379000000002
#
# number of rings (size 3 to 8) (size 9 to 14) (size 15 to 20)
#    0.000    1.000    3.333    5.000    0.000    0.333 
#    0.000    0.833    0.000    5.000    0.000    0.000 
#    0.000    0.000    0.000    0.000    0.000    0.000 
#
# Total GULP energy -297439.177970 kJ/mol
# GULP energy per Si atom -12393.299082 kJ/mol
# Density = 2.005862 g / cm^3
# Si number density = 20.104379 Si / 1000 Ang^3
#
#
#
# Elastic Constant Matrix: (Units=GPa)
#
#
# Indices 1 2 3 4 5 6 
#
# 1 98.3310 53.4016 23.9587 0.0084 -13.0643 -0.0185
# 2 53.4016 120.5625 34.2549 -0.0579 2.0998 -0.0014
# 3 23.9587 34.2549 82.8543 -0.0986 -11.0838 -0.0126
# 4 0.0084 -0.0579 -0.0986 30.9505 -0.0019 -0.1604
# 5 -13.0643 2.0998 -11.0838 -0.0019 37.5763 0.0402
# 6 -0.0185 -0.0014 -0.0126 -0.1604 0.0402 29.9725
#
#
#
# Elastic Compliance Matrix: (Units=1/GPa)
#
#
# Indices 1 2 3 4 5 6 
#
# 1 0.014456 -0.006230 -0.000922 -0.000018 0.005102 0.000001
# 2 -0.006230 0.012194 -0.003770 0.000012 -0.003959 0.000001
# 3 -0.000922 -0.003770 0.014450 0.000039 0.004152 0.000000
# 4 -0.000018 0.000012 0.000039 0.032311 0.000006 0.000173
# 5 0.005102 -0.003959 0.004152 0.000006 0.029832 -0.000035
# 6 0.000001 0.000001 0.000000 0.000173 -0.000035 0.033365
#
#
# Mechanical properties :
#
#
# Convention : Reuss Voigt Hill
#
# Bulk Modulus (GPa) = 51.92981 58.33090 55.13036
# Shear Modulus (GPa) = 30.32712 32.37536 31.35124
#
# Velocity S-wave (km/s) = 3.88813 4.01729 3.95324
# Velocity P-wave (km/s) = 6.78550 7.11303 6.95119
#
# Compressibility (1/GPa) = 0.01925676
#
# Stress axis : x y z
#
# Youngs Moduli (GPa) = 69.17775 82.00852 69.20431
#
# Poissons Ratio (x) = 0.51090 0.06380
# Poissons Ratio (y) = 0.43096 0.26087
# Poissons Ratio (z) = 0.06378 0.30914
#
# Static dielectric constant tensor:
#      x y z
#    x 4.388970 0.002850 0.042900 
#    y 0.002850 4.300850 0.000530 
#    z 0.042900 0.000530 3.881890 
# 
# 
# High freq. dielectric constant tensor:
#      x y z
#    x 1.748540 0.000000 -0.015290 
#    y 0.000000 1.799990 0.000010 
#    z -0.015290 0.000010 1.802190 
# 
# From -- ./inp_files/301580.got.cif
#   From: 2010.06.25/outbox.cif.g09.slc.cpg/sg12_151_cif.got.tgz:301580.got - 2010.06.28 00:19:55.
