data_PCOD8093114
_publ_section_title
;
Structure prediction by ZEFSAII (Michael W. Deem and Ramdas Pophale) SiO2 
 PCOD8093114
Probable space group: C 2/M
;
_chemical_formula_sum "Si O2"
_cell_formula_units_Z 64
_cell_length_a 15.368175
_cell_length_b 9.146119
_cell_length_c 23.570028
_cell_angle_alpha 90.000000
_cell_angle_beta 88.615912
_cell_angle_gamma 90.000000
_cell_volume 3312.016667
_symmetry_space_group_name_H-M "C 2/M"
_symmetry_group_IT_number 12
_symmetry_cell_setting 'monoclinic'
loop_
_space_group_symop_operation_xyz
x,y,z
-x,y,-z
-x,-y,-z
x,-y,z
1/2+x,1/2+y,z
1/2-x,1/2+y,-z
1/2-x,1/2-y,-z
1/2+x,1/2-y,z
loop_
_atom_site_type_symbol
_atom_site_label
_atom_site_fract_x
_atom_site_fract_y
_atom_site_fract_z
Si Si1 0.409564 0.672183 0.362569
Si Si2 0.245745 0.328246 0.440498
Si Si3 0.839816 0.332474 0.131627
Si Si4 0.358891 0.671570 0.855194
Si Si5 0.340388 0.167600 0.743906
Si Si6 0.924150 0.666194 0.624372
Si Si7 0.836957 0.329324 0.261463
Si Si8 0.512007 0.672269 0.936253
O O1 0.413817 0.500000 0.352637
O O2 0.327771 0.719589 0.401617
O O3 0.495976 0.728422 0.393130
O O4 0.405577 0.752140 0.301755
O O5 0.246719 0.500000 0.450834
O O6 0.250000 0.250000 0.500000
O O7 0.159235 0.278266 0.409075
O O8 0.854156 0.500000 0.114491
O O9 0.738930 0.287670 0.123566
O O10 0.867096 0.304648 0.196323
O O11 0.899734 0.236136 0.090589
O O12 0.364085 0.500000 0.840521
O O13 0.384326 0.761533 0.798639
O O14 0.426579 0.719146 0.902470
O O15 0.408411 0.176508 0.691858
O O16 0.256003 0.256642 0.726534
O O17 0.313950 0.000000 0.756784
O O18 0.947122 0.500000 0.606990
O O19 0.830286 0.500000 0.276034
O O20 0.523485 0.500000 0.935945
O O21 0.500000 0.732628 0.000000
#
# Coordination Sequence:
#
# PCOD8093114 Si02
#       8
#     8   8   8   8   8   8   8   8
#     4  11  23  39  60  90 122 155 199 245 290 348
#     4  10  23  44  64  85 119 158 199 246 293 344
#     4   9  20  37  56  81 114 150 189 237 289 347
#     4   9  20  38  56  81 116 153 191 237 294 351
#     4  10  19  35  59  86 120 154 193 242 291 349
#     4  10  22  40  59  86 123 158 194 243 297 349
#     4  10  20  36  59  87 122 157 192 237 298 356
#     4  10  22  39  58  82 114 152 196 242 288 345
#
# _framework density 19.323575000000002
#
# number of rings (size 3 to 8) (size 9 to 14) (size 15 to 20)
#    0.000    2.125    1.250    1.875    1.750    6.750 
#    0.000    2.500    0.000    0.000    0.000    0.000 
#    0.000    0.000    0.000    0.000    0.000    0.000 
#
# Total GULP energy -396886.948297 kJ/mol
# GULP energy per Si atom -12402.717134 kJ/mol
# Density = 1.927959 g / cm^3
# Si number density = 19.323575 Si / 1000 Ang^3
#
#
#
# Elastic Constant Matrix: (Units=GPa)
#
#
# Indices 1 2 3 4 5 6 
#
# 1 120.5087 45.1717 58.9817 0.0000 15.9405 0.0000
# 2 45.1717 71.3950 44.7328 0.0000 5.3629 0.0000
# 3 58.9817 44.7328 114.2000 0.0000 17.3438 0.0000
# 4 0.0000 0.0000 0.0000 31.9518 0.0000 -2.8064
# 5 15.9405 5.3629 17.3438 0.0000 21.7887 0.0000
# 6 0.0000 0.0000 0.0000 -2.8064 0.0000 34.1594
#
#
#
# Elastic Compliance Matrix: (Units=1/GPa)
#
#
# Indices 1 2 3 4 5 6 
#
# 1 0.012819 -0.005386 -0.003740 0.000000 -0.005075 0.000000
# 2 -0.005386 0.020862 -0.005925 0.000000 0.003522 0.000000
# 3 -0.003740 -0.005925 0.014073 0.000000 -0.007008 0.000000
# 4 0.000000 0.000000 0.000000 0.031525 0.000000 0.002590
# 5 -0.005075 0.003522 -0.007008 0.000000 0.054320 0.000000
# 6 0.000000 0.000000 0.000000 0.002590 0.000000 0.029487
#
#
# Mechanical properties :
#
#
# Convention : Reuss Voigt Hill
#
# Bulk Modulus (GPa) = 56.64970 67.09734 61.87352
# Shear Modulus (GPa) = 25.11650 28.06115 26.58882
#
# Velocity S-wave (km/s) = 3.60916 3.81487 3.71344
# Velocity P-wave (km/s) = 6.83726 7.36225 7.10461
#
# Compressibility (1/GPa) = 0.01765234
#
# Stress axis : x y z
#
# Youngs Moduli (GPa) = 78.00923 47.93409 71.05597
#
# Poissons Ratio (x) = 0.25817 0.26577
# Poissons Ratio (y) = 0.42015 0.42100
# Poissons Ratio (z) = 0.29177 0.28400
#
# Static dielectric constant tensor:
#      x y z
#    x 3.536910 0.000000 0.122790 
#    y 0.000000 3.495190 0.000000 
#    z 0.122790 0.000000 3.550890 
# 
# 
# High freq. dielectric constant tensor:
#      x y z
#    x 1.757340 0.000000 0.006210 
#    y 0.000000 1.750870 0.000000 
#    z 0.006210 0.000000 1.746360 
# 
# From -- ./inp_files/338751.got.cif
#   From: 2010.06.25/outbox.cif.g09.slc.cpg/sg12_170_cif.got.tgz:338751.got - 2010.06.28 00:19:55.
