data_PCOD8093851
_publ_section_title
;
Structure prediction by ZEFSAII (Michael W. Deem and Ramdas Pophale) SiO2 
 PCOD8093851
Probable space group: C 2/M
;
_chemical_formula_sum "Si O2"
_cell_formula_units_Z 56
_cell_length_a 24.703218
_cell_length_b 9.158872
_cell_length_c 17.046821
_cell_angle_alpha 90.000000
_cell_angle_beta 133.147048
_cell_angle_gamma 90.000000
_cell_volume 2814.001479
_symmetry_space_group_name_H-M "C 2/M"
_symmetry_group_IT_number 12
_symmetry_cell_setting 'monoclinic'
loop_
_space_group_symop_operation_xyz
x,y,z
-x,y,-z
-x,-y,-z
x,-y,z
1/2+x,1/2+y,z
1/2-x,1/2+y,-z
1/2-x,1/2-y,-z
1/2+x,1/2-y,z
loop_
_atom_site_type_symbol
_atom_site_label
_atom_site_fract_x
_atom_site_fract_y
_atom_site_fract_z
Si Si1 0.568281 0.332627 0.793227
Si Si2 0.084703 0.667881 0.368927
Si Si3 0.323501 0.672838 0.960453
Si Si4 0.327694 0.669206 0.670502
Si Si5 0.419267 0.330127 0.912038
Si Si6 0.679136 0.167958 0.608050
Si Si7 0.681009 0.331163 0.772178
O O1 0.546354 0.500000 0.787554
O O2 0.493734 0.240811 0.725519
O O3 0.604429 0.312263 0.743688
O O4 0.626435 0.279305 0.916464
O O5 0.079057 0.500000 0.339093
O O6 0.151263 0.738742 0.384923
O O7 0.106255 0.684954 0.481845
O O8 0.309182 0.500000 0.945788
O O9 0.362359 0.732747 0.919704
O O10 0.244617 0.752727 0.886021
O O11 0.322699 0.500000 0.641806
O O12 0.391478 0.698585 0.797295
O O13 0.250016 0.723865 0.629171
O O14 0.426547 0.500000 0.938893
O O15 0.500000 0.255058 0.000000
O O16 0.668338 0.262515 0.674626
O O17 0.692472 0.000000 0.646654
O O18 0.702188 0.500000 0.783742
#
# Coordination Sequence:
#
# PCOD8093851 Si02
#       7
#     8   8   8   8   8   8   8
#     4  10  23  41  61  86 118 160 200 236 293 359
#     4  11  24  39  59  88 119 152 197 252 299 342
#     4  10  19  37  62  85 116 158 199 235 282 357
#     4  10  19  36  60  84 116 155 195 237 287 359
#     4   9  16  28  53  85 112 148 193 228 269 340
#     4  10  22  41  62  85 115 159 204 236 290 362
#     4  11  23  38  60  91 121 151 195 250 298 341
#
# _framework density 19.900487999999999
#
# number of rings (size 3 to 8) (size 9 to 14) (size 15 to 20)
#    0.000    1.857    1.429    2.571    0.000    6.286 
#    0.000    2.857    0.000    1.714    0.000    0.000 
#    0.000    0.000    0.000    0.000    0.000    0.000 
#
# Total GULP energy -347276.756485 kJ/mol
# GULP energy per Si atom -12402.741303 kJ/mol
# Density = 1.985519 g / cm^3
# Si number density = 19.900488 Si / 1000 Ang^3
#
#
#
# Elastic Constant Matrix: (Units=GPa)
#
#
# Indices 1 2 3 4 5 6 
#
# 1 77.1551 37.4005 15.9911 0.0000 -12.9777 0.0000
# 2 37.4005 75.0007 31.9632 0.0000 -10.8351 0.0000
# 3 15.9911 31.9632 66.0134 0.0000 -12.2961 0.0000
# 4 0.0000 0.0000 0.0000 30.9527 0.0000 -0.2838
# 5 -12.9777 -10.8351 -12.2961 0.0000 27.1886 0.0000
# 6 0.0000 0.0000 0.0000 -0.2838 0.0000 30.0069
#
#
#
# Elastic Compliance Matrix: (Units=1/GPa)
#
#
# Indices 1 2 3 4 5 6 
#
# 1 0.017804 -0.008420 0.000788 0.000000 0.005499 0.000000
# 2 -0.008420 0.021056 -0.008017 0.000000 0.000747 0.000000
# 3 0.000788 -0.008017 0.019999 0.000000 0.006226 0.000000
# 4 0.000000 0.000000 0.000000 0.032310 0.000000 0.000306
# 5 0.005499 0.000747 0.006226 0.000000 0.042518 0.000000
# 6 0.000000 0.000000 0.000000 0.000306 0.000000 0.033329
#
#
# Mechanical properties :
#
#
# Convention : Reuss Voigt Hill
#
# Bulk Modulus (GPa) = 36.28071 43.20876 39.74474
# Shear Modulus (GPa) = 24.09644 26.48393 25.29018
#
# Velocity S-wave (km/s) = 3.48350 3.65200 3.56874
# Velocity P-wave (km/s) = 5.86944 6.28827 6.08246
#
# Compressibility (1/GPa) = 0.02756286
#
# Stress axis : x y z
#
# Youngs Moduli (GPa) = 56.16732 47.49204 50.00321
#
# Poissons Ratio (x) = 0.39987 -0.03942
# Poissons Ratio (y) = 0.47291 0.40085
# Poissons Ratio (z) = -0.04427 0.38072
#
# Static dielectric constant tensor:
#      x y z
#    x 3.652290 0.000000 -0.010420 
#    y 0.000000 3.386490 0.000000 
#    z -0.010420 0.000000 3.634850 
# 
# 
# High freq. dielectric constant tensor:
#      x y z
#    x 1.782240 0.000000 -0.001200 
#    y 0.000000 1.752090 0.000000 
#    z -0.001200 0.000000 1.787570 
# 
# From -- ./inp_files/288454.got.cif
#   From: 2010.06.25/outbox.cif.g09.slc.cpg/sg12_145_cif.got.tgz:288454.got - 2010.06.28 00:19:55.
