data_PCOD8093728
_publ_section_title
;
Structure prediction by ZEFSAII (Michael W. Deem and Ramdas Pophale) SiO2 
 PCOD8093728
Probable space group: C 2/M
;
_chemical_formula_sum "Si O2"
_cell_formula_units_Z 56
_cell_length_a 30.875205
_cell_length_b 8.751549
_cell_length_c 19.225813
_cell_angle_alpha 90.000000
_cell_angle_beta 33.555412
_cell_angle_gamma 90.000000
_cell_volume 2871.460840
_symmetry_space_group_name_H-M "C 2/M"
_symmetry_group_IT_number 12
_symmetry_cell_setting 'monoclinic'
loop_
_space_group_symop_operation_xyz
x,y,z
-x,y,-z
-x,-y,-z
x,-y,z
1/2+x,1/2+y,z
1/2-x,1/2+y,-z
1/2-x,1/2-y,-z
1/2+x,1/2-y,z
loop_
_atom_site_type_symbol
_atom_site_label
_atom_site_fract_x
_atom_site_fract_y
_atom_site_fract_z
Si Si1 0.812853 0.174264 0.321440
Si Si2 0.344578 0.675091 0.434387
Si Si3 0.777481 0.819086 0.890228
Si Si4 0.578140 0.820526 0.930116
Si Si5 0.626969 0.180209 0.013285
Si Si6 0.493340 0.824297 0.296016
Si Si7 0.056298 0.323526 0.363112
O O1 0.721546 0.212574 0.448527
O O2 0.856039 0.203455 0.336940
O O3 0.849093 0.286585 0.216605
O O4 0.822385 0.000000 0.284315
O O5 0.320522 0.500000 0.480759
O O6 0.423717 0.713540 0.367957
O O7 0.862256 0.766717 0.750145
O O8 0.777312 0.000000 0.899573
O O9 0.750000 0.750000 0.000000
O O10 0.714594 0.765414 0.915896
O O11 0.566241 0.000000 0.953781
O O12 0.500000 0.747074 0.000000
O O13 0.596735 0.747078 0.980975
O O14 0.569791 0.230506 0.151972
O O15 0.627062 0.000000 0.004818
O O16 0.508044 0.801006 0.357378
O O17 0.472492 0.000000 0.306173
O O18 0.077441 0.500000 0.347741
O O19 0.000000 0.260829 0.500000
#
# Coordination Sequence:
#
# PCOD8093728 Si02
#       7
#     8   8   8   8   8   8   8
#     4  10  21  37  55  78 111 149 186 231 286 336
#     4  10  21  36  56  81 109 144 190 234 277 340
#     4  11  21  38  62  86 118 156 199 247 297 352
#     4  10  20  35  57  83 113 149 190 234 282 340
#     4   9  19  35  57  85 114 150 192 237 287 342
#     4  10  19  36  59  82 113 148 186 233 288 346
#     4  10  22  40  61  87 120 155 194 243 300 357
#
# _framework density 19.502267
#
# number of rings (size 3 to 8) (size 9 to 14) (size 15 to 20)
#    0.000    2.000    1.429    2.143    0.000    5.143 
#    0.000    5.000    0.000    0.000    0.000    0.000 
#    0.000    0.000    0.000    0.000    0.000    0.000 
#
# Total GULP energy -347220.770652 kJ/mol
# GULP energy per Si atom -12400.741809 kJ/mol
# Density = 1.945788 g / cm^3
# Si number density = 19.502267 Si / 1000 Ang^3
#
#
#
# Elastic Constant Matrix: (Units=GPa)
#
#
# Indices 1 2 3 4 5 6 
#
# 1 135.1033 35.3250 67.2162 -0.0014 -4.3383 0.0006
# 2 35.3250 40.6152 26.4228 -0.0045 -2.4711 0.0012
# 3 67.2162 26.4228 120.9223 -0.0093 7.8561 0.0020
# 4 -0.0014 -0.0045 -0.0093 32.4119 0.0017 -4.9240
# 5 -4.3383 -2.4711 7.8561 0.0017 34.1773 -0.0011
# 6 0.0006 0.0012 0.0020 -4.9240 -0.0011 23.2237
#
#
#
# Elastic Compliance Matrix: (Units=1/GPa)
#
#
# Indices 1 2 3 4 5 6 
#
# 1 0.011856 -0.006755 -0.005259 -0.000002 0.002225 0.000000
# 2 -0.006755 0.032986 -0.003606 0.000003 0.002356 0.000000
# 3 -0.005259 -0.003606 0.012224 0.000003 -0.003738 0.000000
# 4 -0.000002 0.000003 0.000003 0.031880 -0.000002 0.006759
# 5 0.002225 0.002356 -0.003738 -0.000002 0.030571 0.000001
# 6 0.000000 0.000000 0.000000 0.006759 0.000001 0.044493
#
#
# Mechanical properties :
#
#
# Convention : Reuss Voigt Hill
#
# Bulk Modulus (GPa) = 38.72090 61.61875 50.16983
# Shear Modulus (GPa) = 24.52704 29.14103 26.83403
#
# Velocity S-wave (km/s) = 3.55018 3.86973 3.71340
# Velocity P-wave (km/s) = 6.05828 7.18545 6.64580
#
# Compressibility (1/GPa) = 0.02582585
#
# Stress axis : x y z
#
# Youngs Moduli (GPa) = 84.34773 30.31613 81.80843
#
# Poissons Ratio (x) = 0.20478 0.43020
# Poissons Ratio (y) = 0.56977 0.29500
# Poissons Ratio (z) = 0.44356 0.10932
#
# Static dielectric constant tensor:
#      x y z
#    x 3.807150 -0.000010 0.016950 
#    y -0.000010 3.324630 0.000010 
#    z 0.016950 0.000010 3.529540 
# 
# 
# High freq. dielectric constant tensor:
#      x y z
#    x 1.769390 0.000000 -0.002880 
#    y 0.000000 1.739940 0.000000 
#    z -0.002880 0.000000 1.762010 
# 
# From -- ./inp_files/281023.got.cif
#   From: 2010.06.25/outbox.cif.g09.slc.cpg/sg12_141_cif.got.tgz:281023.got - 2010.06.28 00:19:55.
