data_PCOD8093800
_publ_section_title
;
Structure prediction by ZEFSAII (Michael W. Deem and Ramdas Pophale) SiO2 
 PCOD8093800
Probable space group: C 2/M
;
_chemical_formula_sum "Si O2"
_cell_formula_units_Z 48
_cell_length_a 20.475378
_cell_length_b 9.153426
_cell_length_c 14.713581
_cell_angle_alpha 90.000000
_cell_angle_beta 80.023821
_cell_angle_gamma 90.000000
_cell_volume 2715.921701
_symmetry_space_group_name_H-M "C 2/M"
_symmetry_group_IT_number 12
_symmetry_cell_setting 'monoclinic'
loop_
_space_group_symop_operation_xyz
x,y,z
-x,y,-z
-x,-y,-z
x,-y,z
1/2+x,1/2+y,z
1/2-x,1/2+y,-z
1/2-x,1/2-y,-z
1/2+x,1/2-y,z
loop_
_atom_site_type_symbol
_atom_site_label
_atom_site_fract_x
_atom_site_fract_y
_atom_site_fract_z
Si Si1 0.542181 0.328821 0.578187
Si Si2 0.305711 0.668832 0.041255
Si Si3 0.844873 0.168948 0.227480
Si Si4 0.551666 0.670131 0.066155
Si Si5 0.308049 0.332484 0.435478
Si Si6 0.521860 0.826320 0.764972
O O1 0.500000 0.289338 0.500000
O O2 0.538243 0.500000 0.603657
O O3 0.619267 0.282871 0.546391
O O4 0.510293 0.236852 0.667206
O O5 0.293853 0.500000 0.027173
O O6 0.300663 0.706365 0.150041
O O7 0.250000 0.750000 0.000000
O O8 0.376800 0.717527 0.987026
O O9 0.802285 0.197504 0.328673
O O10 0.909121 0.270397 0.210426
O O11 0.869264 0.000000 0.217822
O O12 0.548113 0.500000 0.093644
O O13 0.537426 0.767803 0.157893
O O14 0.500000 0.708085 0.000000
O O15 0.296861 0.500000 0.461355
O O16 0.250000 0.250000 0.500000
O O17 0.521115 0.000000 0.761873
#
# Coordination Sequence:
#
# PCOD8093800 Si02
#       6
#     8   8   8   8   8   8
#     4   9  19  38  60  78 105 145 184 220 263 325
#     4  10  21  37  57  79 108 144 180 225 272 318
#     4   9  18  37  58  75 103 149 189 214 262 331
#     4  10  19  36  60  79 103 145 189 220 258 327
#     4   9  18  33  56  80 103 135 176 220 263 314
#     4  11  21  32  54  87 114 137 174 232 279 312
#
# _framework density 17.673558
#
# number of rings (size 3 to 8) (size 9 to 14) (size 15 to 20)
#    0.000    2.333    1.667    2.500    0.000    4.667 
#    3.000    0.000    0.000    0.000    0.000    0.000 
#    0.000    0.000    0.000    0.000    0.000    0.000 
#
# Total GULP energy -297600.063799 kJ/mol
# GULP energy per Si atom -12400.002658 kJ/mol
# Density = 1.763333 g / cm^3
# Si number density = 17.673558 Si / 1000 Ang^3
#
#
#
# Elastic Constant Matrix: (Units=GPa)
#
#
# Indices 1 2 3 4 5 6 
#
# 1 127.9032 50.5044 88.8514 0.0000 10.6058 0.0000
# 2 50.5044 80.0049 69.6632 0.0000 0.4032 0.0000
# 3 88.8514 69.6632 152.1069 0.0000 3.7003 0.0000
# 4 0.0000 0.0000 0.0000 28.0214 0.0000 -3.8824
# 5 10.6058 0.4032 3.7003 0.0000 31.7051 0.0000
# 6 0.0000 0.0000 0.0000 -3.8824 0.0000 30.3559
#
#
#
# Elastic Compliance Matrix: (Units=1/GPa)
#
#
# Indices 1 2 3 4 5 6 
#
# 1 0.013967 -0.002952 -0.006713 0.000000 -0.003851 0.000000
# 2 -0.002952 0.021437 -0.008134 0.000000 0.001664 0.000000
# 3 -0.006713 -0.008134 0.014204 0.000000 0.000691 0.000000
# 4 0.000000 0.000000 0.000000 0.036331 0.000000 0.004647
# 5 -0.003851 0.001664 0.000691 0.000000 0.032727 0.000000
# 6 0.000000 0.000000 0.000000 0.004647 0.000000 0.033537
#
#
# Mechanical properties :
#
#
# Convention : Reuss Voigt Hill
#
# Bulk Modulus (GPa) = 71.37819 86.45032 78.91426
# Shear Modulus (GPa) = 25.97816 28.08288 27.03052
#
# Velocity S-wave (km/s) = 3.83807 3.99052 3.91504
# Velocity P-wave (km/s) = 7.75343 8.38174 8.07370
#
# Compressibility (1/GPa) = 0.01400988
#
# Stress axis : x y z
#
# Youngs Moduli (GPa) = 71.59936 46.64846 70.40372
#
# Poissons Ratio (x) = 0.13772 0.47259
# Poissons Ratio (y) = 0.21138 0.57265
# Poissons Ratio (z) = 0.48062 0.37943
#
# Static dielectric constant tensor:
#      x y z
#    x 2.935570 0.000000 0.016200 
#    y 0.000000 3.154010 0.000000 
#    z 0.016200 0.000000 3.497460 
# 
# 
# High freq. dielectric constant tensor:
#      x y z
#    x 1.667720 0.000000 0.001840 
#    y 0.000000 1.674500 0.000000 
#    z 0.001840 0.000000 1.695210 
# 
# From -- ./inp_files/229826.got.cif
#   From: 2010.06.25/outbox.cif.g09.slc.cpg/sg12_115_cif.got.tgz:229826.got - 2010.06.28 00:19:55.
