data_PCOD8093355
_publ_section_title
;
Structure prediction by ZEFSAII (Michael W. Deem and Ramdas Pophale) SiO2 
 PCOD8093355
Probable space group: C 2/M
;
_chemical_formula_sum "Si O2"
_cell_formula_units_Z 56
_cell_length_a 21.925657
_cell_length_b 14.198656
_cell_length_c 19.503622
_cell_angle_alpha 90.000000
_cell_angle_beta 26.463602
_cell_angle_gamma 90.000000
_cell_volume 2705.756856
_symmetry_space_group_name_H-M "C 2/M"
_symmetry_group_IT_number 12
_symmetry_cell_setting 'monoclinic'
loop_
_space_group_symop_operation_xyz
x,y,z
-x,y,-z
-x,-y,-z
x,-y,z
1/2+x,1/2+y,z
1/2-x,1/2+y,-z
1/2-x,1/2-y,-z
1/2+x,1/2-y,z
loop_
_atom_site_type_symbol
_atom_site_label
_atom_site_fract_x
_atom_site_fract_y
_atom_site_fract_z
Si Si1 0.275111 0.788105 0.168884
Si Si2 0.377765 0.107396 0.674647
Si Si3 0.119464 0.606876 0.172750
Si Si4 0.934840 0.106832 0.840840
Si Si5 0.784273 0.609671 0.296088
Si Si6 0.026860 0.894100 0.356608
Si Si7 0.494581 0.210209 0.173881
O O1 0.251812 0.676834 0.207905
O O2 0.332897 0.841201 0.177212
O O3 0.127185 0.824557 0.294527
O O4 0.383245 0.810945 0.001336
O O5 0.500000 0.132078 0.500000
O O6 0.433402 0.120426 0.696362
O O7 0.325772 0.000000 0.716254
O O8 0.103600 0.500000 0.163205
O O9 0.029872 0.670996 0.213433
O O10 0.277874 0.636667 0.010033
O O11 0.974226 0.122514 0.722926
O O12 0.025735 0.177021 0.796306
O O13 0.963351 0.000000 0.836186
O O14 0.825469 0.500000 0.254798
O O15 0.623276 0.624598 0.463882
O O16 0.856350 0.661750 0.287135
O O17 0.075338 0.000000 0.324864
#
# Coordination Sequence:
#
# PCOD8093355 Si02
#       7
#     8   8   8   8   8   8   8
#     4  12  22  38  63  88 118 164 206 241 292 356
#     4  10  21  37  60  92 122 151 197 253 298 343
#     4  10  19  35  61  91 120 153 197 249 294 347
#     4  10  20  37  63  90 117 154 202 250 293 350
#     4  11  26  42  57  87 127 159 195 250 306 355
#     4  10  21  39  63  89 118 156 202 246 296 358
#     4  12  23  37  61  92 123 157 199 246 301 356
#
# _framework density 20.696611000000001
#
# number of rings (size 3 to 8) (size 9 to 14) (size 15 to 20)
#    0.000    1.286    2.857    3.857    0.000    4.000 
#    0.000    0.714    0.000    6.000    0.000    0.000 
#    0.000    0.000    0.000    0.000    0.000    0.000 
#
# Total GULP energy -347295.164705 kJ/mol
# GULP energy per Si atom -12403.398739 kJ/mol
# Density = 2.064951 g / cm^3
# Si number density = 20.696611 Si / 1000 Ang^3
#
#
#
# Elastic Constant Matrix: (Units=GPa)
#
#
# Indices 1 2 3 4 5 6 
#
# 1 53.6886 38.8010 5.1094 -0.0001 4.6675 0.0003
# 2 38.8010 109.8197 5.3416 0.0001 -7.9663 0.0001
# 3 5.1094 5.3416 45.9236 0.0002 23.0281 0.0000
# 4 -0.0001 0.0001 0.0002 26.8450 -0.0002 0.6086
# 5 4.6675 -7.9663 23.0281 -0.0002 28.4633 0.0000
# 6 0.0003 0.0001 0.0000 0.6086 0.0000 30.2831
#
#
#
# Elastic Compliance Matrix: (Units=1/GPa)
#
#
# Indices 1 2 3 4 5 6 
#
# 1 0.026587 -0.010254 0.003130 0.000000 -0.009762 0.000000
# 2 -0.010254 0.013711 -0.005420 0.000000 0.009904 0.000000
# 3 0.003130 -0.005420 0.038828 -0.000001 -0.033444 0.000000
# 4 0.000000 0.000000 -0.000001 0.037268 0.000001 -0.000749
# 5 -0.009762 0.009904 -0.033444 0.000001 0.066563 0.000000
# 6 0.000000 0.000000 0.000000 -0.000749 0.000000 0.033037
#
#
# Mechanical properties :
#
#
# Convention : Reuss Voigt Hill
#
# Bulk Modulus (GPa) = 18.50598 34.21508 26.36053
# Shear Modulus (GPa) = 19.29787 27.79692 23.54740
#
# Velocity S-wave (km/s) = 3.05686 3.66876 3.37670
# Velocity P-wave (km/s) = 4.62819 5.87487 5.28839
#
# Compressibility (1/GPa) = 0.05403658
#
# Stress axis : x y z
#
# Youngs Moduli (GPa) = 37.61177 72.93485 25.75472
#
# Poissons Ratio (x) = 0.74788 -0.08060
# Poissons Ratio (y) = 0.38567 0.13960
# Poissons Ratio (z) = -0.11771 0.39533
#
# Static dielectric constant tensor:
#      x y z
#    x 3.606860 0.000000 0.287410 
#    y 0.000000 4.157660 0.000000 
#    z 0.287410 0.000000 3.689140 
# 
# 
# High freq. dielectric constant tensor:
#      x y z
#    x 1.788830 0.000000 0.028870 
#    y 0.000000 1.830430 0.000000 
#    z 0.028870 0.000000 1.804550 
# 
# From -- ./inp_files/284486.got.cif
#   From: 2010.06.25/outbox.cif.g09.slc.cpg/sg12_143_cif.got.tgz:284486.got - 2010.06.28 00:19:55.
