data_PCOD8093880
_publ_section_title
;
Structure prediction by ZEFSAII (Michael W. Deem and Ramdas Pophale) SiO2 
 PCOD8093880
Probable space group: C 2/M
;
_chemical_formula_sum "Si O2"
_cell_formula_units_Z 64
_cell_length_a 29.002464
_cell_length_b 9.034329
_cell_length_c 19.029072
_cell_angle_alpha 90.000000
_cell_angle_beta 138.803061
_cell_angle_gamma 90.000000
_cell_volume 3283.995983
_symmetry_space_group_name_H-M "C 2/M"
_symmetry_group_IT_number 12
_symmetry_cell_setting 'monoclinic'
loop_
_space_group_symop_operation_xyz
x,y,z
-x,y,-z
-x,-y,-z
x,-y,z
1/2+x,1/2+y,z
1/2-x,1/2+y,-z
1/2-x,1/2-y,-z
1/2+x,1/2-y,z
loop_
_atom_site_type_symbol
_atom_site_label
_atom_site_fract_x
_atom_site_fract_y
_atom_site_fract_z
Si Si1 0.571076 0.675294 0.620651
Si Si2 0.408912 0.828925 0.808477
Si Si3 0.841697 0.329392 0.875814
Si Si4 0.321020 0.672798 0.600853
Si Si5 0.953986 0.325286 0.113034
Si Si6 0.303665 0.173002 0.316686
Si Si7 0.377026 0.835070 0.541858
Si Si8 0.034886 0.668244 0.715469
O O1 0.500000 0.729170 0.500000
O O2 0.575842 0.500000 0.625032
O O3 0.639632 0.739545 0.663028
O O4 0.575092 0.730639 0.705743
O O5 0.400468 0.808379 0.882403
O O6 0.346158 0.733764 0.704063
O O7 0.481999 0.764543 0.861697
O O8 0.399974 0.000000 0.776928
O O9 0.817048 0.500000 0.849940
O O10 0.774189 0.227898 0.789001
O O11 0.880509 0.281620 0.992379
O O12 0.310230 0.500000 0.593683
O O13 0.250000 0.750000 0.500000
O O14 0.375759 0.715954 0.602790
O O15 0.962760 0.500000 0.126052
O O16 0.955574 0.264476 0.194814
O O17 0.319852 0.203233 0.417152
O O18 0.309415 0.000000 0.305352
O O19 0.454303 0.828086 0.598522
O O20 0.362602 0.000000 0.555737
O O21 0.063755 0.500000 0.745417
#
# Coordination Sequence:
#
# PCOD8093880 Si02
#       8
#     8   8   8   8   8   8   8   8
#     4  11  23  38  60  90 121 149 188 239 291 350
#     4  10  19  36  60  86 116 153 198 242 288 342
#     4  10  21  37  60  88 118 154 197 245 289 337
#     4  12  24  35  51  78 116 157 196 238 288 345
#     4   9  18  36  62  89 117 153 198 241 286 342
#     4  11  23  39  60  85 118 156 194 236 291 354
#     4  10  20  36  58  83 114 150 188 234 286 347
#     4  10  19  36  62  88 116 149 188 234 287 347
#
# _framework density 19.488453
#
# number of rings (size 3 to 8) (size 9 to 14) (size 15 to 20)
#    0.000    1.625    2.500    3.000    0.000    6.000 
#    0.000    1.875    0.000    1.500    0.000    0.000 
#    0.000    0.000    0.000    0.000    0.000    0.000 
#
# Total GULP energy -396765.356641 kJ/mol
# GULP energy per Si atom -12398.917395 kJ/mol
# Density = 1.944410 g / cm^3
# Si number density = 19.488453 Si / 1000 Ang^3
#
#
#
# Elastic Constant Matrix: (Units=GPa)
#
#
# Indices 1 2 3 4 5 6 
#
# 1 81.4355 28.4485 30.1844 0.0000 -8.6147 0.0000
# 2 28.4485 76.8636 30.8259 0.0000 -6.6297 0.0000
# 3 30.1844 30.8259 116.5836 0.0000 -8.3815 0.0000
# 4 0.0000 0.0000 0.0000 26.8389 0.0000 0.2995
# 5 -8.6147 -6.6297 -8.3815 0.0000 24.4997 0.0000
# 6 0.0000 0.0000 0.0000 0.2995 0.0000 24.2763
#
#
#
# Elastic Compliance Matrix: (Units=1/GPa)
#
#
# Indices 1 2 3 4 5 6 
#
# 1 0.015058 -0.004275 -0.002533 0.000000 0.003271 0.000000
# 2 -0.004275 0.015942 -0.002980 0.000000 0.001791 0.000000
# 3 -0.002533 -0.002980 0.010149 0.000000 0.001775 0.000000
# 4 0.000000 0.000000 0.000000 0.037265 0.000000 -0.000460
# 5 0.003271 0.001791 0.001775 0.000000 0.043059 0.000000
# 6 0.000000 0.000000 0.000000 -0.000460 0.000000 0.041198
#
#
# Mechanical properties :
#
#
# Convention : Reuss Voigt Hill
#
# Bulk Modulus (GPa) = 46.35398 50.42227 48.38812
# Shear Modulus (GPa) = 26.39397 27.48455 26.93926
#
# Velocity S-wave (km/s) = 3.68413 3.75947 3.72199
# Velocity P-wave (km/s) = 6.47565 6.69133 6.58437
#
# Compressibility (1/GPa) = 0.02157312
#
# Stress axis : x y z
#
# Youngs Moduli (GPa) = 66.40933 62.72812 98.53394
#
# Poissons Ratio (x) = 0.26818 0.24959
# Poissons Ratio (y) = 0.28392 0.29358
# Poissons Ratio (z) = 0.16822 0.18690
#
# Static dielectric constant tensor:
#      x y z
#    x 3.691400 0.000000 -0.167490 
#    y 0.000000 3.672810 0.000000 
#    z -0.167490 0.000000 3.606110 
# 
# 
# High freq. dielectric constant tensor:
#      x y z
#    x 1.756790 0.000000 -0.005800 
#    y 0.000000 1.738590 0.000000 
#    z -0.005800 0.000000 1.759550 
# 
# From -- ./inp_files/295725.got.cif
#   From: 2010.06.25/outbox.cif.g09.slc.cpg/sg12_148_cif.got.tgz:295725.got - 2010.06.28 00:19:55.
