data_PCOD8093395
_publ_section_title
;
Structure prediction by ZEFSAII (Michael W. Deem and Ramdas Pophale) SiO2 
 PCOD8093395
Probable space group: C 2/M
;
_chemical_formula_sum "Si O2"
_cell_formula_units_Z 44
_cell_length_a 13.382880
_cell_length_b 19.664892
_cell_length_c 8.924744
_cell_angle_alpha 90.000000
_cell_angle_beta 65.881127
_cell_angle_gamma 90.000000
_cell_volume 2143.703856
_symmetry_space_group_name_H-M "C 2/M"
_symmetry_group_IT_number 12
_symmetry_cell_setting 'monoclinic'
loop_
_space_group_symop_operation_xyz
x,y,z
-x,y,-z
-x,-y,-z
x,-y,z
1/2+x,1/2+y,z
1/2-x,1/2+y,-z
1/2-x,1/2-y,-z
1/2+x,1/2-y,z
loop_
_atom_site_type_symbol
_atom_site_label
_atom_site_fract_x
_atom_site_fract_y
_atom_site_fract_z
Si Si1 0.153609 0.923884 0.149197
Si Si2 0.000000 0.867194 0.000000
Si Si3 0.168128 0.423692 0.200078
Si Si4 0.232230 0.834494 0.353064
Si Si5 0.201502 0.815399 0.708286
Si Si6 0.446367 0.078240 0.187113
O O1 0.148270 0.871698 0.291546
O O2 0.054640 0.913985 0.093460
O O3 0.144961 0.000000 0.218880
O O4 0.270284 0.912157 0.996251
O O5 0.910205 0.819590 0.130916
O O6 0.194597 0.500000 0.241586
O O7 0.209696 0.371135 0.297475
O O8 0.038541 0.414258 0.258762
O O9 0.175981 0.828574 0.549747
O O10 0.251491 0.758491 0.282657
O O11 0.345562 0.875196 0.296061
O O12 0.406611 0.000000 0.196474
O O13 0.500000 0.103567 0.000000
#
# Coordination Sequence:
#
# PCOD8093395 Si02
#       6
#     8   4   8   8   8   8
#     4  10  20  38  63  88 116 156 202 250 296 353
#     4  10  23  42  62  82 117 160 206 248 297 352
#     4   9  19  37  61  88 121 155 194 245 301 362
#     4  11  23  39  60  89 125 154 198 252 300 354
#     4  10  25  41  57  88 122 161 202 246 295 359
#     4  10  19  35  62  94 119 149 192 243 304 363
#
# _framework density 20.525220999999998
#
# number of rings (size 3 to 8) (size 9 to 14) (size 15 to 20)
#    0.000    2.000    1.818    0.818    1.273    8.000 
#    0.000    6.364    0.000    0.000    0.000    0.000 
#    0.000    0.000    0.000    0.000    0.000    0.000 
#
# Total GULP energy -272852.719210 kJ/mol
# GULP energy per Si atom -12402.396328 kJ/mol
# Density = 2.047850 g / cm^3
# Si number density = 20.525221 Si / 1000 Ang^3
#
#
#
# Elastic Constant Matrix: (Units=GPa)
#
#
# Indices 1 2 3 4 5 6 
#
# 1 106.9722 52.5639 30.6278 0.0000 15.6055 0.0000
# 2 52.5639 144.8754 49.9130 0.0000 20.1216 0.0000
# 3 30.6278 49.9130 72.6904 0.0000 10.6357 0.0000
# 4 0.0000 0.0000 0.0000 2.5829 0.0000 2.4532
# 5 15.6055 20.1216 10.6357 0.0000 26.0178 0.0000
# 6 0.0000 0.0000 0.0000 2.4532 0.0000 16.6810
#
#
#
# Elastic Compliance Matrix: (Units=1/GPa)
#
#
# Indices 1 2 3 4 5 6 
#
# 1 0.012099 -0.002994 -0.002467 0.000000 -0.003934 0.000000
# 2 -0.002994 0.010367 -0.005261 0.000000 -0.004071 0.000000
# 3 -0.002467 -0.005261 0.018717 0.000000 -0.002103 0.000000
# 4 0.000000 0.000000 0.000000 0.450030 0.000000 -0.066183
# 5 -0.003934 -0.004071 -0.002103 0.000000 0.044803 0.000000
# 6 0.000000 0.000000 0.000000 -0.066183 0.000000 0.069682
#
#
# Mechanical properties :
#
#
# Convention : Reuss Voigt Hill
#
# Bulk Modulus (GPa) = 50.66089 65.63860 58.14974
# Shear Modulus (GPa) = 7.88992 21.81855 14.85423
#
# Velocity S-wave (km/s) = 1.96274 3.26392 2.69310
# Velocity P-wave (km/s) = 5.46556 6.80097 6.16950
#
# Compressibility (1/GPa) = 0.01973909
#
# Stress axis : x y z
#
# Youngs Moduli (GPa) = 82.64870 96.46246 53.42824
#
# Poissons Ratio (x) = 0.28878 0.13180
# Poissons Ratio (y) = 0.24743 0.28110
# Poissons Ratio (z) = 0.20388 0.50752
#
# Static dielectric constant tensor:
#      x y z
#    x 3.667470 0.000000 0.030340 
#    y 0.000000 3.708370 0.000000 
#    z 0.030340 0.000000 3.564220 
# 
# 
# High freq. dielectric constant tensor:
#      x y z
#    x 1.803080 0.000000 0.006890 
#    y 0.000000 1.804950 0.000000 
#    z 0.006890 0.000000 1.789500 
# 
# From -- ./inp_files/63269.got.cif
#   From: 2010.06.25/outbox.cif.g09.slc.cpg/sg12_32_cif.got.tgz:63269.got - 2010.06.28 00:19:55.
