data_PCOD8093783
_publ_section_title
;
Structure prediction by ZEFSAII (Michael W. Deem and Ramdas Pophale) SiO2 
 PCOD8093783
Probable space group: C 2/M
;
_chemical_formula_sum "Si O2"
_cell_formula_units_Z 52
_cell_length_a 9.016633
_cell_length_b 16.926215
_cell_length_c 18.724529
_cell_angle_alpha 90.000000
_cell_angle_beta 127.600371
_cell_angle_gamma 90.000000
_cell_volume 2264.107074
_symmetry_space_group_name_H-M "C 2/M"
_symmetry_group_IT_number 12
_symmetry_cell_setting 'monoclinic'
loop_
_space_group_symop_operation_xyz
x,y,z
-x,y,-z
-x,-y,-z
x,-y,z
1/2+x,1/2+y,z
1/2-x,1/2+y,-z
1/2-x,1/2-y,-z
1/2+x,1/2-y,z
loop_
_atom_site_type_symbol
_atom_site_label
_atom_site_fract_x
_atom_site_fract_y
_atom_site_fract_z
Si Si1 0.326622 0.911265 0.280927
Si Si2 0.053572 0.093799 0.626382
Si Si3 0.239133 0.088666 0.823768
Si Si4 0.283851 0.906442 0.560554
Si Si5 0.400438 0.875293 0.148054
Si Si6 0.500000 0.339438 0.000000
Si Si7 0.020489 0.801757 0.848371
O O1 0.497487 0.881656 0.382278
O O2 0.416320 0.918712 0.228322
O O3 0.161289 0.847379 0.235926
O O4 0.256995 0.000000 0.282555
O O5 0.117633 0.126021 0.722394
O O6 0.190008 0.128451 0.605145
O O7 0.839265 0.120281 0.544706
O O8 0.070997 0.000000 0.634648
O O9 0.457601 0.087716 0.867201
O O10 0.199597 0.144218 0.880387
O O11 0.177563 0.000000 0.825184
O O12 0.272708 0.000000 0.563345
O O13 0.189471 0.890973 0.057251
O O14 0.448649 0.783375 0.176604
O O15 0.492995 0.287612 0.070305
#
# Coordination Sequence:
#
# PCOD8093783 Si02
#       7
#     8   8   8   8   8   4   8
#     4  10  19  36  59  87 119 155 191 230 281 338
#     4   8  14  26  51  85 115 146 193 235 266 318
#     4  11  21  37  60  91 119 145 186 245 290 323
#     4   8  13  26  52  83 113 153 195 227 261 326
#     4  11  22  40  64  85 110 148 193 237 282 345
#     4  10  24  44  63  80 105 154 200 226 272 366
#     4  11  24  40  60  83 115 150 189 235 290 346
#
# _framework density 22.967110999999999
#
# number of rings (size 3 to 8) (size 9 to 14) (size 15 to 20)
#    0.000    2.154    1.538    4.154    0.000    0.615 
#    0.000   15.385    0.000    9.231    0.000    0.000 
#    0.000    0.000    0.000    0.000    0.000    0.000 
#
# Total GULP energy -322167.870396 kJ/mol
# GULP energy per Si atom -12391.071938 kJ/mol
# Density = 2.291484 g / cm^3
# Si number density = 22.967111 Si / 1000 Ang^3
#
#
#
# Elastic Constant Matrix: (Units=GPa)
#
#
# Indices 1 2 3 4 5 6 
#
# 1 92.3391 15.5786 28.7529 0.0000 18.6244 0.0000
# 2 15.5786 74.7756 16.8899 0.0000 4.7750 0.0000
# 3 28.7529 16.8899 113.2532 0.0000 33.5420 0.0000
# 4 0.0000 0.0000 0.0000 8.0135 0.0000 7.3658
# 5 18.6244 4.7750 33.5420 0.0000 38.3139 0.0000
# 6 0.0000 0.0000 0.0000 7.3658 0.0000 22.7926
#
#
#
# Elastic Compliance Matrix: (Units=1/GPa)
#
#
# Indices 1 2 3 4 5 6 
#
# 1 0.012555 -0.001976 -0.001564 0.000000 -0.004488 0.000000
# 2 -0.001976 0.014151 -0.001851 0.000000 0.000817 0.000000
# 3 -0.001564 -0.001851 0.012433 0.000000 -0.009894 0.000000
# 4 0.000000 0.000000 0.000000 0.177523 0.000000 -0.057370
# 5 -0.004488 0.000817 -0.009894 0.000000 0.036841 0.000000
# 6 0.000000 0.000000 0.000000 -0.057370 0.000000 0.062414
#
#
# Mechanical properties :
#
#
# Convention : Reuss Voigt Hill
#
# Bulk Modulus (GPa) = 35.26307 44.75676 40.00991
# Shear Modulus (GPa) = 14.87430 28.43376 21.65403
#
# Velocity S-wave (km/s) = 2.54763 3.52237 3.07388
# Velocity P-wave (km/s) = 4.90316 6.00603 5.48240
#
# Compressibility (1/GPa) = 0.02835828
#
# Stress axis : x y z
#
# Youngs Moduli (GPa) = 79.64900 70.66704 80.43123
#
# Poissons Ratio (x) = 0.13963 0.12577
# Poissons Ratio (y) = 0.15738 0.14886
# Poissons Ratio (z) = 0.12454 0.13079
#
# Static dielectric constant tensor:
#      x y z
#    x 4.195400 0.000000 0.250410 
#    y 0.000000 3.586040 0.000000 
#    z 0.250410 0.000000 4.519920 
# 
# 
# High freq. dielectric constant tensor:
#      x y z
#    x 1.906110 0.000000 0.019300 
#    y 0.000000 1.859590 0.000000 
#    z 0.019300 0.000000 1.906870 
# 
# From -- ./inp_files/301168.got.cif
#   From: 2010.06.25/outbox.cif.g09.slc.cpg/sg12_151_cif.got.tgz:301168.got - 2010.06.28 00:19:55.
