data_PCOD8093764
_publ_section_title
;
Structure prediction by ZEFSAII (Michael W. Deem and Ramdas Pophale) SiO2 
 PCOD8093764
Probable space group: C 2/M
;
_chemical_formula_sum "Si O2"
_cell_formula_units_Z 56
_cell_length_a 31.240534
_cell_length_b 8.901396
_cell_length_c 11.780408
_cell_angle_alpha 90.000000
_cell_angle_beta 123.734583
_cell_angle_gamma 90.000000
_cell_volume 2724.340235
_symmetry_space_group_name_H-M "C 2/M"
_symmetry_group_IT_number 12
_symmetry_cell_setting 'monoclinic'
loop_
_space_group_symop_operation_xyz
x,y,z
-x,y,-z
-x,-y,-z
x,-y,z
1/2+x,1/2+y,z
1/2-x,1/2+y,-z
1/2-x,1/2-y,-z
1/2+x,1/2-y,z
loop_
_atom_site_type_symbol
_atom_site_label
_atom_site_fract_x
_atom_site_fract_y
_atom_site_fract_z
Si Si1 0.743287 0.676380 0.869051
Si Si2 0.440827 0.822309 0.398431
Si Si3 0.863760 0.327042 0.653123
Si Si4 0.429173 0.323012 0.147890
Si Si5 0.516546 0.173278 0.149797
Si Si6 0.842017 0.676227 0.873199
Si Si7 0.356062 0.323191 0.415017
O O1 0.744259 0.500000 0.887853
O O2 0.789348 0.727172 0.854519
O O3 0.689778 0.728903 0.735332
O O4 0.750000 0.750000 0.000000
O O5 0.500000 0.772330 0.500000
O O6 0.416175 0.750152 0.249786
O O7 0.408374 0.762247 0.457487
O O8 0.435682 0.000000 0.384188
O O9 0.853262 0.500000 0.607540
O O10 0.923927 0.293039 0.750046
O O11 0.837216 0.283395 0.733102
O O12 0.840330 0.223966 0.519459
O O13 0.425376 0.500000 0.155095
O O14 0.486415 0.274960 0.195640
O O15 0.388945 0.267112 0.995565
O O16 0.502799 0.000000 0.154413
O O17 0.500000 0.220312 0.000000
O O18 0.853994 0.500000 0.905949
O O19 0.365099 0.500000 0.422459
#
# Coordination Sequence:
#
# PCOD8093764 Si02
#       7
#     8   8   8   8   8   8   8
#     4  10  23  42  65  90 118 154 199 250 303 359
#     4  11  24  42  63  86 115 159 210 247 287 358
#     4  10  21  38  62  89 118 160 210 246 287 355
#     4  12  24  36  57  91 126 156 194 252 315 359
#     4  10  19  36  59  84 118 163 208 246 285 347
#     4  10  21  41  64  86 116 160 209 249 287 352
#     4  11  24  41  61  91 128 157 190 248 316 362
#
# _framework density 20.555434999999999
#
# number of rings (size 3 to 8) (size 9 to 14) (size 15 to 20)
#    0.000    1.429    1.429    3.857    0.000   10.571 
#    0.000    0.000    0.000    0.000    0.000    0.000 
#    0.000    0.000    0.000    0.000    0.000    0.000 
#
# Total GULP energy -347375.504438 kJ/mol
# GULP energy per Si atom -12406.268016 kJ/mol
# Density = 2.050865 g / cm^3
# Si number density = 20.555435 Si / 1000 Ang^3
#
#
#
# Elastic Constant Matrix: (Units=GPa)
#
#
# Indices 1 2 3 4 5 6 
#
# 1 137.8012 44.5375 51.0960 0.0000 -12.9241 0.0000
# 2 44.5375 74.2258 45.6454 0.0000 -4.7094 0.0000
# 3 51.0960 45.6454 127.2498 0.0000 -15.7569 0.0000
# 4 0.0000 0.0000 0.0000 29.8773 0.0000 -5.5976
# 5 -12.9241 -4.7094 -15.7569 0.0000 33.0059 0.0000
# 6 0.0000 0.0000 0.0000 -5.5976 0.0000 23.5968
#
#
#
# Elastic Compliance Matrix: (Units=1/GPa)
#
#
# Indices 1 2 3 4 5 6 
#
# 1 0.009632 -0.004399 -0.002020 0.000000 0.002180 0.000000
# 2 -0.004399 0.019303 -0.005346 0.000000 -0.001520 0.000000
# 3 -0.002020 -0.005346 0.011048 0.000000 0.003721 0.000000
# 4 0.000000 0.000000 0.000000 0.035027 0.000000 0.008309
# 5 0.002180 -0.001520 0.003721 0.000000 0.032710 0.000000
# 6 0.000000 0.000000 0.000000 0.008309 0.000000 0.044350
#
#
# Mechanical properties :
#
#
# Convention : Reuss Voigt Hill
#
# Bulk Modulus (GPa) = 60.77822 69.09274 64.93548
# Shear Modulus (GPa) = 27.61150 30.49587 29.05368
#
# Velocity S-wave (km/s) = 3.66904 3.85592 3.76364
# Velocity P-wave (km/s) = 6.89792 7.31505 7.10955
#
# Compressibility (1/GPa) = 0.01645326
#
# Stress axis : x y z
#
# Youngs Moduli (GPa) = 103.82105 51.80527 90.51483
#
# Poissons Ratio (x) = 0.22790 0.18282
# Poissons Ratio (y) = 0.45672 0.48389
# Poissons Ratio (z) = 0.20969 0.27695
#
# Static dielectric constant tensor:
#      x y z
#    x 3.838820 0.000000 -0.086700 
#    y 0.000000 3.566340 0.000000 
#    z -0.086700 0.000000 3.862670 
# 
# 
# High freq. dielectric constant tensor:
#      x y z
#    x 1.812380 0.000000 -0.009850 
#    y 0.000000 1.792970 0.000000 
#    z -0.009850 0.000000 1.812630 
# 
# From -- ./inp_files/187700.got.cif
#   From: 2010.06.25/outbox.cif.g09.slc.cpg/sg12_94_cif.got.tgz:187700.got - 2010.06.28 00:19:55.
