data_PCOD8093287
_publ_section_title
;
Structure prediction by ZEFSAII (Michael W. Deem and Ramdas Pophale) SiO2 
 PCOD8093287
Probable space group: C 2/M
;
_chemical_formula_sum "Si O2"
_cell_formula_units_Z 64
_cell_length_a 10.054802
_cell_length_b 14.402023
_cell_length_c 23.579468
_cell_angle_alpha 90.000000
_cell_angle_beta 81.982894
_cell_angle_gamma 90.000000
_cell_volume 3381.158722
_symmetry_space_group_name_H-M "C 2/M"
_symmetry_group_IT_number 12
_symmetry_cell_setting 'monoclinic'
loop_
_space_group_symop_operation_xyz
x,y,z
-x,y,-z
-x,-y,-z
x,-y,z
1/2+x,1/2+y,z
1/2-x,1/2+y,-z
1/2-x,1/2-y,-z
1/2+x,1/2-y,z
loop_
_atom_site_type_symbol
_atom_site_label
_atom_site_fract_x
_atom_site_fract_y
_atom_site_fract_z
Si Si1 0.370286 0.397213 0.381976
Si Si2 0.225087 0.764564 0.702420
Si Si3 0.497082 0.891128 0.125021
Si Si4 0.109946 0.239147 0.038931
Si Si5 0.653632 0.665423 0.495817
Si Si6 0.552317 0.244516 0.222266
Si Si7 0.679142 0.391561 0.135168
Si Si8 0.172447 0.895150 0.371187
O O1 0.359635 0.500000 0.357922
O O2 0.271938 0.334790 0.350608
O O3 0.330085 0.400666 0.450604
O O4 0.522143 0.359505 0.366702
O O5 0.356212 0.788260 0.731130
O O6 0.227058 0.662844 0.674048
O O7 0.094941 0.774196 0.749090
O O8 0.571532 0.838097 0.069371
O O9 0.543895 0.842507 0.180243
O O10 0.338736 0.879294 0.125932
O O11 0.538435 0.000000 0.122818
O O12 0.116384 0.155075 0.083138
O O13 0.250000 0.250000 0.000000
O O14 0.000000 0.208804 0.000000
O O15 0.500000 0.700016 0.500000
O O16 0.750000 0.750000 0.500000
O O17 0.701386 0.612331 0.436578
O O18 0.618157 0.337437 0.192351
O O19 0.638317 0.500000 0.140274
O O20 0.193280 0.000000 0.350804
#
# Coordination Sequence:
#
# PCOD8093287 Si02
#       8
#     8   8   8   8   8   8   8   8
#     4  10  21  37  59  87 116 150 194 242 297 362
#     4  12  22  38  61  86 117 153 197 249 306 346
#     4  10  22  41  65  90 120 165 207 238 289 353
#     4  11  22  39  63  98 133 157 193 247 292 339
#     4  10  19  35  61  83 114 151 189 236 296 363
#     4  11  24  40  61  88 119 156 200 256 295 342
#     4  10  22  41  65  90 120 165 205 238 292 352
#     4  10  21  37  60  87 113 152 198 238 293 368
#
# _framework density 18.928422000000001
#
# number of rings (size 3 to 8) (size 9 to 14) (size 15 to 20)
#    0.000    1.500    5.000    0.375    0.000    4.500 
#    0.000    1.250    0.000    0.750    0.000    0.000 
#    0.000    0.000    0.000    0.000    0.000    0.000 
#
# Total GULP energy -396823.133640 kJ/mol
# GULP energy per Si atom -12400.722926 kJ/mol
# Density = 1.888534 g / cm^3
# Si number density = 18.928422 Si / 1000 Ang^3
#
#
#
# Elastic Constant Matrix: (Units=GPa)
#
#
# Indices 1 2 3 4 5 6 
#
# 1 79.4488 40.8442 38.1948 0.0000 5.5578 0.0000
# 2 40.8442 130.0143 49.6633 0.0000 8.7553 0.0000
# 3 38.1948 49.6633 102.7793 0.0000 13.8140 0.0000
# 4 0.0000 0.0000 0.0000 12.5386 0.0000 -5.0721
# 5 5.5578 8.7553 13.8140 0.0000 39.8380 0.0000
# 6 0.0000 0.0000 0.0000 -5.0721 0.0000 28.4032
#
#
#
# Elastic Compliance Matrix: (Units=1/GPa)
#
#
# Indices 1 2 3 4 5 6 
#
# 1 0.016522 -0.003489 -0.004455 0.000000 0.000007 0.000000
# 2 -0.003489 0.010179 -0.003552 0.000000 -0.000519 0.000000
# 3 -0.004455 -0.003552 0.013544 0.000000 -0.003294 0.000000
# 4 0.000000 0.000000 0.000000 0.085963 0.000000 0.015351
# 5 0.000007 -0.000519 -0.003294 0.000000 0.026357 0.000000
# 6 0.000000 0.000000 0.000000 0.015351 0.000000 0.037949
#
#
# Mechanical properties :
#
#
# Convention : Reuss Voigt Hill
#
# Bulk Modulus (GPa) = 57.96107 63.29412 60.62759
# Shear Modulus (GPa) = 22.80423 28.39196 25.59810
#
# Velocity S-wave (km/s) = 3.47473 3.87714 3.68144
# Velocity P-wave (km/s) = 6.84003 7.31807 7.08309
#
# Compressibility (1/GPa) = 0.01725296
#
# Stress axis : x y z
#
# Youngs Moduli (GPa) = 60.52690 98.23702 73.83148
#
# Poissons Ratio (x) = 0.34276 0.32890
# Poissons Ratio (y) = 0.21119 0.26228
# Poissons Ratio (z) = 0.26963 0.34898
#
# Static dielectric constant tensor:
#      x y z
#    x 3.444840 0.000000 0.031290 
#    y 0.000000 3.436320 0.000000 
#    z 0.031290 0.000000 3.957020 
# 
# 
# High freq. dielectric constant tensor:
#      x y z
#    x 1.730320 0.000000 0.003740 
#    y 0.000000 1.730110 0.000000 
#    z 0.003740 0.000000 1.752260 
# 
# From -- ./inp_files/332958.got.cif
#   From: 2010.06.25/outbox.cif.g09.slc.cpg/sg12_167_cif.got.tgz:332958.got - 2010.06.28 00:19:55.
