data_PCOD8093334
_publ_section_title
;
Structure prediction by ZEFSAII (Michael W. Deem and Ramdas Pophale) SiO2 
 PCOD8093334
Probable space group: C 2/M
;
_chemical_formula_sum "Si O2"
_cell_formula_units_Z 40
_cell_length_a 8.813424
_cell_length_b 26.613973
_cell_length_c 12.966153
_cell_angle_alpha 90.000000
_cell_angle_beta 139.621851
_cell_angle_gamma 90.000000
_cell_volume 1970.272010
_symmetry_space_group_name_H-M "C 2/M"
_symmetry_group_IT_number 12
_symmetry_cell_setting 'monoclinic'
loop_
_space_group_symop_operation_xyz
x,y,z
-x,y,-z
-x,-y,-z
x,-y,z
1/2+x,1/2+y,z
1/2-x,1/2+y,-z
1/2-x,1/2-y,-z
1/2+x,1/2-y,z
loop_
_atom_site_type_symbol
_atom_site_label
_atom_site_fract_x
_atom_site_fract_y
_atom_site_fract_z
Si Si1 0.392170 0.299710 0.057416
Si Si2 0.755934 0.702760 0.428552
Si Si3 0.724585 0.000000 0.042127
Si Si4 0.735077 0.500000 0.415036
Si Si5 0.380995 0.100830 0.549982
Si Si6 0.249110 0.902873 0.078255
O O1 0.571294 0.297823 0.242620
O O2 0.500000 0.298104 0.000000
O O3 0.250000 0.250000 0.000000
O O4 0.245114 0.351751 0.987618
O O5 0.750000 0.750000 0.500000
O O6 0.724170 0.651334 0.478393
O O7 0.000000 0.703654 0.500000
O O8 0.500000 0.000000 0.000000
O O9 0.685223 0.049864 0.956115
O O10 0.995740 0.000000 0.223278
O O11 0.722104 0.550523 0.477662
O O12 0.000000 0.500000 0.500000
O O13 0.500000 0.100594 0.500000
O O14 0.571053 0.102516 0.736517
O O15 0.000000 0.912517 0.000000
#
# Coordination Sequence:
#
# PCOD8093334 Si02
#       6
#     8   8   4   4   8   8
#     4  11  22  38  61  90 121 160 207 257 307 368
#     4  11  21  37  57  85 119 155 196 247 302 359
#     4  12  26  42  61  93 131 163 201 265 326 368
#     4  10  19  38  64  87 114 157 201 245 301 370
#     4  10  19  35  61  90 113 146 200 257 297 352
#     4  11  21  39  64  90 117 162 214 253 302 381
#
# _framework density 20.301766000000001
#
# number of rings (size 3 to 8) (size 9 to 14) (size 15 to 20)
#    0.000    1.200    0.000   11.700    0.000    0.800 
#    0.000    8.000    0.000    0.000    0.000    0.000 
#    0.000    0.000    0.000    0.000    0.000    0.000 
#
# Total GULP energy -247762.506508 kJ/mol
# GULP energy per Si atom -12388.125325 kJ/mol
# Density = 2.025556 g / cm^3
# Si number density = 20.301766 Si / 1000 Ang^3
#
#
#
# Elastic Constant Matrix: (Units=GPa)
#
#
# Indices 1 2 3 4 5 6 
#
# 1 54.0547 56.5831 39.6868 0.0000 -0.6690 0.0000
# 2 56.5831 256.1164 94.0764 0.0000 -14.6887 0.0000
# 3 39.6868 94.0764 234.5386 0.0000 -12.9321 0.0000
# 4 0.0000 0.0000 0.0000 54.5185 0.0000 -14.4527
# 5 -0.6690 -14.6887 -12.9321 0.0000 26.9233 0.0000
# 6 0.0000 0.0000 0.0000 -14.4527 0.0000 38.4668
#
#
#
# Elastic Compliance Matrix: (Units=1/GPa)
#
#
# Indices 1 2 3 4 5 6 
#
# 1 0.025414 -0.004873 -0.002524 0.000000 -0.003240 0.000000
# 2 -0.004873 0.005587 -0.001289 0.000000 0.002308 0.000000
# 3 -0.002524 -0.001289 0.005306 0.000000 0.001783 0.000000
# 4 0.000000 0.000000 0.000000 0.020371 0.000000 0.007654
# 5 -0.003240 0.002308 0.001783 0.000000 0.039177 0.000000
# 6 0.000000 0.000000 0.000000 0.007654 0.000000 0.028872
#
#
# Mechanical properties :
#
#
# Convention : Reuss Voigt Hill
#
# Bulk Modulus (GPa) = 52.81505 102.82246 77.81875
# Shear Modulus (GPa) = 33.68974 47.60597 40.64785
#
# Velocity S-wave (km/s) = 4.07805 4.84769 4.47943
# Velocity P-wave (km/s) = 6.94590 9.06038 8.07267
#
# Compressibility (1/GPa) = 0.01893400
#
# Stress axis : x y z
#
# Youngs Moduli (GPa) = 39.34805 178.98686 188.45808
#
# Poissons Ratio (x) = 0.87225 0.47572
# Poissons Ratio (y) = 0.19175 0.24295
# Poissons Ratio (z) = 0.09933 0.23074
#
# Static dielectric constant tensor:
#      x y z
#    x 3.333180 0.000000 -0.057140 
#    y 0.000000 4.849130 0.000000 
#    z -0.057140 0.000000 3.963320 
# 
# 
# High freq. dielectric constant tensor:
#      x y z
#    x 1.740800 0.000000 -0.004950 
#    y 0.000000 1.837520 0.000000 
#    z -0.004950 0.000000 1.819310 
# 
# From -- ./inp_files/125517.got.cif
#   From: 2010.06.25/outbox.cif.g09.slc.cpg/sg12_63_cif.got.tgz:125517.got - 2010.06.28 00:19:55.
