data_PCOD8093930
_publ_section_title
;
Structure prediction by ZEFSAII (Michael W. Deem and Ramdas Pophale) SiO2 
 PCOD8093930
Probable space group: C 2/M
;
_chemical_formula_sum "Si O2"
_cell_formula_units_Z 56
_cell_length_a 27.918743
_cell_length_b 8.953357
_cell_length_c 15.106577
_cell_angle_alpha 90.000000
_cell_angle_beta 131.154193
_cell_angle_gamma 90.000000
_cell_volume 2843.210006
_symmetry_space_group_name_H-M "C 2/M"
_symmetry_group_IT_number 12
_symmetry_cell_setting 'monoclinic'
loop_
_space_group_symop_operation_xyz
x,y,z
-x,y,-z
-x,-y,-z
x,-y,z
1/2+x,1/2+y,z
1/2-x,1/2+y,-z
1/2-x,1/2-y,-z
1/2+x,1/2-y,z
loop_
_atom_site_type_symbol
_atom_site_label
_atom_site_fract_x
_atom_site_fract_y
_atom_site_fract_z
Si Si1 0.544624 0.677877 0.473670
Si Si2 0.620960 0.824180 0.940815
Si Si3 0.062459 0.828159 0.123885
Si Si4 0.814079 0.169560 0.326064
Si Si5 0.687001 0.322362 0.178991
Si Si6 0.003311 0.172060 0.229496
Si Si7 0.690112 0.330428 0.887262
O O1 0.500000 0.739929 0.500000
O O2 0.546172 0.500000 0.482449
O O3 0.616936 0.739110 0.566339
O O4 0.519929 0.731282 0.347606
O O5 0.550550 0.773822 0.881806
O O6 0.629575 0.760111 0.851697
O O7 0.630377 0.000000 0.957036
O O8 0.674136 0.747384 0.066946
O O9 0.129814 0.760720 0.172402
O O10 0.060945 0.810636 0.229142
O O11 0.063220 0.000000 0.095741
O O12 0.000000 0.755158 0.000000
O O13 0.755619 0.263185 0.297186
O O14 0.809778 0.176990 0.216425
O O15 0.808549 0.000000 0.354358
O O16 0.690140 0.500000 0.177874
O O17 0.980708 0.000000 0.206732
O O18 0.687461 0.500000 0.917716
O O19 0.750000 0.250000 0.000000
#
# Coordination Sequence:
#
# PCOD8093930 Si02
#       7
#     8   8   8   8   8   8   8
#     4   9  18  35  60  86 109 143 190 234 277 333
#     4  12  23  34  51  81 117 147 183 231 288 343
#     4   9  17  32  55  84 111 142 189 237 279 336
#     4  10  21  37  56  82 115 145 184 236 283 334
#     4  11  21  35  56  80 111 148 188 230 283 345
#     4  10  19  36  61  82 107 147 193 236 279 331
#     4  11  21  33  52  78 111 146 184 226 277 336
#
# _framework density 19.696048000000001
#
# number of rings (size 3 to 8) (size 9 to 14) (size 15 to 20)
#    0.000    1.714    2.857    3.000    0.000    2.857 
#    0.000    3.571    0.000    1.714    0.000    0.000 
#    0.000    0.000    0.000    0.000    0.000    0.000 
#
# Total GULP energy -347022.580546 kJ/mol
# GULP energy per Si atom -12393.663591 kJ/mol
# Density = 1.965122 g / cm^3
# Si number density = 19.696048 Si / 1000 Ang^3
#
#
#
# Elastic Constant Matrix: (Units=GPa)
#
#
# Indices 1 2 3 4 5 6 
#
# 1 138.0827 32.8861 44.3725 0.0000 14.9039 0.0000
# 2 32.8861 75.0493 22.0455 0.0000 7.2023 0.0000
# 3 44.3725 22.0455 87.6630 0.0000 12.8703 0.0000
# 4 0.0000 0.0000 0.0000 16.8052 0.0000 8.4818
# 5 14.9039 7.2023 12.8703 0.0000 38.5339 0.0000
# 6 0.0000 0.0000 0.0000 8.4818 0.0000 25.3976
#
#
#
# Elastic Compliance Matrix: (Units=1/GPa)
#
#
# Indices 1 2 3 4 5 6 
#
# 1 0.009309 -0.002806 -0.003738 0.000000 -0.001827 0.000000
# 2 -0.002806 0.015322 -0.002284 0.000000 -0.001016 0.000000
# 3 -0.003738 -0.002284 0.014300 0.000000 -0.002904 0.000000
# 4 0.000000 0.000000 0.000000 0.071569 0.000000 -0.023901
# 5 -0.001827 -0.001016 -0.002904 0.000000 0.027818 0.000000
# 6 0.000000 0.000000 0.000000 -0.023901 0.000000 0.047356
#
#
# Mechanical properties :
#
#
# Convention : Reuss Voigt Hill
#
# Bulk Modulus (GPa) = 47.00135 55.48925 51.24530
# Shear Modulus (GPa) = 23.76193 29.58005 26.67099
#
# Velocity S-wave (km/s) = 3.47714 3.87955 3.68384
# Velocity P-wave (km/s) = 6.32739 6.94995 6.64596
#
# Compressibility (1/GPa) = 0.02127599
#
# Stress axis : x y z
#
# Youngs Moduli (GPa) = 107.42702 65.26398 69.92999
#
# Poissons Ratio (x) = 0.18311 0.26139
# Poissons Ratio (y) = 0.30140 0.15972
# Poissons Ratio (z) = 0.40155 0.14906
#
# Static dielectric constant tensor:
#      x y z
#    x 4.100240 0.000000 -0.124270 
#    y 0.000000 3.455930 0.000000 
#    z -0.124270 0.000000 3.841660 
# 
# 
# High freq. dielectric constant tensor:
#      x y z
#    x 1.786270 0.000000 0.006660 
#    y 0.000000 1.729760 0.000000 
#    z 0.006660 0.000000 1.746130 
# 
# From -- ./inp_files/249274.got.cif
#   From: 2010.06.25/outbox.cif.g09.slc.cpg/sg12_125_cif.got.tgz:249274.got - 2010.06.28 00:19:55.
