data_PCOD8093772
_publ_section_title
;
Structure prediction by ZEFSAII (Michael W. Deem and Ramdas Pophale) SiO2 
 PCOD8093772
Probable space group: C 2/M
;
_chemical_formula_sum "Si O2"
_cell_formula_units_Z 52
_cell_length_a 15.024453
_cell_length_b 22.764920
_cell_length_c 9.195704
_cell_angle_alpha 90.000000
_cell_angle_beta 120.101693
_cell_angle_gamma 90.000000
_cell_volume 2721.037126
_symmetry_space_group_name_H-M "C 2/M"
_symmetry_group_IT_number 12
_symmetry_cell_setting 'monoclinic'
loop_
_space_group_symop_operation_xyz
x,y,z
-x,y,-z
-x,-y,-z
x,-y,z
1/2+x,1/2+y,z
1/2-x,1/2+y,-z
1/2-x,1/2-y,-z
1/2+x,1/2-y,z
loop_
_atom_site_type_symbol
_atom_site_label
_atom_site_fract_x
_atom_site_fract_y
_atom_site_fract_z
Si Si1 0.089315 0.433543 0.682384
Si Si2 0.687898 0.567130 0.277769
Si Si3 0.472018 0.272265 0.233291
Si Si4 0.501470 0.857296 0.837546
Si Si5 0.210386 0.344576 0.460636
Si Si6 0.000000 0.863301 0.000000
Si Si7 0.841283 0.238451 0.399613
O O1 0.063546 0.500000 0.706807
O O2 0.202965 0.428751 0.712233
O O3 0.000000 0.410579 0.500000
O O4 0.089540 0.392670 0.824806
O O5 0.659674 0.500000 0.293785
O O6 0.703717 0.605677 0.437014
O O7 0.596923 0.594832 0.108527
O O8 0.477610 0.211974 0.149825
O O9 0.468382 0.324592 0.113903
O O10 0.569650 0.280607 0.416378
O O11 0.371771 0.270114 0.256192
O O12 0.394217 0.875188 0.674363
O O13 0.500000 0.879716 0.000000
O O14 0.191455 0.305679 0.592409
O O15 0.245173 0.303678 0.354568
#
# Coordination Sequence:
#
# PCOD8093772 Si02
#       7
#     8   8   8   8   8   4   8
#     4  10  21  39  62  85 113 158 206 246 295 355
#     4  11  23  40  63  88 117 160 210 250 291 352
#     4  10  20  35  56  87 126 156 196 246 297 363
#     4  11  22  35  56  93 127 150 192 251 306 359
#     4  10  19  36  59  85 119 157 200 242 298 368
#     4  12  23  40  60  90 125 156 204 250 298 348
#     4   9  19  34  59  85 116 162 197 238 301 361
#
# _framework density 19.11036
#
# number of rings (size 3 to 8) (size 9 to 14) (size 15 to 20)
#    0.000    1.692    3.846    1.154    2.154    1.538 
#    0.000    2.308    0.000    2.769    0.000    0.000 
#    0.000    0.000    0.000    0.000    0.000    0.000 
#
# Total GULP energy -322362.923466 kJ/mol
# GULP energy per Si atom -12398.573979 kJ/mol
# Density = 1.906686 g / cm^3
# Si number density = 19.110360 Si / 1000 Ang^3
#
#
#
# Elastic Constant Matrix: (Units=GPa)
#
#
# Indices 1 2 3 4 5 6 
#
# 1 80.6655 24.2503 33.6069 0.0000 -6.7149 0.0000
# 2 24.2503 99.7525 52.1513 0.0000 2.6026 0.0000
# 3 33.6069 52.1513 78.7705 0.0000 -5.0760 0.0000
# 4 0.0000 0.0000 0.0000 25.3492 0.0000 0.8774
# 5 -6.7149 2.6026 -5.0760 0.0000 34.2446 0.0000
# 6 0.0000 0.0000 0.0000 0.8774 0.0000 21.7966
#
#
#
# Elastic Compliance Matrix: (Units=1/GPa)
#
#
# Indices 1 2 3 4 5 6 
#
# 1 0.015245 -0.000665 -0.005925 0.000000 0.002162 0.000000
# 2 -0.000665 0.015611 -0.010234 0.000000 -0.002834 0.000000
# 3 -0.005925 -0.010234 0.022186 0.000000 0.002905 0.000000
# 4 0.000000 0.000000 0.000000 0.039504 0.000000 -0.001590
# 5 0.002162 -0.002834 0.002905 0.000000 0.030271 0.000000
# 6 0.000000 0.000000 0.000000 -0.001590 0.000000 0.045943
#
#
# Mechanical properties :
#
#
# Convention : Reuss Voigt Hill
#
# Bulk Modulus (GPa) = 51.56291 53.24502 52.40397
# Shear Modulus (GPa) = 23.93800 26.22341 25.08071
#
# Velocity S-wave (km/s) = 3.54308 3.70835 3.62666
# Velocity P-wave (km/s) = 6.61650 6.80134 6.70956
#
# Compressibility (1/GPa) = 0.01939378
#
# Stress axis : x y z
#
# Youngs Moduli (GPa) = 65.59498 64.05718 45.07398
#
# Poissons Ratio (x) = 0.04261 0.26704
# Poissons Ratio (y) = 0.04363 0.46130
# Poissons Ratio (z) = 0.38862 0.65558
#
# Static dielectric constant tensor:
#      x y z
#    x 3.589450 0.000000 0.038330 
#    y 0.000000 3.606730 0.000000 
#    z 0.038330 0.000000 3.269940 
# 
# 
# High freq. dielectric constant tensor:
#      x y z
#    x 1.745210 0.000000 0.005210 
#    y 0.000000 1.742110 0.000000 
#    z 0.005210 0.000000 1.723210 
# 
# From -- ./inp_files/65498.got.cif
#   From: 2010.06.25/outbox.cif.g09.slc.cpg/sg12_33_cif.got.tgz:65498.got - 2010.06.28 00:19:55.
