data_PCOD8093098
_publ_section_title
;
Structure prediction by ZEFSAII (Michael W. Deem and Ramdas Pophale) SiO2 
 PCOD8093098
Probable space group: C 2/M
;
_chemical_formula_sum "Si O2"
_cell_formula_units_Z 48
_cell_length_a 21.187952
_cell_length_b 17.668014
_cell_length_c 16.129338
_cell_angle_alpha 90.000000
_cell_angle_beta 154.492689
_cell_angle_gamma 90.000000
_cell_volume 2600.122277
_symmetry_space_group_name_H-M "C 2/M"
_symmetry_group_IT_number 12
_symmetry_cell_setting 'monoclinic'
loop_
_space_group_symop_operation_xyz
x,y,z
-x,y,-z
-x,-y,-z
x,-y,z
1/2+x,1/2+y,z
1/2-x,1/2+y,-z
1/2-x,1/2-y,-z
1/2+x,1/2-y,z
loop_
_atom_site_type_symbol
_atom_site_label
_atom_site_fract_x
_atom_site_fract_y
_atom_site_fract_z
Si Si1 0.420694 0.589081 0.651822
Si Si2 0.567639 0.589682 0.663943
Si Si3 0.336959 0.911082 0.545513
Si Si4 0.829918 0.911266 0.819899
Si Si5 0.684393 0.327284 0.034160
Si Si6 0.354546 0.164607 0.070503
O O1 0.411443 0.500000 0.645607
O O2 0.450866 0.617485 0.594367
O O3 0.271321 0.622957 0.512108
O O4 0.558472 0.611810 0.869910
O O5 0.500000 0.623381 0.500000
O O6 0.580862 0.500000 0.676769
O O7 0.729125 0.620665 0.871847
O O8 0.271619 0.889944 0.378621
O O9 0.493952 0.878251 0.751928
O O10 0.350650 0.000000 0.570073
O O11 0.810300 0.000000 0.821306
O O12 0.766630 0.853744 0.815765
O O13 0.000000 0.894648 0.000000
O O14 0.620118 0.242926 0.948689
O O15 0.814566 0.329738 0.120648
#
# Coordination Sequence:
#
# PCOD8093098 Si02
#       6
#     8   8   8   8   8   8
#     4   9  17  33  58  80 105 145 185 221 273 335
#     4   9  18  36  59  78 101 144 194 229 268 330
#     4  10  20  35  58  87 114 141 180 238 285 324
#     4  10  19  35  59  86 114 146 191 229 270 340
#     4  10  20  37  53  77 112 156 184 216 276 338
#     4  10  22  37  52  81 114 145 185 229 282 328
#
# _framework density 18.46067
#
# number of rings (size 3 to 8) (size 9 to 14) (size 15 to 20)
#    0.000    2.333    1.667    1.000    0.000    3.333 
#    9.000    2.500    0.000    4.000    0.000    0.000 
#    0.000    0.000    0.000    0.000    0.000    0.000 
#
# Total GULP energy -297406.239344 kJ/mol
# GULP energy per Si atom -12391.926639 kJ/mol
# Density = 1.841865 g / cm^3
# Si number density = 18.460670 Si / 1000 Ang^3
#
#
#
# Elastic Constant Matrix: (Units=GPa)
#
#
# Indices 1 2 3 4 5 6 
#
# 1 129.8435 42.5562 78.1901 -0.0002 -4.1602 -0.0002
# 2 42.5562 -30.2319 4.7805 -0.0001 -13.3989 -0.0001
# 3 78.1901 4.7805 98.9779 -0.0002 -11.0340 -0.0002
# 4 -0.0002 -0.0001 -0.0002 2.6067 -0.0002 -19.8953
# 5 -4.1602 -13.3989 -11.0340 -0.0002 24.5210 -0.0001
# 6 -0.0002 -0.0001 -0.0002 -19.8953 -0.0001 9.7210
#
#
#
# Elastic Compliance Matrix: (Units=1/GPa)
#
#
# Indices 1 2 3 4 5 6 
#
# 1 0.008883 0.009764 -0.007081 0.000000 0.003656 0.000000
# 2 0.009764 -0.015885 -0.008137 0.000000 -0.010685 0.000000
# 3 -0.007081 -0.008137 0.016277 0.000000 0.001677 0.000000
# 4 0.000000 0.000000 0.000000 -0.026239 0.000000 -0.053701
# 5 0.003656 -0.010685 0.001677 0.000000 0.036318 0.000000
# 6 0.000000 0.000000 0.000000 -0.053701 0.000000 -0.007036
#
#
# Mechanical properties :
#
#
# Convention : Reuss Voigt Hill
#
# Bulk Modulus (GPa) = -612.18169 49.96037 -281.11066
# Shear Modulus (GPa) = 220.43165 12.24059 116.33612
#
# Velocity S-wave (km/s) = 10.93916 2.57779 7.94702
# Velocity P-wave (km/s) = 13.14459 5.99849 8.27038
#
# Compressibility (1/GPa) = -0.00163350
#
# Stress axis : x y z
#
# Youngs Moduli (GPa) = 112.57692 -62.95436 61.43562
#
# Poissons Ratio (x) = 0.61468 0.43504
# Poissons Ratio (y) = -1.09919 0.49991
# Poissons Ratio (z) = 0.79718 -0.51227
#
# Static dielectric constant tensor:
#      x y z
#    x 2.859850 0.000000 -0.551520 
#    y 0.000000 3.281210 0.000000 
#    z -0.551520 0.000000 3.061720 
# 
# 
# High freq. dielectric constant tensor:
#      x y z
#    x 1.723340 0.000000 -0.000300 
#    y 0.000000 1.705320 0.000000 
#    z -0.000300 0.000000 1.707090 
# 
# From -- ./inp_files/63357.got.cif
#   From: 2010.06.25/outbox.cif.g09.slc.cpg/sg12_32_cif.got.tgz:63357.got - 2010.06.28 00:19:55.
