data_PCOD8093569
_publ_section_title
;
Structure prediction by ZEFSAII (Michael W. Deem and Ramdas Pophale) SiO2 
 PCOD8093569
Probable space group: C 2/M
;
_chemical_formula_sum "Si O2"
_cell_formula_units_Z 56
_cell_length_a 18.798316
_cell_length_b 15.628498
_cell_length_c 12.561762
_cell_angle_alpha 90.000000
_cell_angle_beta 127.850827
_cell_angle_gamma 90.000000
_cell_volume 2914.069691
_symmetry_space_group_name_H-M "C 2/M"
_symmetry_group_IT_number 12
_symmetry_cell_setting 'monoclinic'
loop_
_space_group_symop_operation_xyz
x,y,z
-x,y,-z
-x,-y,-z
x,-y,z
1/2+x,1/2+y,z
1/2-x,1/2+y,-z
1/2-x,1/2-y,-z
1/2+x,1/2-y,z
loop_
_atom_site_type_symbol
_atom_site_label
_atom_site_fract_x
_atom_site_fract_y
_atom_site_fract_z
Si Si1 0.431687 0.715681 0.520688
Si Si2 0.396835 0.901266 0.777760
Si Si3 0.668769 0.594972 0.227242
Si Si4 0.141067 0.742739 0.090118
Si Si5 0.209141 0.902091 0.505441
Si Si6 0.046015 0.308056 0.795795
Si Si7 0.677094 0.175501 0.731990
O O1 0.500000 0.670532 0.500000
O O2 0.352234 0.650828 0.471439
O O3 0.482739 0.741482 0.675365
O O4 0.391504 0.798871 0.424720
O O5 0.391663 0.841557 0.877248
O O6 0.312899 0.880253 0.624050
O O7 0.486691 0.883594 0.792355
O O8 0.397363 0.000000 0.816064
O O9 0.625182 0.500000 0.177666
O O10 0.606824 0.670364 0.120094
O O11 0.687312 0.622478 0.364966
O O12 0.765542 0.593367 0.254573
O O13 0.250397 0.746920 0.180114
O O14 0.096722 0.744573 0.933855
O O15 0.187554 0.000000 0.508704
O O16 0.121150 0.348180 0.786344
#
# Coordination Sequence:
#
# PCOD8093569 Si02
#       7
#     8   8   8   8   8   8   8
#     4  10  20  36  59  85 109 149 200 241 288 345
#     4  11  23  37  60  89 119 155 197 240 293 350
#     4   9  19  34  59  84 109 152 198 233 284 347
#     4  10  21  38  60  81 121 159 191 238 289 352
#     4  10  19  36  57  82 113 151 195 242 290 344
#     4  11  22  35  57  88 119 150 191 241 295 343
#     4   9  20  37  60  80 115 157 192 235 288 346
#
# _framework density 19.217110000000002
#
# number of rings (size 3 to 8) (size 9 to 14) (size 15 to 20)
#    0.857    1.143    1.429    2.571    0.000    3.714 
#    0.000    0.714    0.000    9.429    0.000    0.000 
#    0.000    0.000    0.000    0.000    0.000    0.000 
#
# Total GULP energy -347028.420585 kJ/mol
# GULP energy per Si atom -12393.872164 kJ/mol
# Density = 1.917337 g / cm^3
# Si number density = 19.217110 Si / 1000 Ang^3
#
#
#
# Elastic Constant Matrix: (Units=GPa)
#
#
# Indices 1 2 3 4 5 6 
#
# 1 105.0339 33.0065 15.3083 0.0000 -5.1499 0.0000
# 2 33.0065 81.9042 38.0186 0.0000 -10.1207 0.0000
# 3 15.3083 38.0186 124.3503 0.0000 -10.4858 0.0000
# 4 0.0000 0.0000 0.0000 13.6405 0.0000 6.0865
# 5 -5.1499 -10.1207 -10.4858 0.0000 24.9111 0.0000
# 6 0.0000 0.0000 0.0000 6.0865 0.0000 6.3823
#
#
#
# Elastic Compliance Matrix: (Units=1/GPa)
#
#
# Indices 1 2 3 4 5 6 
#
# 1 0.010907 -0.004347 0.000028 0.000000 0.000501 0.000000
# 2 -0.004347 0.016376 -0.004133 0.000000 0.004015 0.000000
# 3 0.000028 -0.004133 0.009498 0.000000 0.002325 0.000000
# 4 0.000000 0.000000 0.000000 0.127615 0.000000 -0.121701
# 5 0.000501 0.004015 0.002325 0.000000 0.042856 0.000000
# 6 0.000000 0.000000 0.000000 -0.121701 0.000000 0.272743
#
#
# Mechanical properties :
#
#
# Convention : Reuss Voigt Hill
#
# Bulk Modulus (GPa) = 50.30668 53.77281 52.03974
# Shear Modulus (GPa) = 9.93003 23.98377 16.95690
#
# Velocity S-wave (km/s) = 2.27563 3.53660 2.97372
# Velocity P-wave (km/s) = 5.75670 6.68724 6.23934
#
# Compressibility (1/GPa) = 0.01987808
#
# Stress axis : x y z
#
# Youngs Moduli (GPa) = 91.68347 61.06630 105.28597
#
# Poissons Ratio (x) = 0.26544 -0.00300
# Poissons Ratio (y) = 0.39853 0.43515
# Poissons Ratio (z) = -0.00261 0.25239
#
# Static dielectric constant tensor:
#      x y z
#    x 3.605320 0.000000 0.011630 
#    y 0.000000 3.174020 0.000000 
#    z 0.011630 0.000000 3.515340 
# 
# 
# High freq. dielectric constant tensor:
#      x y z
#    x 1.752750 0.000000 -0.001050 
#    y 0.000000 1.719350 0.000000 
#    z -0.001050 0.000000 1.754890 
# 
# From -- ./inp_files/157953.got.cif
#   From: 2010.06.25/outbox.cif.g09.slc.cpg/sg12_79_cif.got.tgz:157953.got - 2010.06.28 00:19:55.
