data_PCOD8093540
_publ_section_title
;
Structure prediction by ZEFSAII (Michael W. Deem and Ramdas Pophale) SiO2 
 PCOD8093540
Probable space group: C 2/M
;
_chemical_formula_sum "Si O2"
_cell_formula_units_Z 64
_cell_length_a 16.849002
_cell_length_b 11.988226
_cell_length_c 16.780346
_cell_angle_alpha 90.000000
_cell_angle_beta 90.473347
_cell_angle_gamma 90.000000
_cell_volume 3389.340445
_symmetry_space_group_name_H-M "C 2/M"
_symmetry_group_IT_number 12
_symmetry_cell_setting 'monoclinic'
loop_
_space_group_symop_operation_xyz
x,y,z
-x,y,-z
-x,-y,-z
x,-y,z
1/2+x,1/2+y,z
1/2-x,1/2+y,-z
1/2-x,1/2-y,-z
1/2+x,1/2-y,z
loop_
_atom_site_type_symbol
_atom_site_label
_atom_site_fract_x
_atom_site_fract_y
_atom_site_fract_z
Si Si1 0.661355 0.781620 0.921817
Si Si2 0.885857 0.244857 0.785602
Si Si3 0.048336 0.371765 0.796334
Si Si4 0.410037 0.372450 0.473491
Si Si5 0.331860 0.626866 0.937300
Si Si6 0.266180 0.372274 0.206336
Si Si7 0.179343 0.128588 0.368626
Si Si8 0.341675 0.770236 0.335338
O O1 0.590919 0.853699 0.882136
O O2 0.736143 0.862628 0.937169
O O3 0.684720 0.683519 0.863001
O O4 0.632028 0.719570 0.002030
O O5 0.869420 0.148931 0.850820
O O6 0.827147 0.347641 0.803256
O O7 0.868373 0.196483 0.698461
O O8 0.974865 0.288266 0.790191
O O9 0.020892 0.500000 0.789893
O O10 0.107051 0.345375 0.724023
O O11 0.500000 0.359778 0.500000
O O12 0.392475 0.500000 0.446104
O O13 0.353728 0.336918 0.545701
O O14 0.396103 0.284211 0.403205
O O15 0.353328 0.500000 0.962163
O O16 0.283313 0.500000 0.198292
O O17 0.297933 0.330976 0.291123
O O18 0.273481 0.150665 0.370630
O O19 0.162577 0.000000 0.350946
#
# Coordination Sequence:
#
# PCOD8093540 Si02
#       8
#     8   8   8   8   8   8   8   8
#     4   9  20  34  55  82 104 138 181 220 266 319
#     4  10  21  34  53  79 106 141 180 218 266 322
#     4  11  22  38  56  77 108 139 174 220 271 321
#     4  10  20  34  54  81 114 146 175 216 269 319
#     4  10  19  36  57  78 108 141 181 226 266 312
#     4   9  17  32  52  75 104 136 175 220 266 315
#     4  10  20  36  57  80 107 142 182 220 264 315
#     4  10  20  34  56  80 104 139 184 224 261 314
#
# _framework density 18.882729000000001
#
# number of rings (size 3 to 8) (size 9 to 14) (size 15 to 20)
#    0.000    2.125    0.000    4.125    0.000    0.500 
#    0.000   10.000    0.000    9.000    0.000    0.000 
#    0.000    0.000    0.000    0.000    0.000    0.000 
#
# Total GULP energy -396827.596244 kJ/mol
# GULP energy per Si atom -12400.862383 kJ/mol
# Density = 1.883975 g / cm^3
# Si number density = 18.882729 Si / 1000 Ang^3
#
#
#
# Elastic Constant Matrix: (Units=GPa)
#
#
# Indices 1 2 3 4 5 6 
#
# 1 78.5353 13.9346 15.3153 0.0000 3.3727 0.0000
# 2 13.9346 83.0258 23.0478 0.0000 2.5279 0.0000
# 3 15.3153 23.0478 75.0550 0.0000 10.1434 0.0000
# 4 0.0000 0.0000 0.0000 20.9049 0.0000 3.0222
# 5 3.3727 2.5279 10.1434 0.0000 24.8351 0.0000
# 6 0.0000 0.0000 0.0000 3.0222 0.0000 20.2819
#
#
#
# Elastic Compliance Matrix: (Units=1/GPa)
#
#
# Indices 1 2 3 4 5 6 
#
# 1 0.013476 -0.001644 -0.002138 0.000000 -0.000789 0.000000
# 2 -0.001644 0.013370 -0.003828 0.000000 0.000426 0.000000
# 3 -0.002138 -0.003828 0.015711 0.000000 -0.005737 0.000000
# 4 0.000000 0.000000 0.000000 0.048889 0.000000 -0.007285
# 5 -0.000789 0.000426 -0.005737 0.000000 0.042672 0.000000
# 6 0.000000 0.000000 0.000000 -0.007285 0.000000 0.050391
#
#
# Mechanical properties :
#
#
# Convention : Reuss Voigt Hill
#
# Bulk Modulus (GPa) = 36.58145 37.91238 37.24692
# Shear Modulus (GPa) = 23.94174 25.49228 24.71701
#
# Velocity S-wave (km/s) = 3.56465 3.67826 3.62190
# Velocity P-wave (km/s) = 6.02970 6.17745 6.10402
#
# Compressibility (1/GPa) = 0.02733626
#
# Stress axis : x y z
#
# Youngs Moduli (GPa) = 74.20755 74.79445 63.65144
#
# Poissons Ratio (x) = 0.12297 0.13610
# Poissons Ratio (y) = 0.12200 0.24364
# Poissons Ratio (z) = 0.15867 0.28629
#
# Static dielectric constant tensor:
#      x y z
#    x 3.381160 0.000000 -0.009860 
#    y 0.000000 3.313780 0.000000 
#    z -0.009860 0.000000 3.590080 
# 
# 
# High freq. dielectric constant tensor:
#      x y z
#    x 1.726780 0.000000 -0.001400 
#    y 0.000000 1.730000 0.000000 
#    z -0.001400 0.000000 1.739900 
# 
# From -- ./inp_files/269310.got.cif
#   From: 2010.06.25/outbox.cif.g09.slc.cpg/sg12_135_cif.got.tgz:269310.got - 2010.06.28 00:19:55.
