data_PCOD8093854
_publ_section_title
;
Structure prediction by ZEFSAII (Michael W. Deem and Ramdas Pophale) SiO2 
 PCOD8093854
Probable space group: C 2/M
;
_chemical_formula_sum "Si O2"
_cell_formula_units_Z 64
_cell_length_a 14.760748
_cell_length_b 23.259537
_cell_length_c 17.989796
_cell_angle_alpha 90.000000
_cell_angle_beta 148.968331
_cell_angle_gamma 90.000000
_cell_volume 3184.008813
_symmetry_space_group_name_H-M "C 2/M"
_symmetry_group_IT_number 12
_symmetry_cell_setting 'monoclinic'
loop_
_space_group_symop_operation_xyz
x,y,z
-x,y,-z
-x,-y,-z
x,-y,z
1/2+x,1/2+y,z
1/2-x,1/2+y,-z
1/2-x,1/2-y,-z
1/2+x,1/2-y,z
loop_
_atom_site_type_symbol
_atom_site_label
_atom_site_fract_x
_atom_site_fract_y
_atom_site_fract_z
Si Si1 0.077525 0.932566 0.706047
Si Si2 0.792957 0.434974 0.991898
Si Si3 0.892149 0.628382 0.852695
Si Si4 0.198285 0.650668 0.615534
Si Si5 0.800847 0.782340 0.379753
Si Si6 0.085747 0.563926 0.771238
Si Si7 0.260031 0.140138 0.530510
Si Si8 0.354950 0.433885 0.838128
O O1 0.234089 0.914956 0.761007
O O2 0.901400 0.900124 0.559892
O O3 0.040490 0.000000 0.673891
O O4 0.132565 0.911742 0.828687
O O5 0.820029 0.500000 0.984292
O O6 0.977786 0.404214 0.110384
O O7 0.758160 0.429381 0.056223
O O8 0.823909 0.684780 0.764501
O O9 0.000000 0.649438 0.000000
O O10 0.240592 0.716055 0.666206
O O11 0.228312 0.647879 0.548943
O O12 0.337148 0.608043 0.754320
O O13 0.000000 0.634100 0.500000
O O14 0.760986 0.800494 0.437683
O O15 0.000000 0.797246 0.500000
O O16 0.003451 0.500000 0.720634
O O17 0.937764 0.610458 0.682587
O O18 0.168038 0.570999 0.748075
O O19 0.390720 0.500000 0.837198
O O20 0.500000 0.413452 0.000000
#
# Coordination Sequence:
#
# PCOD8093854 Si02
#       8
#     8   8   8   8   8   8   8   8
#     4  10  21  34  55  90 124 158 198 241 293 356
#     4   9  18  33  55  83 122 162 197 238 293 353
#     4  10  19  36  60  84 119 160 201 243 293 350
#     4  11  25  43  64  86 118 160 202 248 296 352
#     4  11  23  42  61  85 119 161 205 248 294 346
#     4  10  20  35  58  89 120 155 193 239 301 358
#     4  12  22  39  61  88 120 159 200 251 293 355
#     4  10  23  43  67  93 121 152 192 245 304 364
#
# _framework density 20.100446000000002
#
# number of rings (size 3 to 8) (size 9 to 14) (size 15 to 20)
#    0.000    1.625    3.750    1.125    1.750    3.250 
#    0.000    0.625    0.000    2.250    0.000    0.000 
#    0.000    0.000    0.000    0.000    0.000    0.000 
#
# Total GULP energy -396650.691517 kJ/mol
# GULP energy per Si atom -12395.334110 kJ/mol
# Density = 2.005470 g / cm^3
# Si number density = 20.100446 Si / 1000 Ang^3
#
#
#
# Elastic Constant Matrix: (Units=GPa)
#
#
# Indices 1 2 3 4 5 6 
#
# 1 73.8605 18.9543 12.8352 -0.0103 -20.6874 -0.0029
# 2 18.9543 79.7654 35.2855 -0.0056 -8.2936 -0.0016
# 3 12.8352 35.2855 76.7270 -0.0209 -12.2625 -0.0082
# 4 -0.0103 -0.0056 -0.0209 29.3796 -0.0094 -4.9825
# 5 -20.6874 -8.2936 -12.2625 -0.0094 31.5837 -0.0030
# 6 -0.0029 -0.0016 -0.0082 -4.9825 -0.0030 26.5485
#
#
#
# Elastic Compliance Matrix: (Units=1/GPa)
#
#
# Indices 1 2 3 4 5 6 
#
# 1 0.017258 -0.003103 0.000231 0.000010 0.010579 0.000005
# 2 -0.003103 0.016356 -0.007080 -0.000004 -0.000487 -0.000002
# 3 0.000231 -0.007080 0.017035 0.000014 0.004906 0.000008
# 4 0.000010 -0.000004 0.000014 0.035156 0.000022 0.006598
# 5 0.010579 -0.000487 0.004906 0.000022 0.040368 0.000011
# 6 0.000005 -0.000002 0.000008 0.006598 0.000011 0.038905
#
#
# Mechanical properties :
#
#
# Convention : Reuss Voigt Hill
#
# Bulk Modulus (GPa) = 32.52743 40.50031 36.51387
# Shear Modulus (GPa) = 25.61063 28.38756 26.99910
#
# Velocity S-wave (km/s) = 3.57337 3.76212 3.66896
# Velocity P-wave (km/s) = 5.76566 6.25012 6.01278
#
# Compressibility (1/GPa) = 0.03074328
#
# Stress axis : x y z
#
# Youngs Moduli (GPa) = 57.94317 61.14090 58.70337
#
# Poissons Ratio (x) = 0.18973 -0.01355
# Poissons Ratio (y) = 0.17981 0.41564
# Poissons Ratio (z) = -0.01337 0.43290
#
# Static dielectric constant tensor:
#      x y z
#    x 3.736140 0.000000 -0.075520 
#    y 0.000000 3.502300 0.000010 
#    z -0.075520 0.000010 3.657310 
# 
# 
# High freq. dielectric constant tensor:
#      x y z
#    x 1.793660 0.000000 -0.007590 
#    y 0.000000 1.767540 0.000000 
#    z -0.007590 0.000000 1.788660 
# 
# From -- ./inp_files/272850.got.cif
#   From: 2010.06.25/outbox.cif.g09.slc.cpg/sg12_137_cif.got.tgz:272850.got - 2010.06.28 00:19:55.
