data_PCOD8093870
_publ_section_title
;
Structure prediction by ZEFSAII (Michael W. Deem and Ramdas Pophale) SiO2 
 PCOD8093870
Probable space group: C 2/M
;
_chemical_formula_sum "Si O2"
_cell_formula_units_Z 40
_cell_length_a 15.594389
_cell_length_b 8.663304
_cell_length_c 16.513881
_cell_angle_alpha 90.000000
_cell_angle_beta 119.166538
_cell_angle_gamma 90.000000
_cell_volume 1948.131201
_symmetry_space_group_name_H-M "C 2/M"
_symmetry_group_IT_number 12
_symmetry_cell_setting 'monoclinic'
loop_
_space_group_symop_operation_xyz
x,y,z
-x,y,-z
-x,-y,-z
x,-y,z
1/2+x,1/2+y,z
1/2-x,1/2+y,-z
1/2-x,1/2-y,-z
1/2+x,1/2-y,z
loop_
_atom_site_type_symbol
_atom_site_label
_atom_site_fract_x
_atom_site_fract_y
_atom_site_fract_z
Si Si1 0.019674 0.318770 0.225612
Si Si2 0.202268 0.317302 0.898454
Si Si3 0.314481 0.679249 0.790761
Si Si4 0.948218 0.180931 0.591335
Si Si5 0.134972 0.320957 0.597457
O O1 0.019934 0.500000 0.241750
O O2 0.085871 0.275189 0.178306
O O3 0.067584 0.233195 0.324152
O O4 0.909442 0.257674 0.160085
O O5 0.203362 0.500000 0.903504
O O6 0.263838 0.259037 0.849361
O O7 0.250000 0.250000 0.000000
O O8 0.341469 0.500000 0.811409
O O9 0.242498 0.709329 0.681996
O O10 0.868825 0.267410 0.497682
O O11 0.057864 0.222845 0.614011
O O12 0.930150 0.000000 0.575622
O O13 0.105770 0.500000 0.592328
#
# Coordination Sequence:
#
# PCOD8093870 Si02
#       5
#     8   8   8   8   8
#     4  11  23  41  63  90 123 161 203 247 301 361
#     4  10  23  44  66  89 120 156 198 249 308 364
#     4  10  22  41  63  90 123 159 202 249 298 358
#     4  11  21  34  57  90 124 160 207 249 294 354
#     4  10  19  36  60  85 123 166 203 246 299 352
#
# _framework density 20.532498
#
# number of rings (size 3 to 8) (size 9 to 14) (size 15 to 20)
#    0.000    1.600    2.000    4.200    0.000    5.600 
#    0.000    4.000    0.000    0.000    0.000    0.000 
#    0.000    0.000    0.000    0.000    0.000    0.000 
#
# Total GULP energy -248073.125044 kJ/mol
# GULP energy per Si atom -12403.656252 kJ/mol
# Density = 2.048577 g / cm^3
# Si number density = 20.532498 Si / 1000 Ang^3
#
#
#
# Elastic Constant Matrix: (Units=GPa)
#
#
# Indices 1 2 3 4 5 6 
#
# 1 134.6632 26.4089 66.1542 0.0000 -14.3547 0.0000
# 2 26.4089 62.5299 35.3892 0.0000 -2.3735 0.0000
# 3 66.1542 35.3892 136.3372 0.0000 -6.2777 0.0000
# 4 0.0000 0.0000 0.0000 34.5774 0.0000 -3.2895
# 5 -14.3547 -2.3735 -6.2777 0.0000 15.7612 0.0000
# 6 0.0000 0.0000 0.0000 -3.2895 0.0000 33.5688
#
#
#
# Elastic Compliance Matrix: (Units=1/GPa)
#
#
# Indices 1 2 3 4 5 6 
#
# 1 0.010767 -0.001756 -0.004410 0.000000 0.007785 0.000000
# 2 -0.001756 0.019045 -0.004109 0.000000 -0.000368 0.000000
# 3 -0.004410 -0.004109 0.010521 0.000000 -0.000445 0.000000
# 4 0.000000 0.000000 0.000000 0.029193 0.000000 0.002861
# 5 0.007785 -0.000368 -0.000445 0.000000 0.070305 0.000000
# 6 0.000000 0.000000 0.000000 0.002861 0.000000 0.030070
#
#
# Mechanical properties :
#
#
# Convention : Reuss Voigt Hill
#
# Bulk Modulus (GPa) = 50.54678 65.49276 58.01977
# Shear Modulus (GPa) = 25.37521 30.48668 27.93094
#
# Velocity S-wave (km/s) = 3.51929 3.85749 3.69226
# Velocity P-wave (km/s) = 6.41757 7.19769 6.81879
#
# Compressibility (1/GPa) = 0.01978365
#
# Stress axis : x y z
#
# Youngs Moduli (GPa) = 92.88040 52.50666 95.05194
#
# Poissons Ratio (x) = 0.09219 0.41918
# Poissons Ratio (y) = 0.16308 0.39053
# Poissons Ratio (z) = 0.40960 0.21573
#
# Static dielectric constant tensor:
#      x y z
#    x 3.635610 0.000000 -0.453350 
#    y 0.000000 3.604160 0.000000 
#    z -0.453350 0.000000 1.739630 
# 
# 
# High freq. dielectric constant tensor:
#      x y z
#    x 1.802360 0.000000 -0.002960 
#    y 0.000000 1.798480 0.000000 
#    z -0.002960 0.000000 1.802850 
# 
# From -- ./inp_files/211439.got.cif
#   From: 2010.06.25/outbox.cif.g09.slc.cpg/sg12_106_cif.got.tgz:211439.got - 2010.06.28 00:19:55.
