data_PCOD8093451
_publ_section_title
;
Structure prediction by ZEFSAII (Michael W. Deem and Ramdas Pophale) SiO2 
 PCOD8093451
Probable space group: C 2/M
;
_chemical_formula_sum "Si O2"
_cell_formula_units_Z 64
_cell_length_a 13.272722
_cell_length_b 25.880215
_cell_length_c 16.986951
_cell_angle_alpha 90.000000
_cell_angle_beta 35.228922
_cell_angle_gamma 90.000000
_cell_volume 3365.907968
_symmetry_space_group_name_H-M "C 2/M"
_symmetry_group_IT_number 12
_symmetry_cell_setting 'monoclinic'
loop_
_space_group_symop_operation_xyz
x,y,z
-x,y,-z
-x,-y,-z
x,-y,z
1/2+x,1/2+y,z
1/2-x,1/2+y,-z
1/2-x,1/2-y,-z
1/2+x,1/2-y,z
loop_
_atom_site_type_symbol
_atom_site_label
_atom_site_fract_x
_atom_site_fract_y
_atom_site_fract_z
Si Si1 0.278126 0.655542 0.430245
Si Si2 0.760041 0.349483 0.957988
Si Si3 0.435790 0.693592 0.629142
Si Si4 0.303067 0.941362 0.603908
Si Si5 0.056145 0.705684 0.286461
Si Si6 0.471209 0.275453 0.197737
Si Si7 0.439009 0.178545 0.125969
Si Si8 0.514744 0.558536 0.081319
O O1 0.421985 0.667761 0.404628
O O2 0.270452 0.594298 0.419418
O O3 0.321420 0.683536 0.318585
O O4 0.088294 0.671707 0.578984
O O5 0.792512 0.331860 0.845935
O O6 0.942762 0.354107 0.888228
O O7 0.653728 0.305073 0.071651
O O8 0.656766 0.403253 0.029081
O O9 0.500000 0.698904 0.500000
O O10 0.377336 0.750677 0.695964
O O11 0.261058 0.658689 0.739838
O O12 0.500000 0.924526 0.500000
O O13 0.177475 0.934586 0.759401
O O14 0.300874 0.000000 0.573906
O O15 0.970050 0.734158 0.267970
O O16 0.438073 0.240904 0.141705
O O17 0.500000 0.166703 0.000000
O O18 0.582901 0.500000 0.050193
O O19 0.500000 0.572933 0.000000
#
# Coordination Sequence:
#
# PCOD8093451 Si02
#       8
#     8   8   8   8   8   8   8   8
#     4  11  21  38  59  82 117 153 192 236 289 339
#     4  11  21  38  58  83 116 155 192 233 284 339
#     4  11  21  36  54  82 121 161 192 229 273 333
#     4  10  23  43  65  88 110 140 189 244 298 349
#     4  10  21  34  54  80 117 155 196 232 268 327
#     4  10  19  36  52  77 114 156 193 230 270 322
#     4  11  21  32  53  83 118 154 193 225 269 336
#     4  10  23  43  64  87 112 142 187 244 300 345
#
# _framework density 19.014185999999999
#
# number of rings (size 3 to 8) (size 9 to 14) (size 15 to 20)
#    0.000    1.500    1.250    7.500    1.750    3.000 
#    0.000    0.000    0.000    1.500    0.000    0.000 
#    0.000    0.000    0.000    0.000    0.000    0.000 
#
# Total GULP energy -396624.042454 kJ/mol
# GULP energy per Si atom -12394.501327 kJ/mol
# Density = 1.897091 g / cm^3
# Si number density = 19.014186 Si / 1000 Ang^3
#
#
#
# Elastic Constant Matrix: (Units=GPa)
#
#
# Indices 1 2 3 4 5 6 
#
# 1 80.4606 42.8115 32.7702 -0.0089 -2.8520 -0.0102
# 2 42.8115 91.0094 31.4841 -0.0045 -9.9444 -0.0097
# 3 32.7702 31.4841 124.0240 -0.0087 -0.4953 0.0023
# 4 -0.0089 -0.0045 -0.0087 31.9477 0.0115 2.6676
# 5 -2.8520 -9.9444 -0.4953 0.0115 24.3968 0.0052
# 6 -0.0102 -0.0097 0.0023 2.6676 0.0052 31.3366
#
#
#
# Elastic Compliance Matrix: (Units=1/GPa)
#
#
# Indices 1 2 3 4 5 6 
#
# 1 0.017424 -0.007360 -0.002740 0.000003 -0.001019 0.000003
# 2 -0.007360 0.015757 -0.002033 -0.000003 0.005521 0.000002
# 3 -0.002740 -0.002033 0.009299 0.000002 -0.000960 -0.000002
# 4 0.000003 -0.000003 0.000002 0.031525 -0.000015 -0.002684
# 5 -0.001019 0.005521 -0.000960 -0.000015 0.043101 -0.000004
# 6 0.000003 0.000002 -0.000002 -0.002684 -0.000004 0.032140
#
#
# Mechanical properties :
#
#
# Convention : Reuss Voigt Hill
#
# Bulk Modulus (GPa) = 54.90148 56.62507 55.76327
# Shear Modulus (GPa) = 27.84220 30.09809 28.97014
#
# Velocity S-wave (km/s) = 3.83075 3.98292 3.90758
# Velocity P-wave (km/s) = 6.96440 7.14119 7.05335
#
# Compressibility (1/GPa) = 0.01821445
#
# Stress axis : x y z
#
# Youngs Moduli (GPa) = 57.39115 63.46484 107.53714
#
# Poissons Ratio (x) = 0.46711 0.29461
# Poissons Ratio (y) = 0.42240 0.21864
# Poissons Ratio (z) = 0.15723 0.12903
#
# Static dielectric constant tensor:
#      x y z
#    x 3.527920 -0.000020 0.060010 
#    y -0.000020 3.413090 0.000020 
#    z 0.060010 0.000020 3.885100 
# 
# 
# High freq. dielectric constant tensor:
#      x y z
#    x 1.724870 0.000000 0.001580 
#    y 0.000000 1.707150 0.000000 
#    z 0.001580 0.000000 1.768700 
# 
# From -- ./inp_files/272805.got.cif
#   From: 2010.06.25/outbox.cif.g09.slc.cpg/sg12_137_cif.got.tgz:272805.got - 2010.06.28 00:19:55.
