data_PCOD8093607
_publ_section_title
;
Structure prediction by ZEFSAII (Michael W. Deem and Ramdas Pophale) SiO2 
 PCOD8093607
Probable space group: C 2/M
;
_chemical_formula_sum "Si O2"
_cell_formula_units_Z 48
_cell_length_a 14.986273
_cell_length_b 8.967171
_cell_length_c 19.473219
_cell_angle_alpha 90.000000
_cell_angle_beta 100.733117
_cell_angle_gamma 90.000000
_cell_volume 2571.116460
_symmetry_space_group_name_H-M "C 2/M"
_symmetry_group_IT_number 12
_symmetry_cell_setting 'monoclinic'
loop_
_space_group_symop_operation_xyz
x,y,z
-x,y,-z
-x,-y,-z
x,-y,z
1/2+x,1/2+y,z
1/2-x,1/2+y,-z
1/2-x,1/2-y,-z
1/2+x,1/2-y,z
loop_
_atom_site_type_symbol
_atom_site_label
_atom_site_fract_x
_atom_site_fract_y
_atom_site_fract_z
Si Si1 0.915359 0.176565 0.172687
Si Si2 0.840356 0.826289 0.435107
Si Si3 0.053595 0.174251 0.077206
Si Si4 0.736884 0.823089 0.071623
Si Si5 0.468073 0.676377 0.329393
Si Si6 0.133160 0.674347 0.421610
O O1 0.817832 0.233268 0.132545
O O2 0.993364 0.231338 0.132036
O O3 0.934555 0.239691 0.251375
O O4 0.914858 0.000000 0.173982
O O5 0.883216 0.736690 0.504469
O O6 0.734487 0.787190 0.410263
O O7 0.892749 0.776351 0.374296
O O8 0.854146 0.000000 0.453167
O O9 0.144460 0.270468 0.093387
O O10 0.078057 0.000000 0.085755
O O11 0.000000 0.208482 0.000000
O O12 0.738025 0.000000 0.062536
O O13 0.750000 0.750000 0.000000
O O14 0.481268 0.500000 0.329549
O O15 0.564794 0.749043 0.359123
O O16 0.114308 0.500000 0.420004
#
# Coordination Sequence:
#
# PCOD8093607 Si02
#       6
#     8   8   8   8   8   8
#     4   9  20  37  55  77 108 146 180 217 274 330
#     4   9  19  35  55  78 106 143 182 217 261 323
#     4  10  19  36  58  79 107 142 177 222 275 327
#     4  11  21  36  58  83 108 140 182 227 273 325
#     4  10  20  36  56  76 105 146 185 216 262 329
#     4  10  20  34  54  81 110 139 176 227 274 310
#
# _framework density 18.668932000000002
#
# number of rings (size 3 to 8) (size 9 to 14) (size 15 to 20)
#    0.000    2.167    1.667    1.500    0.000    5.000 
#    0.000    4.167    0.000    0.000    0.000    0.000 
#    0.000    0.000    0.000    0.000    0.000    0.000 
#
# Total GULP energy -297671.746470 kJ/mol
# GULP energy per Si atom -12402.989436 kJ/mol
# Density = 1.862644 g / cm^3
# Si number density = 18.668932 Si / 1000 Ang^3
#
#
#
# Elastic Constant Matrix: (Units=GPa)
#
#
# Indices 1 2 3 4 5 6 
#
# 1 139.2563 41.2681 78.9948 0.0000 12.4745 0.0000
# 2 41.2681 45.5187 36.3379 0.0000 8.9454 0.0000
# 3 78.9948 36.3379 149.7935 0.0000 14.4131 0.0000
# 4 0.0000 0.0000 0.0000 18.7248 0.0000 2.9129
# 5 12.4745 8.9454 14.4131 0.0000 33.1736 0.0000
# 6 0.0000 0.0000 0.0000 2.9129 0.0000 35.0545
#
#
#
# Elastic Compliance Matrix: (Units=1/GPa)
#
#
# Indices 1 2 3 4 5 6 
#
# 1 0.011876 -0.007062 -0.004491 0.000000 -0.000610 0.000000
# 2 -0.007062 0.032156 -0.003650 0.000000 -0.004429 0.000000
# 3 -0.004491 -0.003650 0.010095 0.000000 -0.001713 0.000000
# 4 0.000000 0.000000 0.000000 0.054105 0.000000 -0.004496
# 5 -0.000610 -0.004429 -0.001713 0.000000 0.032313 0.000000
# 6 0.000000 0.000000 0.000000 -0.004496 0.000000 0.028901
#
#
# Mechanical properties :
#
#
# Convention : Reuss Voigt Hill
#
# Bulk Modulus (GPa) = 42.15829 71.97446 57.06637
# Shear Modulus (GPa) = 24.06652 29.25508 26.66080
#
# Velocity S-wave (km/s) = 3.59433 3.96289 3.78310
# Velocity P-wave (km/s) = 6.31322 7.71855 7.05098
#
# Compressibility (1/GPa) = 0.02372013
#
# Stress axis : x y z
#
# Youngs Moduli (GPa) = 84.20302 31.09849 99.06310
#
# Poissons Ratio (x) = 0.21961 0.44490
# Poissons Ratio (y) = 0.59463 0.36161
# Poissons Ratio (z) = 0.37816 0.11352
#
# Static dielectric constant tensor:
#      x y z
#    x 3.870270 0.000000 0.018730 
#    y 0.000000 3.244110 0.000000 
#    z 0.018730 0.000000 3.612380 
# 
# 
# High freq. dielectric constant tensor:
#      x y z
#    x 1.739070 0.000000 -0.000300 
#    y 0.000000 1.706550 0.000000 
#    z -0.000300 0.000000 1.724770 
# 
# From -- ./inp_files/267614.got.cif
#   From: 2010.06.25/outbox.cif.g09.slc.cpg/sg12_134_cif.got.tgz:267614.got - 2010.06.28 00:19:55.
