data_PCOD8093935
_publ_section_title
;
Structure prediction by ZEFSAII (Michael W. Deem and Ramdas Pophale) SiO2 
 PCOD8093935
Probable space group: C 2/M
;
_chemical_formula_sum "Si O2"
_cell_formula_units_Z 56
_cell_length_a 31.394653
_cell_length_b 9.109908
_cell_length_c 11.899567
_cell_angle_alpha 90.000000
_cell_angle_beta 58.263226
_cell_angle_gamma 90.000000
_cell_volume 2894.421069
_symmetry_space_group_name_H-M "C 2/M"
_symmetry_group_IT_number 12
_symmetry_cell_setting 'monoclinic'
loop_
_space_group_symop_operation_xyz
x,y,z
-x,y,-z
-x,-y,-z
x,-y,z
1/2+x,1/2+y,z
1/2-x,1/2+y,-z
1/2-x,1/2-y,-z
1/2+x,1/2-y,z
loop_
_atom_site_type_symbol
_atom_site_label
_atom_site_fract_x
_atom_site_fract_y
_atom_site_fract_z
Si Si1 0.074031 0.174578 0.125556
Si Si2 0.098581 0.325643 0.629908
Si Si3 0.786156 0.328911 0.535929
Si Si4 0.325781 0.327239 0.906360
Si Si5 0.481589 0.674069 0.401261
Si Si6 0.734018 0.170080 0.185139
Si Si7 0.558770 0.334207 0.900938
O O1 0.120588 0.236399 0.131757
O O2 0.022981 0.229273 0.254205
O O3 0.073879 0.000000 0.126195
O O4 0.080837 0.227974 0.987668
O O5 0.093839 0.500000 0.626020
O O6 0.156431 0.274132 0.549321
O O7 0.070107 0.253272 0.562557
O O8 0.074355 0.273183 0.779952
O O9 0.783979 0.500000 0.512427
O O10 0.750000 0.250000 0.500000
O O11 0.763411 0.290066 0.688407
O O12 0.327738 0.500000 0.887303
O O13 0.311956 0.256495 0.806778
O O14 0.286118 0.280831 0.056985
O O15 0.500000 0.720706 0.500000
O O16 0.472828 0.500000 0.407856
O O17 0.723079 0.000000 0.180784
O O18 0.577823 0.500000 0.847736
O O19 0.500000 0.337191 0.000000
#
# Coordination Sequence:
#
# PCOD8093935 Si02
#       7
#     8   8   8   8   8   8   8
#     4   9  18  33  55  86 112 137 185 239 277 323
#     4  11  24  40  57  84 121 153 188 239 297 349
#     4  10  24  42  59  82 114 152 195 240 285 345
#     4   9  18  33  57  84 108 138 180 233 284 331
#     4  10  21  38  60  86 116 152 197 238 277 339
#     4   9  19  37  56  78 110 144 181 226 284 341
#     4  10  19  36  61  83 110 147 190 233 276 333
#
# _framework density 19.347566
#
# number of rings (size 3 to 8) (size 9 to 14) (size 15 to 20)
#    0.000    2.286    1.429    0.429    4.000    2.286 
#    0.000    1.429    0.000    0.000    0.000    0.000 
#    0.000    0.000    0.000    0.000    0.000    0.000 
#
# Total GULP energy -347174.720013 kJ/mol
# GULP energy per Si atom -12399.097143 kJ/mol
# Density = 1.930353 g / cm^3
# Si number density = 19.347566 Si / 1000 Ang^3
#
#
#
# Elastic Constant Matrix: (Units=GPa)
#
#
# Indices 1 2 3 4 5 6 
#
# 1 170.8482 49.8973 49.5779 0.0000 9.3554 0.0000
# 2 49.8973 43.3746 32.5985 0.0000 4.5652 0.0000
# 3 49.5779 32.5985 77.9655 0.0000 9.4232 0.0000
# 4 0.0000 0.0000 0.0000 18.2087 0.0000 4.0323
# 5 9.3554 4.5652 9.4232 0.0000 30.9666 0.0000
# 6 0.0000 0.0000 0.0000 4.0323 0.0000 32.2322
#
#
#
# Elastic Compliance Matrix: (Units=1/GPa)
#
#
# Indices 1 2 3 4 5 6 
#
# 1 0.009053 -0.008860 -0.001951 0.000000 -0.000835 0.000000
# 2 -0.008860 0.042305 -0.012068 0.000000 0.000112 0.000000
# 3 -0.001951 -0.012068 0.019545 0.000000 -0.003579 0.000000
# 4 0.000000 0.000000 0.000000 0.056483 0.000000 -0.007066
# 5 -0.000835 0.000112 -0.003579 0.000000 0.033618 0.000000
# 6 0.000000 0.000000 0.000000 -0.007066 0.000000 0.031909
#
#
# Mechanical properties :
#
#
# Convention : Reuss Voigt Hill
#
# Bulk Modulus (GPa) = 39.76926 61.81508 50.79217
# Shear Modulus (GPa) = 20.23861 26.95582 23.59721
#
# Velocity S-wave (km/s) = 3.23779 3.73666 3.49613
# Velocity P-wave (km/s) = 5.88026 7.11590 6.52738
#
# Compressibility (1/GPa) = 0.02514505
#
# Stress axis : x y z
#
# Youngs Moduli (GPa) = 110.46569 23.63793 51.16282
#
# Poissons Ratio (x) = 0.20942 0.09983
# Poissons Ratio (y) = 0.97867 0.61744
# Poissons Ratio (z) = 0.21555 0.28527
#
# Static dielectric constant tensor:
#      x y z
#    x 3.871050 0.000000 0.074350 
#    y 0.000000 3.293330 0.000000 
#    z 0.074350 0.000000 3.852190 
# 
# 
# High freq. dielectric constant tensor:
#      x y z
#    x 1.767560 0.000000 0.005480 
#    y 0.000000 1.724000 0.000000 
#    z 0.005480 0.000000 1.757580 
# 
# From -- ./inp_files/187257.got.cif
#   From: 2010.06.25/outbox.cif.g09.slc.cpg/sg12_94_cif.got.tgz:187257.got - 2010.06.28 00:19:55.
