data_PCOD8093465
_publ_section_title
;
Structure prediction by ZEFSAII (Michael W. Deem and Ramdas Pophale) SiO2 
 PCOD8093465
Probable space group: C 2/M
;
_chemical_formula_sum "Si O2"
_cell_formula_units_Z 56
_cell_length_a 18.995401
_cell_length_b 20.051587
_cell_length_c 15.111209
_cell_angle_alpha 90.000000
_cell_angle_beta 30.741197
_cell_angle_gamma 90.000000
_cell_volume 2942.077943
_symmetry_space_group_name_H-M "C 2/M"
_symmetry_group_IT_number 12
_symmetry_cell_setting 'monoclinic'
loop_
_space_group_symop_operation_xyz
x,y,z
-x,y,-z
-x,-y,-z
x,-y,z
1/2+x,1/2+y,z
1/2-x,1/2+y,-z
1/2-x,1/2-y,-z
1/2+x,1/2-y,z
loop_
_atom_site_type_symbol
_atom_site_label
_atom_site_fract_x
_atom_site_fract_y
_atom_site_fract_z
Si Si1 0.239669 0.840549 0.455196
Si Si2 0.114065 0.423471 0.302428
Si Si3 0.611674 0.075092 0.949814
Si Si4 0.961961 0.574040 0.295529
Si Si5 0.423030 0.717391 0.216155
Si Si6 0.655175 0.333928 0.355466
Si Si7 0.204962 0.196053 0.826314
O O1 0.313303 0.895350 0.435852
O O2 0.360395 0.790522 0.294618
O O3 0.112211 0.816385 0.652379
O O4 0.172730 0.862670 0.435888
O O5 0.171208 0.500000 0.228017
O O6 0.045990 0.393192 0.286169
O O7 0.233678 0.372225 0.200959
O O8 0.000000 0.423312 0.500000
O O9 0.744114 0.121917 0.812836
O O10 0.652430 0.000000 0.876635
O O11 0.500000 0.103765 0.000000
O O12 0.553520 0.075806 0.110182
O O13 0.928496 0.500000 0.363854
O O14 0.355246 0.679470 0.205744
O O15 0.586705 0.721174 0.022357
O O16 0.500000 0.349732 0.500000
O O17 0.684344 0.255468 0.306675
#
# Coordination Sequence:
#
# PCOD8093465 Si02
#       7
#     8   8   8   8   8   8   8
#     4  10  19  36  54  78 113 140 191 235 275 339
#     4  10  21  37  57  81 112 148 190 240 286 334
#     4  10  20  37  60  83 112 152 191 229 277 337
#     4  10  20  35  60  85 106 148 197 233 275 340
#     4   9  20  34  56  80 104 151 187 230 284 338
#     4  11  23  35  56  86 117 151 186 237 292 335
#     4  10  20  37  56  79 114 148 190 234 288 339
#
# _framework density 19.034165999999999
#
# number of rings (size 3 to 8) (size 9 to 14) (size 15 to 20)
#    0.000    2.000    1.429    2.143    2.000    3.714 
#    0.000    4.286    0.000    0.000    0.000    0.000 
#    0.000    0.000    0.000    0.000    0.000    0.000 
#
# Total GULP energy -347034.120377 kJ/mol
# GULP energy per Si atom -12394.075728 kJ/mol
# Density = 1.899084 g / cm^3
# Si number density = 19.034166 Si / 1000 Ang^3
#
#
#
# Elastic Constant Matrix: (Units=GPa)
#
#
# Indices 1 2 3 4 5 6 
#
# 1 105.2945 31.7199 30.5052 -0.0064 -2.6519 0.0023
# 2 31.7199 59.0491 19.8190 -0.0013 -10.0082 0.0002
# 3 30.5052 19.8190 79.8765 -0.0059 -7.3891 0.0016
# 4 -0.0064 -0.0013 -0.0059 30.0888 0.0062 -1.5918
# 5 -2.6519 -10.0082 -7.3891 0.0062 33.6324 -0.0019
# 6 0.0023 0.0002 0.0016 -1.5918 -0.0019 29.8955
#
#
#
# Elastic Compliance Matrix: (Units=1/GPa)
#
#
# Indices 1 2 3 4 5 6 
#
# 1 0.012134 -0.005634 -0.003371 0.000002 -0.001461 -0.000001
# 2 -0.005634 0.021809 -0.002756 -0.000002 0.005440 0.000001
# 3 -0.003371 -0.002756 0.014689 0.000002 0.002141 0.000000
# 4 0.000002 -0.000002 0.000002 0.033329 -0.000006 0.001775
# 5 -0.001461 0.005440 0.002141 -0.000006 0.031707 0.000002
# 6 -0.000001 0.000001 0.000000 0.001775 0.000002 0.033544
#
#
# Mechanical properties :
#
#
# Convention : Reuss Voigt Hill
#
# Bulk Modulus (GPa) = 39.82744 45.36757 42.59750
# Shear Modulus (GPa) = 27.91648 29.53508 28.72578
#
# Velocity S-wave (km/s) = 3.83384 3.94342 3.88902
# Velocity P-wave (km/s) = 6.36926 6.67987 6.52641
#
# Compressibility (1/GPa) = 0.02510832
#
# Stress axis : x y z
#
# Youngs Moduli (GPa) = 82.41001 45.85305 68.07915
#
# Poissons Ratio (x) = 0.25835 0.22952
# Poissons Ratio (y) = 0.46433 0.18764
# Poissons Ratio (z) = 0.27783 0.12638
#
# Static dielectric constant tensor:
#      x y z
#    x 4.303660 0.000010 -0.099620 
#    y 0.000010 3.576000 0.000010 
#    z -0.099620 0.000010 3.481800 
# 
# 
# High freq. dielectric constant tensor:
#      x y z
#    x 1.743640 0.000000 0.016660 
#    y 0.000000 1.729340 0.000000 
#    z 0.016660 0.000000 1.734730 
# 
# From -- ./inp_files/113392.got.cif
#   From: 2010.06.25/outbox.cif.g09.slc.cpg/sg12_57_cif.got.tgz:113392.got - 2010.06.28 00:19:55.
