data_PCOD8093289
_publ_section_title
;
Structure prediction by ZEFSAII (Michael W. Deem and Ramdas Pophale) SiO2 
 PCOD8093289
Probable space group: C 2/M
;
_chemical_formula_sum "Si O2"
_cell_formula_units_Z 48
_cell_length_a 10.026383
_cell_length_b 14.682774
_cell_length_c 17.708436
_cell_angle_alpha 90.000000
_cell_angle_beta 75.444971
_cell_angle_gamma 90.000000
_cell_volume 2523.283894
_symmetry_space_group_name_H-M "C 2/M"
_symmetry_group_IT_number 12
_symmetry_cell_setting 'monoclinic'
loop_
_space_group_symop_operation_xyz
x,y,z
-x,y,-z
-x,-y,-z
x,-y,z
1/2+x,1/2+y,z
1/2-x,1/2+y,-z
1/2-x,1/2-y,-z
1/2+x,1/2-y,z
loop_
_atom_site_type_symbol
_atom_site_label
_atom_site_fract_x
_atom_site_fract_y
_atom_site_fract_z
Si Si1 0.849766 0.333493 0.995201
Si Si2 0.910210 0.762191 0.726295
Si Si3 0.656310 0.892874 0.505033
Si Si4 0.296193 0.746952 0.377076
Si Si5 0.058091 0.397093 0.174274
Si Si6 0.239111 0.601249 0.838357
O O1 0.857151 0.387519 0.915505
O O2 0.750000 0.250000 0.000000
O O3 0.785144 0.398443 0.068209
O O4 0.000000 0.298615 0.000000
O O5 0.829079 0.771261 0.659953
O O6 0.881619 0.663468 0.766849
O O7 0.863349 0.834658 0.795605
O O8 0.070013 0.781508 0.688846
O O9 0.500000 0.884231 0.500000
O O10 0.671632 0.840018 0.581995
O O11 0.757196 0.840650 0.433044
O O12 0.698174 0.000000 0.506989
O O13 0.069494 0.500000 0.200870
O O14 0.900002 0.367234 0.184053
O O15 0.279318 0.500000 0.808201
#
# Coordination Sequence:
#
# PCOD8093289 Si02
#       6
#     8   8   8   8   8   8
#     4  10  19  35  61  83 114 157 209 253 290 343
#     4  12  22  38  61  89 127 157 191 243 303 349
#     4  10  22  43  69  91 116 157 197 233 288 357
#     4  11  24  40  63  95 122 151 193 245 289 353
#     4  10  21  37  60  87 116 162 210 245 290 353
#     4  10  21  37  59  87 119 160 205 249 297 346
#
# _framework density 19.022829000000002
#
# number of rings (size 3 to 8) (size 9 to 14) (size 15 to 20)
#    0.000    1.500    5.000    0.500    0.000    4.667 
#    0.000    0.833    0.000    1.000    0.000    0.000 
#    0.000    0.000    0.000    0.000    0.000    0.000 
#
# Total GULP energy -297618.473030 kJ/mol
# GULP energy per Si atom -12400.769710 kJ/mol
# Density = 1.897953 g / cm^3
# Si number density = 19.022829 Si / 1000 Ang^3
#
#
#
# Elastic Constant Matrix: (Units=GPa)
#
#
# Indices 1 2 3 4 5 6 
#
# 1 58.5848 39.9851 28.0801 0.0000 -10.0090 0.0000
# 2 39.9851 131.1919 46.1629 0.0000 -9.0301 0.0000
# 3 28.0801 46.1629 89.1487 0.0000 -7.8675 0.0000
# 4 0.0000 0.0000 0.0000 14.4400 0.0000 7.0915
# 5 -10.0090 -9.0301 -7.8675 0.0000 38.3073 0.0000
# 6 0.0000 0.0000 0.0000 7.0915 0.0000 27.1493
#
#
#
# Elastic Compliance Matrix: (Units=1/GPa)
#
#
# Indices 1 2 3 4 5 6 
#
# 1 0.023460 -0.005380 -0.004252 0.000000 0.003988 0.000000
# 2 -0.005380 0.010611 -0.003772 0.000000 0.000321 0.000000
# 3 -0.004252 -0.003772 0.014598 0.000000 0.000998 0.000000
# 4 0.000000 0.000000 0.000000 0.079443 0.000000 -0.020751
# 5 0.003988 0.000321 0.000998 0.000000 0.027427 0.000000
# 6 0.000000 0.000000 0.000000 -0.020751 0.000000 0.042253
#
#
# Mechanical properties :
#
#
# Convention : Reuss Voigt Hill
#
# Bulk Modulus (GPa) = 45.74047 56.37574 51.05810
# Shear Modulus (GPa) = 21.56219 26.95915 24.26067
#
# Velocity S-wave (km/s) = 3.37039 3.76866 3.57507
# Velocity P-wave (km/s) = 6.26444 6.97404 6.62874
#
# Compressibility (1/GPa) = 0.02186248
#
# Stress axis : x y z
#
# Youngs Moduli (GPa) = 42.62515 94.23815 68.50377
#
# Poissons Ratio (x) = 0.50697 0.29127
# Poissons Ratio (y) = 0.22931 0.25839
# Poissons Ratio (z) = 0.18124 0.35546
#
# Static dielectric constant tensor:
#      x y z
#    x 3.437630 0.000000 -0.102120 
#    y 0.000000 3.489030 0.000000 
#    z -0.102120 0.000000 3.766210 
# 
# 
# High freq. dielectric constant tensor:
#      x y z
#    x 1.729780 0.000000 -0.007580 
#    y 0.000000 1.736530 0.000000 
#    z -0.007580 0.000000 1.752960 
# 
# From -- ./inp_files/255786.got.cif
#   From: 2010.06.25/outbox.cif.g09.slc.cpg/sg12_128_cif.got.tgz:255786.got - 2010.06.28 00:19:55.
