data_PCOD8093903
_publ_section_title
;
Structure prediction by ZEFSAII (Michael W. Deem and Ramdas Pophale) SiO2 
 PCOD8093903
Probable space group: C 2/M
;
_chemical_formula_sum "Si O2"
_cell_formula_units_Z 40
_cell_length_a 14.902628
_cell_length_b 17.765776
_cell_length_c 9.059698
_cell_angle_alpha 90.000000
_cell_angle_beta 122.607332
_cell_angle_gamma 90.000000
_cell_volume 2020.554583
_symmetry_space_group_name_H-M "C 2/M"
_symmetry_group_IT_number 12
_symmetry_cell_setting 'monoclinic'
loop_
_space_group_symop_operation_xyz
x,y,z
-x,y,-z
-x,-y,-z
x,-y,z
1/2+x,1/2+y,z
1/2-x,1/2+y,-z
1/2-x,1/2-y,-z
1/2+x,1/2-y,z
loop_
_atom_site_type_symbol
_atom_site_label
_atom_site_fract_x
_atom_site_fract_y
_atom_site_fract_z
Si Si1 0.543205 0.773307 0.693322
Si Si2 0.109510 0.825744 0.016585
Si Si3 0.380054 0.082486 0.885287
Si Si4 0.311705 0.915468 0.155088
Si Si5 0.833695 0.715058 0.682999
O O1 0.500000 0.739105 0.500000
O O2 0.613705 0.847723 0.717300
O O3 0.444967 0.797711 0.704043
O O4 0.601060 0.708573 0.842436
O O5 0.188306 0.897032 0.081261
O O6 0.162823 0.762590 0.164918
O O7 0.000000 0.851586 0.000000
O O8 0.303780 0.131230 0.710357
O O9 0.388007 0.000000 0.821321
O O10 0.500000 0.117362 0.000000
O O11 0.324834 0.081000 0.992984
O O12 0.337947 0.000000 0.243324
O O13 0.750000 0.750000 0.500000
#
# Coordination Sequence:
#
# PCOD8093903 Si02
#       5
#     8   8   8   8   8
#     4  11  22  36  60  91 118 152 198 249 295 352
#     4  10  22  41  60  85 120 157 202 249 293 356
#     4  10  19  36  60  87 122 158 194 242 301 364
#     4  11  22  37  62  89 120 161 196 244 306 354
#     4  11  21  36  59  89 119 158 200 242 298 351
#
# _framework density 19.796545999999999
#
# number of rings (size 3 to 8) (size 9 to 14) (size 15 to 20)
#    0.000    1.400    4.000    2.400    2.800    0.800 
#    0.000    3.000    0.000    1.800    0.000    0.000 
#    0.000    0.000    0.000    0.000    0.000    0.000 
#
# Total GULP energy -247792.873857 kJ/mol
# GULP energy per Si atom -12389.643693 kJ/mol
# Density = 1.975149 g / cm^3
# Si number density = 19.796546 Si / 1000 Ang^3
#
#
#
# Elastic Constant Matrix: (Units=GPa)
#
#
# Indices 1 2 3 4 5 6 
#
# 1 85.1380 48.2131 16.8917 0.0000 6.8023 0.0000
# 2 48.2131 78.2093 40.9954 0.0000 7.4225 0.0000
# 3 16.8917 40.9954 119.7376 0.0000 -4.9039 0.0000
# 4 0.0000 0.0000 0.0000 27.9478 0.0000 9.7131
# 5 6.8023 7.4225 -4.9039 0.0000 29.2256 0.0000
# 6 0.0000 0.0000 0.0000 9.7131 0.0000 41.3046
#
#
#
# Elastic Compliance Matrix: (Units=1/GPa)
#
#
# Indices 1 2 3 4 5 6 
#
# 1 0.018307 -0.011966 0.001474 0.000000 -0.000975 0.000000
# 2 -0.011966 0.024129 -0.006757 0.000000 -0.004477 0.000000
# 3 0.001474 -0.006757 0.010586 0.000000 0.003149 0.000000
# 4 0.000000 0.000000 0.000000 0.038965 0.000000 -0.009163
# 5 -0.000975 -0.004477 0.003149 0.000000 0.036109 0.000000
# 6 0.000000 0.000000 0.000000 -0.009163 0.000000 0.026365
#
#
# Mechanical properties :
#
#
# Convention : Reuss Voigt Hill
#
# Bulk Modulus (GPa) = 53.97859 55.03169 54.50514
# Shear Modulus (GPa) = 25.62344 31.49460 28.55902
#
# Velocity S-wave (km/s) = 3.60160 3.99295 3.80231
# Velocity P-wave (km/s) = 6.67991 7.00837 6.84611
#
# Compressibility (1/GPa) = 0.01852586
#
# Stress axis : x y z
#
# Youngs Moduli (GPa) = 54.62305 41.44329 94.46545
#
# Poissons Ratio (x) = 0.49591 -0.13927
# Poissons Ratio (y) = 0.65362 0.63827
# Poissons Ratio (z) = -0.08053 0.28002
#
# Static dielectric constant tensor:
#      x y z
#    x 3.777300 0.000000 0.012220 
#    y 0.000000 3.886420 0.000000 
#    z 0.012220 0.000000 3.477680 
# 
# 
# High freq. dielectric constant tensor:
#      x y z
#    x 1.783460 0.000000 -0.012050 
#    y 0.000000 1.758480 0.000000 
#    z -0.012050 0.000000 1.753360 
# 
# From -- ./inp_files/60829.got.cif
#   From: 2010.06.25/outbox.cif.g09.slc.cpg/sg12_31_cif.got.tgz:60829.got - 2010.06.28 00:19:55.
