data_PCOD8093865
_publ_section_title
;
Structure prediction by ZEFSAII (Michael W. Deem and Ramdas Pophale) SiO2 
 PCOD8093865
Probable space group: C 2/M
;
_chemical_formula_sum "Si O2"
_cell_formula_units_Z 64
_cell_length_a 28.767654
_cell_length_b 8.946319
_cell_length_c 18.980205
_cell_angle_alpha 90.000000
_cell_angle_beta 139.085297
_cell_angle_gamma 90.000000
_cell_volume 3199.246942
_symmetry_space_group_name_H-M "C 2/M"
_symmetry_group_IT_number 12
_symmetry_cell_setting 'monoclinic'
loop_
_space_group_symop_operation_xyz
x,y,z
-x,y,-z
-x,-y,-z
x,-y,z
1/2+x,1/2+y,z
1/2-x,1/2+y,-z
1/2-x,1/2-y,-z
1/2+x,1/2-y,z
loop_
_atom_site_type_symbol
_atom_site_label
_atom_site_fract_x
_atom_site_fract_y
_atom_site_fract_z
Si Si1 0.572178 0.676322 0.619427
Si Si2 0.412957 0.823372 0.820429
Si Si3 0.858421 0.176670 0.891242
Si Si4 0.321658 0.674662 0.605831
Si Si5 0.946124 0.323664 0.103205
Si Si6 0.302942 0.172275 0.320644
Si Si7 0.379560 0.833183 0.548638
Si Si8 0.038388 0.669308 0.717663
O O1 0.500000 0.739074 0.500000
O O2 0.570930 0.500000 0.616828
O O3 0.642429 0.729534 0.660583
O O4 0.579928 0.729940 0.709215
O O5 0.412344 0.757806 0.898635
O O6 0.345479 0.748336 0.705850
O O7 0.482886 0.777018 0.857464
O O8 0.403997 0.000000 0.813901
O O9 0.777111 0.225887 0.785548
O O10 0.867764 0.000000 0.895084
O O11 0.880566 0.233734 0.994103
O O12 0.312100 0.500000 0.606860
O O13 0.250000 0.750000 0.500000
O O14 0.377483 0.710584 0.607896
O O15 0.933141 0.500000 0.082243
O O16 0.951275 0.273201 0.190527
O O17 0.318489 0.195431 0.421311
O O18 0.313481 0.000000 0.311093
O O19 0.456141 0.820172 0.600633
O O20 0.370910 0.000000 0.572061
O O21 0.066262 0.500000 0.743191
#
# Coordination Sequence:
#
# PCOD8093865 Si02
#       8
#     8   8   8   8   8   8   8   8
#     4  11  23  37  59  94 127 152 191 245 303 364
#     4  11  22  40  63  88 119 159 209 254 300 358
#     4  11  24  40  60  91 123 159 206 253 302 357
#     4  12  24  36  54  83 122 163 201 246 302 361
#     4  10  22  41  63  88 119 161 208 250 296 358
#     4  10  22  40  62  86 119 160 201 242 295 365
#     4  10  19  36  60  85 116 155 197 244 296 358
#     4  10  20  38  64  89 116 155 200 241 295 360
#
# _framework density 20.004708000000001
#
# number of rings (size 3 to 8) (size 9 to 14) (size 15 to 20)
#    0.000    1.375    2.500    3.375    0.000    6.500 
#    0.000    0.625    0.000    0.000    0.000    0.000 
#    0.000    0.000    0.000    0.000    0.000    0.000 
#
# Total GULP energy -396867.761526 kJ/mol
# GULP energy per Si atom -12402.117548 kJ/mol
# Density = 1.995918 g / cm^3
# Si number density = 20.004708 Si / 1000 Ang^3
#
#
#
# Elastic Constant Matrix: (Units=GPa)
#
#
# Indices 1 2 3 4 5 6 
#
# 1 77.7246 33.0961 21.8379 0.0000 -13.7218 0.0000
# 2 33.0961 73.7338 34.4789 0.0000 -5.9714 0.0000
# 3 21.8379 34.4789 111.2698 0.0000 -8.7623 0.0000
# 4 0.0000 0.0000 0.0000 35.2840 0.0000 -3.3273
# 5 -13.7218 -5.9714 -8.7623 0.0000 25.3551 0.0000
# 6 0.0000 0.0000 0.0000 -3.3273 0.0000 31.9289
#
#
#
# Elastic Compliance Matrix: (Units=1/GPa)
#
#
# Indices 1 2 3 4 5 6 
#
# 1 0.017295 -0.006834 -0.000685 0.000000 0.007514 0.000000
# 2 -0.006834 0.018670 -0.004512 0.000000 -0.000861 0.000000
# 3 -0.000685 -0.004512 0.010698 0.000000 0.002264 0.000000
# 4 0.000000 0.000000 0.000000 0.028623 0.000000 0.002983
# 5 0.007514 -0.000861 0.002264 0.000000 0.044086 0.000000
# 6 0.000000 0.000000 0.000000 0.002983 0.000000 0.031630
#
#
# Mechanical properties :
#
#
# Convention : Reuss Voigt Hill
#
# Bulk Modulus (GPa) = 44.24574 49.06156 46.65365
# Shear Modulus (GPa) = 27.38272 30.06796 28.72534
#
# Velocity S-wave (km/s) = 3.70376 3.88112 3.79348
# Velocity P-wave (km/s) = 6.36051 6.68299 6.52374
#
# Compressibility (1/GPa) = 0.02260105
#
# Stress axis : x y z
#
# Youngs Moduli (GPa) = 57.82036 53.56210 93.47633
#
# Poissons Ratio (x) = 0.36605 0.06403
# Poissons Ratio (y) = 0.39516 0.42174
# Poissons Ratio (z) = 0.03960 0.24166
#
# Static dielectric constant tensor:
#      x y z
#    x 3.622330 0.000000 -0.097750 
#    y 0.000000 3.656500 0.000000 
#    z -0.097750 0.000000 3.769230 
# 
# 
# High freq. dielectric constant tensor:
#      x y z
#    x 1.773570 0.000000 -0.007600 
#    y 0.000000 1.774800 0.000000 
#    z -0.007600 0.000000 1.785080 
# 
# From -- ./inp_files/295726.got.cif
#   From: 2010.06.25/outbox.cif.g09.slc.cpg/sg12_148_cif.got.tgz:295726.got - 2010.06.28 00:19:55.
