data_PCOD8093799
_publ_section_title
;
Structure prediction by ZEFSAII (Michael W. Deem and Ramdas Pophale) SiO2 
 PCOD8093799
Probable space group: C 2/M
;
_chemical_formula_sum "Si O2"
_cell_formula_units_Z 64
_cell_length_a 20.227575
_cell_length_b 9.178948
_cell_length_c 21.349445
_cell_angle_alpha 90.000000
_cell_angle_beta 117.427528
_cell_angle_gamma 90.000000
_cell_volume 3518.339661
_symmetry_space_group_name_H-M "C 2/M"
_symmetry_group_IT_number 12
_symmetry_cell_setting 'monoclinic'
loop_
_space_group_symop_operation_xyz
x,y,z
-x,y,-z
-x,-y,-z
x,-y,z
1/2+x,1/2+y,z
1/2-x,1/2+y,-z
1/2-x,1/2-y,-z
1/2+x,1/2-y,z
loop_
_atom_site_type_symbol
_atom_site_label
_atom_site_fract_x
_atom_site_fract_y
_atom_site_fract_z
Si Si1 0.929744 0.666660 0.840064
Si Si2 0.149495 0.166829 0.701779
Si Si3 0.772009 0.328907 0.446362
Si Si4 0.351460 0.170133 0.936210
Si Si5 0.297553 0.835926 0.692028
Si Si6 0.578622 0.327561 0.917927
Si Si7 0.815606 0.827139 0.147218
Si Si8 0.420405 0.171348 0.439905
O O1 0.958203 0.500000 0.853241
O O2 0.885770 0.702021 0.883910
O O3 0.876580 0.695733 0.757949
O O4 0.997486 0.776548 0.861689
O O5 0.234369 0.183023 0.716695
O O6 0.147961 0.230354 0.771937
O O7 0.093510 0.256993 0.633680
O O8 0.122793 0.000000 0.687707
O O9 0.764865 0.500000 0.453286
O O10 0.750000 0.250000 0.500000
O O11 0.713288 0.278696 0.368332
O O12 0.855604 0.284367 0.460945
O O13 0.267624 0.233148 0.899806
O O14 0.353704 0.000000 0.954329
O O15 0.400468 0.256123 0.007425
O O16 0.294737 0.000000 0.663274
O O17 0.579904 0.500000 0.925726
O O18 0.635437 0.273372 0.889430
O O19 0.811017 0.000000 0.150700
O O20 0.500000 0.226927 0.500000
O O21 0.420912 0.000000 0.429302
#
# Coordination Sequence:
#
# PCOD8093799 Si02
#       8
#     8   8   8   8   8   8   8   8
#     4  10  20  36  57  78 101 137 181 220 260 312
#     4   9  16  32  58  81 100 131 179 222 255 301
#     4  10  20  35  56  81 110 142 175 214 259 308
#     4  10  19  36  60  77  96 136 186 222 255 310
#     4   9  17  33  58  81 101 133 180 224 259 303
#     4  11  23  35  49  77 115 142 165 215 276 317
#     4   9  18  35  56  77 104 137 174 219 265 309
#     4   9  19  36  55  78 110 141 170 210 261 308
#
# _framework density 18.190397999999998
#
# number of rings (size 3 to 8) (size 9 to 14) (size 15 to 20)
#    0.000    2.375    1.250    1.500    0.000    3.250 
#    2.250    2.500    0.000    0.000    0.000    0.000 
#    0.000    0.000    0.000    0.000    0.000    0.000 
#
# Total GULP energy -396844.477341 kJ/mol
# GULP energy per Si atom -12401.389917 kJ/mol
# Density = 1.814900 g / cm^3
# Si number density = 18.190398 Si / 1000 Ang^3
#
#
#
# Elastic Constant Matrix: (Units=GPa)
#
#
# Indices 1 2 3 4 5 6 
#
# 1 87.5541 35.0567 42.6252 0.0000 9.2211 0.0000
# 2 35.0567 50.8183 37.5164 0.0000 -0.4637 0.0000
# 3 42.6252 37.5164 105.3567 0.0000 7.7329 0.0000
# 4 0.0000 0.0000 0.0000 22.0530 0.0000 2.9229
# 5 9.2211 -0.4637 7.7329 0.0000 32.8010 0.0000
# 6 0.0000 0.0000 0.0000 2.9229 0.0000 24.6617
#
#
#
# Elastic Compliance Matrix: (Units=1/GPa)
#
#
# Indices 1 2 3 4 5 6 
#
# 1 0.017284 -0.009534 -0.003288 0.000000 -0.004219 0.000000
# 2 -0.009534 0.032186 -0.007972 0.000000 0.005015 0.000000
# 3 -0.003288 -0.007972 0.013840 0.000000 -0.002451 0.000000
# 4 0.000000 0.000000 0.000000 0.046069 0.000000 -0.005460
# 5 -0.004219 0.005015 -0.002451 0.000000 0.032322 0.000000
# 6 0.000000 0.000000 0.000000 -0.005460 0.000000 0.041196
#
#
# Mechanical properties :
#
#
# Convention : Reuss Voigt Hill
#
# Bulk Modulus (GPa) = 46.03600 52.68064 49.35832
# Shear Modulus (GPa) = 21.57717 24.47186 23.02452
#
# Velocity S-wave (km/s) = 3.44784 3.67184 3.56160
# Velocity P-wave (km/s) = 6.41973 6.85566 6.64127
#
# Compressibility (1/GPa) = 0.02172213
#
# Stress axis : x y z
#
# Youngs Moduli (GPa) = 57.85640 31.06935 72.25216
#
# Poissons Ratio (x) = 0.29623 0.23757
# Poissons Ratio (y) = 0.55163 0.57597
# Poissons Ratio (z) = 0.19024 0.24768
#
# Static dielectric constant tensor:
#      x y z
#    x 3.389160 0.000000 0.041970 
#    y 0.000000 3.206450 0.000000 
#    z 0.041970 0.000000 3.475920 
# 
# 
# High freq. dielectric constant tensor:
#      x y z
#    x 1.698840 0.000000 0.001400 
#    y 0.000000 1.689620 0.000000 
#    z 0.001400 0.000000 1.715090 
# 
# From -- ./inp_files/319771.got.cif
#   From: 2010.06.25/outbox.cif.g09.slc.cpg/sg12_160_cif.got.tgz:319771.got - 2010.06.28 00:19:55.
