data_PCOD8093869
_publ_section_title
;
Structure prediction by ZEFSAII (Michael W. Deem and Ramdas Pophale) SiO2 
 PCOD8093869
Probable space group: C 2/M
;
_chemical_formula_sum "Si O2"
_cell_formula_units_Z 56
_cell_length_a 15.887418
_cell_length_b 15.999297
_cell_length_c 12.443437
_cell_angle_alpha 90.000000
_cell_angle_beta 117.771583
_cell_angle_gamma 90.000000
_cell_volume 2798.631179
_symmetry_space_group_name_H-M "C 2/M"
_symmetry_group_IT_number 12
_symmetry_cell_setting 'monoclinic'
loop_
_space_group_symop_operation_xyz
x,y,z
-x,y,-z
-x,-y,-z
x,-y,z
1/2+x,1/2+y,z
1/2-x,1/2+y,-z
1/2-x,1/2-y,-z
1/2+x,1/2-y,z
loop_
_atom_site_type_symbol
_atom_site_label
_atom_site_fract_x
_atom_site_fract_y
_atom_site_fract_z
Si Si1 0.450479 0.366778 0.357659
Si Si2 0.477081 0.500000 0.184606
Si Si3 0.630890 0.906566 0.963782
Si Si4 0.933539 0.595716 0.764860
Si Si5 0.729140 0.161424 0.216946
Si Si6 0.860714 0.000000 0.900287
Si Si7 0.034569 0.323514 0.634377
Si Si8 0.733310 0.840521 0.830503
O O1 0.500000 0.398102 0.500000
O O2 0.475296 0.421318 0.266160
O O3 0.336411 0.366027 0.307753
O O4 0.486046 0.273913 0.351104
O O5 0.564674 0.500000 0.153521
O O6 0.391957 0.500000 0.045727
O O7 0.518356 0.884064 0.901341
O O8 0.689965 0.842918 0.924420
O O9 0.641572 0.000000 0.921485
O O10 0.678315 0.905327 0.108407
O O11 0.901287 0.500000 0.750526
O O12 0.839541 0.654016 0.720507
O O13 0.978171 0.615577 0.677453
O O14 0.714951 0.252220 0.155746
O O15 0.803457 0.915656 0.847031
O O16 0.146028 0.343991 0.696556
O O17 0.000000 0.350165 0.500000
#
# Coordination Sequence:
#
# PCOD8093869 Si02
#       8
#     8   4   8   8   8   4   8   8
#     4  10  23  44  64  87 121 167 214 249 300 358
#     4  11  25  42  64  85 128 170 202 257 302 348
#     4  10  19  36  60  85 123 156 192 251 312 362
#     4  10  22  37  58  93 124 150 198 252 309 370
#     4  11  22  36  62  89 119 161 202 247 306 365
#     4  11  24  42  61  93 121 159 215 252 304 363
#     4   9  21  43  64  87 121 159 198 252 308 359
#     4  10  21  39  59  87 118 156 205 250 297 365
#
# _framework density 20.009781
#
# number of rings (size 3 to 8) (size 9 to 14) (size 15 to 20)
#    0.000    1.857    0.714    2.357    5.000    3.714 
#    5.143    2.143    0.000    0.000    0.000    0.000 
#    0.000    0.000    0.000    0.000    0.000    0.000 
#
# Total GULP energy -346937.723035 kJ/mol
# GULP energy per Si atom -12390.632966 kJ/mol
# Density = 1.996424 g / cm^3
# Si number density = 20.009781 Si / 1000 Ang^3
#
#
#
# Elastic Constant Matrix: (Units=GPa)
#
#
# Indices 1 2 3 4 5 6 
#
# 1 95.6573 48.5108 34.5017 0.0000 9.0338 0.0000
# 2 48.5108 92.3715 37.1460 0.0000 -1.2090 0.0000
# 3 34.5017 37.1460 132.5889 0.0000 1.5500 0.0000
# 4 0.0000 0.0000 0.0000 34.9737 0.0000 2.0888
# 5 9.0338 -1.2090 1.5500 0.0000 19.9444 0.0000
# 6 0.0000 0.0000 0.0000 2.0888 0.0000 30.1338
#
#
#
# Elastic Compliance Matrix: (Units=1/GPa)
#
#
# Indices 1 2 3 4 5 6 
#
# 1 0.015669 -0.007575 -0.001869 0.000000 -0.007411 0.000000
# 2 -0.007575 0.015882 -0.002532 0.000000 0.004590 0.000000
# 3 -0.001869 -0.002532 0.008738 0.000000 0.000014 0.000000
# 4 0.000000 0.000000 0.000000 0.028712 0.000000 -0.001990
# 5 -0.007411 0.004590 0.000014 0.000000 0.053773 0.000000
# 6 0.000000 0.000000 0.000000 -0.001990 0.000000 0.033323
#
#
# Mechanical properties :
#
#
# Convention : Reuss Voigt Hill
#
# Bulk Modulus (GPa) = 61.20625 62.32606 61.76616
# Shear Modulus (GPa) = 26.95501 30.37432 28.66467
#
# Velocity S-wave (km/s) = 3.67426 3.90034 3.78899
# Velocity P-wave (km/s) = 6.97530 7.17628 7.07650
#
# Compressibility (1/GPa) = 0.01633820
#
# Stress axis : x y z
#
# Youngs Moduli (GPa) = 63.81963 62.96381 114.44773
#
# Poissons Ratio (x) = 0.47692 0.21386
# Poissons Ratio (y) = 0.48340 0.28980
# Poissons Ratio (z) = 0.11926 0.15944
#
# Static dielectric constant tensor:
#      x y z
#    x 3.524970 0.000000 0.053110 
#    y 0.000000 3.638120 0.000000 
#    z 0.053110 0.000000 3.668960 
# 
# 
# High freq. dielectric constant tensor:
#      x y z
#    x 1.783450 0.000000 0.005930 
#    y 0.000000 1.784780 0.000000 
#    z 0.005930 0.000000 1.776410 
# 
# From -- ./inp_files/146273.got.cif
#   From: 2010.06.25/outbox.cif.g09.slc.cpg/sg12_74_cif.got.tgz:146273.got - 2010.06.28 00:19:55.
