data_PCOD8093167
_publ_section_title
;
Structure prediction by ZEFSAII (Michael W. Deem and Ramdas Pophale) SiO2 
 PCOD8093167
Probable space group: C 2/M
;
_chemical_formula_sum "Si O2"
_cell_formula_units_Z 56
_cell_length_a 9.556182
_cell_length_b 16.767624
_cell_length_c 22.100566
_cell_angle_alpha 90.000000
_cell_angle_beta 125.540032
_cell_angle_gamma 90.000000
_cell_volume 2881.567311
_symmetry_space_group_name_H-M "C 2/M"
_symmetry_group_IT_number 12
_symmetry_cell_setting 'monoclinic'
loop_
_space_group_symop_operation_xyz
x,y,z
-x,y,-z
-x,-y,-z
x,-y,z
1/2+x,1/2+y,z
1/2-x,1/2+y,-z
1/2-x,1/2-y,-z
1/2+x,1/2-y,z
loop_
_atom_site_type_symbol
_atom_site_label
_atom_site_fract_x
_atom_site_fract_y
_atom_site_fract_z
Si Si1 0.118911 0.094638 0.082758
Si Si2 0.275177 0.906288 0.564110
Si Si3 0.504863 0.593270 0.597941
Si Si4 0.153049 0.174024 0.749129
Si Si5 0.092846 0.354956 0.703469
Si Si6 0.956386 0.907855 0.801464
Si Si7 0.999038 0.409157 0.806119
O O1 0.316907 0.120504 0.121284
O O2 0.050077 0.123476 0.130780
O O3 0.110778 0.000000 0.080095
O O4 0.000000 0.131680 0.000000
O O5 0.180286 0.883822 0.477390
O O6 0.453745 0.856758 0.613936
O O7 0.153748 0.880732 0.589211
O O8 0.313872 0.000000 0.575391
O O9 0.515813 0.500000 0.613074
O O10 0.529260 0.636253 0.667640
O O11 0.136605 0.268035 0.739474
O O12 0.092495 0.146021 0.799995
O O13 0.351389 0.149129 0.792729
O O14 0.267444 0.396578 0.724565
O O15 0.008278 0.406938 0.735785
O O16 0.012231 0.000000 0.811054
O O17 0.956952 0.500000 0.815118
#
# Coordination Sequence:
#
# PCOD8093167 Si02
#       7
#     8   8   8   8   8   8   8
#     4   8  16  34  60  86 108 137 182 225 259 311
#     4   9  17  33  56  77  98 140 195 230 261 320
#     4   9  18  32  54  78 103 138 185 234 270 316
#     4  12  22  33  52  83 117 139 174 232 282 313
#     4  11  21  34  54  78 109 144 185 225 267 323
#     4  10  21  35  54  80 111 143 174 221 276 321
#     4  10  19  35  60  80 102 146 189 216 256 330
#
# _framework density 19.433869000000001
#
# number of rings (size 3 to 8) (size 9 to 14) (size 15 to 20)
#    0.000    2.143    1.429    5.143    0.000    0.571 
#    0.000    1.429    0.000   19.714    0.000    0.000 
#    0.000    0.000    0.000    0.000    0.000    0.143 
#
# Total GULP energy -347146.839810 kJ/mol
# GULP energy per Si atom -12398.101422 kJ/mol
# Density = 1.938964 g / cm^3
# Si number density = 19.433869 Si / 1000 Ang^3
#
#
#
# Elastic Constant Matrix: (Units=GPa)
#
#
# Indices 1 2 3 4 5 6 
#
# 1 88.4029 20.2633 38.8194 0.0000 8.7059 0.0000
# 2 20.2633 62.8849 24.0107 0.0000 2.8860 0.0000
# 3 38.8194 24.0107 134.3036 0.0000 13.6918 0.0000
# 4 0.0000 0.0000 0.0000 17.7068 0.0000 1.5102
# 5 8.7059 2.8860 13.6918 0.0000 26.2237 0.0000
# 6 0.0000 0.0000 0.0000 1.5102 0.0000 17.9931
#
#
#
# Elastic Compliance Matrix: (Units=1/GPa)
#
#
# Indices 1 2 3 4 5 6 
#
# 1 0.013646 -0.003084 -0.003132 0.000000 -0.002555 0.000000
# 2 -0.003084 0.017766 -0.002313 0.000000 0.000276 0.000000
# 3 -0.003132 -0.002313 0.009118 0.000000 -0.003466 0.000000
# 4 0.000000 0.000000 0.000000 0.056883 0.000000 -0.004774
# 5 -0.002555 0.000276 -0.003466 0.000000 0.040761 0.000000
# 6 0.000000 0.000000 0.000000 -0.004774 0.000000 0.055978
#
#
# Mechanical properties :
#
#
# Convention : Reuss Voigt Hill
#
# Bulk Modulus (GPa) = 42.60448 50.19760 46.40104
# Shear Modulus (GPa) = 22.82750 25.88458 24.35604
#
# Velocity S-wave (km/s) = 3.43100 3.65352 3.54401
# Velocity P-wave (km/s) = 6.13727 6.60936 6.37768
#
# Compressibility (1/GPa) = 0.02347171
#
# Stress axis : x y z
#
# Youngs Moduli (GPa) = 73.28233 56.28653 109.67182
#
# Poissons Ratio (x) = 0.17358 0.34354
# Poissons Ratio (y) = 0.22599 0.25368
# Poissons Ratio (z) = 0.22955 0.13019
#
# Static dielectric constant tensor:
#      x y z
#    x 3.392680 0.000000 0.141230 
#    y 0.000000 3.276250 0.000000 
#    z 0.141230 0.000000 3.849000 
# 
# 
# High freq. dielectric constant tensor:
#      x y z
#    x 1.739490 0.000000 0.014510 
#    y 0.000000 1.738890 0.000000 
#    z 0.014510 0.000000 1.752680 
# 
# From -- ./inp_files/333372.got.cif
#   From: 2010.06.25/outbox.cif.g09.slc.cpg/sg12_167_cif.got.tgz:333372.got - 2010.06.28 00:19:55.
