data_PCOD8093034
_publ_section_title
;
Structure prediction by ZEFSAII (Michael W. Deem and Ramdas Pophale) SiO2 
 PCOD8093034
Probable space group: C 2/M
;
_chemical_formula_sum "Si O2"
_cell_formula_units_Z 48
_cell_length_a 11.578633
_cell_length_b 23.820254
_cell_length_c 16.264714
_cell_angle_alpha 90.000000
_cell_angle_beta 144.137696
_cell_angle_gamma 90.000000
_cell_volume 2628.019606
_symmetry_space_group_name_H-M "C 2/M"
_symmetry_group_IT_number 12
_symmetry_cell_setting 'monoclinic'
loop_
_space_group_symop_operation_xyz
x,y,z
-x,y,-z
-x,-y,-z
x,-y,z
1/2+x,1/2+y,z
1/2-x,1/2+y,-z
1/2-x,1/2-y,-z
1/2+x,1/2-y,z
loop_
_atom_site_type_symbol
_atom_site_label
_atom_site_fract_x
_atom_site_fract_y
_atom_site_fract_z
Si Si1 0.658886 0.500000 0.201128
Si Si2 0.311648 0.821508 0.113485
Si Si3 0.000000 0.094127 0.000000
Si Si4 0.217995 0.302881 0.093313
Si Si5 0.556372 0.500000 0.328022
Si Si6 0.559362 0.388094 0.668571
Si Si7 0.937130 0.500000 0.656869
Si Si8 0.313572 0.888175 0.653560
O O1 0.548028 0.555363 0.105727
O O2 0.653016 0.500000 0.294996
O O3 0.885411 0.500000 0.304811
O O4 0.265292 0.762660 0.130215
O O5 0.542550 0.834699 0.258620
O O6 0.187238 0.868271 0.088133
O O7 0.256596 0.821381 0.985973
O O8 0.377526 0.335825 0.239386
O O9 0.000000 0.316531 0.000000
O O10 0.425911 0.444427 0.267847
O O11 0.728298 0.500000 0.493040
O O12 0.702690 0.395929 0.674851
O O13 0.337120 0.377220 0.508407
O O14 0.945574 0.444151 0.717366
#
# Coordination Sequence:
#
# PCOD8093034 Si02
#       8
#     4   8   4   8   4   8   4   8
#     4  11  21  34  55  83 117 150 182 224 275 334
#     4  11  22  38  60  82 113 150 187 230 277 330
#     4  11  22  36  56  84 116 147 186 228 276 331
#     4  11  22  38  60  83 111 149 189 230 280 329
#     4  10  21  37  55  82 115 145 183 231 274 333
#     4  10  21  39  59  84 113 143 188 233 278 327
#     4  10  19  35  59  83 111 150 184 217 283 338
#     4  10  20  37  62  84 111 147 184 232 278 327
#
# _framework density 18.264703000000001
#
# number of rings (size 3 to 8) (size 9 to 14) (size 15 to 20)
#    0.000    1.500    4.167    1.750    0.000    2.667 
#    0.000    0.417    0.000    0.000    0.000    0.000 
#    0.000    0.000    0.000    0.000    0.000    0.000 
#
# Total GULP energy -297686.334358 kJ/mol
# GULP energy per Si atom -12403.597265 kJ/mol
# Density = 1.822313 g / cm^3
# Si number density = 18.264703 Si / 1000 Ang^3
#
#
#
# Elastic Constant Matrix: (Units=GPa)
#
#
# Indices 1 2 3 4 5 6 
#
# 1 79.7783 36.7985 26.8666 0.0000 0.6342 0.0001
# 2 36.7985 117.4884 49.5188 -0.0001 -2.5431 0.0000
# 3 26.8666 49.5188 64.2394 0.0001 1.0352 -0.0003
# 4 0.0000 -0.0001 0.0001 27.8074 0.0000 9.2628
# 5 0.6342 -2.5431 1.0352 0.0000 31.1746 -0.0001
# 6 0.0001 0.0000 -0.0003 9.2628 -0.0001 24.9588
#
#
#
# Elastic Compliance Matrix: (Units=1/GPa)
#
#
# Indices 1 2 3 4 5 6 
#
# 1 0.015325 -0.003127 -0.003992 0.000000 -0.000434 0.000000
# 2 -0.003127 0.013303 -0.008970 0.000000 0.001447 0.000000
# 3 -0.003992 -0.008970 0.024174 0.000000 -0.001453 0.000000
# 4 0.000000 0.000000 0.000000 0.041034 0.000000 -0.015229
# 5 -0.000434 0.001447 -0.001453 0.000000 0.032253 0.000000
# 6 0.000000 0.000000 0.000000 -0.015229 0.000000 0.045718
#
#
# Mechanical properties :
#
#
# Convention : Reuss Voigt Hill
#
# Bulk Modulus (GPa) = 48.48645 54.20820 51.34733
# Shear Modulus (GPa) = 23.71250 26.67628 25.19439
#
# Velocity S-wave (km/s) = 3.60706 3.82584 3.71806
# Velocity P-wave (km/s) = 6.62963 7.01853 6.82685
#
# Compressibility (1/GPa) = 0.02062432
#
# Stress axis : x y z
#
# Youngs Moduli (GPa) = 65.25372 75.17206 41.36621
#
# Poissons Ratio (x) = 0.23504 0.16513
# Poissons Ratio (y) = 0.20403 0.37106
# Poissons Ratio (z) = 0.26049 0.67430
#
# Static dielectric constant tensor:
#      x y z
#    x 3.352130 0.000000 0.043690 
#    y 0.000000 3.520580 0.000000 
#    z 0.043690 0.000000 3.292270 
# 
# 
# High freq. dielectric constant tensor:
#      x y z
#    x 1.718170 0.000000 0.003320 
#    y 0.000000 1.715870 0.000000 
#    z 0.003320 0.000000 1.700640 
# 
# From -- ./inp_files/51528.got.cif
#   From: 2010.06.25/outbox.cif.g09.slc.cpg/sg12_26_cif.got.tgz:51528.got - 2010.06.28 00:19:55.
