data_PCOD8093986
_publ_section_title
;
Structure prediction by ZEFSAII (Michael W. Deem and Ramdas Pophale) SiO2 
 PCOD8093986
Probable space group: C 2/M
;
_chemical_formula_sum "Si O2"
_cell_formula_units_Z 44
_cell_length_a 16.572352
_cell_length_b 14.786247
_cell_length_c 11.311420
_cell_angle_alpha 90.000000
_cell_angle_beta 127.023577
_cell_angle_gamma 90.000000
_cell_volume 2212.957763
_symmetry_space_group_name_H-M "C 2/M"
_symmetry_group_IT_number 12
_symmetry_cell_setting 'monoclinic'
loop_
_space_group_symop_operation_xyz
x,y,z
-x,y,-z
-x,-y,-z
x,-y,z
1/2+x,1/2+y,z
1/2-x,1/2+y,-z
1/2-x,1/2-y,-z
1/2+x,1/2-y,z
loop_
_atom_site_type_symbol
_atom_site_label
_atom_site_fract_x
_atom_site_fract_y
_atom_site_fract_z
Si Si1 0.728545 0.604761 0.761906
Si Si2 0.321602 0.736198 0.953333
Si Si3 0.000000 0.317010 0.500000
Si Si4 0.781992 0.605901 0.322157
Si Si5 0.173396 0.896431 0.456784
Si Si6 0.458973 0.675604 0.262320
O O1 0.761572 0.500000 0.792205
O O2 0.822665 0.667065 0.886559
O O3 0.700561 0.645362 0.608343
O O4 0.630673 0.617053 0.758743
O O5 0.276613 0.656578 0.833865
O O6 0.250000 0.750000 0.000000
O O7 0.430196 0.710786 0.104611
O O8 0.901848 0.379747 0.424332
O O9 0.989008 0.258472 0.372241
O O10 0.757641 0.500000 0.286382
O O11 0.739571 0.645697 0.409097
O O12 0.054844 0.887615 0.326697
O O13 0.202626 0.000000 0.492192
#
# Coordination Sequence:
#
# PCOD8093986 Si02
#       6
#     8   8   4   8   8   8
#     4  10  19  36  61  87 121 158 197 248 293 346
#     4  10  21  38  56  86 121 153 199 238 297 357
#     4  12  21  40  61  86 116 156 207 238 291 356
#     4  11  24  41  61  87 121 159 199 245 293 353
#     4  10  21  37  61  91 118 153 200 247 299 347
#     4  11  20  37  60  89 122 154 198 245 294 354
#
# _framework density 19.882891999999998
#
# number of rings (size 3 to 8) (size 9 to 14) (size 15 to 20)
#    0.000    1.455    5.455    0.818    0.000    8.727 
#    0.000    1.818    0.000    0.000    0.000    6.364 
#    0.000    0.000    0.000    0.000    0.000    0.000 
#
# Total GULP energy -272713.850319 kJ/mol
# GULP energy per Si atom -12396.084105 kJ/mol
# Density = 1.983764 g / cm^3
# Si number density = 19.882892 Si / 1000 Ang^3
#
#
#
# Elastic Constant Matrix: (Units=GPa)
#
#
# Indices 1 2 3 4 5 6 
#
# 1 78.7623 14.4349 37.9245 0.0000 -15.3676 0.0000
# 2 14.4349 90.2156 52.0288 0.0000 -10.4573 0.0000
# 3 37.9245 52.0288 164.4441 0.0000 -13.6978 0.0000
# 4 0.0000 0.0000 0.0000 31.7361 0.0000 -4.2771
# 5 -15.3676 -10.4573 -13.6978 0.0000 16.2504 0.0000
# 6 0.0000 0.0000 0.0000 -4.2771 0.0000 21.5266
#
#
#
# Elastic Compliance Matrix: (Units=1/GPa)
#
#
# Indices 1 2 3 4 5 6 
#
# 1 0.016649 0.000587 -0.002885 0.000000 0.013691 0.000000
# 2 0.000587 0.014051 -0.004067 0.000000 0.006169 0.000000
# 3 -0.002885 -0.004067 0.008161 0.000000 0.001534 0.000000
# 4 0.000000 0.000000 0.000000 0.032377 0.000000 0.006433
# 5 0.013691 0.006169 0.001534 0.000000 0.079746 0.000000
# 6 0.000000 0.000000 0.000000 0.006433 0.000000 0.047732
#
#
# Mechanical properties :
#
#
# Convention : Reuss Voigt Hill
#
# Bulk Modulus (GPa) = 38.26898 60.24425 49.25662
# Shear Modulus (GPa) = 22.71098 29.17155 25.94126
#
# Velocity S-wave (km/s) = 3.38337 3.83452 3.61599
# Velocity P-wave (km/s) = 5.87808 7.06895 6.50084
#
# Compressibility (1/GPa) = 0.02613083
#
# Stress axis : x y z
#
# Youngs Moduli (GPa) = 60.06284 71.16751 122.53395
#
# Poissons Ratio (x) = -0.04176 0.35350
# Poissons Ratio (y) = -0.03524 0.49837
# Poissons Ratio (z) = 0.17328 0.28945
#
# Static dielectric constant tensor:
#      x y z
#    x 3.574510 0.000000 0.079030 
#    y 0.000000 3.618080 0.000000 
#    z 0.079030 0.000000 3.073050 
# 
# 
# High freq. dielectric constant tensor:
#      x y z
#    x 1.758330 0.000000 -0.014140 
#    y 0.000000 1.775240 0.000000 
#    z -0.014140 0.000000 1.787080 
# 
# From -- ./inp_files/156295.got.cif
#   From: 2010.06.25/outbox.cif.g09.slc.cpg/sg12_79_cif.got.tgz:156295.got - 2010.06.28 00:19:55.
