data_PCOD8093988
_publ_section_title
;
Structure prediction by ZEFSAII (Michael W. Deem and Ramdas Pophale) SiO2 
 PCOD8093988
Probable space group: C 2/M
;
_chemical_formula_sum "Si O2"
_cell_formula_units_Z 48
_cell_length_a 29.359601
_cell_length_b 8.793055
_cell_length_c 15.104104
_cell_angle_alpha 90.000000
_cell_angle_beta 39.956685
_cell_angle_gamma 90.000000
_cell_volume 2504.152789
_symmetry_space_group_name_H-M "C 2/M"
_symmetry_group_IT_number 12
_symmetry_cell_setting 'monoclinic'
loop_
_space_group_symop_operation_xyz
x,y,z
-x,y,-z
-x,-y,-z
x,-y,z
1/2+x,1/2+y,z
1/2-x,1/2+y,-z
1/2-x,1/2-y,-z
1/2+x,1/2-y,z
loop_
_atom_site_type_symbol
_atom_site_label
_atom_site_fract_x
_atom_site_fract_y
_atom_site_fract_z
Si Si1 0.577031 0.679234 0.854366
Si Si2 0.668716 0.822844 0.866964
Si Si3 0.426946 0.820431 0.829594
Si Si4 0.078730 0.679922 0.664891
Si Si5 0.333479 0.323607 0.617989
Si Si6 0.918236 0.324783 0.645631
O O1 0.576012 0.500000 0.844419
O O2 0.636077 0.725654 0.836740
O O3 0.599316 0.752743 0.728732
O O4 0.500000 0.740368 0.000000
O O5 0.751066 0.786257 0.751512
O O6 0.653206 0.000000 0.872198
O O7 0.633321 0.769792 0.011880
O O8 0.502646 0.752983 0.747694
O O9 0.406347 0.761089 0.762754
O O10 0.435266 0.000000 0.811105
O O11 0.076801 0.500000 0.675581
O O12 0.137914 0.726569 0.506348
O O13 0.346955 0.500000 0.578450
O O14 0.371319 0.278758 0.652366
O O15 0.894368 0.500000 0.670879
O O16 0.000000 0.306814 0.500000
#
# Coordination Sequence:
#
# PCOD8093988 Si02
#       6
#     8   8   8   8   8   8
#     4  11  23  38  60  93 124 149 189 248 302 346
#     4  10  22  41  61  84 119 162 200 237 290 356
#     4   9  18  35  61  87 111 149 204 245 274 344
#     4  11  21  38  65  88 113 157 203 241 287 351
#     4  11  24  39  57  88 126 155 191 249 303 344
#     4  10  19  36  61  88 115 153 203 244 287 351
#
# _framework density 19.168158999999999
#
# number of rings (size 3 to 8) (size 9 to 14) (size 15 to 20)
#    0.000    1.667    3.333    1.500    0.000    3.667 
#    0.000    0.833    0.000    0.000    0.000    0.000 
#    0.000    0.000    0.000    0.000    0.000    0.000 
#
# Total GULP energy -297705.065218 kJ/mol
# GULP energy per Si atom -12404.377717 kJ/mol
# Density = 1.912453 g / cm^3
# Si number density = 19.168159 Si / 1000 Ang^3
#
#
#
# Elastic Constant Matrix: (Units=GPa)
#
#
# Indices 1 2 3 4 5 6 
#
# 1 125.4797 36.4819 61.9530 -0.0001 20.5005 0.0000
# 2 36.4819 52.0501 31.4754 -0.0011 -0.2305 0.0002
# 3 61.9530 31.4754 133.5114 -0.0002 15.4562 0.0000
# 4 -0.0001 -0.0011 -0.0002 22.1746 0.0001 0.8675
# 5 20.5005 -0.2305 15.4562 0.0001 41.4197 0.0000
# 6 0.0000 0.0002 0.0000 0.8675 0.0000 31.1995
#
#
#
# Elastic Compliance Matrix: (Units=1/GPa)
#
#
# Indices 1 2 3 4 5 6 
#
# 1 0.012483 -0.006539 -0.003691 0.000000 -0.004838 0.000000
# 2 -0.006539 0.026024 -0.003650 0.000001 0.004743 0.000000
# 3 -0.003691 -0.003650 0.010299 0.000000 -0.002037 0.000000
# 4 0.000000 0.000001 0.000000 0.045146 0.000000 -0.001255
# 5 -0.004838 0.004743 -0.002037 0.000000 0.027324 0.000000
# 6 0.000000 0.000000 0.000000 -0.001255 0.000000 0.032087
#
#
# Mechanical properties :
#
#
# Convention : Reuss Voigt Hill
#
# Bulk Modulus (GPa) = 47.51483 63.42910 55.47196
# Shear Modulus (GPa) = 26.57635 31.03414 28.80525
#
# Velocity S-wave (km/s) = 3.72759 4.02810 3.88076
# Velocity P-wave (km/s) = 6.58550 7.40249 7.00591
#
# Compressibility (1/GPa) = 0.02104606
#
# Stress axis : x y z
#
# Youngs Moduli (GPa) = 80.10751 38.42674 97.09709
#
# Poissons Ratio (x) = 0.25127 0.35838
# Poissons Ratio (y) = 0.52382 0.35440
# Poissons Ratio (z) = 0.29568 0.14026
#
# Static dielectric constant tensor:
#      x y z
#    x 3.592930 0.000000 0.148020 
#    y 0.000000 3.327070 0.000000 
#    z 0.148020 0.000000 3.901670 
# 
# 
# High freq. dielectric constant tensor:
#      x y z
#    x 1.753990 0.000000 0.010860 
#    y 0.000000 1.730600 0.000000 
#    z 0.010860 0.000000 1.753040 
# 
# From -- ./inp_files/229881.got.cif
#   From: 2010.06.25/outbox.cif.g09.slc.cpg/sg12_115_cif.got.tgz:229881.got - 2010.06.28 00:19:55.
