data_PCOD8093635
_publ_section_title
;
Structure prediction by ZEFSAII (Michael W. Deem and Ramdas Pophale) SiO2 
 PCOD8093635
Probable space group: C 2/M
;
_chemical_formula_sum "Si O2"
_cell_formula_units_Z 56
_cell_length_a 12.759430
_cell_length_b 25.586742
_cell_length_c 9.362621
_cell_angle_alpha 90.000000
_cell_angle_beta 76.515827
_cell_angle_gamma 90.000000
_cell_volume 2972.377785
_symmetry_space_group_name_H-M "C 2/M"
_symmetry_group_IT_number 12
_symmetry_cell_setting 'monoclinic'
loop_
_space_group_symop_operation_xyz
x,y,z
-x,y,-z
-x,-y,-z
x,-y,z
1/2+x,1/2+y,z
1/2-x,1/2+y,-z
1/2-x,1/2-y,-z
1/2+x,1/2-y,z
loop_
_atom_site_type_symbol
_atom_site_label
_atom_site_fract_x
_atom_site_fract_y
_atom_site_fract_z
Si Si1 0.599344 0.376412 0.040329
Si Si2 0.943536 0.284427 0.373553
Si Si3 0.070099 0.615093 0.270534
Si Si4 0.141284 0.441774 0.676306
Si Si5 0.730082 0.860438 0.466000
Si Si6 0.809133 0.440130 0.015604
Si Si7 0.078514 0.178148 0.767299
O O1 0.690587 0.415153 0.063746
O O2 0.544942 0.344385 0.190887
O O3 0.500000 0.409731 0.000000
O O4 0.635107 0.334215 0.904403
O O5 0.828148 0.308888 0.453545
O O6 0.925114 0.239760 0.262267
O O7 0.000000 0.262709 0.500000
O O8 0.020292 0.326986 0.273019
O O9 0.163255 0.613959 0.357827
O O10 0.973852 0.576665 0.349048
O O11 0.117872 0.595878 0.106349
O O12 0.165463 0.500000 0.615611
O O13 0.235942 0.404520 0.587034
O O14 0.136175 0.438736 0.848364
O O15 0.851360 0.848194 0.380285
O O16 0.801484 0.500000 0.961593
#
# Coordination Sequence:
#
# PCOD8093635 Si02
#       7
#     8   8   8   8   8   8   8
#     4   8  20  38  57  79 112 139 199 235 257 330
#     4   9  19  32  57  83 112 147 182 225 284 333
#     4  10  19  37  57  83 112 150 187 224 270 347
#     4  10  22  35  52  86 117 140 180 234 288 331
#     4  10  19  36  58  81 114 147 187 226 270 339
#     4  11  21  38  59  81 113 150 185 233 283 326
#     4   9  18  38  55  79 111 146 188 234 269 320
#
# _framework density 18.840135
#
# number of rings (size 3 to 8) (size 9 to 14) (size 15 to 20)
#    0.857    1.429    1.429    2.571    0.000    4.286 
#   10.286    2.857    0.000    1.714    0.000    0.000 
#    0.000    0.000    0.000    0.000    0.000    0.000 
#
# Total GULP energy -346917.895681 kJ/mol
# GULP energy per Si atom -12389.924846 kJ/mol
# Density = 1.879725 g / cm^3
# Si number density = 18.840135 Si / 1000 Ang^3
#
#
#
# Elastic Constant Matrix: (Units=GPa)
#
#
# Indices 1 2 3 4 5 6 
#
# 1 46.9121 35.1501 23.2083 0.0000 -14.3549 0.0000
# 2 35.1501 97.9827 52.3747 0.0000 -7.5294 0.0000
# 3 23.2083 52.3747 83.3394 0.0000 -26.4227 0.0000
# 4 0.0000 0.0000 0.0000 28.1380 0.0000 3.1737
# 5 -14.3549 -7.5294 -26.4227 0.0000 33.9020 0.0000
# 6 0.0000 0.0000 0.0000 3.1737 0.0000 17.9210
#
#
#
# Elastic Compliance Matrix: (Units=1/GPa)
#
#
# Indices 1 2 3 4 5 6 
#
# 1 0.033403 -0.012452 0.002830 0.000000 0.013584 0.000000
# 2 -0.012452 0.020812 -0.013040 0.000000 -0.010814 0.000000
# 3 0.002830 -0.013040 0.025060 0.000000 0.017834 0.000000
# 4 0.000000 0.000000 0.000000 0.036263 0.000000 -0.006422
# 5 0.013584 -0.010814 0.017834 0.000000 0.046746 0.000000
# 6 0.000000 0.000000 0.000000 -0.006422 0.000000 0.056938
#
#
# Mechanical properties :
#
#
# Convention : Reuss Voigt Hill
#
# Bulk Modulus (GPa) = 29.45392 49.96670 39.71031
# Shear Modulus (GPa) = 18.12485 23.82561 20.97523
#
# Velocity S-wave (km/s) = 3.10503 3.56001 3.34028
# Velocity P-wave (km/s) = 5.34065 6.59372 5.99999
#
# Compressibility (1/GPa) = 0.03395133
#
# Stress axis : x y z
#
# Youngs Moduli (GPa) = 29.93773 48.04844 39.90345
#
# Poissons Ratio (x) = 0.59829 -0.11293
# Poissons Ratio (y) = 0.37278 0.52036
# Poissons Ratio (z) = -0.08473 0.62657
#
# Static dielectric constant tensor:
#      x y z
#    x 3.266570 0.000000 -0.164020 
#    y 0.000000 3.359230 0.000000 
#    z -0.164020 0.000000 3.541450 
# 
# 
# High freq. dielectric constant tensor:
#      x y z
#    x 1.713370 0.000000 -0.013850 
#    y 0.000000 1.720970 0.000000 
#    z -0.013850 0.000000 1.734680 
# 
# From -- ./inp_files/66485.got.cif
#   From: 2010.06.25/outbox.cif.g09.slc.cpg/sg12_34_cif.got.tgz:66485.got - 2010.06.28 00:19:55.
