data_PCOD8093133
_publ_section_title
;
Structure prediction by ZEFSAII (Michael W. Deem and Ramdas Pophale) SiO2 
 PCOD8093133
Probable space group: C 2/M
;
_chemical_formula_sum "Si O2"
_cell_formula_units_Z 56
_cell_length_a 26.206435
_cell_length_b 21.279281
_cell_length_c 5.028223
_cell_angle_alpha 90.000000
_cell_angle_beta 73.487055
_cell_angle_gamma 90.000000
_cell_volume 2688.359306
_symmetry_space_group_name_H-M "C 2/M"
_symmetry_group_IT_number 12
_symmetry_cell_setting 'monoclinic'
loop_
_space_group_symop_operation_xyz
x,y,z
-x,y,-z
-x,-y,-z
x,-y,z
1/2+x,1/2+y,z
1/2-x,1/2+y,-z
1/2-x,1/2-y,-z
1/2+x,1/2-y,z
loop_
_atom_site_type_symbol
_atom_site_label
_atom_site_fract_x
_atom_site_fract_y
_atom_site_fract_z
Si Si1 0.035087 0.071134 0.707487
Si Si2 0.879433 0.569834 0.113664
Si Si3 0.200017 0.073211 0.826360
Si Si4 0.181951 0.609951 0.292134
Si Si5 0.561152 0.194139 0.969619
Si Si6 0.623017 0.234468 0.376789
Si Si7 0.645604 0.374078 0.402199
O O1 0.086391 0.113782 0.594808
O O2 0.000000 0.073170 0.500000
O O3 0.053462 0.000000 0.747922
O O4 0.000000 0.099027 0.000000
O O5 0.902443 0.500000 0.131081
O O6 0.833716 0.586851 0.392158
O O7 0.852351 0.570307 0.865896
O O8 0.927930 0.619176 0.058957
O O9 0.256179 0.098252 0.849568
O O10 0.186039 0.110942 0.580115
O O11 0.201987 0.000000 0.752240
O O12 0.157474 0.083984 0.124849
O O13 0.169875 0.683705 0.269118
O O14 0.576128 0.222713 0.233145
O O15 0.500000 0.206905 0.000000
O O16 0.597359 0.230021 0.704481
O O17 0.650631 0.301853 0.305821
#
# Coordination Sequence:
#
# PCOD8093133 Si02
#       7
#     8   8   8   8   8   8   8
#     4  10  21  38  58  80 110 146 184 230 287 346
#     4  10  19  35  59  87 121 157 198 241 286 347
#     4  12  24  39  62  89 119 151 191 246 296 344
#     4  10  22  39  60  86 119 160 197 234 289 349
#     4  10  21  38  60  86 119 156 197 248 291 336
#     4  10  23  41  59  85 120 158 198 239 289 353
#     4  12  25  40  61  89 118 150 195 245 294 347
#
# _framework density 20.830548
#
# number of rings (size 3 to 8) (size 9 to 14) (size 15 to 20)
#    0.000    1.429    0.000    5.571    0.000    4.286 
#    0.000    0.000    0.000    5.143    0.000    0.000 
#    0.000    0.000    0.000    0.000    0.000    0.000 
#
# Total GULP energy -347378.754785 kJ/mol
# GULP energy per Si atom -12406.384099 kJ/mol
# Density = 2.078314 g / cm^3
# Si number density = 20.830548 Si / 1000 Ang^3
#
#
#
# Elastic Constant Matrix: (Units=GPa)
#
#
# Indices 1 2 3 4 5 6 
#
# 1 73.4884 42.6048 9.8341 0.0000 0.1221 0.0000
# 2 42.6048 126.1450 22.7353 0.0000 2.3784 0.0000
# 3 9.8341 22.7353 88.4559 0.0000 7.8022 0.0000
# 4 0.0000 0.0000 0.0000 26.6723 0.0000 0.0870
# 5 0.1221 2.3784 7.8022 0.0000 29.9474 0.0000
# 6 0.0000 0.0000 0.0000 0.0870 0.0000 21.8256
#
#
#
# Elastic Compliance Matrix: (Units=1/GPa)
#
#
# Indices 1 2 3 4 5 6 
#
# 1 0.016944 -0.005646 -0.000477 0.000000 0.000504 0.000000
# 2 -0.005646 0.010194 -0.001968 0.000000 -0.000274 0.000000
# 3 -0.000477 -0.001968 0.012129 0.000000 -0.003002 0.000000
# 4 0.000000 0.000000 0.000000 0.037493 0.000000 -0.000149
# 5 0.000504 -0.000274 -0.003002 0.000000 0.034194 0.000000
# 6 0.000000 0.000000 0.000000 -0.000149 0.000000 0.045818
#
#
# Mechanical properties :
#
#
# Convention : Reuss Voigt Hill
#
# Bulk Modulus (GPa) = 43.32007 48.71532 46.01769
# Shear Modulus (GPa) = 27.67795 29.88340 28.78068
#
# Velocity S-wave (km/s) = 3.64911 3.79171 3.72110
# Velocity P-wave (km/s) = 6.21259 6.52738 6.37193
#
# Compressibility (1/GPa) = 0.02308399
#
# Stress axis : x y z
#
# Youngs Moduli (GPa) = 59.01796 98.09405 82.44876
#
# Poissons Ratio (x) = 0.55387 0.03932
# Poissons Ratio (y) = 0.33323 0.16228
# Poissons Ratio (z) = 0.02815 0.19308
#
# Static dielectric constant tensor:
#      x y z
#    x 3.546940 0.000000 0.127250 
#    y 0.000000 3.844950 0.000000 
#    z 0.127250 0.000000 3.869570 
# 
# 
# High freq. dielectric constant tensor:
#      x y z
#    x 1.805750 0.000000 0.011630 
#    y 0.000000 1.819210 0.000000 
#    z 0.011630 0.000000 1.830500 
# 
# From -- ./inp_files/28751.got.cif
#   From: 2010.06.25/outbox.cif.g09.slc.cpg/sg12_15_cif.got.tgz:28751.got - 2010.06.28 00:19:55.
