data_PCOD8093789
_publ_section_title
;
Structure prediction by ZEFSAII (Michael W. Deem and Ramdas Pophale) SiO2 
 PCOD8093789
Probable space group: C 2/M
;
_chemical_formula_sum "Si O2"
_cell_formula_units_Z 64
_cell_length_a 30.971459
_cell_length_b 14.299868
_cell_length_c 20.926952
_cell_angle_alpha 90.000000
_cell_angle_beta 160.804610
_cell_angle_gamma 90.000000
_cell_volume 3047.327600
_symmetry_space_group_name_H-M "C 2/M"
_symmetry_group_IT_number 12
_symmetry_cell_setting 'monoclinic'
loop_
_space_group_symop_operation_xyz
x,y,z
-x,y,-z
-x,-y,-z
x,-y,z
1/2+x,1/2+y,z
1/2-x,1/2+y,-z
1/2-x,1/2-y,-z
1/2+x,1/2-y,z
loop_
_atom_site_type_symbol
_atom_site_label
_atom_site_fract_x
_atom_site_fract_y
_atom_site_fract_z
Si Si1 0.788122 0.781010 0.847221
Si Si2 0.952962 0.600403 0.501598
Si Si3 0.281674 0.392521 0.449083
Si Si4 0.807789 0.389614 0.079608
Si Si5 0.694608 0.891526 0.468896
Si Si6 0.152241 0.775600 0.211191
Si Si7 0.085093 0.891015 0.862928
Si Si8 0.114447 0.390753 0.952079
O O1 0.640140 0.813827 0.646850
O O2 0.814625 0.810802 0.812316
O O3 0.881631 0.836849 0.025999
O O4 0.807958 0.669858 0.886442
O O5 0.897823 0.500000 0.454676
O O6 0.000000 0.565033 0.500000
O O7 0.066736 0.644082 0.704831
O O8 0.241514 0.500000 0.384070
O O9 0.253922 0.360975 0.483347
O O10 0.188847 0.332993 0.272849
O O11 0.431232 0.374332 0.635969
O O12 0.804112 0.500000 0.073418
O O13 0.827100 0.354512 0.034034
O O14 0.672764 0.353230 0.925004
O O15 0.770029 0.836139 0.628722
O O16 0.540088 0.868568 0.258075
O O17 0.720618 0.000000 0.517360
O O18 0.000000 0.791414 0.000000
O O19 0.116022 0.000000 0.917789
O O20 0.143086 0.500000 0.004405
#
# Coordination Sequence:
#
# PCOD8093789 Si02
#       8
#     8   8   8   8   8   8   8   8
#     4  12  23  35  58  89 120 157 194 238 298 354
#     4  10  19  36  59  88 122 148 186 242 298 354
#     4  10  22  41  64  86 113 157 205 243 287 348
#     4   9  18  36  60  84 114 154 192 240 297 343
#     4  10  21  41  66  87 113 152 200 250 297 350
#     4  12  25  39  58  89 126 154 188 243 303 356
#     4  10  20  37  60  87 116 147 192 246 297 351
#     4  10  22  40  60  84 115 158 209 247 282 341
#
# _framework density 21.002009000000001
#
# number of rings (size 3 to 8) (size 9 to 14) (size 15 to 20)
#    0.000    1.625    1.250    3.750    0.000    3.500 
#    2.250    0.000    0.000    0.375    0.000    0.000 
#    0.000    0.000    0.000    0.000    0.000    0.000 
#
# Total GULP energy -396574.739758 kJ/mol
# GULP energy per Si atom -12392.960617 kJ/mol
# Density = 2.095421 g / cm^3
# Si number density = 21.002009 Si / 1000 Ang^3
#
#
#
# Elastic Constant Matrix: (Units=GPa)
#
#
# Indices 1 2 3 4 5 6 
#
# 1 56.9716 7.5570 71.7695 0.0002 13.2574 0.0001
# 2 7.5570 56.5672 73.2806 0.0001 16.1145 0.0000
# 3 71.7695 73.2806 53.4200 -0.0011 7.5667 -0.0007
# 4 0.0002 0.0001 -0.0011 37.5469 -0.0004 -2.9799
# 5 13.2574 16.1145 7.5667 -0.0004 18.2700 -0.0003
# 6 0.0001 0.0000 -0.0007 -2.9799 -0.0003 24.8156
#
#
#
# Elastic Compliance Matrix: (Units=1/GPa)
#
#
# Indices 1 2 3 4 5 6 
#
# 1 0.006934 -0.013896 0.009267 0.000000 0.003387 0.000000
# 2 -0.013896 0.006047 0.010305 0.000000 0.000481 0.000000
# 3 0.009267 0.010305 -0.005977 0.000000 -0.013338 0.000000
# 4 0.000000 0.000000 0.000000 0.026890 0.000000 0.003229
# 5 0.003387 0.000481 -0.013338 0.000000 0.057376 0.000000
# 6 0.000000 0.000000 0.000000 0.003229 0.000000 0.040685
#
#
# Mechanical properties :
#
#
# Convention : Reuss Voigt Hill
#
# Bulk Modulus (GPa) = 54.47836 52.46365 53.47101
# Shear Modulus (GPa) = 39.45651 17.08328 28.26990
#
# Velocity S-wave (km/s) = 4.33910 2.85513 3.67284
# Velocity P-wave (km/s) = 7.14840 5.99196 6.59557
#
# Compressibility (1/GPa) = 0.01835591
#
# Stress axis : x y z
#
# Youngs Moduli (GPa) = 144.21834 165.35765 -167.29852
#
# Poissons Ratio (x) = 2.29780 1.55032
# Poissons Ratio (y) = 2.00405 1.72403
# Poissons Ratio (z) = -1.33644 -1.70403
#
# Static dielectric constant tensor:
#      x y z
#    x 4.111430 0.000000 0.133990 
#    y 0.000000 3.831550 0.000000 
#    z 0.133990 0.000000 3.723670 
# 
# 
# High freq. dielectric constant tensor:
#      x y z
#    x 1.829350 0.000000 0.009030 
#    y 0.000000 1.830070 0.000000 
#    z 0.009030 0.000000 1.811220 
# 
# From -- ./inp_files/330388.got.cif
#   From: 2010.06.25/outbox.cif.g09.slc.cpg/sg12_166_cif.got.tgz:330388.got - 2010.06.28 00:19:55.
