data_PCOD8093832
_publ_section_title
;
Structure prediction by ZEFSAII (Michael W. Deem and Ramdas Pophale) SiO2 
 PCOD8093832
Probable space group: C 2/M
;
_chemical_formula_sum "Si O2"
_cell_formula_units_Z 36
_cell_length_a 15.137855
_cell_length_b 25.319708
_cell_length_c 10.920109
_cell_angle_alpha 90.000000
_cell_angle_beta 26.076178
_cell_angle_gamma 90.000000
_cell_volume 1839.813748
_symmetry_space_group_name_H-M "C 2/M"
_symmetry_group_IT_number 12
_symmetry_cell_setting 'monoclinic'
loop_
_space_group_symop_operation_xyz
x,y,z
-x,y,-z
-x,-y,-z
x,-y,z
1/2+x,1/2+y,z
1/2-x,1/2+y,-z
1/2-x,1/2-y,-z
1/2+x,1/2-y,z
loop_
_atom_site_type_symbol
_atom_site_label
_atom_site_fract_x
_atom_site_fract_y
_atom_site_fract_z
Si Si1 0.500000 0.407842 0.500000
Si Si2 0.803923 0.559341 0.313912
Si Si3 0.880874 0.818852 0.815316
Si Si4 0.380678 0.360851 0.264388
Si Si5 0.460861 0.788196 0.415185
O O1 0.369323 0.443842 0.572738
O O2 0.363761 0.369979 0.752110
O O3 0.842930 0.500000 0.314572
O O4 0.745276 0.595335 0.503414
O O5 0.000000 0.582026 0.000000
O O6 0.945145 0.835329 0.871433
O O7 0.050243 0.776005 0.560040
O O8 0.655799 0.796931 0.088345
O O9 0.234183 0.313746 0.403158
O O10 0.500000 0.386336 0.000000
O O11 0.500000 0.813432 0.500000
#
# Coordination Sequence:
#
# PCOD8093832 Si02
#       5
#     4   8   8   8   8
#     4  10  19  36  60  84 106 142 189 230 278 326
#     4  10  22  40  61  83 110 144 189 240 284 334
#     4  10  21  35  54  82 114 149 187 224 268 333
#     4  11  22  37  57  85 114 148 186 231 283 332
#     4  11  20  35  54  79 117 153 184 221 270 331
#
# _framework density 19.567198000000001
#
# number of rings (size 3 to 8) (size 9 to 14) (size 15 to 20)
#    0.000    1.556    3.333    2.333    0.000    0.444 
#    0.000    1.111    0.000    0.667    0.000    0.000 
#    0.000    0.000    0.000    0.000    0.000    0.000 
#
# Total GULP energy -223078.459692 kJ/mol
# GULP energy per Si atom -12393.247761 kJ/mol
# Density = 1.952266 g / cm^3
# Si number density = 19.567198 Si / 1000 Ang^3
#
#
#
# Elastic Constant Matrix: (Units=GPa)
#
#
# Indices 1 2 3 4 5 6 
#
# 1 61.1988 10.2053 15.0178 0.0014 19.6232 -0.0009
# 2 10.2053 72.8482 29.1452 -0.0010 9.1008 0.0001
# 3 15.0178 29.1452 100.3672 -0.0037 14.0494 -0.0067
# 4 0.0014 -0.0010 -0.0037 24.5627 0.0014 -5.0360
# 5 19.6232 9.1008 14.0494 0.0014 25.7374 0.0038
# 6 -0.0009 0.0001 -0.0067 -5.0360 0.0038 16.4249
#
#
#
# Elastic Compliance Matrix: (Units=1/GPa)
#
#
# Indices 1 2 3 4 5 6 
#
# 1 0.021756 -0.000736 -0.000819 0.000000 -0.015880 0.000005
# 2 -0.000736 0.015817 -0.004091 0.000000 -0.002798 -0.000001
# 3 -0.000819 -0.004091 0.011893 0.000003 -0.004421 0.000007
# 4 0.000000 0.000000 0.000003 0.043443 -0.000007 0.013320
# 5 -0.015880 -0.002798 -0.004421 -0.000007 0.054365 -0.000017
# 6 0.000005 -0.000001 0.000007 0.013320 -0.000017 0.064967
#
#
# Mechanical properties :
#
#
# Convention : Reuss Voigt Hill
#
# Bulk Modulus (GPa) = 26.19636 38.12789 32.16213
# Shear Modulus (GPa) = 21.16341 25.34804 23.25573
#
# Velocity S-wave (km/s) = 3.29230 3.60312 3.45121
# Velocity P-wave (km/s) = 5.27914 6.06942 5.68802
#
# Compressibility (1/GPa) = 0.03817324
#
# Stress axis : x y z
#
# Youngs Moduli (GPa) = 45.96474 63.22444 84.08473
#
# Poissons Ratio (x) = 0.04656 0.06883
# Poissons Ratio (y) = 0.03385 0.34400
# Poissons Ratio (z) = 0.03762 0.25866
#
# Static dielectric constant tensor:
#      x y z
#    x 3.586800 0.000010 0.119120 
#    y 0.000010 3.377530 0.000010 
#    z 0.119120 0.000010 3.519300 
# 
# 
# High freq. dielectric constant tensor:
#      x y z
#    x 1.766450 0.000000 0.005810 
#    y 0.000000 1.746490 0.000000 
#    z 0.005810 0.000000 1.763750 
# 
# From -- ./inp_files/7803.got.cif
#   From: 2010.06.25/outbox.cif.g09.slc.cpg/sg12_4_cif.got.tgz:7803.got - 2010.06.28 00:19:55.
