data_PCOD8093264
_publ_section_title
;
Structure prediction by ZEFSAII (Michael W. Deem and Ramdas Pophale) SiO2 
 PCOD8093264
Probable space group: C 2/M
;
_chemical_formula_sum "Si O2"
_cell_formula_units_Z 44
_cell_length_a 16.749647
_cell_length_b 15.048473
_cell_length_c 8.991535
_cell_angle_alpha 90.000000
_cell_angle_beta 76.855088
_cell_angle_gamma 90.000000
_cell_volume 2206.992267
_symmetry_space_group_name_H-M "C 2/M"
_symmetry_group_IT_number 12
_symmetry_cell_setting 'monoclinic'
loop_
_space_group_symop_operation_xyz
x,y,z
-x,y,-z
-x,-y,-z
x,-y,z
1/2+x,1/2+y,z
1/2-x,1/2+y,-z
1/2-x,1/2-y,-z
1/2+x,1/2-y,z
loop_
_atom_site_type_symbol
_atom_site_label
_atom_site_fract_x
_atom_site_fract_y
_atom_site_fract_z
Si Si1 0.902554 0.205828 0.247394
Si Si2 0.000000 0.334605 0.000000
Si Si3 0.565746 0.604431 0.246974
Si Si4 0.092225 0.739491 0.440186
Si Si5 0.809892 0.101175 0.063498
Si Si6 0.628896 0.900274 0.176556
O O1 0.868632 0.253812 0.411530
O O2 0.825397 0.157868 0.205669
O O3 0.973690 0.133251 0.246307
O O4 0.936446 0.278709 0.121515
O O5 0.945833 0.391207 0.907163
O O6 0.569398 0.500000 0.282113
O O7 0.596111 0.660180 0.375406
O O8 0.627405 0.632886 0.089735
O O9 0.131759 0.668123 0.312927
O O10 0.000000 0.706281 0.500000
O O11 0.715430 0.113943 0.053329
O O12 0.829554 0.000000 0.094369
O O13 0.624842 0.000000 0.244423
#
# Coordination Sequence:
#
# PCOD8093264 Si02
#       6
#     8   4   8   8   8   8
#     4  11  20  36  61  88 122 154 191 240 297 362
#     4  12  21  40  61  88 108 156 207 250 289 350
#     4  10  19  35  60  89 123 157 189 237 293 356
#     4  10  21  38  57  88 120 153 200 237 297 354
#     4  10  21  37  60  90 121 157 197 240 293 349
#     4  11  24  42  61  84 118 159 205 250 288 339
#
# _framework density 19.936634999999999
#
# number of rings (size 3 to 8) (size 9 to 14) (size 15 to 20)
#    0.000    1.455    5.455    0.818    0.000    9.455 
#    0.000    0.000    0.000    4.364    0.000    0.000 
#    0.000    0.000    0.000    0.000    0.000    0.000 
#
# Total GULP energy -272693.950827 kJ/mol
# GULP energy per Si atom -12395.179583 kJ/mol
# Density = 1.989126 g / cm^3
# Si number density = 19.936635 Si / 1000 Ang^3
#
#
#
# Elastic Constant Matrix: (Units=GPa)
#
#
# Indices 1 2 3 4 5 6 
#
# 1 77.3464 19.1575 28.1556 0.0000 -1.1556 0.0000
# 2 19.1575 85.1337 34.5665 0.0000 -6.5551 0.0000
# 3 28.1556 34.5665 97.6305 0.0000 1.4678 0.0000
# 4 0.0000 0.0000 0.0000 14.9284 0.0000 -11.0416
# 5 -1.1556 -6.5551 1.4678 0.0000 18.1077 0.0000
# 6 0.0000 0.0000 0.0000 -11.0416 0.0000 12.5538
#
#
#
# Elastic Compliance Matrix: (Units=1/GPa)
#
#
# Indices 1 2 3 4 5 6 
#
# 1 0.014697 -0.001796 -0.003611 0.000000 0.000580 0.000000
# 2 -0.001796 0.014479 -0.004691 0.000000 0.005507 0.000000
# 3 -0.003611 -0.004691 0.012990 0.000000 -0.002982 0.000000
# 4 0.000000 0.000000 0.000000 0.191686 0.000000 0.168596
# 5 0.000580 0.005507 -0.002982 0.000000 0.057497 0.000000
# 6 0.000000 0.000000 0.000000 0.168596 0.000000 0.227945
#
#
# Mechanical properties :
#
#
# Convention : Reuss Voigt Hill
#
# Bulk Modulus (GPa) = 45.51925 47.09663 46.30794
# Shear Modulus (GPa) = 9.14387 21.00005 15.07196
#
# Velocity S-wave (km/s) = 2.14393 3.24904 2.75252
# Velocity P-wave (km/s) = 5.38610 6.14406 5.77752
#
# Compressibility (1/GPa) = 0.02196873
#
# Stress axis : x y z
#
# Youngs Moduli (GPa) = 68.04119 69.06446 76.98298
#
# Poissons Ratio (x) = 0.12406 0.27800
# Poissons Ratio (y) = 0.12222 0.36114
# Poissons Ratio (z) = 0.24571 0.32399
#
# Static dielectric constant tensor:
#      x y z
#    x 3.578320 0.000000 -0.065820 
#    y 0.000000 3.584270 0.000000 
#    z -0.065820 0.000000 3.925380 
# 
# 
# High freq. dielectric constant tensor:
#      x y z
#    x 1.765470 0.000000 -0.004290 
#    y 0.000000 1.778470 0.000000 
#    z -0.004290 0.000000 1.778310 
# 
# From -- ./inp_files/73059.got.cif
#   From: 2010.06.25/outbox.cif.g09.slc.cpg/sg12_37_cif.got.tgz:73059.got - 2010.06.28 00:19:55.
