data_PCOD8093381
_publ_section_title
;
Structure prediction by ZEFSAII (Michael W. Deem and Ramdas Pophale) SiO2 
 PCOD8093381
Probable space group: C 2/M
;
_chemical_formula_sum "Si O2"
_cell_formula_units_Z 40
_cell_length_a 12.864964
_cell_length_b 14.271062
_cell_length_c 10.296323
_cell_angle_alpha 90.000000
_cell_angle_beta 109.697432
_cell_angle_gamma 90.000000
_cell_volume 1779.757093
_symmetry_space_group_name_H-M "C 2/M"
_symmetry_group_IT_number 12
_symmetry_cell_setting 'monoclinic'
loop_
_space_group_symop_operation_xyz
x,y,z
-x,y,-z
-x,-y,-z
x,-y,z
1/2+x,1/2+y,z
1/2-x,1/2+y,-z
1/2-x,1/2-y,-z
1/2+x,1/2-y,z
loop_
_atom_site_type_symbol
_atom_site_label
_atom_site_fract_x
_atom_site_fract_y
_atom_site_fract_z
Si Si1 0.384997 0.393705 0.900559
Si Si2 0.989930 0.606378 0.845954
Si Si3 0.226114 0.895094 0.397308
Si Si4 0.234819 0.893579 0.690632
Si Si5 0.824398 0.289429 0.220733
O O1 0.370037 0.500000 0.947227
O O2 0.383383 0.392974 0.741334
O O3 0.281438 0.329948 0.906295
O O4 0.500000 0.350334 0.000000
O O5 0.030962 0.500000 0.838399
O O6 0.062751 0.679312 0.796675
O O7 0.865815 0.620270 0.746738
O O8 0.000000 0.632464 0.000000
O O9 0.194883 0.863794 0.529412
O O10 0.317969 0.829874 0.366103
O O11 0.275919 0.000000 0.425559
O O12 0.179018 0.823868 0.771496
O O13 0.201020 0.000000 0.712805
#
# Coordination Sequence:
#
# PCOD8093381 Si02
#       5
#     8   8   8   8   8
#     4   8  15  29  54  92 129 157 196 257 315 364
#     4  10  22  40  61  90 125 160 203 259 314 365
#     4   8  16  32  58  93 127 160 203 256 309 370
#     4  10  21  37  60  92 131 166 201 252 309 363
#     4  10  19  35  62  90 122 163 211 249 304 374
#
# _framework density 22.474976999999999
#
# number of rings (size 3 to 8) (size 9 to 14) (size 15 to 20)
#    1.200    1.600    0.000    1.800    0.000    2.400 
#    0.000    3.000    0.000    6.600    0.000    4.200 
#    0.000    0.000    0.000    0.000    0.000    0.000 
#
# Total GULP energy -247823.995639 kJ/mol
# GULP energy per Si atom -12391.199782 kJ/mol
# Density = 2.242382 g / cm^3
# Si number density = 22.474977 Si / 1000 Ang^3
#
#
#
# Elastic Constant Matrix: (Units=GPa)
#
#
# Indices 1 2 3 4 5 6 
#
# 1 62.5935 61.2259 27.8371 0.0000 -8.4982 0.0000
# 2 61.2259 145.8111 36.8975 0.0000 -19.6135 0.0000
# 3 27.8371 36.8975 93.6543 0.0000 9.6559 0.0000
# 4 0.0000 0.0000 0.0000 37.6467 0.0000 38.6545
# 5 -8.4982 -19.6135 9.6559 0.0000 22.6446 0.0000
# 6 0.0000 0.0000 0.0000 38.6545 0.0000 136.3376
#
#
#
# Elastic Compliance Matrix: (Units=1/GPa)
#
#
# Indices 1 2 3 4 5 6 
#
# 1 0.028779 -0.010312 -0.004899 0.000000 0.003958 0.000000
# 2 -0.010312 0.013134 -0.003016 0.000000 0.008792 0.000000
# 3 -0.004899 -0.003016 0.014415 0.000000 -0.010597 0.000000
# 4 0.000000 0.000000 0.000000 0.037471 0.000000 -0.010624
# 5 0.003958 0.008792 -0.010597 0.000000 0.057780 0.000000
# 6 0.000000 0.000000 0.000000 -0.010624 0.000000 0.010347
#
#
# Mechanical properties :
#
#
# Convention : Reuss Voigt Hill
#
# Bulk Modulus (GPa) = 50.31954 61.55331 55.93643
# Shear Modulus (GPa) = 24.38967 51.06567 37.72767
#
# Velocity S-wave (km/s) = 3.29780 4.77184 4.10158
# Velocity P-wave (km/s) = 6.07770 7.60313 6.88280
#
# Compressibility (1/GPa) = 0.01987299
#
# Stress axis : x y z
#
# Youngs Moduli (GPa) = 34.74730 76.13784 69.37407
#
# Poissons Ratio (x) = 0.78515 0.33989
# Poissons Ratio (y) = 0.35832 0.20922
# Poissons Ratio (z) = 0.17024 0.22962
#
# Static dielectric constant tensor:
#      x y z
#    x 3.384840 0.000000 0.139830 
#    y 0.000000 4.177990 0.000000 
#    z 0.139830 0.000000 4.041150 
# 
# 
# High freq. dielectric constant tensor:
#      x y z
#    x 1.832900 0.000000 0.005120 
#    y 0.000000 1.899890 0.000000 
#    z 0.005120 0.000000 1.884030 
# 
# From -- ./inp_files/142144.got.cif
#   From: 2010.06.25/outbox.cif.g09.slc.cpg/sg12_72_cif.got.tgz:142144.got - 2010.06.28 00:19:55.
