data_PCOD8093342
_publ_section_title
;
Structure prediction by ZEFSAII (Michael W. Deem and Ramdas Pophale) SiO2 
 PCOD8093342
Probable space group: C 2/M
;
_chemical_formula_sum "Si O2"
_cell_formula_units_Z 48
_cell_length_a 10.832018
_cell_length_b 24.494274
_cell_length_c 9.644500
_cell_angle_alpha 90.000000
_cell_angle_beta 66.189643
_cell_angle_gamma 90.000000
_cell_volume 2341.105468
_symmetry_space_group_name_H-M "C 2/M"
_symmetry_group_IT_number 12
_symmetry_cell_setting 'monoclinic'
loop_
_space_group_symop_operation_xyz
x,y,z
-x,y,-z
-x,-y,-z
x,-y,z
1/2+x,1/2+y,z
1/2-x,1/2+y,-z
1/2-x,1/2-y,-z
1/2+x,1/2-y,z
loop_
_atom_site_type_symbol
_atom_site_label
_atom_site_fract_x
_atom_site_fract_y
_atom_site_fract_z
Si Si1 0.123619 0.937534 0.101943
Si Si2 0.734106 0.561566 0.350146
Si Si3 0.341941 0.252727 0.096440
Si Si4 0.438019 0.147583 0.172333
Si Si5 0.668991 0.562026 0.680723
Si Si6 0.285099 0.860743 0.822330
O O1 0.142331 0.930084 0.257877
O O2 0.962585 0.926939 0.161311
O O3 0.160090 0.000000 0.039457
O O4 0.214596 0.892836 0.983150
O O5 0.789053 0.500000 0.332885
O O6 0.864590 0.599388 0.284922
O O7 0.647629 0.575542 0.527765
O O8 0.332079 0.198041 0.196136
O O9 0.299245 0.308107 0.191908
O O10 0.500000 0.256612 0.000000
O O11 0.250000 0.250000 0.000000
O O12 0.567521 0.162467 0.207409
O O13 0.500000 0.126051 0.000000
O O14 0.714372 0.500000 0.677391
O O15 0.788851 0.599008 0.688997
#
# Coordination Sequence:
#
# PCOD8093342 Si02
#       6
#     8   8   8   8   8   8
#     4  10  19  35  61  90 120 156 201 246 294 360
#     4  10  21  38  61  86 121 164 196 242 306 363
#     4  11  20  37  60  88 119 157 200 253 303 350
#     4  11  22  39  59  88 118 151 207 250 291 366
#     4  10  22  38  58  90 125 157 198 244 302 364
#     4  12  22  37  62  91 119 157 198 254 303 354
#
# _framework density 20.503133999999999
#
# number of rings (size 3 to 8) (size 9 to 14) (size 15 to 20)
#    0.000    1.333    5.000    2.500    0.000    5.667 
#    0.000    2.500    0.000    0.000    0.000    0.000 
#    0.000    0.000    0.000    0.000    0.000    0.000 
#
# Total GULP energy -297389.496398 kJ/mol
# GULP energy per Si atom -12391.229017 kJ/mol
# Density = 2.045647 g / cm^3
# Si number density = 20.503134 Si / 1000 Ang^3
#
#
#
# Elastic Constant Matrix: (Units=GPa)
#
#
# Indices 1 2 3 4 5 6 
#
# 1 97.6750 44.9083 -0.4215 0.0000 12.6242 0.0000
# 2 44.9083 122.2104 36.9795 0.0000 -0.7258 0.0000
# 3 -0.4215 36.9795 46.5751 0.0000 4.6343 0.0000
# 4 0.0000 0.0000 0.0000 19.7468 0.0000 2.5307
# 5 12.6242 -0.7258 4.6343 0.0000 29.0165 0.0000
# 6 0.0000 0.0000 0.0000 2.5307 0.0000 38.1408
#
#
#
# Elastic Compliance Matrix: (Units=1/GPa)
#
#
# Indices 1 2 3 4 5 6 
#
# 1 0.014731 -0.007543 0.006888 0.000000 -0.007698 0.000000
# 2 -0.007543 0.014712 -0.012308 0.000000 0.005616 0.000000
# 3 0.006888 -0.012308 0.032145 0.000000 -0.008439 0.000000
# 4 0.000000 0.000000 0.000000 0.051075 0.000000 -0.003389
# 5 -0.007698 0.005616 -0.008439 0.000000 0.039300 0.000000
# 6 0.000000 0.000000 0.000000 -0.003389 0.000000 0.026444
#
#
# Mechanical properties :
#
#
# Convention : Reuss Voigt Hill
#
# Bulk Modulus (GPa) = 28.04095 47.71035 37.87565
# Shear Modulus (GPa) = 23.12456 29.71376 26.41916
#
# Velocity S-wave (km/s) = 3.36200 3.81101 3.59352
# Velocity P-wave (km/s) = 5.36440 6.53340 5.97755
#
# Compressibility (1/GPa) = 0.03566213
#
# Stress axis : x y z
#
# Youngs Moduli (GPa) = 67.88505 67.97126 31.10901
#
# Poissons Ratio (x) = 0.51272 -0.21429
# Poissons Ratio (y) = 0.51207 0.38289
# Poissons Ratio (z) = -0.46761 0.83660
#
# Static dielectric constant tensor:
#      x y z
#    x 3.830310 0.000000 0.204340 
#    y 0.000000 4.314660 0.000000 
#    z 0.204340 0.000000 3.601690 
# 
# 
# High freq. dielectric constant tensor:
#      x y z
#    x 1.803460 0.000000 0.018750 
#    y 0.000000 1.807000 0.000000 
#    z 0.018750 0.000000 1.776280 
# 
# From -- ./inp_files/51337.got.cif
#   From: 2010.06.25/outbox.cif.g09.slc.cpg/sg12_26_cif.got.tgz:51337.got - 2010.06.28 00:19:55.
