data_PCOD8093905
_publ_section_title
;
Structure prediction by ZEFSAII (Michael W. Deem and Ramdas Pophale) SiO2 
 PCOD8093905
Probable space group: C 2/M
;
_chemical_formula_sum "Si O2"
_cell_formula_units_Z 64
_cell_length_a 12.294047
_cell_length_b 17.544017
_cell_length_c 19.343269
_cell_angle_alpha 90.000000
_cell_angle_beta 49.972316
_cell_angle_gamma 90.000000
_cell_volume 3194.711040
_symmetry_space_group_name_H-M "C 2/M"
_symmetry_group_IT_number 12
_symmetry_cell_setting 'monoclinic'
loop_
_space_group_symop_operation_xyz
x,y,z
-x,y,-z
-x,-y,-z
x,-y,z
1/2+x,1/2+y,z
1/2-x,1/2+y,-z
1/2-x,1/2-y,-z
1/2+x,1/2-y,z
loop_
_atom_site_type_symbol
_atom_site_label
_atom_site_fract_x
_atom_site_fract_y
_atom_site_fract_z
Si Si1 0.720936 0.414936 0.296862
Si Si2 0.197516 0.848454 0.662108
Si Si3 0.104583 0.913227 0.194292
Si Si4 0.346252 0.698756 0.568146
Si Si5 0.126275 0.409032 0.997983
Si Si6 0.545591 0.089353 0.179210
Si Si7 0.213559 0.586876 0.515263
Si Si8 0.102865 0.589149 0.307062
O O1 0.687654 0.500000 0.337214
O O2 0.694375 0.409014 0.227211
O O3 0.626977 0.355192 0.376754
O O4 0.880551 0.391402 0.248988
O O5 0.224351 0.761651 0.627736
O O6 0.250606 0.905386 0.580460
O O7 0.280473 0.864387 0.698746
O O8 0.031013 0.858374 0.746464
O O9 0.216303 0.884217 0.091101
O O10 0.053675 0.000000 0.200633
O O11 0.500000 0.739974 0.500000
O O12 0.309710 0.646510 0.517373
O O13 0.113835 0.500000 0.002906
O O14 0.111927 0.375244 0.081874
O O15 0.000000 0.376820 0.000000
O O16 0.611652 0.120189 0.224181
O O17 0.570049 0.000000 0.166524
O O18 0.248544 0.500000 0.523450
O O19 0.049883 0.605504 0.596764
O O20 0.138706 0.500000 0.295560
#
# Coordination Sequence:
#
# PCOD8093905 Si02
#       8
#     8   8   8   8   8   8   8   8
#     4  10  19  36  60  88 116 144 189 250 309 349
#     4  12  25  39  53  80 124 168 201 229 280 355
#     4  10  20  35  60  92 121 150 191 248 304 350
#     4  12  25  39  57  85 119 157 198 244 296 350
#     4   9  15  28  57  94 124 144 182 250 313 353
#     4   9  16  31  57  89 116 144 189 245 298 346
#     4  11  22  39  63  87 113 148 198 256 300 344
#     4  10  20  36  58  82 114 161 205 235 277 348
#
# _framework density 20.033110000000001
#
# number of rings (size 3 to 8) (size 9 to 14) (size 15 to 20)
#    0.000    1.625    2.500    3.750    0.000    4.000 
#    0.000    0.625    0.000    3.750    3.250    0.000 
#    0.000    0.000    0.000    0.000    0.000    0.000 
#
# Total GULP energy -396723.394371 kJ/mol
# GULP energy per Si atom -12397.606074 kJ/mol
# Density = 1.998751 g / cm^3
# Si number density = 20.033110 Si / 1000 Ang^3
#
#
#
# Elastic Constant Matrix: (Units=GPa)
#
#
# Indices 1 2 3 4 5 6 
#
# 1 112.0305 35.7732 58.1105 0.0001 5.2743 0.0000
# 2 35.7732 66.6397 31.7334 0.0001 -10.7415 0.0000
# 3 58.1105 31.7334 139.4860 0.0004 -1.3581 -0.0002
# 4 0.0001 0.0001 0.0004 11.2092 -0.0001 -10.0081
# 5 5.2743 -10.7415 -1.3581 -0.0001 35.2875 0.0000
# 6 0.0000 0.0000 -0.0002 -10.0081 0.0000 15.9942
#
#
#
# Elastic Compliance Matrix: (Units=1/GPa)
#
#
# Indices 1 2 3 4 5 6 
#
# 1 0.013091 -0.005642 -0.004207 0.000000 -0.003836 0.000000
# 2 -0.005642 0.020183 -0.002174 0.000000 0.006903 0.000000
# 3 -0.004207 -0.002174 0.009420 0.000000 0.000330 0.000000
# 4 0.000000 0.000000 0.000000 0.202147 0.000001 0.126490
# 5 -0.003836 0.006903 0.000330 0.000001 0.031026 0.000000
# 6 0.000000 0.000000 0.000000 0.126490 0.000000 0.141671
#
#
# Mechanical properties :
#
#
# Convention : Reuss Voigt Hill
#
# Bulk Modulus (GPa) = 53.62942 63.26560 58.44751
# Shear Modulus (GPa) = 11.16570 25.33413 18.24991
#
# Velocity S-wave (km/s) = 2.36341 3.56000 3.02153
# Velocity P-wave (km/s) = 5.85458 6.96758 6.43519
#
# Compressibility (1/GPa) = 0.01864648
#
# Stress axis : x y z
#
# Youngs Moduli (GPa) = 76.38977 49.54726 106.15947
#
# Poissons Ratio (x) = 0.27955 0.44666
# Poissons Ratio (y) = 0.43100 0.23078
# Poissons Ratio (z) = 0.32140 0.10771
#
# Static dielectric constant tensor:
#      x y z
#    x 3.618950 0.000000 0.213730 
#    y 0.000000 3.353330 0.000000 
#    z 0.213730 0.000000 3.854000 
# 
# 
# High freq. dielectric constant tensor:
#      x y z
#    x 1.782690 0.000000 0.009260 
#    y 0.000000 1.745700 0.000000 
#    z 0.009260 0.000000 1.783020 
# 
# From -- ./inp_files/306183.got.cif
#   From: 2010.06.25/outbox.cif.g09.slc.cpg/sg12_154_cif.got.tgz:306183.got - 2010.06.28 00:19:55.
