data_PCOD8093964
_publ_section_title
;
Structure prediction by ZEFSAII (Michael W. Deem and Ramdas Pophale) SiO2 
 PCOD8093964
Probable space group: C 2/M
;
_chemical_formula_sum "Si O2"
_cell_formula_units_Z 56
_cell_length_a 19.770723
_cell_length_b 9.071961
_cell_length_c 19.038575
_cell_angle_alpha 90.000000
_cell_angle_beta 120.345998
_cell_angle_gamma 90.000000
_cell_volume 2946.890806
_symmetry_space_group_name_H-M "C 2/M"
_symmetry_group_IT_number 12
_symmetry_cell_setting 'monoclinic'
loop_
_space_group_symop_operation_xyz
x,y,z
-x,y,-z
-x,-y,-z
x,-y,z
1/2+x,1/2+y,z
1/2-x,1/2+y,-z
1/2-x,1/2-y,-z
1/2+x,1/2-y,z
loop_
_atom_site_type_symbol
_atom_site_label
_atom_site_fract_x
_atom_site_fract_y
_atom_site_fract_z
Si Si1 0.671306 0.326063 0.433796
Si Si2 0.450395 0.169934 0.157174
Si Si3 0.517828 0.325035 0.432885
Si Si4 0.890997 0.831192 0.256874
Si Si5 0.312561 0.830615 0.984826
Si Si6 0.884979 0.174278 0.749309
Si Si7 0.712464 0.168588 0.184930
O O1 0.683678 0.500000 0.442963
O O2 0.750000 0.250000 0.500000
O O3 0.603029 0.274442 0.451083
O O4 0.647939 0.274229 0.343378
O O5 0.396034 0.232862 0.190322
O O6 0.400732 0.188957 0.059693
O O7 0.530289 0.258312 0.191975
O O8 0.469647 0.000000 0.182245
O O9 0.500000 0.256331 0.500000
O O10 0.512736 0.500000 0.433519
O O11 0.452196 0.266144 0.345070
O O12 0.805281 0.819879 0.245000
O O13 0.911817 0.000000 0.248010
O O14 0.285923 0.000000 0.969935
O O15 0.250000 0.750000 0.000000
O O16 0.311026 0.770730 0.904366
O O17 0.826065 0.227611 0.777835
O O18 0.893294 0.000000 0.756495
O O19 0.683709 0.000000 0.180019
#
# Coordination Sequence:
#
# PCOD8093964 Si02
#       7
#     8   8   8   8   8   8   8
#     4  10  22  39  60  85 117 152 191 239 291 352
#     4  11  22  37  61  88 117 155 196 242 296 351
#     4   9  18  34  58  86 113 146 190 236 282 343
#     4  10  19  36  61  86 116 154 195 238 290 349
#     4  10  21  37  59  88 120 153 194 247 298 348
#     4  11  24  42  60  83 120 161 198 241 293 352
#     4  10  22  38  60  89 118 154 199 247 293 349
#
# _framework density 19.003079
#
# number of rings (size 3 to 8) (size 9 to 14) (size 15 to 20)
#    0.000    1.857    2.857    0.857    2.000    3.429 
#    0.000    2.857    0.000    0.857    0.000    0.000 
#    0.000    0.000    0.000    0.000    0.000    0.000 
#
# Total GULP energy -347275.157377 kJ/mol
# GULP energy per Si atom -12402.684192 kJ/mol
# Density = 1.895983 g / cm^3
# Si number density = 19.003079 Si / 1000 Ang^3
#
#
#
# Elastic Constant Matrix: (Units=GPa)
#
#
# Indices 1 2 3 4 5 6 
#
# 1 126.4587 41.3033 67.7298 0.0000 -3.8305 0.0000
# 2 41.3033 56.3469 34.0131 0.0000 0.6185 0.0000
# 3 67.7298 34.0131 129.1440 0.0000 0.2240 0.0000
# 4 0.0000 0.0000 0.0000 27.4898 0.0000 0.8198
# 5 -3.8305 0.6185 0.2240 0.0000 38.2599 0.0000
# 6 0.0000 0.0000 0.0000 0.8198 0.0000 33.9463
#
#
#
# Elastic Compliance Matrix: (Units=1/GPa)
#
#
# Indices 1 2 3 4 5 6 
#
# 1 0.012682 -0.006296 -0.004995 0.000000 0.001401 0.000000
# 2 -0.006296 0.024232 -0.003078 0.000000 -0.001004 0.000000
# 3 -0.004995 -0.003078 0.011175 0.000000 -0.000516 0.000000
# 4 0.000000 0.000000 0.000000 0.036403 0.000000 -0.000879
# 5 0.001401 -0.001004 -0.000516 0.000000 0.026297 0.000000
# 6 0.000000 0.000000 0.000000 -0.000879 0.000000 0.029480
#
#
# Mechanical properties :
#
#
# Convention : Reuss Voigt Hill
#
# Bulk Modulus (GPa) = 51.68231 66.44912 59.06571
# Shear Modulus (GPa) = 28.49709 31.19942 29.84825
#
# Velocity S-wave (km/s) = 3.87667 4.05632 3.96751
# Velocity P-wave (km/s) = 6.87706 7.54863 7.22066
#
# Compressibility (1/GPa) = 0.01934898
#
# Stress axis : x y z
#
# Youngs Moduli (GPa) = 78.85203 41.26854 89.48800
#
# Poissons Ratio (x) = 0.25983 0.44702
# Poissons Ratio (y) = 0.49646 0.27546
# Poissons Ratio (z) = 0.39389 0.12703
#
# Static dielectric constant tensor:
#      x y z
#    x 3.501550 0.000000 0.001950 
#    y 0.000000 3.360380 0.000000 
#    z 0.001950 0.000000 3.809420 
# 
# 
# High freq. dielectric constant tensor:
#      x y z
#    x 1.744570 0.000000 0.005750 
#    y 0.000000 1.719100 0.000000 
#    z 0.005750 0.000000 1.752910 
# 
# From -- ./inp_files/275606.got.cif
#   From: 2010.06.25/outbox.cif.g09.slc.cpg/sg12_138_cif.got.tgz:275606.got - 2010.06.28 00:19:55.
