data_PCOD8093308
_publ_section_title
;
Structure prediction by ZEFSAII (Michael W. Deem and Ramdas Pophale) SiO2 
 PCOD8093308
Probable space group: C 2/M
;
_chemical_formula_sum "Si O2"
_cell_formula_units_Z 64
_cell_length_a 29.622289
_cell_length_b 8.871152
_cell_length_c 12.694278
_cell_angle_alpha 90.000000
_cell_angle_beta 99.796061
_cell_angle_gamma 90.000000
_cell_volume 3287.212922
_symmetry_space_group_name_H-M "C 2/M"
_symmetry_group_IT_number 12
_symmetry_cell_setting 'monoclinic'
loop_
_space_group_symop_operation_xyz
x,y,z
-x,y,-z
-x,-y,-z
x,-y,z
1/2+x,1/2+y,z
1/2-x,1/2+y,-z
1/2-x,1/2-y,-z
1/2+x,1/2-y,z
loop_
_atom_site_type_symbol
_atom_site_label
_atom_site_fract_x
_atom_site_fract_y
_atom_site_fract_z
Si Si1 0.936758 0.820435 0.806782
Si Si2 0.421544 0.678647 0.356892
Si Si3 0.392122 0.821175 0.989062
Si Si4 0.171356 0.330137 0.716369
Si Si5 0.893572 0.821997 0.573133
Si Si6 0.706012 0.321174 0.534339
Si Si7 0.296623 0.833228 0.038598
Si Si8 0.468608 0.177535 0.190077
O O1 0.904508 0.766229 0.887993
O O2 0.916051 0.757082 0.688277
O O3 0.986519 0.749520 0.843863
O O4 0.940148 0.000000 0.808492
O O5 0.425714 0.500000 0.348155
O O6 0.374584 0.734727 0.286846
O O7 0.422385 0.729197 0.480586
O O8 0.462042 0.754298 0.305110
O O9 0.393389 0.000000 0.970157
O O10 0.341539 0.761970 0.000904
O O11 0.426611 0.779217 0.097352
O O12 0.159663 0.500000 0.672624
O O13 0.205154 0.244046 0.651254
O O14 0.197591 0.337106 0.835113
O O15 0.840688 0.768429 0.543128
O O16 0.894110 0.000000 0.578001
O O17 0.710409 0.500000 0.538758
O O18 0.750000 0.250000 0.500000
O O19 0.290986 0.000000 0.990393
O O20 0.250000 0.750000 0.000000
O O21 0.474905 0.000000 0.202541
#
# Coordination Sequence:
#
# PCOD8093308 Si02
#       8
#     8   8   8   8   8   8   8   8
#     4  11  23  39  59  86 117 153 198 242 287 348
#     4  10  19  35  61  87 111 148 195 239 283 344
#     4  10  22  42  60  80 117 158 192 236 297 350
#     4  10  19  36  57  81 114 151 187 235 295 346
#     4   8  19  38  56  79 118 154 184 235 300 346
#     4  10  20  36  58  85 113 151 196 239 290 349
#     4  10  22  39  59  85 116 153 193 239 296 351
#     4  11  22  39  61  85 117 155 193 239 298 352
#
# _framework density 19.469380000000001
#
# number of rings (size 3 to 8) (size 9 to 14) (size 15 to 20)
#    0.000    2.000    1.250    3.000    0.000    5.500 
#    0.000   13.750    0.000    0.000    0.000    0.000 
#    0.000    0.000    0.000    0.000    0.000    0.000 
#
# Total GULP energy -396746.041726 kJ/mol
# GULP energy per Si atom -12398.313804 kJ/mol
# Density = 1.942507 g / cm^3
# Si number density = 19.469380 Si / 1000 Ang^3
#
#
#
# Elastic Constant Matrix: (Units=GPa)
#
#
# Indices 1 2 3 4 5 6 
#
# 1 139.6519 48.7995 62.3247 0.0000 -15.4776 0.0000
# 2 48.7995 78.5232 53.3627 0.0000 -7.1035 0.0000
# 3 62.3247 53.3627 110.3951 0.0000 -6.1306 0.0000
# 4 0.0000 0.0000 0.0000 32.1210 0.0000 -6.7757
# 5 -15.4776 -7.1035 -6.1306 0.0000 28.1424 0.0000
# 6 0.0000 0.0000 0.0000 -6.7757 0.0000 34.7579
#
#
#
# Elastic Compliance Matrix: (Units=1/GPa)
#
#
# Indices 1 2 3 4 5 6 
#
# 1 0.010661 -0.003454 -0.004122 0.000000 0.004093 0.000000
# 2 -0.003454 0.020308 -0.007782 0.000000 0.001531 0.000000
# 3 -0.004122 -0.007782 0.015094 0.000000 -0.000943 0.000000
# 4 0.000000 0.000000 0.000000 0.032467 0.000000 0.006329
# 5 0.004093 0.001531 -0.000943 0.000000 0.037966 0.000000
# 6 0.000000 0.000000 0.000000 0.006329 0.000000 0.030004
#
#
# Mechanical properties :
#
#
# Convention : Reuss Voigt Hill
#
# Bulk Modulus (GPa) = 65.15113 73.06044 69.10578
# Shear Modulus (GPa) = 27.42247 29.94314 28.68280
#
# Velocity S-wave (km/s) = 3.75706 3.92594 3.84243
# Velocity P-wave (km/s) = 7.23579 7.62614 7.43353
#
# Compressibility (1/GPa) = 0.01534893
#
# Stress axis : x y z
#
# Youngs Moduli (GPa) = 93.80204 49.24075 66.24930
#
# Poissons Ratio (x) = 0.17007 0.27306
# Poissons Ratio (y) = 0.32399 0.51553
# Poissons Ratio (z) = 0.38663 0.38318
#
# Static dielectric constant tensor:
#      x y z
#    x 3.586920 0.000000 -0.041710 
#    y 0.000000 3.726960 0.000000 
#    z -0.041710 0.000000 3.747860 
# 
# 
# High freq. dielectric constant tensor:
#      x y z
#    x 1.759350 0.000000 -0.011910 
#    y 0.000000 1.753560 0.000000 
#    z -0.011910 0.000000 1.762500 
# 
# From -- ./inp_files/187613.got.cif
#   From: 2010.06.25/outbox.cif.g09.slc.cpg/sg12_94_cif.got.tgz:187613.got - 2010.06.28 00:19:55.
