data_PCOD8093661
_publ_section_title
;
Structure prediction by ZEFSAII (Michael W. Deem and Ramdas Pophale) SiO2 
 PCOD8093661
Probable space group: C 2/M
;
_chemical_formula_sum "Si O2"
_cell_formula_units_Z 56
_cell_length_a 17.217742
_cell_length_b 17.501652
_cell_length_c 9.968836
_cell_angle_alpha 90.000000
_cell_angle_beta 108.398319
_cell_angle_gamma 90.000000
_cell_volume 2850.449802
_symmetry_space_group_name_H-M "C 2/M"
_symmetry_group_IT_number 12
_symmetry_cell_setting 'monoclinic'
loop_
_space_group_symop_operation_xyz
x,y,z
-x,y,-z
-x,-y,-z
x,-y,z
1/2+x,1/2+y,z
1/2-x,1/2+y,-z
1/2-x,1/2-y,-z
1/2+x,1/2-y,z
loop_
_atom_site_type_symbol
_atom_site_label
_atom_site_fract_x
_atom_site_fract_y
_atom_site_fract_z
Si Si1 0.193793 0.583627 0.169427
Si Si2 0.908922 0.772534 0.423237
Si Si3 0.764528 0.338247 0.350971
Si Si4 0.884031 0.737691 0.832858
Si Si5 0.175998 0.085631 0.541006
Si Si6 0.844932 0.586243 0.145602
Si Si7 0.937104 0.265957 0.154622
O O1 0.155123 0.500000 0.179355
O O2 0.131182 0.647294 0.186666
O O3 0.279773 0.591839 0.291600
O O4 0.210133 0.592100 0.018979
O O5 0.840638 0.713854 0.442290
O O6 0.898640 0.854216 0.491512
O O7 0.896663 0.780435 0.255565
O O8 0.000000 0.740277 0.500000
O O9 0.689164 0.284293 0.271655
O O10 0.739629 0.393508 0.458371
O O11 0.787642 0.390546 0.237925
O O12 0.966625 0.752885 0.795504
O O13 0.894393 0.761557 0.994254
O O14 0.141975 0.000000 0.497248
O O15 0.878007 0.500000 0.185243
O O16 0.922222 0.643375 0.172690
#
# Coordination Sequence:
#
# PCOD8093661 Si02
#       7
#     8   8   8   8   8   8   8
#     4   9  19  33  55  82 112 143 184 225 267 325
#     4  11  23  37  58  83 114 147 185 231 278 327
#     4  11  22  36  62  81 112 146 187 232 270 334
#     4  10  19  36  58  85 112 145 188 225 279 321
#     4  11  23  38  57  83 110 147 188 229 277 330
#     4   9  19  36  56  83 113 149 183 222 275 328
#     4   9  21  34  57  86 114 144 182 234 271 330
#
# _framework density 19.646021999999999
#
# number of rings (size 3 to 8) (size 9 to 14) (size 15 to 20)
#    0.000    2.000    1.429    1.714    4.000    2.571 
#    0.000    2.857    0.000    2.143    0.000    4.000 
#    0.000    0.000    0.000    0.000    0.000    0.000 
#
# Total GULP energy -347125.398633 kJ/mol
# GULP energy per Si atom -12397.335665 kJ/mol
# Density = 1.960131 g / cm^3
# Si number density = 19.646022 Si / 1000 Ang^3
#
#
#
# Elastic Constant Matrix: (Units=GPa)
#
#
# Indices 1 2 3 4 5 6 
#
# 1 81.7291 36.7711 30.1367 0.0000 3.8801 0.0000
# 2 36.7711 98.2563 34.3702 0.0000 -5.7988 0.0000
# 3 30.1367 34.3702 64.3443 0.0000 -4.0416 0.0000
# 4 0.0000 0.0000 0.0000 24.9126 0.0000 -6.2198
# 5 3.8801 -5.7988 -4.0416 0.0000 35.5379 0.0000
# 6 0.0000 0.0000 0.0000 -6.2198 0.0000 19.3535
#
#
#
# Elastic Compliance Matrix: (Units=1/GPa)
#
#
# Indices 1 2 3 4 5 6 
#
# 1 0.016399 -0.004386 -0.005535 0.000000 -0.003136 0.000000
# 2 -0.004386 0.013748 -0.005155 0.000000 0.002136 0.000000
# 3 -0.005535 -0.005155 0.021023 0.000000 0.002154 0.000000
# 4 0.000000 0.000000 0.000000 0.043642 0.000000 0.014026
# 5 -0.003136 0.002136 0.002154 0.000000 0.029075 0.000000
# 6 0.000000 0.000000 0.000000 0.014026 0.000000 0.056178
#
#
# Mechanical properties :
#
#
# Convention : Reuss Voigt Hill
#
# Bulk Modulus (GPa) = 47.57934 49.65399 48.61666
# Shear Modulus (GPa) = 23.01794 25.49759 24.25777
#
# Velocity S-wave (km/s) = 3.42663 3.60648 3.51770
# Velocity P-wave (km/s) = 6.31875 6.53234 6.42643
#
# Compressibility (1/GPa) = 0.02101753
#
# Stress axis : x y z
#
# Youngs Moduli (GPa) = 60.98099 72.73644 47.56749
#
# Poissons Ratio (x) = 0.31902 0.26327
# Poissons Ratio (y) = 0.26746 0.24523
# Poissons Ratio (z) = 0.33751 0.37499
#
# Static dielectric constant tensor:
#      x y z
#    x 3.363380 0.000000 -0.179930 
#    y 0.000000 3.609620 0.000000 
#    z -0.179930 0.000000 3.795380 
# 
# 
# High freq. dielectric constant tensor:
#      x y z
#    x 1.746140 0.000000 -0.014480 
#    y 0.000000 1.756660 0.000000 
#    z -0.014480 0.000000 1.780280 
# 
# From -- ./inp_files/75984.got.cif
#   From: 2010.06.25/outbox.cif.g09.slc.cpg/sg12_38_cif.got.tgz:75984.got - 2010.06.28 00:19:55.
