data_PCOD8093488
_publ_section_title
;
Structure prediction by ZEFSAII (Michael W. Deem and Ramdas Pophale) SiO2 
 PCOD8093488
Probable space group: C 2/M
;
_chemical_formula_sum "Si O2"
_cell_formula_units_Z 64
_cell_length_a 12.353075
_cell_length_b 23.446243
_cell_length_c 21.163973
_cell_angle_alpha 90.000000
_cell_angle_beta 148.407380
_cell_angle_gamma 90.000000
_cell_volume 3211.250634
_symmetry_space_group_name_H-M "C 2/M"
_symmetry_group_IT_number 12
_symmetry_cell_setting 'monoclinic'
loop_
_space_group_symop_operation_xyz
x,y,z
-x,y,-z
-x,-y,-z
x,-y,z
1/2+x,1/2+y,z
1/2-x,1/2+y,-z
1/2-x,1/2-y,-z
1/2+x,1/2-y,z
loop_
_atom_site_type_symbol
_atom_site_label
_atom_site_fract_x
_atom_site_fract_y
_atom_site_fract_z
Si Si1 0.823352 0.360987 0.739521
Si Si2 0.982378 0.826648 0.131730
Si Si3 0.726163 0.720195 0.586056
Si Si4 0.531824 0.788044 0.942492
Si Si5 0.524022 0.065191 0.290255
Si Si6 0.144713 0.879557 0.462082
Si Si7 0.756974 0.656855 0.389094
Si Si8 0.083655 0.064061 0.111069
O O1 0.852130 0.307999 0.705920
O O2 0.953314 0.410085 0.769441
O O3 0.591718 0.384341 0.633930
O O4 0.910819 0.340565 0.849812
O O5 0.058939 0.773614 0.125985
O O6 0.142882 0.846019 0.265603
O O7 0.949662 0.886369 0.078472
O O8 0.772543 0.800068 0.053409
O O9 0.500000 0.728452 0.500000
O O10 0.737630 0.681901 0.529091
O O11 0.809948 0.782783 0.612997
O O12 0.500000 0.791796 0.000000
O O13 0.725823 0.073880 0.434373
O O14 0.320283 0.087608 0.225797
O O15 0.485313 0.000000 0.258009
O O16 0.174516 0.887924 0.401200
O O17 0.000000 0.646649 0.500000
O O18 0.069076 0.000000 0.135963
O O19 0.000000 0.057520 0.000000
#
# Coordination Sequence:
#
# PCOD8093488 Si02
#       8
#     8   8   8   8   8   8   8   8
#     4  10  19  36  55  82 118 152 192 238 298 353
#     4  11  23  39  59  88 121 158 199 239 303 346
#     4   8  16  30  48  74 106 144 184 228 273 341
#     4  11  23  39  59  86 124 159 194 244 295 359
#     4  10  21  38  62  90 117 150 198 250 296 346
#     4  10  20  33  53  81 115 153 191 237 292 346
#     4  11  20  34  52  80 116 154 197 236 287 356
#     4  10  21  40  64  87 112 151 203 249 289 344
#
# _framework density 19.929929000000001
#
# number of rings (size 3 to 8) (size 9 to 14) (size 15 to 20)
#    0.000    1.875    1.250    4.125    0.000    2.000 
#    6.750    0.625    0.000    5.250    0.000    0.000 
#    0.000    0.000    0.000    0.000    0.000    0.000 
#
# Total GULP energy -396468.019627 kJ/mol
# GULP energy per Si atom -12389.625613 kJ/mol
# Density = 1.988457 g / cm^3
# Si number density = 19.929929 Si / 1000 Ang^3
#
#
#
# Elastic Constant Matrix: (Units=GPa)
#
#
# Indices 1 2 3 4 5 6 
#
# 1 95.0325 36.8036 23.4212 0.0098 -18.6367 -0.0031
# 2 36.8036 73.2598 13.1146 0.0263 -0.6188 -0.0012
# 3 23.4212 13.1146 89.9111 0.0786 -13.1533 -0.0188
# 4 0.0098 0.0263 0.0786 17.5784 0.0062 6.7181
# 5 -18.6367 -0.6188 -13.1533 0.0062 33.3269 -0.0042
# 6 -0.0031 -0.0012 -0.0188 6.7181 -0.0042 19.0924
#
#
#
# Elastic Compliance Matrix: (Units=1/GPa)
#
#
# Indices 1 2 3 4 5 6 
#
# 1 0.015306 -0.007303 -0.001793 0.000008 0.007716 -0.000001
# 2 -0.007303 0.017511 -0.001275 -0.000016 -0.004262 0.000004
# 3 -0.001793 -0.001275 0.012337 -0.000067 0.003843 0.000036
# 4 0.000008 -0.000016 -0.000067 0.065727 -0.000038 -0.023128
# 5 0.007716 -0.004262 0.003843 -0.000038 0.035758 0.000026
# 6 -0.000001 0.000004 0.000036 -0.023128 0.000026 0.060515
#
#
# Mechanical properties :
#
#
# Convention : Reuss Voigt Hill
#
# Bulk Modulus (GPa) = 40.96399 44.98690 42.97544
# Shear Modulus (GPa) = 21.18318 26.32379 23.75348
#
# Velocity S-wave (km/s) = 3.26373 3.63825 3.45606
# Velocity P-wave (km/s) = 5.89925 6.34592 6.12666
#
# Compressibility (1/GPa) = 0.02441168
#
# Stress axis : x y z
#
# Youngs Moduli (GPa) = 65.33315 57.10603 81.05391
#
# Poissons Ratio (x) = 0.41706 0.14534
# Poissons Ratio (y) = 0.47714 0.10337
# Poissons Ratio (z) = 0.11715 0.07283
#
# Static dielectric constant tensor:
#      x y z
#    x 3.430930 0.000010 0.029870 
#    y 0.000010 3.705450 -0.000050 
#    z 0.029870 -0.000050 3.677050 
# 
# 
# High freq. dielectric constant tensor:
#      x y z
#    x 1.770740 0.000000 -0.000590 
#    y 0.000000 1.758440 0.000000 
#    z -0.000590 0.000000 1.780610 
# 
# From -- ./inp_files/307490.got.cif
#   From: 2010.06.25/outbox.cif.g09.slc.cpg/sg12_154_cif.got.tgz:307490.got - 2010.06.28 00:19:55.
