data_PCOD8093675
_publ_section_title
;
Structure prediction by ZEFSAII (Michael W. Deem and Ramdas Pophale) SiO2 
 PCOD8093675
Probable space group: C 2/M
;
_chemical_formula_sum "Si O2"
_cell_formula_units_Z 60
_cell_length_a 17.899985
_cell_length_b 22.152992
_cell_length_c 12.051954
_cell_angle_alpha 90.000000
_cell_angle_beta 41.026214
_cell_angle_gamma 90.000000
_cell_volume 3136.995611
_symmetry_space_group_name_H-M "C 2/M"
_symmetry_group_IT_number 12
_symmetry_cell_setting 'monoclinic'
loop_
_space_group_symop_operation_xyz
x,y,z
-x,y,-z
-x,-y,-z
x,-y,z
1/2+x,1/2+y,z
1/2-x,1/2+y,-z
1/2-x,1/2-y,-z
1/2+x,1/2-y,z
loop_
_atom_site_type_symbol
_atom_site_label
_atom_site_fract_x
_atom_site_fract_y
_atom_site_fract_z
Si Si1 0.690746 0.774696 0.195774
Si Si2 0.315678 0.199448 0.550049
Si Si3 0.356277 0.667717 0.425640
Si Si4 0.500000 0.862320 0.000000
Si Si5 0.038547 0.341575 0.191633
Si Si6 0.274616 0.067181 0.037403
Si Si7 0.876259 0.171001 0.856268
Si Si8 0.276521 0.931388 0.292168
O O1 0.664909 0.807377 0.340332
O O2 0.609233 0.797369 0.188816
O O3 0.659700 0.702888 0.222572
O O4 0.820746 0.789057 0.017562
O O5 0.316996 0.271236 0.530187
O O6 0.196331 0.171484 0.640237
O O7 0.410083 0.160230 0.380057
O O8 0.491420 0.665328 0.268381
O O9 0.312484 0.609103 0.539705
O O10 0.541470 0.821061 0.057434
O O11 0.403006 0.904705 0.162000
O O12 0.097746 0.407488 0.128181
O O13 0.178988 0.104836 0.079366
O O14 0.240952 0.068398 0.203855
O O15 0.272221 0.000000 0.991547
O O16 0.274239 0.000000 0.341521
#
# Coordination Sequence:
#
# PCOD8093675 Si02
#       8
#     8   8   8   4   8   8   8   8
#     4  10  21  38  60  86 115 157 198 240 289 355
#     4  11  22  38  56  86 126 151 197 242 296 354
#     4  11  23  37  53  89 121 158 190 243 300 349
#     4  10  19  36  58  90 126 150 191 242 294 362
#     4  10  19  36  60  88 117 153 188 243 301 340
#     4   9  20  36  59  87 116 153 198 246 294 352
#     4  10  21  38  57  83 117 155 197 237 302 345
#     4  10  20  35  56  85 118 157 197 240 298 350
#
# _framework density 19.126581999999999
#
# number of rings (size 3 to 8) (size 9 to 14) (size 15 to 20)
#    0.000    1.867    2.667    1.400    0.000    4.267 
#    0.000    1.333    0.000    9.600    0.000    4.667 
#    0.000    0.000    0.000    0.000    0.000    0.000 
#
# Total GULP energy -371722.785513 kJ/mol
# GULP energy per Si atom -12390.759517 kJ/mol
# Density = 1.908305 g / cm^3
# Si number density = 19.126582 Si / 1000 Ang^3
#
#
#
# Elastic Constant Matrix: (Units=GPa)
#
#
# Indices 1 2 3 4 5 6 
#
# 1 112.8419 42.8605 65.0808 0.0009 -1.3630 -0.0010
# 2 42.8605 105.4191 40.7790 -0.0001 -0.5598 0.0001
# 3 65.0808 40.7790 102.9941 0.0008 -8.7413 -0.0012
# 4 0.0009 -0.0001 0.0008 27.7443 -0.0009 -0.0310
# 5 -1.3630 -0.5598 -8.7413 -0.0009 36.1011 0.0011
# 6 -0.0010 0.0001 -0.0012 -0.0310 0.0011 20.2186
#
#
#
# Elastic Compliance Matrix: (Units=1/GPa)
#
#
# Indices 1 2 3 4 5 6 
#
# 1 0.014689 -0.002764 -0.008315 0.000000 -0.001502 0.000000
# 2 -0.002764 0.011751 -0.002961 0.000000 -0.000639 0.000000
# 3 -0.008315 -0.002961 0.016443 0.000000 0.003622 0.000000
# 4 0.000000 0.000000 0.000000 0.036043 0.000001 0.000055
# 5 -0.001502 -0.000639 0.003622 0.000001 0.028510 -0.000001
# 6 0.000000 0.000000 0.000000 0.000055 -0.000001 0.049460
#
#
# Mechanical properties :
#
#
# Convention : Reuss Voigt Hill
#
# Bulk Modulus (GPa) = 67.54586 68.74397 68.14492
# Shear Modulus (GPa) = 26.32807 28.31512 27.32160
#
# Velocity S-wave (km/s) = 3.71417 3.85178 3.78360
# Velocity P-wave (km/s) = 7.33384 7.47002 7.40225
#
# Compressibility (1/GPa) = 0.01480476
#
# Stress axis : x y z
#
# Youngs Moduli (GPa) = 68.07688 85.09572 60.81540
#
# Poissons Ratio (x) = 0.23518 0.50569
# Poissons Ratio (y) = 0.18814 0.18006
# Poissons Ratio (z) = 0.56607 0.25195
#
# Static dielectric constant tensor:
#      x y z
#    x 3.635620 0.000000 -0.051490 
#    y 0.000000 3.569760 0.000000 
#    z -0.051490 0.000000 3.479920 
# 
# 
# High freq. dielectric constant tensor:
#      x y z
#    x 1.747430 0.000000 -0.013670 
#    y 0.000000 1.727240 0.000000 
#    z -0.013670 0.000000 1.730260 
# 
# From -- ./inp_files/160468.got.cif
#   From: 2010.06.25/outbox.cif.g09.slc.cpg/sg12_81_cif.got.tgz:160468.got - 2010.06.28 00:19:55.
