data_PCOD8093829
_publ_section_title
;
Structure prediction by ZEFSAII (Michael W. Deem and Ramdas Pophale) SiO2 
 PCOD8093829
Probable space group: C 2/M
;
_chemical_formula_sum "Si O2"
_cell_formula_units_Z 56
_cell_length_a 16.532503
_cell_length_b 22.753686
_cell_length_c 9.481524
_cell_angle_alpha 90.000000
_cell_angle_beta 119.366232
_cell_angle_gamma 90.000000
_cell_volume 3108.403548
_symmetry_space_group_name_H-M "C 2/M"
_symmetry_group_IT_number 12
_symmetry_cell_setting 'monoclinic'
loop_
_space_group_symop_operation_xyz
x,y,z
-x,y,-z
-x,-y,-z
x,-y,z
1/2+x,1/2+y,z
1/2-x,1/2+y,-z
1/2-x,1/2-y,-z
1/2+x,1/2-y,z
loop_
_atom_site_type_symbol
_atom_site_label
_atom_site_fract_x
_atom_site_fract_y
_atom_site_fract_z
Si Si1 0.410320 0.358953 0.330892
Si Si2 0.728094 0.069296 0.871682
Si Si3 0.744886 0.066342 0.212672
Si Si4 0.913256 0.133992 0.023692
Si Si5 0.447516 0.858849 0.313754
Si Si6 0.052895 0.567753 0.183403
Si Si7 0.358295 0.255842 0.118967
O O1 0.500000 0.359289 0.500000
O O2 0.329128 0.394131 0.340275
O O3 0.374133 0.292484 0.276866
O O4 0.433350 0.389742 0.199529
O O5 0.820819 0.100543 0.889692
O O6 0.638903 0.098721 0.720374
O O7 0.731098 0.000000 0.840347
O O8 0.715684 0.082683 0.027719
O O9 0.661689 0.076493 0.249977
O O10 0.779928 0.000000 0.245960
O O11 0.898448 0.205206 0.021604
O O12 0.000000 0.118404 0.000000
O O13 0.500000 0.837054 0.500000
O O14 0.524292 0.894116 0.292119
O O15 0.410801 0.805458 0.184731
O O16 0.026737 0.500000 0.191120
O O17 0.000000 0.590175 0.000000
O O18 0.250000 0.250000 0.000000
#
# Coordination Sequence:
#
# PCOD8093829 Si02
#       7
#     8   8   8   8   8   8   8
#     4   9  19  36  56  80 114 145 180 236 286 325
#     4  10  19  36  60  83 112 154 191 224 278 346
#     4   9  17  34  59  85 110 147 193 230 272 338
#     4   9  20  38  59  84 109 146 194 239 273 331
#     4  12  23  37  57  86 119 152 186 232 295 341
#     4  10  20  35  58  86 116 148 192 234 272 341
#     4  10  20  39  59  77 104 153 193 228 271 339
#
# _framework density 18.01568
#
# number of rings (size 3 to 8) (size 9 to 14) (size 15 to 20)
#    0.857    1.286    2.857    0.857    0.000    2.286 
#    2.571    0.000    0.000    3.429    0.000    0.000 
#    0.000    0.000    0.000    0.000    0.000    0.000 
#
# Total GULP energy -347011.846889 kJ/mol
# GULP energy per Si atom -12393.280246 kJ/mol
# Density = 1.797468 g / cm^3
# Si number density = 18.015680 Si / 1000 Ang^3
#
#
#
# Elastic Constant Matrix: (Units=GPa)
#
#
# Indices 1 2 3 4 5 6 
#
# 1 108.4278 46.9311 31.1693 0.0000 7.7520 0.0000
# 2 46.9311 98.0592 23.2584 0.0000 10.7857 0.0000
# 3 31.1693 23.2584 65.0571 0.0000 21.9564 0.0000
# 4 0.0000 0.0000 0.0000 11.5383 0.0000 2.3030
# 5 7.7520 10.7857 21.9564 0.0000 29.2734 0.0000
# 6 0.0000 0.0000 0.0000 2.3030 0.0000 30.9696
#
#
#
# Elastic Compliance Matrix: (Units=1/GPa)
#
#
# Indices 1 2 3 4 5 6 
#
# 1 0.012737 -0.005155 -0.005037 0.000000 0.002305 0.000000
# 2 -0.005155 0.013278 -0.001455 0.000000 -0.002436 0.000000
# 3 -0.005037 -0.001455 0.023664 0.000000 -0.015879 0.000000
# 4 0.000000 0.000000 0.000000 0.087973 0.000000 -0.006542
# 5 0.002305 -0.002436 -0.015879 0.000000 0.046358 0.000000
# 6 0.000000 0.000000 0.000000 -0.006542 0.000000 0.032776
#
#
# Mechanical properties :
#
#
# Convention : Reuss Voigt Hill
#
# Bulk Modulus (GPa) = 37.90140 52.69574 45.29857
# Shear Modulus (GPa) = 20.09035 25.70197 22.89616
#
# Velocity S-wave (km/s) = 3.34302 3.78119 3.56884
# Velocity P-wave (km/s) = 5.99873 6.95533 6.49467
#
# Compressibility (1/GPa) = 0.02638425
#
# Stress axis : x y z
#
# Youngs Moduli (GPa) = 78.51051 75.31235 42.25859
#
# Poissons Ratio (x) = 0.38821 0.21287
# Poissons Ratio (y) = 0.40470 0.06150
# Poissons Ratio (z) = 0.39549 0.10961
#
# Static dielectric constant tensor:
#      x y z
#    x 3.272000 0.000000 0.116360 
#    y 0.000000 2.967210 0.000000 
#    z 0.116360 0.000000 3.012230 
# 
# 
# High freq. dielectric constant tensor:
#      x y z
#    x 1.695700 0.000000 0.019990 
#    y 0.000000 1.699360 0.000000 
#    z 0.019990 0.000000 1.666430 
# 
# From -- ./inp_files/65466.got.cif
#   From: 2010.06.25/outbox.cif.g09.slc.cpg/sg12_33_cif.got.tgz:65466.got - 2010.06.28 00:19:55.
