data_PCOD8093425
_publ_section_title
;
Structure prediction by ZEFSAII (Michael W. Deem and Ramdas Pophale) SiO2 
 PCOD8093425
Probable space group: C 2/M
;
_chemical_formula_sum "Si O2"
_cell_formula_units_Z 56
_cell_length_a 22.616723
_cell_length_b 14.477486
_cell_length_c 9.758937
_cell_angle_alpha 90.000000
_cell_angle_beta 54.496290
_cell_angle_gamma 90.000000
_cell_volume 2601.305266
_symmetry_space_group_name_H-M "C 2/M"
_symmetry_group_IT_number 12
_symmetry_cell_setting 'monoclinic'
loop_
_space_group_symop_operation_xyz
x,y,z
-x,y,-z
-x,-y,-z
x,-y,z
1/2+x,1/2+y,z
1/2-x,1/2+y,-z
1/2-x,1/2-y,-z
1/2+x,1/2-y,z
loop_
_atom_site_type_symbol
_atom_site_label
_atom_site_fract_x
_atom_site_fract_y
_atom_site_fract_z
Si Si1 0.104576 0.395335 0.365167
Si Si2 0.896497 0.099995 0.782689
Si Si3 0.742372 0.336324 0.907844
Si Si4 0.894454 0.719770 0.360576
Si Si5 0.685900 0.191301 0.803438
Si Si6 0.836534 0.896151 0.571020
Si Si7 0.054115 0.709236 0.180508
O O1 0.079886 0.500000 0.428766
O O2 0.184259 0.393974 0.192269
O O3 0.113477 0.337363 0.490390
O O4 0.049303 0.350815 0.327773
O O5 0.887598 0.118054 0.633756
O O6 0.940941 0.182941 0.788206
O O7 0.934856 0.000000 0.755644
O O8 0.817813 0.093431 0.958539
O O9 0.718848 0.293318 0.791390
O O10 0.750000 0.250000 0.000000
O O11 0.844126 0.680296 0.308986
O O12 0.867811 0.825121 0.417079
O O13 0.978206 0.706805 0.201065
O O14 0.752236 0.119559 0.726780
O O15 0.620180 0.171598 0.998999
O O16 0.843463 0.000000 0.503440
#
# Coordination Sequence:
#
# PCOD8093425 Si02
#       7
#     8   8   8   8   8   8   8
#     4  12  24  40  65  92 123 164 213 264 312 366
#     4  10  19  35  64  96 122 156 206 259 311 369
#     4  11  17  38  65  92 121 157 208 260 309 363
#     4  12  25  42  61  94 134 167 205 257 319 380
#     4  11  22  42  66  92 126 170 207 254 313 375
#     4  11  22  39  66  96 126 162 207 263 319 370
#     4  11  23  43  65  90 127 169 214 256 307 377
#
# _framework density 21.527653999999998
#
# number of rings (size 3 to 8) (size 9 to 14) (size 15 to 20)
#    0.000    0.857    7.143    1.714    0.000    4.000 
#    0.000    4.286    0.000    6.857    0.000    0.000 
#    0.000    0.000    0.000    0.000    0.000    0.000 
#
# Total GULP energy -347067.381527 kJ/mol
# GULP energy per Si atom -12395.263626 kJ/mol
# Density = 2.147866 g / cm^3
# Si number density = 21.527654 Si / 1000 Ang^3
#
#
#
# Elastic Constant Matrix: (Units=GPa)
#
#
# Indices 1 2 3 4 5 6 
#
# 1 70.2005 11.0668 9.9341 0.0000 4.3526 0.0000
# 2 11.0668 102.9861 17.6103 0.0000 8.3844 0.0000
# 3 9.9341 17.6103 52.4860 0.0000 6.9054 0.0000
# 4 0.0000 0.0000 0.0000 11.6296 0.0000 1.9497
# 5 4.3526 8.3844 6.9054 0.0000 38.7316 0.0000
# 6 0.0000 0.0000 0.0000 1.9497 0.0000 11.0539
#
#
#
# Elastic Compliance Matrix: (Units=1/GPa)
#
#
# Indices 1 2 3 4 5 6 
#
# 1 0.014808 -0.001116 -0.002295 0.000000 -0.001013 0.000000
# 2 -0.001116 0.010490 -0.003099 0.000000 -0.001593 0.000000
# 3 -0.002295 -0.003099 0.020895 0.000000 -0.002797 0.000000
# 4 0.000000 0.000000 0.000000 0.088607 0.000000 -0.015629
# 5 -0.001013 -0.001593 -0.002797 0.000000 0.026776 0.000000
# 6 0.000000 0.000000 0.000000 -0.015629 0.000000 0.093222
#
#
# Mechanical properties :
#
#
# Convention : Reuss Voigt Hill
#
# Bulk Modulus (GPa) = 30.14516 33.65501 31.90008
# Shear Modulus (GPa) = 17.92911 24.75379 21.34145
#
# Velocity S-wave (km/s) = 2.88903 3.39464 3.15199
# Velocity P-wave (km/s) = 5.01618 5.57064 5.30067
#
# Compressibility (1/GPa) = 0.03317282
#
# Stress axis : x y z
#
# Youngs Moduli (GPa) = 67.52882 95.33295 47.85910
#
# Poissons Ratio (x) = 0.10643 0.10983
# Poissons Ratio (y) = 0.07539 0.14830
# Poissons Ratio (z) = 0.15497 0.29540
#
# Static dielectric constant tensor:
#      x y z
#    x 4.111610 0.000000 -0.182480 
#    y 0.000000 3.769830 0.000000 
#    z -0.182480 0.000000 3.857180 
# 
# 
# High freq. dielectric constant tensor:
#      x y z
#    x 1.848670 0.000000 -0.014730 
#    y 0.000000 1.830520 0.000000 
#    z -0.014730 0.000000 1.838700 
# 
# From -- ./inp_files/96745.got.cif
#   From: 2010.06.25/outbox.cif.g09.slc.cpg/sg12_49_cif.got.tgz:96745.got - 2010.06.28 00:19:55.
