data_PCOD8093408
_publ_section_title
;
Structure prediction by ZEFSAII (Michael W. Deem and Ramdas Pophale) SiO2 
 PCOD8093408
Probable space group: C 2/M
;
_chemical_formula_sum "Si O2"
_cell_formula_units_Z 48
_cell_length_a 23.844527
_cell_length_b 13.462526
_cell_length_c 13.625200
_cell_angle_alpha 90.000000
_cell_angle_beta 29.257561
_cell_angle_gamma 90.000000
_cell_volume 2137.631382
_symmetry_space_group_name_H-M "C 2/M"
_symmetry_group_IT_number 12
_symmetry_cell_setting 'monoclinic'
loop_
_space_group_symop_operation_xyz
x,y,z
-x,y,-z
-x,-y,-z
x,-y,z
1/2+x,1/2+y,z
1/2-x,1/2+y,-z
1/2-x,1/2-y,-z
1/2+x,1/2-y,z
loop_
_atom_site_type_symbol
_atom_site_label
_atom_site_fract_x
_atom_site_fract_y
_atom_site_fract_z
Si Si1 0.172908 0.114942 0.490108
Si Si2 0.089192 0.617156 0.783421
Si Si3 0.762160 0.284748 0.172370
Si Si4 0.081945 0.887759 0.093264
Si Si5 0.082673 0.217923 0.289176
Si Si6 0.532346 0.113066 0.220968
O O1 0.279966 0.148583 0.393629
O O2 0.172927 0.183191 0.392269
O O3 0.052083 0.130768 0.730720
O O4 0.185295 0.000000 0.440166
O O5 0.072650 0.500000 0.810738
O O6 0.063190 0.651807 0.711415
O O7 0.000000 0.663281 0.000000
O O8 0.702468 0.257063 0.160300
O O9 0.836936 0.187819 0.090723
O O10 0.847121 0.376867 0.021163
O O11 0.096779 0.868219 0.187048
O O12 0.119367 0.000000 0.011467
O O13 0.030312 0.317752 0.319978
O O14 0.000000 0.177257 0.500000
O O15 0.512450 0.000000 0.284952
#
# Coordination Sequence:
#
# PCOD8093408 Si02
#       6
#     8   8   8   8   8   8
#     4  10  19  35  63  92 118 151 195 247 299 351
#     4   9  16  30  56  89 116 142 190 247 296 349
#     4  11  21  36  58  83 123 152 194 247 293 350
#     4  10  22  38  58  85 116 157 201 240 294 351
#     4  11  23  38  55  82 120 157 202 246 285 355
#     4  10  20  35  58  86 115 151 190 241 304 349
#
# _framework density 22.45476
#
# number of rings (size 3 to 8) (size 9 to 14) (size 15 to 20)
#    0.000    1.833    3.333    2.500    0.000    4.000 
#    0.000    3.333    3.667    0.000    0.000    9.333 
#    0.000    0.000    0.000    0.000    0.000    0.000 
#
# Total GULP energy -297484.486254 kJ/mol
# GULP energy per Si atom -12395.186927 kJ/mol
# Density = 2.240365 g / cm^3
# Si number density = 22.454760 Si / 1000 Ang^3
#
#
#
# Elastic Constant Matrix: (Units=GPa)
#
#
# Indices 1 2 3 4 5 6 
#
# 1 126.0553 23.0729 11.3040 0.0000 -34.9533 0.0000
# 2 23.0729 85.8552 16.7788 0.0000 -7.7838 0.0000
# 3 11.3040 16.7788 46.5260 0.0000 -20.3477 0.0000
# 4 0.0000 0.0000 0.0000 28.4532 0.0000 -3.5456
# 5 -34.9533 -7.7838 -20.3477 0.0000 40.8108 0.0000
# 6 0.0000 0.0000 0.0000 -3.5456 0.0000 23.8734
#
#
#
# Elastic Compliance Matrix: (Units=1/GPa)
#
#
# Indices 1 2 3 4 5 6 
#
# 1 0.011018 -0.002565 0.002764 0.000000 0.010325 0.000000
# 2 -0.002565 0.013129 -0.005086 0.000000 -0.002229 0.000000
# 3 0.002764 -0.005086 0.029755 0.000000 0.016232 0.000000
# 4 0.000000 0.000000 0.000000 0.035808 0.000000 0.005318
# 5 0.010325 -0.002229 0.016232 0.000000 0.041015 0.000000
# 6 0.000000 0.000000 0.000000 0.005318 0.000000 0.042677
#
#
# Mechanical properties :
#
#
# Convention : Reuss Voigt Hill
#
# Bulk Modulus (GPa) = 22.66191 40.08310 31.37251
# Shear Modulus (GPa) = 25.26711 32.44620 28.85665
#
# Velocity S-wave (km/s) = 3.35811 3.80538 3.58872
# Velocity P-wave (km/s) = 5.01498 6.09896 5.58334
#
# Compressibility (1/GPa) = 0.04412691
#
# Stress axis : x y z
#
# Youngs Moduli (GPa) = 90.76332 76.16868 33.60749
#
# Poissons Ratio (x) = 0.19537 -0.09288
# Poissons Ratio (y) = 0.23280 0.17093
# Poissons Ratio (z) = -0.25084 0.38741
#
# Static dielectric constant tensor:
#      x y z
#    x 4.240330 0.000000 -0.455140 
#    y 0.000000 3.765720 0.000000 
#    z -0.455140 0.000000 3.916500 
# 
# 
# High freq. dielectric constant tensor:
#      x y z
#    x 1.882550 0.000000 -0.027660 
#    y 0.000000 1.867660 0.000000 
#    z -0.027660 0.000000 1.875820 
# 
# From -- ./inp_files/240595.got.cif
#   From: 2010.06.25/outbox.cif.g09.slc.cpg/sg12_121_cif.got.tgz:240595.got - 2010.06.28 00:19:55.
