data_PCOD8093495
_publ_section_title
;
Structure prediction by ZEFSAII (Michael W. Deem and Ramdas Pophale) SiO2 
 PCOD8093495
Probable space group: C 2/M
;
_chemical_formula_sum "Si O2"
_cell_formula_units_Z 56
_cell_length_a 30.736475
_cell_length_b 9.010389
_cell_length_c 19.236977
_cell_angle_alpha 90.000000
_cell_angle_beta 37.189691
_cell_angle_gamma 90.000000
_cell_volume 3220.319537
_symmetry_space_group_name_H-M "C 2/M"
_symmetry_group_IT_number 12
_symmetry_cell_setting 'monoclinic'
loop_
_space_group_symop_operation_xyz
x,y,z
-x,y,-z
-x,-y,-z
x,-y,z
1/2+x,1/2+y,z
1/2-x,1/2+y,-z
1/2-x,1/2-y,-z
1/2+x,1/2-y,z
loop_
_atom_site_type_symbol
_atom_site_label
_atom_site_fract_x
_atom_site_fract_y
_atom_site_fract_z
Si Si1 0.151510 0.671117 0.362542
Si Si2 0.197663 0.173034 0.762454
Si Si3 0.042072 0.325362 0.760314
Si Si4 0.943612 0.326529 0.011338
Si Si5 0.934242 0.833221 0.636521
Si Si6 0.306129 0.823384 0.377850
Si Si7 0.473599 0.175298 0.374879
O O1 0.136596 0.500000 0.365542
O O2 0.234073 0.702297 0.275391
O O3 0.134320 0.759802 0.313800
O O4 0.100082 0.721355 0.491955
O O5 0.210130 0.269738 0.678529
O O6 0.191006 0.000000 0.751470
O O7 0.126992 0.227044 0.892408
O O8 0.050385 0.500000 0.743354
O O9 0.115539 0.263472 0.699706
O O10 0.029718 0.258971 0.699137
O O11 0.976729 0.283925 0.894501
O O12 0.923119 0.500000 0.042537
O O13 0.000000 0.286098 0.000000
O O14 0.000000 0.826731 0.500000
O O15 0.956370 0.745492 0.677763
O O16 0.913858 0.000000 0.683399
O O17 0.250000 0.750000 0.500000
O O18 0.300100 0.000000 0.389013
O O19 0.484217 0.000000 0.360946
#
# Coordination Sequence:
#
# PCOD8093495 Si02
#       7
#     8   8   8   8   8   8   8
#     4   9  18  32  50  73 103 136 170 205 250 310
#     4  11  22  35  52  77 105 135 174 220 261 302
#     4   9  18  33  53  73  99 136 176 211 250 307
#     4  10  19  36  56  73  97 137 182 219 257 306
#     4   9  17  29  47  74 105 131 160 203 254 306
#     4  11  21  35  52  75 106 139 172 210 257 310
#     4   9  16  30  52  74  98 133 170 203 247 308
#
# _framework density 17.389578
#
# number of rings (size 3 to 8) (size 9 to 14) (size 15 to 20)
#    0.000    2.286    1.429    2.143    0.000    5.429 
#    0.000    5.000    0.000    0.857    0.000    0.000 
#    0.000    0.000    0.000    0.000    0.000    0.000 
#
# Total GULP energy -347212.231848 kJ/mol
# GULP energy per Si atom -12400.436852 kJ/mol
# Density = 1.735000 g / cm^3
# Si number density = 17.389578 Si / 1000 Ang^3
#
#
#
# Elastic Constant Matrix: (Units=GPa)
#
#
# Indices 1 2 3 4 5 6 
#
# 1 111.6736 46.9229 41.7970 0.0044 -12.7021 0.0024
# 2 46.9229 66.1416 35.2073 0.0023 -7.4987 0.0027
# 3 41.7970 35.2073 86.0410 -0.0187 -11.3009 0.0018
# 4 0.0044 0.0023 -0.0187 26.3661 0.0089 -2.9795
# 5 -12.7021 -7.4987 -11.3009 0.0089 17.0858 0.0026
# 6 0.0024 0.0027 0.0018 -2.9795 0.0026 24.9515
#
#
#
# Elastic Compliance Matrix: (Units=1/GPa)
#
#
# Indices 1 2 3 4 5 6 
#
# 1 0.013854 -0.007708 -0.002921 -0.000006 0.004984 -0.000001
# 2 -0.007708 0.023818 -0.005893 -0.000006 0.000825 -0.000002
# 3 -0.002921 -0.005893 0.016239 0.000011 0.005982 0.000000
# 4 -0.000006 -0.000006 0.000011 0.038446 -0.000020 0.004591
# 5 0.004984 0.000825 0.005982 -0.000020 0.066552 -0.000010
# 6 -0.000001 -0.000002 0.000000 0.004591 -0.000010 0.040626
#
#
# Mechanical properties :
#
#
# Convention : Reuss Voigt Hill
#
# Bulk Modulus (GPa) = 47.92686 56.85674 52.39180
# Shear Modulus (GPa) = 20.87371 23.00927 21.94149
#
# Velocity S-wave (km/s) = 3.46838 3.64148 3.55598
# Velocity P-wave (km/s) = 6.60757 7.10263 6.85957
#
# Compressibility (1/GPa) = 0.02086513
#
# Stress axis : x y z
#
# Youngs Moduli (GPa) = 72.18267 41.98477 61.58171
#
# Poissons Ratio (x) = 0.32363 0.17988
# Poissons Ratio (y) = 0.55641 0.36292
# Poissons Ratio (z) = 0.21085 0.24743
#
# Static dielectric constant tensor:
#      x y z
#    x 3.355010 -0.000010 -0.053410 
#    y -0.000010 3.159640 0.000010 
#    z -0.053410 0.000010 2.920960 
# 
# 
# High freq. dielectric constant tensor:
#      x y z
#    x 1.678380 0.000000 -0.000370 
#    y 0.000000 1.662650 0.000000 
#    z -0.000370 0.000000 1.650640 
# 
# From -- ./inp_files/280880.got.cif
#   From: 2010.06.25/outbox.cif.g09.slc.cpg/sg12_141_cif.got.tgz:280880.got - 2010.06.28 00:19:55.
