data_PCOD8093281
_publ_section_title
;
Structure prediction by ZEFSAII (Michael W. Deem and Ramdas Pophale) SiO2 
 PCOD8093281
Probable space group: C 2/M
;
_chemical_formula_sum "Si O2"
_cell_formula_units_Z 40
_cell_length_a 24.610384
_cell_length_b 11.790988
_cell_length_c 8.688565
_cell_angle_alpha 90.000000
_cell_angle_beta 50.245006
_cell_angle_gamma 90.000000
_cell_volume 1938.305202
_symmetry_space_group_name_H-M "C 2/M"
_symmetry_group_IT_number 12
_symmetry_cell_setting 'monoclinic'
loop_
_space_group_symop_operation_xyz
x,y,z
-x,y,-z
-x,-y,-z
x,-y,z
1/2+x,1/2+y,z
1/2-x,1/2+y,-z
1/2-x,1/2-y,-z
1/2+x,1/2-y,z
loop_
_atom_site_type_symbol
_atom_site_label
_atom_site_fract_x
_atom_site_fract_y
_atom_site_fract_z
Si Si1 0.146106 0.628554 0.918723
Si Si2 0.290890 0.702636 0.568390
Si Si3 0.973935 0.247751 0.714129
Si Si4 0.401916 0.867767 0.345751
Si Si5 0.115023 0.000000 0.723418
Si Si6 0.533805 0.500000 0.164087
O O1 0.132646 0.500000 0.990751
O O2 0.229960 0.654619 0.790489
O O3 0.116409 0.649119 0.800442
O O4 0.104601 0.706407 0.113989
O O5 0.250000 0.750000 0.500000
O O6 0.338848 0.803764 0.555346
O O7 0.344072 0.608223 0.411199
O O8 0.000000 0.287048 0.500000
O O9 0.024640 0.304647 0.750852
O O10 0.968286 0.111936 0.727548
O O11 0.405588 0.000000 0.385402
O O12 0.036443 0.000000 0.806457
O O13 0.104616 0.000000 0.928143
#
# Coordination Sequence:
#
# PCOD8093281 Si02
#       6
#     8   8   8   8   4   4
#     4  10  21  38  63  92 121 154 198 254 298 351
#     4  10  19  35  60  94 127 145 193 250 310 353
#     4  12  25  41  59  85 124 166 203 244 294 355
#     4  10  21  38  62  90 123 151 200 257 298 347
#     4  11  20  36  68  96 114 154 195 254 308 354
#     4  11  23  38  62  90 122 152 206 246 299 355
#
# _framework density 20.636583999999999
#
# number of rings (size 3 to 8) (size 9 to 14) (size 15 to 20)
#    0.000    1.400    3.000    3.900    4.200    3.200 
#    1.800    1.000    0.000    0.000    0.000    0.000 
#    0.000    0.000    0.000    0.000    0.000    0.000 
#
# Total GULP energy -247873.869237 kJ/mol
# GULP energy per Si atom -12393.693462 kJ/mol
# Density = 2.058961 g / cm^3
# Si number density = 20.636584 Si / 1000 Ang^3
#
#
#
# Elastic Constant Matrix: (Units=GPa)
#
#
# Indices 1 2 3 4 5 6 
#
# 1 34.7784 30.8323 41.7924 0.0000 -26.9094 0.0000
# 2 30.8323 160.9784 55.2915 0.0000 -20.9518 0.0000
# 3 41.7924 55.2915 126.4714 0.0000 -26.3615 0.0000
# 4 0.0000 0.0000 0.0000 38.7194 0.0000 -15.2263
# 5 -26.9094 -20.9518 -26.3615 0.0000 32.5918 0.0000
# 6 0.0000 0.0000 0.0000 -15.2263 0.0000 30.9931
#
#
#
# Elastic Compliance Matrix: (Units=1/GPa)
#
#
# Indices 1 2 3 4 5 6 
#
# 1 0.118266 -0.005518 -0.020513 0.000000 0.077507 0.000000
# 2 -0.005518 0.007747 -0.001774 0.000000 -0.001011 0.000000
# 3 -0.020513 -0.001774 0.014064 0.000000 -0.006701 0.000000
# 4 0.000000 0.000000 0.000000 0.032011 0.000000 0.015727
# 5 0.077507 -0.001011 -0.006701 0.000000 0.088606 0.000000
# 6 0.000000 0.000000 0.000000 0.015727 0.000000 0.039991
#
#
# Mechanical properties :
#
#
# Convention : Reuss Voigt Hill
#
# Bulk Modulus (GPa) = 11.83899 64.22896 38.03397
# Shear Modulus (GPa) = 13.00554 33.41499 23.21026
#
# Velocity S-wave (km/s) = 2.51314 4.02831 3.35731
# Velocity P-wave (km/s) = 3.76437 7.26827 5.78784
#
# Compressibility (1/GPa) = 0.08446665
#
# Stress axis : x y z
#
# Youngs Moduli (GPa) = 8.45551 129.08827 71.10263
#
# Poissons Ratio (x) = 0.71233 1.45853
# Poissons Ratio (y) = 0.04666 0.12613
# Poissons Ratio (z) = 0.17345 0.22900
#
# Static dielectric constant tensor:
#      x y z
#    x 3.833070 0.000000 -0.701000 
#    y 0.000000 4.030940 0.000000 
#    z -0.701000 0.000000 3.922490 
# 
# 
# High freq. dielectric constant tensor:
#      x y z
#    x 1.781360 0.000000 -0.040080 
#    y 0.000000 1.829580 0.000000 
#    z -0.040080 0.000000 1.794310 
# 
# From -- ./inp_files/102361.got.cif
#   From: 2010.06.25/outbox.cif.g09.slc.cpg/sg12_52_cif.got.tgz:102361.got - 2010.06.28 00:19:55.
