data_PCOD8093956
_publ_section_title
;
Structure prediction by ZEFSAII (Michael W. Deem and Ramdas Pophale) SiO2 
 PCOD8093956
Probable space group: C 2/M
;
_chemical_formula_sum "Si O2"
_cell_formula_units_Z 64
_cell_length_a 16.252080
_cell_length_b 8.759141
_cell_length_c 22.078623
_cell_angle_alpha 90.000000
_cell_angle_beta 89.449997
_cell_angle_gamma 90.000000
_cell_volume 3142.841236
_symmetry_space_group_name_H-M "C 2/M"
_symmetry_group_IT_number 12
_symmetry_cell_setting 'monoclinic'
loop_
_space_group_symop_operation_xyz
x,y,z
-x,y,-z
-x,-y,-z
x,-y,z
1/2+x,1/2+y,z
1/2-x,1/2+y,-z
1/2-x,1/2-y,-z
1/2+x,1/2-y,z
loop_
_atom_site_type_symbol
_atom_site_label
_atom_site_fract_x
_atom_site_fract_y
_atom_site_fract_z
Si Si1 0.161749 0.178574 0.499494
Si Si2 0.591054 0.177654 0.617863
Si Si3 0.345474 0.674771 0.750425
Si Si4 0.924000 0.824046 0.623360
Si Si5 0.251964 0.818548 0.066134
Si Si6 0.087520 0.318777 0.862862
Si Si7 0.903493 0.321209 0.864463
Si Si8 0.660547 0.179778 0.740893
O O1 0.250000 0.250000 0.500000
O O2 0.109165 0.232369 0.556659
O O3 0.119319 0.229568 0.437726
O O4 0.171540 0.000000 0.502036
O O5 0.496887 0.206620 0.634835
O O6 0.641608 0.247849 0.674478
O O7 0.609800 0.000000 0.607123
O O8 0.361070 0.500000 0.769844
O O9 0.362441 0.698054 0.679547
O O10 0.400035 0.783160 0.792861
O O11 0.251514 0.722593 0.761680
O O12 0.954237 0.000000 0.618387
O O13 0.337159 0.757348 0.096082
O O14 0.168995 0.768587 0.101244
O O15 0.252439 0.000000 0.063364
O O16 0.250000 0.750000 0.000000
O O17 0.093366 0.500000 0.861394
O O18 0.100351 0.256403 0.793972
O O19 0.995747 0.270737 0.886544
O O20 0.890653 0.500000 0.875708
O O21 0.649281 0.000000 0.734104
#
# Coordination Sequence:
#
# PCOD8093956 Si02
#       8
#     8   8   8   8   8   8   8   8
#     4  11  23  40  59  79 109 150 196 246 303 368
#     4  11  22  36  58  85 114 151 197 248 298 360
#     4  10  19  36  61  85 116 158 201 245 300 357
#     4  10  22  38  56  81 115 155 196 244 303 365
#     4  11  23  43  67  91 124 166 205 246 297 358
#     4   9  19  37  63  88 120 165 205 239 295 367
#     4  11  22  38  62  95 126 158 205 255 300 358
#     4   9  17  34  59  85 114 156 202 240 291 362
#
# _framework density 20.36374
#
# number of rings (size 3 to 8) (size 9 to 14) (size 15 to 20)
#    0.000    1.750    1.250    3.375    0.000    6.500 
#    0.000    7.500    0.000    0.000    0.000    0.000 
#    0.000    0.000    0.000    0.000    0.000    0.000 
#
# Total GULP energy -396703.390354 kJ/mol
# GULP energy per Si atom -12396.980949 kJ/mol
# Density = 2.031739 g / cm^3
# Si number density = 20.363740 Si / 1000 Ang^3
#
#
#
# Elastic Constant Matrix: (Units=GPa)
#
#
# Indices 1 2 3 4 5 6 
#
# 1 125.3132 26.7073 52.8536 0.0000 3.7313 0.0000
# 2 26.7073 36.4909 22.6869 0.0000 5.8828 0.0000
# 3 52.8536 22.6869 135.4737 0.0000 9.1733 0.0000
# 4 0.0000 0.0000 0.0000 32.2687 0.0000 -2.2698
# 5 3.7313 5.8828 9.1733 0.0000 28.2190 0.0000
# 6 0.0000 0.0000 0.0000 -2.2698 0.0000 32.5927
#
#
#
# Elastic Compliance Matrix: (Units=1/GPa)
#
#
# Indices 1 2 3 4 5 6 
#
# 1 0.010553 -0.005880 -0.003191 0.000000 0.000868 0.000000
# 2 -0.005880 0.034519 -0.003121 0.000000 -0.005404 0.000000
# 3 -0.003191 -0.003121 0.009281 0.000000 -0.001944 0.000000
# 4 0.000000 0.000000 0.000000 0.031142 0.000000 0.002169
# 5 0.000868 -0.005404 -0.001944 0.000000 0.037081 0.000000
# 6 0.000000 0.000000 0.000000 0.002169 0.000000 0.030833
#
#
# Mechanical properties :
#
#
# Convention : Reuss Voigt Hill
#
# Bulk Modulus (GPa) = 33.36744 55.75259 44.56002
# Shear Modulus (GPa) = 26.62654 31.61809 29.12232
#
# Velocity S-wave (km/s) = 3.61992 3.94466 3.78578
# Velocity P-wave (km/s) = 5.82178 6.94154 6.40617
#
# Compressibility (1/GPa) = 0.02996933
#
# Stress axis : x y z
#
# Youngs Moduli (GPa) = 94.75720 28.96971 107.74839
#
# Poissons Ratio (x) = 0.17033 0.34387
# Poissons Ratio (y) = 0.55713 0.33627
# Poissons Ratio (z) = 0.30241 0.09041
#
# Static dielectric constant tensor:
#      x y z
#    x 3.857210 0.000000 0.192610 
#    y 0.000000 3.485910 0.000000 
#    z 0.192610 0.000000 3.679470 
# 
# 
# High freq. dielectric constant tensor:
#      x y z
#    x 1.808550 0.000000 -0.000010 
#    y 0.000000 1.767670 0.000000 
#    z -0.000010 0.000000 1.806980 
# 
# From -- ./inp_files/338839.got.cif
#   From: 2010.06.25/outbox.cif.g09.slc.cpg/sg12_170_cif.got.tgz:338839.got - 2010.06.28 00:19:55.
