data_PCOD8093992
_publ_section_title
;
Structure prediction by ZEFSAII (Michael W. Deem and Ramdas Pophale) SiO2 
 PCOD8093992
Probable space group: C 2/M
;
_chemical_formula_sum "Si O2"
_cell_formula_units_Z 64
_cell_length_a 18.567917
_cell_length_b 8.867851
_cell_length_c 29.640744
_cell_angle_alpha 90.000000
_cell_angle_beta 136.767217
_cell_angle_gamma 90.000000
_cell_volume 3343.016167
_symmetry_space_group_name_H-M "C 2/M"
_symmetry_group_IT_number 12
_symmetry_cell_setting 'monoclinic'
loop_
_space_group_symop_operation_xyz
x,y,z
-x,y,-z
-x,-y,-z
x,-y,z
1/2+x,1/2+y,z
1/2-x,1/2+y,-z
1/2-x,1/2-y,-z
1/2+x,1/2-y,z
loop_
_atom_site_type_symbol
_atom_site_label
_atom_site_fract_x
_atom_site_fract_y
_atom_site_fract_z
Si Si1 0.935585 0.671213 0.842779
Si Si2 0.269811 0.822800 0.218374
Si Si3 0.919370 0.821759 0.360556
Si Si4 0.848750 0.175857 0.068571
Si Si5 0.845678 0.177583 0.516686
Si Si6 0.810032 0.821327 0.400601
Si Si7 0.918203 0.329210 0.729267
Si Si8 0.371216 0.673663 0.183347
O O1 0.939046 0.500000 0.862183
O O2 0.847241 0.762941 0.828498
O O3 0.906198 0.676492 0.777211
O O4 0.047165 0.747509 0.903863
O O5 0.353708 0.752369 0.290796
O O6 0.298546 0.778690 0.180596
O O7 0.271096 0.000000 0.225527
O O8 0.880494 0.758193 0.391474
O O9 0.042296 0.780596 0.409833
O O10 0.900922 0.000000 0.349480
O O11 0.839477 0.205989 0.117530
O O12 0.853052 0.000000 0.059366
O O13 0.750000 0.250000 0.000000
O O14 0.750000 0.250000 0.500000
O O15 0.850204 0.238636 0.467195
O O16 0.826562 0.000000 0.507823
O O17 0.689830 0.768007 0.340802
O O18 0.816943 0.000000 0.401791
O O19 0.943807 0.500000 0.725164
O O20 0.007797 0.217426 0.752767
O O21 0.355974 0.500000 0.189851
#
# Coordination Sequence:
#
# PCOD8093992 Si02
#       8
#     8   8   8   8   8   8   8   8
#     4  10  19  36  61  88 119 153 190 235 286 342
#     4  12  24  37  57  86 119 153 193 244 295 344
#     4  10  20  38  59  80 107 150 197 238 290 352
#     4  10  21  39  64  93 123 158 196 234 278 335
#     4  10  22  37  56  80 110 146 190 241 294 352
#     4   9  17  34  58  81 106 142 191 236 284 347
#     4   9  17  32  56  84 111 145 187 234 286 344
#     4  10  22  38  57  84 120 154 191 236 283 336
#
# _framework density 19.144390000000001
#
# number of rings (size 3 to 8) (size 9 to 14) (size 15 to 20)
#    0.000    2.000    1.250    2.625    1.750    4.000 
#    0.000    1.250    0.000    5.250    0.000    0.000 
#    0.000    0.000    0.000    0.000    0.000    0.000 
#
# Total GULP energy -396847.499288 kJ/mol
# GULP energy per Si atom -12401.484353 kJ/mol
# Density = 1.910082 g / cm^3
# Si number density = 19.144390 Si / 1000 Ang^3
#
#
#
# Elastic Constant Matrix: (Units=GPa)
#
#
# Indices 1 2 3 4 5 6 
#
# 1 118.5806 50.0632 56.2930 0.0000 16.3568 0.0000
# 2 50.0632 88.0834 55.3711 0.0000 10.4203 0.0000
# 3 56.2930 55.3711 119.5634 0.0000 23.8205 0.0000
# 4 0.0000 0.0000 0.0000 27.0690 0.0000 6.4193
# 5 16.3568 10.4203 23.8205 0.0000 21.8618 0.0000
# 6 0.0000 0.0000 0.0000 6.4193 0.0000 32.8523
#
#
#
# Elastic Compliance Matrix: (Units=1/GPa)
#
#
# Indices 1 2 3 4 5 6 
#
# 1 0.012320 -0.004772 -0.002819 0.000000 -0.003871 0.000000
# 2 -0.004772 0.017869 -0.006441 0.000000 0.002072 0.000000
# 3 -0.002819 -0.006441 0.014870 0.000000 -0.011023 0.000000
# 4 0.000000 0.000000 0.000000 0.038738 0.000000 -0.007569
# 5 -0.003871 0.002072 -0.011023 0.000000 0.059661 0.000000
# 6 0.000000 0.000000 0.000000 -0.007569 0.000000 0.031918
#
#
# Mechanical properties :
#
#
# Convention : Reuss Voigt Hill
#
# Bulk Modulus (GPa) = 58.84350 72.18690 65.51520
# Shear Modulus (GPa) = 23.91114 27.32328 25.61721
#
# Velocity S-wave (km/s) = 3.53794 3.78196 3.66198
# Velocity P-wave (km/s) = 6.89150 7.54051 7.22330
#
# Compressibility (1/GPa) = 0.01699423
#
# Stress axis : x y z
#
# Youngs Moduli (GPa) = 81.16759 55.96211 67.24793
#
# Poissons Ratio (x) = 0.26705 0.18960
# Poissons Ratio (y) = 0.38733 0.43317
# Poissons Ratio (z) = 0.22884 0.36047
#
# Static dielectric constant tensor:
#      x y z
#    x 3.627930 0.000000 0.080550 
#    y 0.000000 3.415660 0.000000 
#    z 0.080550 0.000000 3.505910 
# 
# 
# High freq. dielectric constant tensor:
#      x y z
#    x 1.749670 0.000000 0.009970 
#    y 0.000000 1.732200 0.000000 
#    z 0.009970 0.000000 1.742680 
# 
# From -- ./inp_files/378304.got.cif
#   From: 2010.06.25/outbox.cif.g09.slc.cpg/sg12_190_cif.got.tgz:378304.got - 2010.06.28 00:19:55.
