data_PCOD8093470
_publ_section_title
;
Structure prediction by ZEFSAII (Michael W. Deem and Ramdas Pophale) SiO2 
 PCOD8093470
Probable space group: C 2/M
;
_chemical_formula_sum "Si O2"
_cell_formula_units_Z 52
_cell_length_a 8.825346
_cell_length_b 29.667391
_cell_length_c 10.574634
_cell_angle_alpha 90.000000
_cell_angle_beta 98.131329
_cell_angle_gamma 90.000000
_cell_volume 2740.868192
_symmetry_space_group_name_H-M "C 2/M"
_symmetry_group_IT_number 12
_symmetry_cell_setting 'monoclinic'
loop_
_space_group_symop_operation_xyz
x,y,z
-x,y,-z
-x,-y,-z
x,-y,z
1/2+x,1/2+y,z
1/2-x,1/2+y,-z
1/2-x,1/2-y,-z
1/2+x,1/2-y,z
loop_
_atom_site_type_symbol
_atom_site_label
_atom_site_fract_x
_atom_site_fract_y
_atom_site_fract_z
Si Si1 0.155420 0.621298 0.298691
Si Si2 0.033875 0.799552 0.862448
Si Si3 0.498232 0.370807 0.648544
Si Si4 0.894834 0.296013 0.870635
Si Si5 0.500000 0.915191 0.500000
Si Si6 0.533536 0.052108 0.866009
Si Si7 0.265520 0.550797 0.695197
O O1 0.332837 0.615006 0.293895
O O2 0.082099 0.666719 0.234410
O O3 0.111107 0.619816 0.440176
O O4 0.086521 0.576020 0.236396
O O5 0.215918 0.792995 0.881593
O O6 0.961142 0.830280 0.742008
O O7 0.952374 0.751978 0.828250
O O8 0.000000 0.818485 0.000000
O O9 0.500000 0.355962 0.500000
O O10 0.388740 0.413099 0.662529
O O11 0.000000 0.311502 0.000000
O O12 0.389763 0.946949 0.404815
O O13 0.708126 0.059966 0.833831
O O14 0.491237 0.000000 0.859283
O O15 0.500000 0.072699 0.000000
O O16 0.333679 0.500000 0.690874
#
# Coordination Sequence:
#
# PCOD8093470 Si02
#       7
#     8   8   8   8   4   8   8
#     4  10  21  36  56  83 115 154 192 238 286 345
#     4  10  22  39  62  86 115 153 194 241 290 351
#     4  11  23  41  55  86 124 152 195 241 295 347
#     4  10  20  37  60  89 113 144 196 236 288 349
#     4  10  19  36  54  80 114 146 200 232 279 336
#     4   9  19  36  58  86 116 149 194 245 292 343
#     4  10  21  36  59  82 112 155 195 236 286 343
#
# _framework density 18.972090000000001
#
# number of rings (size 3 to 8) (size 9 to 14) (size 15 to 20)
#    0.000    2.000    1.538    2.538    0.000    8.923 
#    1.385    1.538    0.000    3.231    0.000    0.000 
#    0.000    0.000    0.000    0.000    0.000    0.000 
#
# Total GULP energy -322128.840453 kJ/mol
# GULP energy per Si atom -12389.570787 kJ/mol
# Density = 1.892891 g / cm^3
# Si number density = 18.972090 Si / 1000 Ang^3
#
#
#
# Elastic Constant Matrix: (Units=GPa)
#
#
# Indices 1 2 3 4 5 6 
#
# 1 82.4557 46.9397 32.7558 0.0000 -2.1067 0.0000
# 2 46.9397 89.6543 56.9830 0.0000 -4.5667 0.0000
# 3 32.7558 56.9830 102.8785 0.0000 -20.6993 0.0000
# 4 0.0000 0.0000 0.0000 23.6471 0.0000 -1.6591
# 5 -2.1067 -4.5667 -20.6993 0.0000 31.1609 0.0000
# 6 0.0000 0.0000 0.0000 -1.6591 0.0000 22.8931
#
#
#
# Elastic Compliance Matrix: (Units=1/GPa)
#
#
# Indices 1 2 3 4 5 6 
#
# 1 0.017328 -0.008506 -0.000948 0.000000 -0.000704 0.000000
# 2 -0.008506 0.021928 -0.010281 0.000000 -0.004191 0.000000
# 3 -0.000948 -0.010281 0.017776 0.000000 0.010237 0.000000
# 4 0.000000 0.000000 0.000000 0.042505 0.000000 0.003080
# 5 -0.000704 -0.004191 0.010237 0.000000 0.038230 0.000000
# 6 0.000000 0.000000 0.000000 0.003080 0.000000 0.043905
#
#
# Mechanical properties :
#
#
# Convention : Reuss Voigt Hill
#
# Bulk Modulus (GPa) = 56.93460 60.92727 58.93094
# Shear Modulus (GPa) = 22.02689 24.76087 23.39388
#
# Velocity S-wave (km/s) = 3.41106 3.61656 3.51532
# Velocity P-wave (km/s) = 6.75193 7.04438 6.89971
#
# Compressibility (1/GPa) = 0.01756401
#
# Stress axis : x y z
#
# Youngs Moduli (GPa) = 57.70843 45.60329 56.25579
#
# Poissons Ratio (x) = 0.38791 0.05330
# Poissons Ratio (y) = 0.49088 0.57834
# Poissons Ratio (z) = 0.05468 0.46883
#
# Static dielectric constant tensor:
#      x y z
#    x 3.667000 0.000000 -0.380850 
#    y 0.000000 3.414540 0.000000 
#    z -0.380850 0.000000 3.983200 
# 
# 
# High freq. dielectric constant tensor:
#      x y z
#    x 1.742800 0.000000 -0.013960 
#    y 0.000000 1.734770 0.000000 
#    z -0.013960 0.000000 1.740580 
# 
# From -- ./inp_files/123662.got.cif
#   From: 2010.06.25/outbox.cif.g09.slc.cpg/sg12_62_cif.got.tgz:123662.got - 2010.06.28 00:19:55.
