data_PCOD8093872
_publ_section_title
;
Structure prediction by ZEFSAII (Michael W. Deem and Ramdas Pophale) SiO2 
 PCOD8093872
Probable space group: C 2/M
;
_chemical_formula_sum "Si O2"
_cell_formula_units_Z 48
_cell_length_a 29.350923
_cell_length_b 8.978336
_cell_length_c 10.027499
_cell_angle_alpha 90.000000
_cell_angle_beta 80.563269
_cell_angle_gamma 90.000000
_cell_volume 2606.711201
_symmetry_space_group_name_H-M "C 2/M"
_symmetry_group_IT_number 12
_symmetry_cell_setting 'monoclinic'
loop_
_space_group_symop_operation_xyz
x,y,z
-x,y,-z
-x,-y,-z
x,-y,z
1/2+x,1/2+y,z
1/2-x,1/2+y,-z
1/2-x,1/2-y,-z
1/2+x,1/2-y,z
loop_
_atom_site_type_symbol
_atom_site_label
_atom_site_fract_x
_atom_site_fract_y
_atom_site_fract_z
Si Si1 0.117045 0.672586 0.659288
Si Si2 0.026879 0.172546 0.621284
Si Si3 0.122108 0.331579 0.962874
Si Si4 0.785510 0.826110 0.081341
Si Si5 0.975142 0.671078 0.876336
Si Si6 0.787263 0.176266 0.386828
O O1 0.124499 0.500000 0.620811
O O2 0.074232 0.734769 0.595859
O O3 0.105164 0.697849 0.820262
O O4 0.162869 0.761253 0.595858
O O5 0.000000 0.207981 0.500000
O O6 0.992822 0.219868 0.755033
O O7 0.039426 0.000000 0.631183
O O8 0.140803 0.500000 0.966124
O O9 0.162947 0.221386 0.984881
O O10 0.079650 0.304295 0.082458
O O11 0.775774 0.779483 0.239299
O O12 0.780738 0.000000 0.063882
O O13 0.750000 0.750000 0.000000
O O14 0.986857 0.500000 0.833733
O O15 0.000000 0.716443 0.000000
O O16 0.750000 0.250000 0.500000
O O17 0.787074 0.000000 0.406813
#
# Coordination Sequence:
#
# PCOD8093872 Si02
#       6
#     8   8   8   8   8   8
#     4  10  19  36  61  84 110 148 188 231 282 333
#     4  11  24  39  54  80 118 154 188 230 279 331
#     4   9  18  34  58  85 112 142 183 231 278 330
#     4  10  21  37  58  84 115 147 184 228 280 333
#     4  10  19  36  60  86 111 142 187 233 275 332
#     4  10  21  38  60  87 114 146 189 232 277 335
#
# _framework density 18.414007999999999
#
# number of rings (size 3 to 8) (size 9 to 14) (size 15 to 20)
#    0.000    2.000    1.667    2.000    0.000    5.000 
#    3.000    0.000    0.000    0.000    0.000    0.000 
#    0.000    0.000    0.000    0.000    0.000    0.000 
#
# Total GULP energy -297687.556693 kJ/mol
# GULP energy per Si atom -12403.648196 kJ/mol
# Density = 1.837210 g / cm^3
# Si number density = 18.414008 Si / 1000 Ang^3
#
#
#
# Elastic Constant Matrix: (Units=GPa)
#
#
# Indices 1 2 3 4 5 6 
#
# 1 129.0287 66.1741 67.9773 0.0000 1.1236 0.0000
# 2 66.1741 87.9755 49.5151 0.0000 9.1088 0.0000
# 3 67.9773 49.5151 81.6739 0.0000 2.0095 0.0000
# 4 0.0000 0.0000 0.0000 29.6261 0.0000 -0.9083
# 5 1.1236 9.1088 2.0095 0.0000 29.7048 0.0000
# 6 0.0000 0.0000 0.0000 -0.9083 0.0000 40.3355
#
#
#
# Elastic Compliance Matrix: (Units=1/GPa)
#
#
# Indices 1 2 3 4 5 6 
#
# 1 0.016352 -0.007351 -0.009209 0.000000 0.002258 0.000000
# 2 -0.007351 0.021207 -0.006597 0.000000 -0.005779 0.000000
# 3 -0.009209 -0.006597 0.023889 0.000000 0.000755 0.000000
# 4 0.000000 0.000000 0.000000 0.033777 0.000000 0.000761
# 5 0.002258 -0.005779 0.000755 0.000000 0.035300 0.000000
# 6 0.000000 0.000000 0.000000 0.000761 0.000000 0.024809
#
#
# Mechanical properties :
#
#
# Convention : Reuss Voigt Hill
#
# Bulk Modulus (GPa) = 66.06983 74.00124 70.03553
# Shear Modulus (GPa) = 24.19046 27.60071 25.89559
#
# Velocity S-wave (km/s) = 3.62843 3.87576 3.75413
# Velocity P-wave (km/s) = 7.31520 7.76553 7.54372
#
# Compressibility (1/GPa) = 0.01513550
#
# Stress axis : x y z
#
# Youngs Moduli (GPa) = 61.15419 47.15443 41.85967
#
# Poissons Ratio (x) = 0.34661 0.38549
# Poissons Ratio (y) = 0.44952 0.27614
# Poissons Ratio (z) = 0.56318 0.31107
#
# Static dielectric constant tensor:
#      x y z
#    x 3.549260 0.000000 -0.246730 
#    y 0.000000 3.468430 0.000000 
#    z -0.246730 0.000000 3.948040 
# 
# 
# High freq. dielectric constant tensor:
#      x y z
#    x 1.724640 0.000000 -0.003420 
#    y 0.000000 1.723000 0.000000 
#    z -0.003420 0.000000 1.696960 
# 
# From -- ./inp_files/108601.got.cif
#   From: 2010.06.25/outbox.cif.g09.slc.cpg/sg12_55_cif.got.tgz:108601.got - 2010.06.28 00:19:55.
