data_PCOD8093996
_publ_section_title
;
Structure prediction by ZEFSAII (Michael W. Deem and Ramdas Pophale) SiO2 
 PCOD8093996
Probable space group: C 2/M
;
_chemical_formula_sum "Si O2"
_cell_formula_units_Z 56
_cell_length_a 19.496414
_cell_length_b 8.570221
_cell_length_c 16.573203
_cell_angle_alpha 90.000000
_cell_angle_beta 73.512515
_cell_angle_gamma 90.000000
_cell_volume 2655.328531
_symmetry_space_group_name_H-M "C 2/M"
_symmetry_group_IT_number 12
_symmetry_cell_setting 'monoclinic'
loop_
_space_group_symop_operation_xyz
x,y,z
-x,y,-z
-x,-y,-z
x,-y,z
1/2+x,1/2+y,z
1/2-x,1/2+y,-z
1/2-x,1/2-y,-z
1/2+x,1/2-y,z
loop_
_atom_site_type_symbol
_atom_site_label
_atom_site_fract_x
_atom_site_fract_y
_atom_site_fract_z
Si Si1 0.091395 0.817871 0.120905
Si Si2 0.343071 0.320315 0.065143
Si Si3 0.784635 0.820225 0.802399
Si Si4 0.433526 0.320529 0.191403
Si Si5 0.785343 0.318999 0.630449
Si Si6 0.641622 0.818850 0.634444
Si Si7 0.920884 0.816995 0.501224
O O1 0.138959 0.783938 0.183298
O O2 0.013199 0.747945 0.164838
O O3 0.081677 0.000000 0.106931
O O4 0.126839 0.747398 0.028172
O O5 0.318706 0.500000 0.063235
O O6 0.275194 0.216804 0.111487
O O7 0.404651 0.304788 0.110921
O O8 0.775037 0.710631 0.728681
O O9 0.779091 0.000000 0.777047
O O10 0.431766 0.500000 0.221686
O O11 0.385060 0.218475 0.266903
O O12 0.774473 0.500000 0.616485
O O13 0.724999 0.227995 0.599492
O O14 0.863884 0.267411 0.577511
O O15 0.593382 0.724607 0.587029
O O16 0.634181 0.000000 0.617183
O O17 0.000000 0.759588 0.500000
O O18 0.913340 0.000000 0.517746
#
# Coordination Sequence:
#
# PCOD8093996 Si02
#       7
#     8   8   8   8   8   8   8
#     4   9  20  36  58  88 123 167 214 260 316 375
#     4  10  19  36  61  88 120 164 216 265 312 373
#     4  11  22  37  59  89 127 167 210 261 316 375
#     4  10  20  37  62  90 123 166 215 261 311 372
#     4  12  25  44  68  94 127 168 215 260 310 372
#     4  12  25  43  67  96 131 167 210 259 312 372
#     4  11  26  47  72 100 131 165 202 249 310 375
#
# _framework density 21.089670000000002
#
# number of rings (size 3 to 8) (size 9 to 14) (size 15 to 20)
#    0.000    1.286    1.429    4.714    2.000    2.857 
#    0.000    2.143    0.000    1.714    0.000    0.000 
#    0.000    0.000    0.000    0.000    0.000    0.000 
#
# Total GULP energy -347373.532981 kJ/mol
# GULP energy per Si atom -12406.197606 kJ/mol
# Density = 2.104167 g / cm^3
# Si number density = 21.089670 Si / 1000 Ang^3
#
#
#
# Elastic Constant Matrix: (Units=GPa)
#
#
# Indices 1 2 3 4 5 6 
#
# 1 123.4263 26.2208 20.7522 0.0000 -8.7607 0.0000
# 2 26.2208 56.9590 14.4975 0.0000 -1.3606 0.0000
# 3 20.7522 14.4975 82.0566 0.0000 -3.9600 0.0000
# 4 0.0000 0.0000 0.0000 26.9625 0.0000 -2.6293
# 5 -8.7607 -1.3606 -3.9600 0.0000 35.0030 0.0000
# 6 0.0000 0.0000 0.0000 -2.6293 0.0000 25.1190
#
#
#
# Elastic Compliance Matrix: (Units=1/GPa)
#
#
# Indices 1 2 3 4 5 6 
#
# 1 0.009327 -0.003843 -0.001583 0.000000 0.002006 0.000000
# 2 -0.003843 0.019971 -0.002580 0.000000 -0.000477 0.000000
# 3 -0.001583 -0.002580 0.013090 0.000000 0.000984 0.000000
# 4 0.000000 0.000000 0.000000 0.037471 0.000000 0.003922
# 5 0.002006 -0.000477 0.000984 0.000000 0.029164 0.000000
# 6 0.000000 0.000000 0.000000 0.003922 0.000000 0.040221
#
#
# Mechanical properties :
#
#
# Convention : Reuss Voigt Hill
#
# Bulk Modulus (GPa) = 37.91161 42.82034 40.36597
# Shear Modulus (GPa) = 28.72792 30.81502 29.77147
#
# Velocity S-wave (km/s) = 3.69478 3.82664 3.76128
# Velocity P-wave (km/s) = 6.01808 6.31444 6.16804
#
# Compressibility (1/GPa) = 0.02637715
#
# Stress axis : x y z
#
# Youngs Moduli (GPa) = 107.21670 50.07353 76.39236
#
# Poissons Ratio (x) = 0.19242 0.12093
# Poissons Ratio (y) = 0.41201 0.19706
# Poissons Ratio (z) = 0.16973 0.12917
#
# Static dielectric constant tensor:
#      x y z
#    x 3.999160 0.000000 -0.078970 
#    y 0.000000 3.595640 0.000000 
#    z -0.078970 0.000000 3.798350 
# 
# 
# High freq. dielectric constant tensor:
#      x y z
#    x 1.840850 0.000000 -0.000500 
#    y 0.000000 1.807100 0.000000 
#    z -0.000500 0.000000 1.834260 
# 
# From -- ./inp_files/275316.got.cif
#   From: 2010.06.25/outbox.cif.g09.slc.cpg/sg12_138_cif.got.tgz:275316.got - 2010.06.28 00:19:55.
