data_PCOD8093510
_publ_section_title
;
Structure prediction by ZEFSAII (Michael W. Deem and Ramdas Pophale) SiO2 
 PCOD8093510
Probable space group: C 2/M
;
_chemical_formula_sum "Si O2"
_cell_formula_units_Z 64
_cell_length_a 15.010683
_cell_length_b 22.029721
_cell_length_c 13.923291
_cell_angle_alpha 90.000000
_cell_angle_beta 44.227748
_cell_angle_gamma 90.000000
_cell_volume 3211.464821
_symmetry_space_group_name_H-M "C 2/M"
_symmetry_group_IT_number 12
_symmetry_cell_setting 'monoclinic'
loop_
_space_group_symop_operation_xyz
x,y,z
-x,y,-z
-x,-y,-z
x,-y,z
1/2+x,1/2+y,z
1/2-x,1/2+y,-z
1/2-x,1/2-y,-z
1/2+x,1/2-y,z
loop_
_atom_site_type_symbol
_atom_site_label
_atom_site_fract_x
_atom_site_fract_y
_atom_site_fract_z
Si Si1 0.219228 0.679620 0.536389
Si Si2 0.351167 0.860621 0.610503
Si Si3 0.842609 0.240543 0.719407
Si Si4 0.972745 0.133184 0.418758
Si Si5 0.863451 0.652463 0.065315
Si Si6 0.157806 0.070236 0.137790
Si Si7 0.936678 0.675250 0.807726
Si Si8 0.288772 0.071343 0.842450
O O1 0.250000 0.750000 0.500000
O O2 0.206782 0.636733 0.451120
O O3 0.322421 0.644320 0.521626
O O4 0.087218 0.681358 0.694220
O O5 0.500000 0.881827 0.500000
O O6 0.341882 0.788645 0.634935
O O7 0.266089 0.900280 0.752593
O O8 0.714222 0.199964 0.808858
O O9 0.856300 0.277747 0.807015
O O10 0.966058 0.199082 0.617039
O O11 0.000000 0.098210 0.500000
O O12 0.029789 0.100448 0.279931
O O13 0.778273 0.593711 0.106703
O O14 0.886644 0.689949 0.951124
O O15 0.000000 0.630747 0.000000
O O16 0.147611 0.000000 0.165875
O O17 0.173595 0.082681 0.009800
O O18 0.910564 0.606184 0.792029
O O19 0.317624 0.000000 0.810340
#
# Coordination Sequence:
#
# PCOD8093510 Si02
#       8
#     8   8   8   8   8   8   8   8
#     4  12  22  36  59  87 126 162 196 241 302 372
#     4  11  20  37  58  92 122 158 200 246 308 376
#     4  10  19  36  56  81 121 156 194 243 299 371
#     4  11  23  37  61  85 116 162 207 244 300 361
#     4  10  22  33  57  88 113 152 206 255 299 360
#     4   9  21  43  63  80 114 161 202 255 318 362
#     4  10  20  36  55  86 121 156 198 239 307 367
#     4   9  19  40  65  85 117 155 197 255 314 362
#
# _framework density 19.928599999999999
#
# number of rings (size 3 to 8) (size 9 to 14) (size 15 to 20)
#    0.000    1.750    3.750    1.500    5.250    1.750 
#    0.000    1.875    0.000    1.500    0.000    0.000 
#    0.000    0.000    0.000    0.000    0.000    0.000 
#
# Total GULP energy -396421.704542 kJ/mol
# GULP energy per Si atom -12388.178267 kJ/mol
# Density = 1.988324 g / cm^3
# Si number density = 19.928600 Si / 1000 Ang^3
#
#
#
# Elastic Constant Matrix: (Units=GPa)
#
#
# Indices 1 2 3 4 5 6 
#
# 1 79.4784 4.9062 13.1671 0.0024 -4.1250 -0.0004
# 2 4.9062 82.6949 29.8827 0.0014 0.2967 -0.0001
# 3 13.1671 29.8827 72.3564 0.0049 2.5432 -0.0008
# 4 0.0024 0.0014 0.0049 23.4375 -0.0022 4.7070
# 5 -4.1250 0.2967 2.5432 -0.0022 33.7324 0.0003
# 6 -0.0004 -0.0001 -0.0008 4.7070 0.0003 16.2541
#
#
#
# Elastic Compliance Matrix: (Units=1/GPa)
#
#
# Indices 1 2 3 4 5 6 
#
# 1 0.013080 0.000118 -0.002492 -0.000001 0.001786 0.000000
# 2 0.000118 0.014218 -0.005905 0.000000 0.000335 0.000000
# 3 -0.002492 -0.005905 0.016766 -0.000003 -0.001517 0.000002
# 4 -0.000001 0.000000 -0.000003 0.045301 0.000003 -0.013119
# 5 0.001786 0.000335 -0.001517 0.000003 0.029975 -0.000002
# 6 0.000000 0.000000 0.000002 -0.013119 -0.000002 0.065322
#
#
# Mechanical properties :
#
#
# Convention : Reuss Voigt Hill
#
# Bulk Modulus (GPa) = 36.35507 36.71575 36.53541
# Shear Modulus (GPa) = 23.76537 27.12305 25.44421
#
# Velocity S-wave (km/s) = 3.45704 3.69319 3.57707
# Velocity P-wave (km/s) = 5.84954 6.05391 5.95260
#
# Compressibility (1/GPa) = 0.02750648
#
# Stress axis : x y z
#
# Youngs Moduli (GPa) = 76.45093 70.33141 59.64415
#
# Poissons Ratio (x) = -0.00830 0.14862
# Poissons Ratio (y) = -0.00902 0.35222
# Poissons Ratio (z) = 0.19050 0.41533
#
# Static dielectric constant tensor:
#      x y z
#    x 3.733120 0.000000 0.274030 
#    y 0.000000 3.495580 0.000000 
#    z 0.274030 0.000000 3.992010 
# 
# 
# High freq. dielectric constant tensor:
#      x y z
#    x 1.760990 0.000000 0.018680 
#    y 0.000000 1.755950 0.000000 
#    z 0.018680 0.000000 1.794010 
# 
# From -- ./inp_files/218499.got.cif
#   From: 2010.06.25/outbox.cif.g09.slc.cpg/sg12_110_cif.got.tgz:218499.got - 2010.06.28 00:19:55.
