data_PCOD8093048
_publ_section_title
;
Structure prediction by ZEFSAII (Michael W. Deem and Ramdas Pophale) SiO2 
 PCOD8093048
Probable space group: C 2/M
;
_chemical_formula_sum "Si O2"
_cell_formula_units_Z 64
_cell_length_a 20.068549
_cell_length_b 8.909093
_cell_length_c 29.111517
_cell_angle_alpha 90.000000
_cell_angle_beta 140.905044
_cell_angle_gamma 90.000000
_cell_volume 3282.263361
_symmetry_space_group_name_H-M "C 2/M"
_symmetry_group_IT_number 12
_symmetry_cell_setting 'monoclinic'
loop_
_space_group_symop_operation_xyz
x,y,z
-x,y,-z
-x,-y,-z
x,-y,z
1/2+x,1/2+y,z
1/2-x,1/2+y,-z
1/2-x,1/2-y,-z
1/2+x,1/2-y,z
loop_
_atom_site_type_symbol
_atom_site_label
_atom_site_fract_x
_atom_site_fract_y
_atom_site_fract_z
Si Si1 0.946449 0.321696 0.286044
Si Si2 0.019244 0.821266 0.061576
Si Si3 0.221284 0.330227 0.308673
Si Si4 0.735625 0.322292 0.220671
Si Si5 0.363624 0.323240 0.057524
Si Si6 0.604297 0.327367 0.526719
Si Si7 0.020075 0.670916 0.798573
Si Si8 0.861963 0.322692 0.549373
O O1 0.946846 0.500000 0.289058
O O2 0.840171 0.256032 0.252356
O O3 0.945414 0.268941 0.232780
O O4 0.050621 0.261316 0.367832
O O5 0.130964 0.756992 0.139748
O O6 0.925158 0.765942 0.044845
O O7 0.022323 0.000000 0.062652
O O8 0.000000 0.757799 0.000000
O O9 0.249676 0.500000 0.308797
O O10 0.236417 0.222210 0.273945
O O11 0.297013 0.275700 0.389835
O O12 0.105014 0.319855 0.266476
O O13 0.734648 0.500000 0.216819
O O14 0.349377 0.500000 0.048212
O O15 0.430751 0.280342 0.137801
O O16 0.250000 0.250000 0.000000
O O17 0.500000 0.301873 0.500000
O O18 0.616811 0.500000 0.517636
O O19 0.598016 0.221273 0.479471
O O20 0.059434 0.500000 0.827984
O O21 0.849847 0.500000 0.546629
O O22 0.750000 0.250000 0.500000
#
# Coordination Sequence:
#
# PCOD8093048 Si02
#       8
#     8   8   8   8   8   8   8   8
#     4   9  20  36  58  84 111 149 194 236 283 339
#     4   9  19  35  58  86 112 143 183 225 271 326
#     4  10  20  35  56  81 115 152 185 230 290 346
#     4  10  19  35  59  84 111 143 188 237 276 331
#     4  11  23  39  60  87 116 146 185 231 276 333
#     4  10  21  37  58  85 117 155 196 240 295 357
#     4  10  20  37  59  81 110 150 190 228 277 335
#     4  11  22  38  58  84 117 154 199 248 295 349
#
# _framework density 19.498739
#
# number of rings (size 3 to 8) (size 9 to 14) (size 15 to 20)
#    0.000    2.000    1.250    2.250    1.750    2.750 
#    0.000    3.750    0.000    1.875    0.000    0.000 
#    0.000    0.000    0.000    0.000    0.000    0.000 
#
# Total GULP energy -396871.676684 kJ/mol
# GULP energy per Si atom -12402.239896 kJ/mol
# Density = 1.945436 g / cm^3
# Si number density = 19.498739 Si / 1000 Ang^3
#
#
#
# Elastic Constant Matrix: (Units=GPa)
#
#
# Indices 1 2 3 4 5 6 
#
# 1 140.1756 28.3708 59.0954 0.0000 -2.5864 -0.0001
# 2 28.3708 36.5449 28.8617 0.0002 2.4472 -0.0003
# 3 59.0954 28.8617 128.4142 0.0000 2.6924 0.0001
# 4 0.0000 0.0002 0.0000 28.4758 0.0000 -2.0886
# 5 -2.5864 2.4472 2.6924 0.0000 37.4429 0.0000
# 6 -0.0001 -0.0003 0.0001 -2.0886 0.0000 28.7253
#
#
#
# Elastic Compliance Matrix: (Units=1/GPa)
#
#
# Indices 1 2 3 4 5 6 
#
# 1 0.009542 -0.004864 -0.003323 0.000000 0.001216 0.000000
# 2 -0.004864 0.035850 -0.005771 0.000000 -0.002264 0.000000
# 3 -0.003323 -0.005771 0.010627 0.000000 -0.000617 0.000000
# 4 0.000000 0.000000 0.000000 0.035306 0.000000 0.002567
# 5 0.001216 -0.002264 -0.000617 0.000000 0.026984 0.000000
# 6 0.000000 0.000000 0.000000 0.002567 0.000000 0.034999
#
#
# Mechanical properties :
#
#
# Convention : Reuss Voigt Hill
#
# Bulk Modulus (GPa) = 35.58707 59.75448 47.67078
# Shear Modulus (GPa) = 26.23408 31.51593 28.87500
#
# Velocity S-wave (km/s) = 3.67198 4.02469 3.85238
# Velocity P-wave (km/s) = 6.02234 7.23252 6.65499
#
# Compressibility (1/GPa) = 0.02810009
#
# Stress axis : x y z
#
# Youngs Moduli (GPa) = 104.80047 27.89430 94.10234
#
# Poissons Ratio (x) = 0.13569 0.31273
# Poissons Ratio (y) = 0.50980 0.54309
# Poissons Ratio (z) = 0.34829 0.16099
#
# Static dielectric constant tensor:
#      x y z
#    x 3.758340 0.000000 0.065370 
#    y 0.000000 3.323940 0.000000 
#    z 0.065370 0.000000 3.742410 
# 
# 
# High freq. dielectric constant tensor:
#      x y z
#    x 1.774890 0.000000 0.003920 
#    y 0.000000 1.725300 0.000000 
#    z 0.003920 0.000000 1.775580 
# 
# From -- ./inp_files/378289.got.cif
#   From: 2010.06.25/outbox.cif.g09.slc.cpg/sg12_190_cif.got.tgz:378289.got - 2010.06.28 00:19:55.
