data_PCOD8093524
_publ_section_title
;
Structure prediction by ZEFSAII (Michael W. Deem and Ramdas Pophale) SiO2 
 PCOD8093524
Probable space group: C 2/M
;
_chemical_formula_sum "Si O2"
_cell_formula_units_Z 44
_cell_length_a 15.543569
_cell_length_b 23.471632
_cell_length_c 10.586687
_cell_angle_alpha 90.000000
_cell_angle_beta 35.408608
_cell_angle_gamma 90.000000
_cell_volume 2237.872384
_symmetry_space_group_name_H-M "C 2/M"
_symmetry_group_IT_number 12
_symmetry_cell_setting 'monoclinic'
loop_
_space_group_symop_operation_xyz
x,y,z
-x,y,-z
-x,-y,-z
x,-y,z
1/2+x,1/2+y,z
1/2-x,1/2+y,-z
1/2-x,1/2-y,-z
1/2+x,1/2-y,z
loop_
_atom_site_type_symbol
_atom_site_label
_atom_site_fract_x
_atom_site_fract_y
_atom_site_fract_z
Si Si1 0.601524 0.435061 0.627316
Si Si2 0.770405 0.170983 0.097586
Si Si3 0.233085 0.936334 0.039907
Si Si4 0.672487 0.118990 0.826533
Si Si5 0.648970 0.286988 0.263138
Si Si6 0.000000 0.880820 0.000000
O O1 0.655434 0.500000 0.552702
O O2 0.444628 0.426324 0.743555
O O3 0.728504 0.395281 0.414795
O O4 0.580568 0.420033 0.799690
O O5 0.653538 0.218763 0.281796
O O6 0.696299 0.110897 0.140250
O O7 0.859784 0.199216 0.874469
O O8 0.879707 0.160457 0.082205
O O9 0.295621 0.928904 0.105662
O O10 0.271499 0.000000 0.945302
O O11 0.713418 0.181022 0.834023
O O12 0.500000 0.118784 0.000000
O O13 0.500000 0.312000 0.500000
#
# Coordination Sequence:
#
# PCOD8093524 Si02
#       6
#     8   8   8   8   8   4
#     4  10  20  36  59  85 116 155 191 231 281 343
#     4   9  20  36  58  85 113 145 192 235 287 332
#     4   9  18  36  61  82 112 155 195 232 277 340
#     4  11  22  35  57  90 119 147 190 243 294 332
#     4  10  20  40  61  80 111 153 196 241 278 338
#     4  10  19  36  56  88 112 146 193 240 274 346
#
# _framework density 19.661532000000001
#
# number of rings (size 3 to 8) (size 9 to 14) (size 15 to 20)
#    0.000    2.182    0.000    4.636    1.273    3.636 
#    9.818    1.818    0.000    0.545    0.000    0.000 
#    0.000    0.000    0.000    0.000    0.000    0.000 
#
# Total GULP energy -272717.237048 kJ/mol
# GULP energy per Si atom -12396.238048 kJ/mol
# Density = 1.961678 g / cm^3
# Si number density = 19.661532 Si / 1000 Ang^3
#
#
#
# Elastic Constant Matrix: (Units=GPa)
#
#
# Indices 1 2 3 4 5 6 
#
# 1 132.4420 37.4072 52.2598 0.0004 2.6405 -0.0001
# 2 37.4072 143.1015 23.4649 0.0000 -1.3709 0.0001
# 3 52.2598 23.4649 66.1088 0.0001 -0.3274 0.0002
# 4 0.0004 0.0000 0.0001 24.2875 -0.0002 -0.6827
# 5 2.6405 -1.3709 -0.3274 -0.0002 27.0951 0.0000
# 6 -0.0001 0.0001 0.0002 -0.6827 0.0000 19.0743
#
#
#
# Elastic Compliance Matrix: (Units=1/GPa)
#
#
# Indices 1 2 3 4 5 6 
#
# 1 0.011345 -0.001599 -0.008407 0.000000 -0.001288 0.000000
# 2 -0.001599 0.007649 -0.001448 0.000000 0.000525 0.000000
# 3 -0.008407 -0.001448 0.022292 0.000000 0.001015 0.000000
# 4 0.000000 0.000000 0.000000 0.041215 0.000000 0.001475
# 5 -0.001288 0.000525 0.001015 0.000000 0.037071 0.000000
# 6 0.000000 0.000000 0.000000 0.001475 0.000000 0.052479
#
#
# Mechanical properties :
#
#
# Convention : Reuss Voigt Hill
#
# Bulk Modulus (GPa) = 54.41776 63.10179 58.75977
# Shear Modulus (GPa) = 24.86501 29.32607 27.09554
#
# Velocity S-wave (km/s) = 3.56005 3.86624 3.71630
# Velocity P-wave (km/s) = 6.68102 7.21763 6.95450
#
# Compressibility (1/GPa) = 0.01837636
#
# Stress axis : x y z
#
# Youngs Moduli (GPa) = 88.14220 130.74303 44.86005
#
# Poissons Ratio (x) = 0.20912 0.37715
# Poissons Ratio (y) = 0.14098 0.06495
# Poissons Ratio (z) = 0.74103 0.18929
#
# Static dielectric constant tensor:
#      x y z
#    x 3.470930 0.000000 0.161750 
#    y 0.000000 3.916450 0.000000 
#    z 0.161750 0.000000 3.329350 
# 
# 
# High freq. dielectric constant tensor:
#      x y z
#    x 1.758210 0.000000 0.017120 
#    y 0.000000 1.783070 0.000000 
#    z 0.017120 0.000000 1.737200 
# 
# From -- ./inp_files/66730.got.cif
#   From: 2010.06.25/outbox.cif.g09.slc.cpg/sg12_34_cif.got.tgz:66730.got - 2010.06.28 00:19:55.
