data_PCOD8093679
_publ_section_title
;
Structure prediction by ZEFSAII (Michael W. Deem and Ramdas Pophale) SiO2 
 PCOD8093679
Probable space group: C 2/M
;
_chemical_formula_sum "Si O2"
_cell_formula_units_Z 44
_cell_length_a 9.314241
_cell_length_b 20.155731
_cell_length_c 12.081047
_cell_angle_alpha 90.000000
_cell_angle_beta 70.063660
_cell_angle_gamma 90.000000
_cell_volume 2132.120469
_symmetry_space_group_name_H-M "C 2/M"
_symmetry_group_IT_number 12
_symmetry_cell_setting 'monoclinic'
loop_
_space_group_symop_operation_xyz
x,y,z
-x,y,-z
-x,-y,-z
x,-y,z
1/2+x,1/2+y,z
1/2-x,1/2+y,-z
1/2-x,1/2-y,-z
1/2+x,1/2-y,z
loop_
_atom_site_type_symbol
_atom_site_label
_atom_site_fract_x
_atom_site_fract_y
_atom_site_fract_z
Si Si1 0.938806 0.305874 0.134706
Si Si2 0.268679 0.074188 0.460753
Si Si3 0.725380 0.575725 0.223300
Si Si4 0.194864 0.695805 0.252315
Si Si5 0.112240 0.924390 0.727049
Si Si6 0.500000 0.830793 0.500000
O O1 0.860351 0.377820 0.143288
O O2 0.814412 0.254245 0.209222
O O3 0.079444 0.306688 0.181297
O O4 0.000000 0.283031 0.000000
O O5 0.194055 0.087375 0.361541
O O6 0.142261 0.085269 0.588402
O O7 0.409557 0.123689 0.437141
O O8 0.336046 0.000000 0.449648
O O9 0.774216 0.500000 0.186408
O O10 0.565589 0.592387 0.204000
O O11 0.280771 0.624891 0.231667
O O12 0.110433 0.712056 0.391778
O O13 0.149047 0.000000 0.753991
#
# Coordination Sequence:
#
# PCOD8093679 Si02
#       6
#     8   8   8   8   8   4
#     4  12  26  45  64  85 120 166 213 253 300 360
#     4   9  16  30  57  91 130 161 190 238 303 371
#     4  10  20  38  62  91 123 159 205 250 299 358
#     4  11  24  42  64  92 121 164 202 253 309 361
#     4   9  19  36  62  95 128 159 194 243 306 371
#     4  10  19  36  58  98 125 152 198 248 312 362
#
# _framework density 20.636733
#
# number of rings (size 3 to 8) (size 9 to 14) (size 15 to 20)
#    0.000    1.818    1.818    2.455    0.000    4.727 
#    3.273    0.000    0.000    2.727    0.000    0.000 
#    0.000    0.000    0.000    0.000    0.000    0.000 
#
# Total GULP energy -272811.543296 kJ/mol
# GULP energy per Si atom -12400.524695 kJ/mol
# Density = 2.058976 g / cm^3
# Si number density = 20.636733 Si / 1000 Ang^3
#
#
#
# Elastic Constant Matrix: (Units=GPa)
#
#
# Indices 1 2 3 4 5 6 
#
# 1 137.3492 63.1668 40.8721 0.0000 7.1860 0.0000
# 2 63.1668 104.3853 41.1931 0.0000 -3.9643 0.0000
# 3 40.8721 41.1931 86.4334 0.0000 3.7398 0.0000
# 4 0.0000 0.0000 0.0000 -68.0337 0.0000 70.5057
# 5 7.1860 -3.9643 3.7398 0.0000 21.7738 0.0000
# 6 0.0000 0.0000 0.0000 70.5057 0.0000 -37.4288
#
#
#
# Elastic Compliance Matrix: (Units=1/GPa)
#
#
# Indices 1 2 3 4 5 6 
#
# 1 0.010847 -0.005882 -0.002141 0.000000 -0.004283 0.000000
# 2 -0.005882 0.015205 -0.004704 0.000000 0.005517 0.000000
# 3 -0.002141 -0.004704 0.014941 0.000000 -0.002716 0.000000
# 4 0.000000 0.000000 0.000000 0.015437 0.000000 0.029079
# 5 -0.004283 0.005517 -0.002716 0.000000 0.048811 0.000000
# 6 0.000000 0.000000 0.000000 0.029079 0.000000 0.028060
#
#
# Mechanical properties :
#
#
# Convention : Reuss Voigt Hill
#
# Bulk Modulus (GPa) = 64.34851 68.73687 66.54269
# Shear Modulus (GPa) = 30.50021 -4.54203 12.97909
#
# Velocity S-wave (km/s) = 3.84859 -1.48517 2.51057
# Velocity P-wave (km/s) = 7.14130 5.51719 6.38112
#
# Compressibility (1/GPa) = 0.01554038
#
# Stress axis : x y z
#
# Youngs Moduli (GPa) = 92.19337 65.76860 66.92875
#
# Poissons Ratio (x) = 0.38682 0.14328
# Poissons Ratio (y) = 0.54224 0.31483
# Poissons Ratio (z) = 0.19736 0.30937
#
# Static dielectric constant tensor:
#      x y z
#    x 3.838680 0.000000 -0.079170 
#    y 0.000000 3.805930 0.000000 
#    z -0.079170 0.000000 3.527580 
# 
# 
# High freq. dielectric constant tensor:
#      x y z
#    x 1.816880 0.000000 -0.005180 
#    y 0.000000 1.806960 0.000000 
#    z -0.005180 0.000000 1.784430 
# 
# From -- ./inp_files/120617.got.cif
#   From: 2010.06.25/outbox.cif.g09.slc.cpg/sg12_61_cif.got.tgz:120617.got - 2010.06.28 00:19:55.
