data_PCOD8093059
_publ_section_title
;
Structure prediction by ZEFSAII (Michael W. Deem and Ramdas Pophale) SiO2 
 PCOD8093059
Probable space group: C 2/M
;
_chemical_formula_sum "Si O2"
_cell_formula_units_Z 48
_cell_length_a 24.567618
_cell_length_b 9.204284
_cell_length_c 14.202466
_cell_angle_alpha 90.000000
_cell_angle_beta 54.467209
_cell_angle_gamma 90.000000
_cell_volume 2613.517757
_symmetry_space_group_name_H-M "C 2/M"
_symmetry_group_IT_number 12
_symmetry_cell_setting 'monoclinic'
loop_
_space_group_symop_operation_xyz
x,y,z
-x,y,-z
-x,-y,-z
x,-y,z
1/2+x,1/2+y,z
1/2-x,1/2+y,-z
1/2-x,1/2-y,-z
1/2+x,1/2-y,z
loop_
_atom_site_type_symbol
_atom_site_label
_atom_site_fract_x
_atom_site_fract_y
_atom_site_fract_z
Si Si1 0.931515 0.332641 0.614888
Si Si2 0.131405 0.668264 0.612365
Si Si3 0.822106 0.167433 0.611282
Si Si4 0.561213 0.328409 0.004006
Si Si5 0.668905 0.833105 0.782102
Si Si6 0.522973 0.164421 0.225268
O O1 0.921009 0.500000 0.595515
O O2 0.869708 0.240840 0.639703
O O3 0.933142 0.313842 0.725497
O O4 0.000000 0.274101 0.500000
O O5 0.150707 0.500000 0.581005
O O6 0.173376 0.759582 0.495381
O O7 0.150793 0.724564 0.696302
O O8 0.053539 0.696694 0.671259
O O9 0.747023 0.185600 0.724462
O O10 0.842047 0.000000 0.580524
O O11 0.568209 0.500000 0.997419
O O12 0.629926 0.261393 0.897639
O O13 0.500000 0.276182 0.000000
O O14 0.549275 0.275617 0.121699
O O15 0.645999 0.000000 0.814724
O O16 0.529685 0.000000 0.179772
#
# Coordination Sequence:
#
# PCOD8093059 Si02
#       6
#     8   8   8   8   8   8
#     4  10  20  38  60  83 111 149 196 232 271 337
#     4  10  19  35  59  84 114 152 188 229 278 337
#     4  11  23  36  55  87 120 150 186 234 286 334
#     4  11  23  37  57  87 118 146 184 236 287 334
#     4  10  22  39  58  82 115 155 194 226 276 345
#     4  10  20  36  61  86 110 148 193 232 274 333
#
# _framework density 18.366050000000001
#
# number of rings (size 3 to 8) (size 9 to 14) (size 15 to 20)
#    0.000    1.667    3.333    1.500    0.000    4.333 
#    0.000    0.833    0.000    0.000    0.000    0.000 
#    0.000    0.000    0.000    0.000    0.000    0.000 
#
# Total GULP energy -297744.080217 kJ/mol
# GULP energy per Si atom -12406.003342 kJ/mol
# Density = 1.832425 g / cm^3
# Si number density = 18.366050 Si / 1000 Ang^3
#
#
#
# Elastic Constant Matrix: (Units=GPa)
#
#
# Indices 1 2 3 4 5 6 
#
# 1 75.4494 32.0445 19.0529 0.0000 -1.4799 0.0000
# 2 32.0445 79.9688 47.6840 0.0000 -2.8435 0.0000
# 3 19.0529 47.6840 88.1223 0.0000 2.3188 0.0000
# 4 0.0000 0.0000 0.0000 31.5137 0.0000 -0.0504
# 5 -1.4799 -2.8435 2.3188 0.0000 24.2335 0.0000
# 6 0.0000 0.0000 0.0000 -0.0504 0.0000 30.9738
#
#
#
# Elastic Compliance Matrix: (Units=1/GPa)
#
#
# Indices 1 2 3 4 5 6 
#
# 1 0.015973 -0.006392 -0.000001 0.000000 0.000225 0.000000
# 2 -0.006392 0.021260 -0.010203 0.000000 0.003080 0.000000
# 3 -0.000001 -0.010203 0.016943 0.000000 -0.002818 0.000000
# 4 0.000000 0.000000 0.000000 0.031732 0.000000 0.000052
# 5 0.000225 0.003080 -0.002818 0.000000 0.041910 0.000000
# 6 0.000000 0.000000 0.000000 0.000052 0.000000 0.032285
#
#
# Mechanical properties :
#
#
# Convention : Reuss Voigt Hill
#
# Bulk Modulus (GPa) = 47.65403 49.01149 48.33276
# Shear Modulus (GPa) = 24.96377 26.99482 25.97930
#
# Velocity S-wave (km/s) = 3.69078 3.83798 3.76510
# Velocity P-wave (km/s) = 6.64572 6.81058 6.72866
#
# Compressibility (1/GPa) = 0.02098458
#
# Stress axis : x y z
#
# Youngs Moduli (GPa) = 62.60392 47.03738 59.02142
#
# Poissons Ratio (x) = 0.30068 0.00003
# Poissons Ratio (y) = 0.40019 0.60218
# Poissons Ratio (z) = 0.00003 0.47991
#
# Static dielectric constant tensor:
#      x y z
#    x 3.357830 0.000000 0.001360 
#    y 0.000000 3.330630 0.000000 
#    z 0.001360 0.000000 3.236650 
# 
# 
# High freq. dielectric constant tensor:
#      x y z
#    x 1.713820 0.000000 0.002560 
#    y 0.000000 1.710120 0.000000 
#    z 0.002560 0.000000 1.707730 
# 
# From -- ./inp_files/244744.got.cif
#   From: 2010.06.25/outbox.cif.g09.slc.cpg/sg12_123_cif.got.tgz:244744.got - 2010.06.28 00:19:55.
