data_PCOD8093841
_publ_section_title
;
Structure prediction by ZEFSAII (Michael W. Deem and Ramdas Pophale) SiO2 
 PCOD8093841
Probable space group: C 2/M
;
_chemical_formula_sum "Si O2"
_cell_formula_units_Z 64
_cell_length_a 19.642204
_cell_length_b 8.820491
_cell_length_c 31.150837
_cell_angle_alpha 90.000000
_cell_angle_beta 142.032993
_cell_angle_gamma 90.000000
_cell_volume 3320.277606
_symmetry_space_group_name_H-M "C 2/M"
_symmetry_group_IT_number 12
_symmetry_cell_setting 'monoclinic'
loop_
_space_group_symop_operation_xyz
x,y,z
-x,y,-z
-x,-y,-z
x,-y,z
1/2+x,1/2+y,z
1/2-x,1/2+y,-z
1/2-x,1/2-y,-z
1/2+x,1/2-y,z
loop_
_atom_site_type_symbol
_atom_site_label
_atom_site_fract_x
_atom_site_fract_y
_atom_site_fract_z
Si Si1 0.241266 0.673318 0.450469
Si Si2 0.487245 0.673449 0.541668
Si Si3 0.028238 0.820197 0.312077
Si Si4 0.013141 0.678901 0.958189
Si Si5 0.615596 0.820610 0.683503
Si Si6 0.980665 0.820160 0.193348
Si Si7 0.249784 0.678184 0.045316
Si Si8 0.628516 0.320301 0.187621
O O1 0.201187 0.500000 0.435185
O O2 0.250000 0.750000 0.500000
O O3 0.357949 0.684783 0.485725
O O4 0.153593 0.770164 0.380706
O O5 0.500000 0.739342 0.500000
O O6 0.528866 0.500000 0.565181
O O7 0.557950 0.769113 0.610740
O O8 0.004931 0.758189 0.252808
O O9 0.945024 0.749731 0.305434
O O10 0.017070 0.000000 0.310491
O O11 0.995074 0.500000 0.944764
O O12 0.927114 0.756347 0.883126
O O13 0.137970 0.730952 0.011975
O O14 0.000000 0.736202 0.000000
O O15 0.743646 0.767581 0.746846
O O16 0.606021 0.000000 0.681891
O O17 0.064907 0.757471 0.198574
O O18 0.856822 0.760700 0.123449
O O19 0.988569 0.000000 0.197033
O O20 0.256672 0.500000 0.044183
O O21 0.250000 0.750000 0.000000
O O22 0.619277 0.500000 0.181101
#
# Coordination Sequence:
#
# PCOD8093841 Si02
#       8
#     8   8   8   8   8   8   8   8
#     4  11  22  39  63  89 120 154 195 246 292 347
#     4  10  23  42  63  88 118 157 198 239 294 350
#     4  11  23  39  63  88 116 158 199 240 296 351
#     4  10  22  37  58  88 117 151 196 240 287 346
#     4  11  24  40  60  87 120 156 196 243 294 350
#     4   9  20  38  60  84 114 153 196 239 289 349
#     4  10  19  36  60  84 112 149 193 242 290 340
#     4  10  22  41  60  83 117 155 194 240 293 349
#
# _framework density 19.275496
#
# number of rings (size 3 to 8) (size 9 to 14) (size 15 to 20)
#    0.000    1.750    2.500    1.125    3.500    2.000 
#    0.000    2.500    0.000    0.000    0.000    0.000 
#    0.000    0.000    0.000    0.000    0.000    0.000 
#
# Total GULP energy -396730.412983 kJ/mol
# GULP energy per Si atom -12397.825406 kJ/mol
# Density = 1.923162 g / cm^3
# Si number density = 19.275496 Si / 1000 Ang^3
#
#
#
# Elastic Constant Matrix: (Units=GPa)
#
#
# Indices 1 2 3 4 5 6 
#
# 1 159.2919 40.1376 90.5837 -0.0001 -13.7496 0.0004
# 2 40.1376 45.8029 40.2495 -0.0001 0.1362 0.0005
# 3 90.5837 40.2495 182.6070 0.0000 -7.9235 0.0002
# 4 -0.0001 -0.0001 0.0000 30.7128 0.0000 -0.1393
# 5 -13.7496 0.1362 -7.9235 0.0000 43.0455 0.0000
# 6 0.0004 0.0005 0.0002 -0.1393 0.0000 21.1322
#
#
#
# Elastic Compliance Matrix: (Units=1/GPa)
#
#
# Indices 1 2 3 4 5 6 
#
# 1 0.009943 -0.005560 -0.003597 0.000000 0.002531 0.000000
# 2 -0.005560 0.030247 -0.004022 0.000000 -0.002612 -0.000001
# 3 -0.003597 -0.004022 0.008163 0.000000 0.000366 0.000000
# 4 0.000000 0.000000 0.000000 0.032561 0.000000 0.000215
# 5 0.002531 -0.002612 0.000366 0.000000 0.024116 0.000000
# 6 0.000000 -0.000001 0.000000 0.000215 0.000000 0.047323
#
#
# Mechanical properties :
#
#
# Convention : Reuss Voigt Hill
#
# Bulk Modulus (GPa) = 45.46485 81.07147 63.26816
# Shear Modulus (GPa) = 26.87586 33.42684 30.15135
#
# Velocity S-wave (km/s) = 3.73809 4.16885 3.95933
# Velocity P-wave (km/s) = 6.50147 8.08227 7.33458
#
# Compressibility (1/GPa) = 0.02199501
#
# Stress axis : x y z
#
# Youngs Moduli (GPa) = 100.57792 33.06105 122.50435
#
# Poissons Ratio (x) = 0.18381 0.44063
# Poissons Ratio (y) = 0.55917 0.49276
# Poissons Ratio (z) = 0.36176 0.13298
#
# Static dielectric constant tensor:
#      x y z
#    x 3.745100 0.000000 0.059080 
#    y 0.000000 3.438260 0.000000 
#    z 0.059080 0.000000 3.727130 
# 
# 
# High freq. dielectric constant tensor:
#      x y z
#    x 1.766420 0.000000 0.001690 
#    y 0.000000 1.735620 0.000000 
#    z 0.001690 0.000000 1.766170 
# 
# From -- ./inp_files/378513.got.cif
#   From: 2010.06.25/outbox.cif.g09.slc.cpg/sg12_190_cif.got.tgz:378513.got - 2010.06.28 00:19:55.
