data_PCOD8093225
_publ_section_title
;
Structure prediction by ZEFSAII (Michael W. Deem and Ramdas Pophale) SiO2 
 PCOD8093225
Probable space group: C 2/M
;
_chemical_formula_sum "Si O2"
_cell_formula_units_Z 64
_cell_length_a 25.535377
_cell_length_b 14.270172
_cell_length_c 19.078422
_cell_angle_alpha 90.000000
_cell_angle_beta 150.807469
_cell_angle_gamma 90.000000
_cell_volume 3390.841785
_symmetry_space_group_name_H-M "C 2/M"
_symmetry_group_IT_number 12
_symmetry_cell_setting 'monoclinic'
loop_
_space_group_symop_operation_xyz
x,y,z
-x,y,-z
-x,-y,-z
x,-y,z
1/2+x,1/2+y,z
1/2-x,1/2+y,-z
1/2-x,1/2-y,-z
1/2+x,1/2-y,z
loop_
_atom_site_type_symbol
_atom_site_label
_atom_site_fract_x
_atom_site_fract_y
_atom_site_fract_z
Si Si1 0.004691 0.610202 0.709163
Si Si2 0.030783 0.254147 0.956078
Si Si3 0.579426 0.192329 0.650395
Si Si4 0.147318 0.603058 0.003262
Si Si5 0.182688 0.890349 0.075603
Si Si6 0.376227 0.759839 0.647826
Si Si7 0.396514 0.601885 0.292267
Si Si8 0.027506 0.896404 0.774381
O O1 0.991948 0.500000 0.679208
O O2 0.898842 0.650274 0.624174
O O3 0.032934 0.664096 0.671263
O O4 0.098955 0.636925 0.873073
O O5 0.924758 0.266509 0.783463
O O6 0.117291 0.331088 0.032924
O O7 0.093460 0.154672 0.023614
O O8 0.000000 0.272111 0.000000
O O9 0.500000 0.146741 0.500000
O O10 0.700297 0.155892 0.780706
O O11 0.573161 0.304925 0.629636
O O12 0.102904 0.500000 0.969995
O O13 0.271318 0.603034 0.133744
O O14 0.193273 0.000000 0.105411
O O15 0.136820 0.869533 0.944039
O O16 0.250000 0.750000 0.500000
O O17 0.427457 0.669018 0.672797
O O18 0.427973 0.500000 0.364315
O O19 0.453140 0.608896 0.284456
O O20 0.992713 0.000000 0.757750
#
# Coordination Sequence:
#
# PCOD8093225 Si02
#       8
#     8   8   8   8   8   8   8   8
#     4  10  21  37  57  83 113 146 184 230 283 338
#     4  10  21  37  57  82 113 150 194 241 283 336
#     4  12  24  36  55  84 119 153 184 224 281 346
#     4   9  18  35  61  87 108 138 183 235 289 339
#     4  10  21  37  57  83 113 147 188 233 281 334
#     4  10  21  37  57  82 113 150 194 240 283 336
#     4  10  19  35  60  87 112 138 177 228 283 339
#     4   9  18  35  61  87 108 139 186 238 286 337
#
# _framework density 18.874369000000002
#
# number of rings (size 3 to 8) (size 9 to 14) (size 15 to 20)
#    0.000    2.000    2.500    1.125    0.000    6.250 
#    0.000    0.000    0.000    0.000    0.000    0.000 
#    0.000    0.000    0.000    0.000    0.000    0.000 
#
# Total GULP energy -396536.081697 kJ/mol
# GULP energy per Si atom -12391.752553 kJ/mol
# Density = 1.883141 g / cm^3
# Si number density = 18.874369 Si / 1000 Ang^3
#
#
#
# Elastic Constant Matrix: (Units=GPa)
#
#
# Indices 1 2 3 4 5 6 
#
# 1 89.3644 34.7296 46.4458 0.0000 4.2062 0.0000
# 2 34.7296 121.1015 33.1177 0.0000 3.9443 0.0000
# 3 46.4458 33.1177 101.3659 0.0000 14.4417 0.0000
# 4 0.0000 0.0000 0.0000 14.3302 0.0000 0.0483
# 5 4.2062 3.9443 14.4417 0.0000 22.7377 0.0000
# 6 0.0000 0.0000 0.0000 0.0483 0.0000 71.3937
#
#
#
# Elastic Compliance Matrix: (Units=1/GPa)
#
#
# Indices 1 2 3 4 5 6 
#
# 1 0.015536 -0.002743 -0.006466 0.000000 0.001709 0.000000
# 2 -0.002743 0.009554 -0.001870 0.000000 0.000038 0.000000
# 3 -0.006466 -0.001870 0.014538 0.000000 -0.007713 0.000000
# 4 0.000000 0.000000 0.000000 0.069783 0.000000 -0.000047
# 5 0.001709 0.000038 -0.007713 0.000000 0.048556 0.000000
# 6 0.000000 0.000000 0.000000 -0.000047 0.000000 0.014007
#
#
# Mechanical properties :
#
#
# Convention : Reuss Voigt Hill
#
# Bulk Modulus (GPa) = 57.23964 60.04645 58.64305
# Shear Modulus (GPa) = 25.00551 34.86156 29.93354
#
# Velocity S-wave (km/s) = 3.64378 4.30237 3.98670
# Velocity P-wave (km/s) = 6.93508 7.52086 7.23390
#
# Compressibility (1/GPa) = 0.01747041
#
# Stress axis : x y z
#
# Youngs Moduli (GPa) = 64.36545 104.66440 68.78598
#
# Poissons Ratio (x) = 0.28708 0.44477
# Poissons Ratio (y) = 0.17655 0.12864
# Poissons Ratio (z) = 0.41619 0.19574
#
# Static dielectric constant tensor:
#      x y z
#    x 3.266770 0.000000 0.034040 
#    y 0.000000 4.059280 0.000000 
#    z 0.034040 0.000000 3.290970 
# 
# 
# High freq. dielectric constant tensor:
#      x y z
#    x 1.716770 0.000000 0.002650 
#    y 0.000000 1.754950 0.000000 
#    z 0.002650 0.000000 1.720500 
# 
# From -- ./inp_files/290165.got.cif
#   From: 2010.06.25/outbox.cif.g09.slc.cpg/sg12_146_cif.got.tgz:290165.got - 2010.06.28 00:19:55.
