data_PCOD8093525
_publ_section_title
;
Structure prediction by ZEFSAII (Michael W. Deem and Ramdas Pophale) SiO2 
 PCOD8093525
Probable space group: C 2/M
;
_chemical_formula_sum "Si O2"
_cell_formula_units_Z 60
_cell_length_a 11.804607
_cell_length_b 22.501846
_cell_length_c 20.869299
_cell_angle_alpha 90.000000
_cell_angle_beta 150.066385
_cell_angle_gamma 90.000000
_cell_volume 2766.144283
_symmetry_space_group_name_H-M "C 2/M"
_symmetry_group_IT_number 12
_symmetry_cell_setting 'monoclinic'
loop_
_space_group_symop_operation_xyz
x,y,z
-x,y,-z
-x,-y,-z
x,-y,z
1/2+x,1/2+y,z
1/2-x,1/2+y,-z
1/2-x,1/2-y,-z
1/2+x,1/2-y,z
loop_
_atom_site_type_symbol
_atom_site_label
_atom_site_fract_x
_atom_site_fract_y
_atom_site_fract_z
Si Si1 0.749810 0.930776 0.725776
Si Si2 0.629468 0.247315 0.629847
Si Si3 0.750314 0.930185 0.871938
Si Si4 0.534451 0.377588 0.590829
Si Si5 0.461188 0.068025 0.848637
Si Si6 0.000000 0.636092 0.000000
Si Si7 0.342957 0.860490 0.506804
Si Si8 0.998560 0.163084 0.775727
O O1 0.673739 0.916856 0.761741
O O2 0.534418 0.908066 0.578372
O O3 0.971287 0.892752 0.812029
O O4 0.804623 0.000000 0.741363
O O5 0.500000 0.253510 0.500000
O O6 0.634429 0.312968 0.662256
O O7 0.474824 0.200044 0.592821
O O8 0.889494 0.223262 0.752207
O O9 0.595136 0.902691 0.853084
O O10 0.756831 0.000000 0.887681
O O11 0.000000 0.902279 0.000000
O O12 0.500000 0.388223 0.500000
O O13 0.696339 0.426836 0.701137
O O14 0.281568 0.386142 0.492535
O O15 0.509153 0.098099 0.939988
O O16 0.529037 0.000000 0.890727
O O17 0.763427 0.673999 0.886664
O O18 0.153026 0.851933 0.360118
#
# Coordination Sequence:
#
# PCOD8093525 Si02
#       8
#     8   8   8   8   8   4   8   8
#     4  10  20  34  57  88 120 156 202 256 307 359
#     4   8  18  36  62  87 115 152 202 254 307 360
#     4   9  18  35  56  78 110 152 201 249 291 343
#     4  11  21  37  61  90 120 156 200 244 311 373
#     4  11  24  39  58  87 124 164 204 245 297 365
#     4  12  23  42  62  84 126 172 211 244 302 372
#     4  10  19  36  56  88 121 155 197 254 308 358
#     4  10  21  38  60  87 122 160 207 256 303 357
#
# _framework density 21.690842
#
# number of rings (size 3 to 8) (size 9 to 14) (size 15 to 20)
#    0.000    2.000    1.333    3.400    0.000    4.000 
#    0.000    0.667    1.467    0.000    0.000    0.000 
#    0.000    0.000    0.000    0.000    0.000    0.000 
#
# Total GULP energy -371658.354586 kJ/mol
# GULP energy per Si atom -12388.611820 kJ/mol
# Density = 2.164147 g / cm^3
# Si number density = 21.690842 Si / 1000 Ang^3
#
#
#
# Elastic Constant Matrix: (Units=GPa)
#
#
# Indices 1 2 3 4 5 6 
#
# 1 104.0679 -3.5982 28.3918 -0.0021 18.3134 -0.0010
# 2 -3.5982 38.0575 6.0484 0.0039 3.9692 0.0029
# 3 28.3918 6.0484 97.2151 -0.0255 18.9292 -0.0212
# 4 -0.0021 0.0039 -0.0255 10.6517 -0.0042 1.8424
# 5 18.3134 3.9692 18.9292 -0.0042 43.6594 -0.0022
# 6 -0.0010 0.0029 -0.0212 1.8424 -0.0022 21.6409
#
#
#
# Elastic Compliance Matrix: (Units=1/GPa)
#
#
# Indices 1 2 3 4 5 6 
#
# 1 0.011032 0.001842 -0.002624 -0.000006 -0.003657 -0.000002
# 2 0.001842 0.026984 -0.001735 -0.000014 -0.002473 -0.000004
# 3 -0.002624 -0.001735 0.011922 0.000025 -0.003910 0.000009
# 4 -0.000006 -0.000014 0.000025 0.095285 0.000001 -0.008112
# 5 -0.003657 -0.002473 -0.003910 0.000001 0.026359 -0.000001
# 6 -0.000002 -0.000004 0.000009 -0.008112 -0.000001 0.046899
#
#
# Mechanical properties :
#
#
# Convention : Reuss Voigt Hill
#
# Bulk Modulus (GPa) = 22.27041 33.44717 27.85879
# Shear Modulus (GPa) = 20.96565 29.09031 25.02798
#
# Velocity S-wave (km/s) = 3.11234 3.66612 3.40052
# Velocity P-wave (km/s) = 4.81716 5.77703 5.31879
#
# Compressibility (1/GPa) = 0.04490263
#
# Stress axis : x y z
#
# Youngs Moduli (GPa) = 90.64231 37.05916 83.87611
#
# Poissons Ratio (x) = -0.06825 0.22013
# Poissons Ratio (y) = -0.16693 0.14553
# Poissons Ratio (z) = 0.23789 0.06430
#
# Static dielectric constant tensor:
#      x y z
#    x 4.576790 0.000000 0.404020 
#    y 0.000000 3.857380 -0.000010 
#    z 0.404020 -0.000010 4.070660 
# 
# 
# High freq. dielectric constant tensor:
#      x y z
#    x 1.869440 0.000000 0.006540 
#    y 0.000000 1.816480 0.000000 
#    z 0.006540 0.000000 1.845100 
# 
# From -- ./inp_files/307318.got.cif
#   From: 2010.06.25/outbox.cif.g09.slc.cpg/sg12_154_cif.got.tgz:307318.got - 2010.06.28 00:19:55.
