data_PCOD8093212
_publ_section_title
;
Structure prediction by ZEFSAII (Michael W. Deem and Ramdas Pophale) SiO2 
 PCOD8093212
Probable space group: C 2/M
;
_chemical_formula_sum "Si O2"
_cell_formula_units_Z 64
_cell_length_a 16.860721
_cell_length_b 16.805203
_cell_length_c 14.335789
_cell_angle_alpha 90.000000
_cell_angle_beta 126.574123
_cell_angle_gamma 90.000000
_cell_volume 3262.149974
_symmetry_space_group_name_H-M "C 2/M"
_symmetry_group_IT_number 12
_symmetry_cell_setting 'monoclinic'
loop_
_space_group_symop_operation_xyz
x,y,z
-x,y,-z
-x,-y,-z
x,-y,z
1/2+x,1/2+y,z
1/2-x,1/2+y,-z
1/2-x,1/2-y,-z
1/2+x,1/2-y,z
loop_
_atom_site_type_symbol
_atom_site_label
_atom_site_fract_x
_atom_site_fract_y
_atom_site_fract_z
Si Si1 0.679922 0.409144 0.854049
Si Si2 0.112077 0.348453 0.673143
Si Si3 0.957257 0.090915 0.730572
Si Si4 0.283062 0.406851 0.469577
Si Si5 0.233375 0.195243 0.725224
Si Si6 0.723652 0.407449 0.089681
Si Si7 0.087928 0.194655 0.125259
Si Si8 0.401212 0.908752 0.533789
O O1 0.714766 0.500000 0.870603
O O2 0.562866 0.401215 0.754571
O O3 0.739955 0.360843 0.819417
O O4 0.709442 0.373645 0.975641
O O5 0.145600 0.258093 0.680247
O O6 0.165851 0.388074 0.799161
O O7 0.139654 0.398769 0.599879
O O8 0.995419 0.351308 0.613584
O O9 0.874476 0.116608 0.598815
O O10 0.956661 0.149060 0.817914
O O11 0.939354 0.000000 0.751611
O O12 0.284906 0.500000 0.445197
O O13 0.291970 0.355872 0.382958
O O14 0.182754 0.383353 0.452650
O O15 0.340468 0.235475 0.789083
O O16 0.699926 0.500000 0.073135
O O17 0.647779 0.368016 0.106631
O O18 0.000000 0.230550 0.000000
O O19 0.433345 0.000000 0.571239
#
# Coordination Sequence:
#
# PCOD8093212 Si02
#       8
#     8   8   8   8   8   8   8   8
#     4  10  22  40  61  82 112 155 199 242 280 339
#     4  10  21  34  58  89 119 151 184 240 300 345
#     4  10  21  38  63  92 114 146 195 242 292 345
#     4  10  22  41  63  84 116 158 198 243 283 336
#     4  11  25  40  56  83 122 156 198 234 286 348
#     4  10  19  35  60  86 114 150 192 238 292 348
#     4  11  22  37  58  90 121 152 183 237 305 352
#     4  10  20  38  60  87 119 152 195 237 283 344
#
# _framework density 19.618962
#
# number of rings (size 3 to 8) (size 9 to 14) (size 15 to 20)
#    0.000    1.750    1.250    3.750    0.000    9.000 
#    2.250    1.875    0.000    0.750    0.000    0.000 
#    0.000    0.000    0.000    0.000    0.000    0.000 
#
# Total GULP energy -396902.714221 kJ/mol
# GULP energy per Si atom -12403.209819 kJ/mol
# Density = 1.957431 g / cm^3
# Si number density = 19.618962 Si / 1000 Ang^3
#
#
#
# Elastic Constant Matrix: (Units=GPa)
#
#
# Indices 1 2 3 4 5 6 
#
# 1 50.6626 21.6522 30.7471 0.0000 -4.9643 0.0000
# 2 21.6522 56.8733 32.9446 0.0000 -1.7240 0.0000
# 3 30.7471 32.9446 123.4913 0.0000 5.0432 0.0000
# 4 0.0000 0.0000 0.0000 -17.3252 0.0000 -28.8843
# 5 -4.9643 -1.7240 5.0432 0.0000 31.2923 0.0000
# 6 0.0000 0.0000 0.0000 -28.8843 0.0000 9.5850
#
#
#
# Elastic Compliance Matrix: (Units=1/GPa)
#
#
# Indices 1 2 3 4 5 6 
#
# 1 0.026100 -0.007011 -0.004813 0.000000 0.004530 0.000000
# 2 -0.007011 0.022812 -0.004375 0.000000 0.000850 0.000000
# 3 -0.004813 -0.004375 0.010574 0.000000 -0.002709 0.000000
# 4 0.000000 0.000000 0.000000 -0.009581 0.000000 -0.028874
# 5 0.004530 0.000850 -0.002709 0.000000 0.033159 0.000000
# 6 0.000000 0.000000 0.000000 -0.028874 0.000000 0.017319
#
#
# Mechanical properties :
#
#
# Convention : Reuss Voigt Hill
#
# Bulk Modulus (GPa) = 36.91692 44.63498 40.77595
# Shear Modulus (GPa) = 35.25880 14.42264 24.84072
#
# Velocity S-wave (km/s) = 4.24391 2.71428 3.56217
# Velocity P-wave (km/s) = 6.54769 5.71169 6.14393
#
# Compressibility (1/GPa) = 0.02708785
#
# Stress axis : x y z
#
# Youngs Moduli (GPa) = 38.31462 43.83654 94.57354
#
# Poissons Ratio (x) = 0.30734 0.45518
# Poissons Ratio (y) = 0.26863 0.41374
# Poissons Ratio (z) = 0.18441 0.19177
#
# Static dielectric constant tensor:
#      x y z
#    x 3.441720 0.000000 0.084330 
#    y 0.000000 3.512640 0.000000 
#    z 0.084330 0.000000 3.836170 
# 
# 
# High freq. dielectric constant tensor:
#      x y z
#    x 1.756470 0.000000 0.002840 
#    y 0.000000 1.757940 0.000000 
#    z 0.002840 0.000000 1.775460 
# 
# From -- ./inp_files/225759.got.cif
#   From: 2010.06.25/outbox.cif.g09.slc.cpg/sg12_113_cif.got.tgz:225759.got - 2010.06.28 00:19:55.
