data_PCOD8093207
_publ_section_title
;
Structure prediction by ZEFSAII (Michael W. Deem and Ramdas Pophale) SiO2 
 PCOD8093207
Probable space group: C 2/M
;
_chemical_formula_sum "Si O2"
_cell_formula_units_Z 56
_cell_length_a 24.020389
_cell_length_b 8.823439
_cell_length_c 14.187657
_cell_angle_alpha 90.000000
_cell_angle_beta 82.382192
_cell_angle_gamma 90.000000
_cell_volume 2980.428275
_symmetry_space_group_name_H-M "C 2/M"
_symmetry_group_IT_number 12
_symmetry_cell_setting 'monoclinic'
loop_
_space_group_symop_operation_xyz
x,y,z
-x,y,-z
-x,-y,-z
x,-y,z
1/2+x,1/2+y,z
1/2-x,1/2+y,-z
1/2-x,1/2-y,-z
1/2+x,1/2-y,z
loop_
_atom_site_type_symbol
_atom_site_label
_atom_site_fract_x
_atom_site_fract_y
_atom_site_fract_z
Si Si1 0.715764 0.321247 0.687072
Si Si2 0.615641 0.676153 0.843558
Si Si3 0.857098 0.323505 0.453438
Si Si4 0.165206 0.178129 0.345221
Si Si5 0.454620 0.172528 0.293999
Si Si6 0.940176 0.321385 0.977952
Si Si7 0.078805 0.675520 0.231853
O O1 0.726455 0.500000 0.678066
O O2 0.674317 0.277248 0.781802
O O3 0.690122 0.266475 0.593848
O O4 0.772977 0.234532 0.694485
O O5 0.612976 0.500000 0.863391
O O6 0.564645 0.720727 0.786517
O O7 0.609817 0.759007 0.944990
O O8 0.840986 0.500000 0.456579
O O9 0.858891 0.262952 0.558411
O O10 0.918854 0.294714 0.396066
O O11 0.125542 0.218151 0.266696
O O12 0.165615 0.000000 0.363292
O O13 0.520075 0.201273 0.300447
O O14 0.445466 0.000000 0.261162
O O15 0.940887 0.500000 0.985897
O O16 0.928555 0.270674 0.874007
O O17 0.000000 0.255054 0.000000
O O18 0.097476 0.500000 0.233986
#
# Coordination Sequence:
#
# PCOD8093207 Si02
#       7
#     8   8   8   8   8   8   8
#     4  10  21  39  60  83 112 147 189 233 277 327
#     4  10  20  33  56  88 117 142 178 233 283 324
#     4  10  20  36  61  87 111 145 188 233 277 328
#     4  12  25  39  55  79 113 151 189 233 281 332
#     4   9  18  35  58  83 112 147 188 226 271 333
#     4  10  19  35  60  86 113 147 186 225 270 332
#     4  10  21  38  58  81 113 150 188 228 272 329
#
# _framework density 18.789247
#
# number of rings (size 3 to 8) (size 9 to 14) (size 15 to 20)
#    0.000    1.857    1.429    3.000    0.000    4.286 
#    0.000    3.571    0.000    0.000    0.000    0.000 
#    0.000    0.000    0.000    0.000    0.000    0.000 
#
# Total GULP energy -347293.970989 kJ/mol
# GULP energy per Si atom -12403.356107 kJ/mol
# Density = 1.874648 g / cm^3
# Si number density = 18.789247 Si / 1000 Ang^3
#
#
#
# Elastic Constant Matrix: (Units=GPa)
#
#
# Indices 1 2 3 4 5 6 
#
# 1 82.4788 20.4499 58.3674 0.0000 6.0574 0.0000
# 2 20.4499 33.9682 25.7883 0.0000 -2.3054 0.0000
# 3 58.3674 25.7883 106.0120 0.0000 -8.9160 0.0000
# 4 0.0000 0.0000 0.0000 33.9344 0.0000 0.6426
# 5 6.0574 -2.3054 -8.9160 0.0000 22.9131 0.0000
# 6 0.0000 0.0000 0.0000 0.6426 0.0000 29.7560
#
#
#
# Elastic Compliance Matrix: (Units=1/GPa)
#
#
# Indices 1 2 3 4 5 6 
#
# 1 0.023002 -0.005248 -0.012347 0.000000 -0.011413 0.000000
# 2 -0.005248 0.037306 -0.005948 0.000000 0.002827 0.000000
# 3 -0.012347 -0.005948 0.018508 0.000000 0.009867 0.000000
# 4 0.000000 0.000000 0.000000 0.029481 0.000000 -0.000637
# 5 -0.011413 0.002827 0.009867 0.000000 0.050784 0.000000
# 6 0.000000 0.000000 0.000000 -0.000637 0.000000 0.033620
#
#
# Mechanical properties :
#
#
# Convention : Reuss Voigt Hill
#
# Bulk Modulus (GPa) = 31.51705 47.96334 39.74019
# Shear Modulus (GPa) = 19.97092 25.17761 22.57427
#
# Velocity S-wave (km/s) = 3.26374 3.66457 3.46995
# Velocity P-wave (km/s) = 5.56894 6.59454 6.10332
#
# Compressibility (1/GPa) = 0.03172886
#
# Stress axis : x y z
#
# Youngs Moduli (GPa) = 43.47530 26.80514 54.03159
#
# Poissons Ratio (x) = 0.14068 0.66714
# Poissons Ratio (y) = 0.22817 0.32136
# Poissons Ratio (z) = 0.53680 0.15943
#
# Static dielectric constant tensor:
#      x y z
#    x 3.450290 0.000000 -0.227720 
#    y 0.000000 3.428580 0.000000 
#    z -0.227720 0.000000 3.465080 
# 
# 
# High freq. dielectric constant tensor:
#      x y z
#    x 1.724200 0.000000 -0.017590 
#    y 0.000000 1.730850 0.000000 
#    z -0.017590 0.000000 1.728360 
# 
# From -- ./inp_files/230914.got.cif
#   From: 2010.06.25/outbox.cif.g09.slc.cpg/sg12_116_cif.got.tgz:230914.got - 2010.06.28 00:19:55.
