data_PCOD8093544
_publ_section_title
;
Structure prediction by ZEFSAII (Michael W. Deem and Ramdas Pophale) SiO2 
 PCOD8093544
Probable space group: C 2/M
;
_chemical_formula_sum "Si O2"
_cell_formula_units_Z 56
_cell_length_a 24.982480
_cell_length_b 13.960595
_cell_length_c 14.077703
_cell_angle_alpha 90.000000
_cell_angle_beta 143.834501
_cell_angle_gamma 90.000000
_cell_volume 2897.419292
_symmetry_space_group_name_H-M "C 2/M"
_symmetry_group_IT_number 12
_symmetry_cell_setting 'monoclinic'
loop_
_space_group_symop_operation_xyz
x,y,z
-x,y,-z
-x,-y,-z
x,-y,z
1/2+x,1/2+y,z
1/2-x,1/2+y,-z
1/2-x,1/2-y,-z
1/2+x,1/2-y,z
loop_
_atom_site_type_symbol
_atom_site_label
_atom_site_fract_x
_atom_site_fract_y
_atom_site_fract_z
Si Si1 0.696299 0.236597 0.620625
Si Si2 0.182484 0.392566 0.431524
Si Si3 0.023839 0.259501 0.145773
Si Si4 0.753562 0.608927 0.020855
Si Si5 0.135388 0.106653 0.413093
Si Si6 0.663821 0.761620 0.014644
Si Si7 0.406041 0.892319 0.395403
O O1 0.727338 0.181781 0.570090
O O2 0.641810 0.334912 0.521142
O O3 0.621355 0.166643 0.553463
O O4 0.781475 0.246739 0.810306
O O5 0.163245 0.500000 0.444601
O O6 0.089856 0.350211 0.254665
O O7 0.259091 0.400388 0.462226
O O8 0.072842 0.160537 0.246072
O O9 0.938733 0.275509 0.095926
O O10 0.000000 0.252285 0.000000
O O11 0.718649 0.500000 0.957943
O O12 0.672849 0.672131 0.953179
O O13 0.790436 0.647365 0.972580
O O14 0.837581 0.615248 0.211140
O O15 0.094920 0.000000 0.370341
O O16 0.500000 0.845310 0.500000
O O17 0.420069 0.000000 0.450539
#
# Coordination Sequence:
#
# PCOD8093544 Si02
#       7
#     8   8   8   8   8   8   8
#     4  10  19  36  57  78 110 146 186 225 281 330
#     4  10  21  37  58  84 114 146 185 231 283 339
#     4  11  22  37  59  87 118 147 186 235 287 342
#     4   9  20  37  55  81 115 151 189 232 282 331
#     4  10  22  38  55  79 113 153 192 227 270 334
#     4  10  21  36  58  85 114 150 189 232 283 339
#     4   9  18  31  54  84 110 137 179 232 284 333
#
# _framework density 19.327544
#
# number of rings (size 3 to 8) (size 9 to 14) (size 15 to 20)
#    0.000    2.143    0.000    3.857    4.000    2.857 
#    0.000    0.000    0.000    0.429    0.000    0.000 
#    0.000    0.000    0.000    0.000    0.000    0.000 
#
# Total GULP energy -346972.736098 kJ/mol
# GULP energy per Si atom -12391.883432 kJ/mol
# Density = 1.928355 g / cm^3
# Si number density = 19.327544 Si / 1000 Ang^3
#
#
#
# Elastic Constant Matrix: (Units=GPa)
#
#
# Indices 1 2 3 4 5 6 
#
# 1 82.4078 13.3178 33.9449 0.0000 3.1893 0.0000
# 2 13.3178 114.1657 31.9162 0.0000 -13.6575 0.0000
# 3 33.9449 31.9162 63.9505 0.0000 -2.3858 0.0000
# 4 0.0000 0.0000 0.0000 24.7402 0.0000 4.8391
# 5 3.1893 -13.6575 -2.3858 0.0000 25.6126 0.0000
# 6 0.0000 0.0000 0.0000 4.8391 0.0000 41.2304
#
#
#
# Elastic Compliance Matrix: (Units=1/GPa)
#
#
# Indices 1 2 3 4 5 6 
#
# 1 0.015726 0.000247 -0.008568 0.000000 -0.002625 0.000000
# 2 0.000247 0.010856 -0.005353 0.000000 0.005259 0.000000
# 3 -0.008568 -0.005353 0.022870 0.000000 0.000343 0.000000
# 4 0.000000 0.000000 0.000000 0.041370 0.000000 -0.004855
# 5 -0.002625 0.005259 0.000343 0.000000 0.042207 0.000000
# 6 0.000000 0.000000 0.000000 -0.004855 0.000000 0.024824
#
#
# Mechanical properties :
#
#
# Convention : Reuss Voigt Hill
#
# Bulk Modulus (GPa) = 45.24337 46.54243 45.89290
# Shear Modulus (GPa) = 25.96486 30.40630 28.18558
#
# Velocity S-wave (km/s) = 3.66924 3.97068 3.82293
# Velocity P-wave (km/s) = 6.43511 6.71974 6.57896
#
# Compressibility (1/GPa) = 0.02210269
#
# Stress axis : x y z
#
# Youngs Moduli (GPa) = 63.58934 92.11475 43.72632
#
# Poissons Ratio (x) = -0.02275 0.37467
# Poissons Ratio (y) = -0.01570 0.23406
# Poissons Ratio (z) = 0.54486 0.49308
#
# Static dielectric constant tensor:
#      x y z
#    x 3.874230 0.000000 0.088340 
#    y 0.000000 3.954660 0.000000 
#    z 0.088340 0.000000 3.407680 
# 
# 
# High freq. dielectric constant tensor:
#      x y z
#    x 1.752510 0.000000 -0.001020 
#    y 0.000000 1.757700 0.000000 
#    z -0.001020 0.000000 1.743800 
# 
# From -- ./inp_files/246615.got.cif
#   From: 2010.06.25/outbox.cif.g09.slc.cpg/sg12_124_cif.got.tgz:246615.got - 2010.06.28 00:19:55.
