data_PCOD8093803
_publ_section_title
;
Structure prediction by ZEFSAII (Michael W. Deem and Ramdas Pophale) SiO2 
 PCOD8093803
Probable space group: C 2/M
;
_chemical_formula_sum "Si O2"
_cell_formula_units_Z 48
_cell_length_a 27.761811
_cell_length_b 9.324831
_cell_length_c 17.259653
_cell_angle_alpha 90.000000
_cell_angle_beta 36.249290
_cell_angle_gamma 90.000000
_cell_volume 2641.973447
_symmetry_space_group_name_H-M "C 2/M"
_symmetry_group_IT_number 12
_symmetry_cell_setting 'monoclinic'
loop_
_space_group_symop_operation_xyz
x,y,z
-x,y,-z
-x,-y,-z
x,-y,z
1/2+x,1/2+y,z
1/2-x,1/2+y,-z
1/2-x,1/2-y,-z
1/2+x,1/2-y,z
loop_
_atom_site_type_symbol
_atom_site_label
_atom_site_fract_x
_atom_site_fract_y
_atom_site_fract_z
Si Si1 0.990246 0.830802 0.268255
Si Si2 0.167005 0.167401 0.621490
Si Si3 0.903742 0.161529 0.121565
Si Si4 0.277124 0.336404 0.891413
Si Si5 0.120738 0.334889 0.995687
Si Si6 0.456848 0.330175 0.631583
O O1 0.899845 0.789624 0.356668
O O2 0.998975 0.780712 0.346207
O O3 0.006173 0.000000 0.237206
O O4 0.057572 0.751640 0.129855
O O5 0.250000 0.250000 0.500000
O O6 0.131819 0.211628 0.750350
O O7 0.186119 0.000000 0.592282
O O8 0.872410 0.272425 0.098952
O O9 0.875119 0.000000 0.138143
O O10 0.000000 0.167781 0.000000
O O11 0.287113 0.500000 0.905147
O O12 0.211957 0.319189 0.908465
O O13 0.363803 0.275911 0.750219
O O14 0.250000 0.250000 0.000000
O O15 0.092623 0.500000 0.029516
O O16 0.500000 0.261300 0.500000
O O17 0.461246 0.500000 0.620137
#
# Coordination Sequence:
#
# PCOD8093803 Si02
#       6
#     8   8   8   8   8   8
#     4  10  19  36  60  80 107 154 194 227 279 342
#     4  10  22  38  58  84 112 149 190 232 281 336
#     4  10  20  38  60  81 109 148 196 232 269 337
#     4  10  20  34  55  83 112 144 184 231 278 330
#     4  11  22  33  54  89 119 144 184 241 293 329
#     4   9  18  33  56  83 109 144 190 231 269 327
#
# _framework density 18.168236
#
# number of rings (size 3 to 8) (size 9 to 14) (size 15 to 20)
#    0.000    2.000    3.333    0.500    0.000    3.667 
#    0.000    3.333    0.000    2.000    0.000    0.000 
#    0.000    0.000    0.000    0.000    0.000    0.000 
#
# Total GULP energy -297605.972169 kJ/mol
# GULP energy per Si atom -12400.248840 kJ/mol
# Density = 1.812688 g / cm^3
# Si number density = 18.168236 Si / 1000 Ang^3
#
#
#
# Elastic Constant Matrix: (Units=GPa)
#
#
# Indices 1 2 3 4 5 6 
#
# 1 145.4589 53.9552 82.2413 -0.0060 4.1749 0.0029
# 2 53.9552 57.5757 46.9386 -0.0151 1.0066 0.0127
# 3 82.2413 46.9386 163.0502 -0.0257 0.4383 0.0151
# 4 -0.0060 -0.0151 -0.0257 25.9509 0.0049 -4.5179
# 5 4.1749 1.0066 0.4383 0.0049 32.5446 -0.0019
# 6 0.0029 0.0127 0.0151 -4.5179 -0.0019 21.6903
#
#
#
# Elastic Compliance Matrix: (Units=1/GPa)
#
#
# Indices 1 2 3 4 5 6 
#
# 1 0.012074 -0.008272 -0.003705 -0.000005 -0.001243 0.000005
# 2 -0.008272 0.028374 -0.003997 0.000009 0.000237 -0.000011
# 3 -0.003705 -0.003997 0.009151 0.000005 0.000476 -0.000002
# 4 -0.000005 0.000009 0.000005 0.039984 -0.000005 0.008328
# 5 -0.001243 0.000237 0.000476 -0.000005 0.030873 0.000001
# 6 0.000005 -0.000011 -0.000002 0.008328 0.000001 0.047838
#
#
# Mechanical properties :
#
#
# Convention : Reuss Voigt Hill
#
# Bulk Modulus (GPa) = 56.65229 81.37279 69.01254
# Shear Modulus (GPa) = 24.25695 28.23381 26.24538
#
# Velocity S-wave (km/s) = 3.65791 3.94638 3.80488
# Velocity P-wave (km/s) = 7.00643 8.10253 7.57433
#
# Compressibility (1/GPa) = 0.01765154
#
# Stress axis : x y z
#
# Youngs Moduli (GPa) = 82.82419 35.24293 109.27500
#
# Poissons Ratio (x) = 0.29153 0.40489
# Poissons Ratio (y) = 0.68513 0.43673
# Poissons Ratio (z) = 0.30688 0.14085
#
# Static dielectric constant tensor:
#      x y z
#    x 3.535760 -0.000010 0.050570 
#    y -0.000010 3.289530 0.000020 
#    z 0.050570 0.000020 3.415120 
# 
# 
# High freq. dielectric constant tensor:
#      x y z
#    x 1.718040 0.000000 -0.000370 
#    y 0.000000 1.683850 0.000000 
#    z -0.000370 0.000000 1.705420 
# 
# From -- ./inp_files/222583.got.cif
#   From: 2010.06.25/outbox.cif.g09.slc.cpg/sg12_112_cif.got.tgz:222583.got - 2010.06.28 00:19:55.
