data_PCOD8093153
_publ_section_title
;
Structure prediction by ZEFSAII (Michael W. Deem and Ramdas Pophale) SiO2 
 PCOD8093153
Probable space group: C 2/M
;
_chemical_formula_sum "Si O2"
_cell_formula_units_Z 64
_cell_length_a 21.321419
_cell_length_b 15.378345
_cell_length_c 28.766377
_cell_angle_alpha 90.000000
_cell_angle_beta 159.550328
_cell_angle_gamma 90.000000
_cell_volume 3295.448173
_symmetry_space_group_name_H-M "C 2/M"
_symmetry_group_IT_number 12
_symmetry_cell_setting 'monoclinic'
loop_
_space_group_symop_operation_xyz
x,y,z
-x,y,-z
-x,-y,-z
x,-y,z
1/2+x,1/2+y,z
1/2-x,1/2+y,-z
1/2-x,1/2-y,-z
1/2+x,1/2-y,z
loop_
_atom_site_type_symbol
_atom_site_label
_atom_site_fract_x
_atom_site_fract_y
_atom_site_fract_z
Si Si1 0.523540 0.298477 0.379734
Si Si2 0.854693 0.592481 0.187945
Si Si3 0.533668 0.900346 0.217786
Si Si4 0.314521 0.876280 0.532960
Si Si5 0.846975 0.762393 0.430751
Si Si6 0.675412 0.760539 0.091166
Si Si7 0.755403 0.323339 0.963508
Si Si8 0.359706 0.598788 0.686459
O O1 0.599378 0.219304 0.401944
O O2 0.647252 0.381828 0.453100
O O3 0.538062 0.272016 0.442914
O O4 0.321706 0.314901 0.222274
O O5 0.754736 0.500000 0.108373
O O6 0.718688 0.657633 0.118874
O O7 0.931382 0.633736 0.193200
O O8 0.022603 0.564172 0.337204
O O9 0.703173 0.839058 0.325857
O O10 0.395472 0.895414 0.078855
O O11 0.597868 0.000000 0.268251
O O12 0.241811 0.904983 0.432908
O O13 0.749251 0.668212 0.357682
O O14 0.000000 0.772261 0.500000
O O15 0.500000 0.774584 0.000000
O O16 0.664486 0.792174 0.030272
O O17 0.750000 0.250000 0.000000
O O18 0.561628 0.366644 0.820971
O O19 0.358237 0.500000 0.706446
#
# Coordination Sequence:
#
# PCOD8093153 Si02
#       8
#     8   8   8   8   8   8   8   8
#     4   9  18  34  58  85 112 149 200 239 294 355
#     4  10  19  35  59  90 120 151 198 258 305 358
#     4  11  23  40  64  89 116 157 212 262 302 357
#     4   9  16  33  59  84 113 144 191 253 296 340
#     4  11  23  39  63  91 128 162 192 247 312 370
#     4  11  23  37  60  87 121 168 203 243 310 371
#     4  12  22  40  64  85 120 165 215 254 299 357
#     4  11  22  38  63  93 120 158 203 249 302 365
#
# _framework density 19.420725999999998
#
# number of rings (size 3 to 8) (size 9 to 14) (size 15 to 20)
#    0.000    1.500    5.000    0.750    1.750    0.750 
#    0.000    0.000    0.000    3.000    0.000    0.000 
#    0.000    0.000    0.000    0.000    0.000    0.000 
#
# Total GULP energy -396451.982356 kJ/mol
# GULP energy per Si atom -12389.124449 kJ/mol
# Density = 1.937652 g / cm^3
# Si number density = 19.420726 Si / 1000 Ang^3
#
#
#
# Elastic Constant Matrix: (Units=GPa)
#
#
# Indices 1 2 3 4 5 6 
#
# 1 89.2619 16.6440 43.4338 0.0266 5.9515 -0.0265
# 2 16.6440 71.2962 15.1959 -0.0205 2.7566 -0.0084
# 3 43.4338 15.1959 99.6302 0.0971 -7.7840 0.0119
# 4 0.0266 -0.0205 0.0971 13.7777 0.0468 -0.6926
# 5 5.9515 2.7566 -7.7840 0.0468 33.8339 0.0011
# 6 -0.0265 -0.0084 0.0119 -0.6926 0.0011 14.0145
#
#
#
# Elastic Compliance Matrix: (Units=1/GPa)
#
#
# Indices 1 2 3 4 5 6 
#
# 1 0.015029 -0.001955 -0.006566 0.000030 -0.003995 0.000035
# 2 -0.001955 0.014851 -0.001508 0.000041 -0.001213 0.000009
# 3 -0.006566 -0.001508 0.013472 -0.000101 0.004377 -0.000030
# 4 0.000030 0.000041 -0.000101 0.072763 -0.000133 0.003596
# 5 -0.003995 -0.001213 0.004377 -0.000133 0.031365 -0.000021
# 6 0.000035 0.000009 -0.000030 0.003596 -0.000021 0.071532
#
#
# Mechanical properties :
#
#
# Convention : Reuss Voigt Hill
#
# Bulk Modulus (GPa) = 42.92852 45.63729 44.28291
# Shear Modulus (GPa) = 20.25669 24.65287 22.45478
#
# Velocity S-wave (km/s) = 3.23312 3.56674 3.40402
# Velocity P-wave (km/s) = 6.00749 6.36494 6.18880
#
# Compressibility (1/GPa) = 0.02329454
#
# Stress axis : x y z
#
# Youngs Moduli (GPa) = 66.53976 67.33752 74.23067
#
# Poissons Ratio (x) = 0.13161 0.48738
# Poissons Ratio (y) = 0.13005 0.11193
# Poissons Ratio (z) = 0.43688 0.10153
#
# Static dielectric constant tensor:
#      x y z
#    x 3.347080 0.000150 -0.201610 
#    y 0.000150 3.581680 -0.000420 
#    z -0.201610 -0.000420 3.710160 
# 
# 
# High freq. dielectric constant tensor:
#      x y z
#    x 1.737260 0.000010 -0.018060 
#    y 0.000010 1.753420 -0.000020 
#    z -0.018060 -0.000020 1.761570 
# 
# From -- ./inp_files/381623.got.cif
#   From: 2010.06.25/outbox.cif.g09.slc.cpg/sg12_191_cif.got.tgz:381623.got - 2010.06.28 00:19:55.
