data_PCOD8093161
_publ_section_title
;
Structure prediction by ZEFSAII (Michael W. Deem and Ramdas Pophale) SiO2 
 PCOD8093161
Probable space group: C 2/M
;
_chemical_formula_sum "Si O2"
_cell_formula_units_Z 64
_cell_length_a 11.038237
_cell_length_b 29.150631
_cell_length_c 17.053999
_cell_angle_alpha 90.000000
_cell_angle_beta 146.218686
_cell_angle_gamma 90.000000
_cell_volume 3051.180461
_symmetry_space_group_name_H-M "C 2/M"
_symmetry_group_IT_number 12
_symmetry_cell_setting 'monoclinic'
loop_
_space_group_symop_operation_xyz
x,y,z
-x,y,-z
-x,-y,-z
x,-y,z
1/2+x,1/2+y,z
1/2-x,1/2+y,-z
1/2-x,1/2-y,-z
1/2+x,1/2-y,z
loop_
_atom_site_type_symbol
_atom_site_label
_atom_site_fract_x
_atom_site_fract_y
_atom_site_fract_z
Si Si1 0.023727 0.791105 0.170041
Si Si2 0.476680 0.802618 0.079154
Si Si3 0.141330 0.118900 0.153500
Si Si4 0.811990 0.715016 0.463203
Si Si5 0.430151 0.097823 0.871374
Si Si6 0.354832 0.550021 0.084233
Si Si7 0.581942 0.113208 0.455112
Si Si8 0.004626 0.050977 0.665158
O O1 0.099941 0.740948 0.181936
O O2 0.148001 0.828218 0.183665
O O3 0.090022 0.794527 0.296211
O O4 0.770824 0.801001 0.025036
O O5 0.574680 0.850132 0.164421
O O6 0.500000 0.798095 0.000000
O O7 0.392818 0.101882 0.288810
O O8 0.032085 0.087627 0.159804
O O9 0.000000 0.111256 0.000000
O O10 0.750000 0.750000 0.500000
O O11 0.867289 0.666516 0.531904
O O12 0.000000 0.730544 0.500000
O O13 0.196041 0.077062 0.720891
O O14 0.500000 0.100879 0.000000
O O15 0.615235 0.067172 0.929360
O O16 0.394317 0.500000 0.065629
O O17 0.379547 0.544626 0.189677
O O18 0.500000 0.104649 0.500000
O O19 0.785206 0.080560 0.546361
O O20 0.954400 0.000000 0.603774
#
# Coordination Sequence:
#
# PCOD8093161 Si02
#       8
#     8   8   8   8   8   8   8   8
#     4  11  22  40  59  91 128 168 216 266 323 390
#     4  10  22  33  59  90 125 167 210 264 324 387
#     4  12  24  41  64  90 131 168 215 271 328 395
#     4  11  25  42  67  93 133 176 224 271 333 394
#     4   9  18  33  56  90 126 157 203 264 323 381
#     4  10  19  35  59  91 125 163 210 266 329 389
#     4  11  22  41  64  91 128 172 211 269 334 389
#     4  10  20  35  63  94 123 162 212 270 327 395
#
# _framework density 20.975487000000001
#
# number of rings (size 3 to 8) (size 9 to 14) (size 15 to 20)
#    0.000    1.500    5.000    0.750    5.250    4.500 
#    0.000    0.000    0.000    0.000    0.000    1.750 
#    0.000    0.000    0.000    0.000    0.000    0.000 
#
# Total GULP energy -396499.680502 kJ/mol
# GULP energy per Si atom -12390.615016 kJ/mol
# Density = 2.092775 g / cm^3
# Si number density = 20.975487 Si / 1000 Ang^3
#
#
#
# Elastic Constant Matrix: (Units=GPa)
#
#
# Indices 1 2 3 4 5 6 
#
# 1 46.9227 41.7897 28.3547 0.0000 21.8342 0.0000
# 2 41.7897 146.4837 55.2288 0.0000 35.4032 0.0000
# 3 28.3547 55.2288 121.7747 -0.0001 26.2329 0.0000
# 4 0.0000 0.0000 -0.0001 21.6107 0.0000 -1.0806
# 5 21.8342 35.4032 26.2329 0.0000 36.0795 0.0000
# 6 0.0000 0.0000 0.0000 -1.0806 0.0000 24.3407
#
#
#
# Elastic Compliance Matrix: (Units=1/GPa)
#
#
# Indices 1 2 3 4 5 6 
#
# 1 0.033937 -0.005515 -0.002540 0.000000 -0.013280 0.000000
# 2 -0.005515 0.010579 -0.002367 0.000000 -0.005322 0.000000
# 3 -0.002540 -0.002367 0.010725 0.000000 -0.003938 0.000000
# 4 0.000000 0.000000 0.000000 0.046376 0.000000 0.002059
# 5 -0.013280 -0.005322 -0.003938 0.000000 0.043838 0.000000
# 6 0.000000 0.000000 0.000000 0.002059 0.000000 0.041175
#
#
# Mechanical properties :
#
#
# Convention : Reuss Voigt Hill
#
# Bulk Modulus (GPa) = 29.07236 62.88084 45.97660
# Shear Modulus (GPa) = 22.83718 29.06004 25.94861
#
# Velocity S-wave (km/s) = 3.30321 3.72617 3.52105
# Velocity P-wave (km/s) = 5.33278 6.96820 6.20461
#
# Compressibility (1/GPa) = 0.03439693
#
# Stress axis : x y z
#
# Youngs Moduli (GPa) = 29.46608 94.52951 93.23673
#
# Poissons Ratio (x) = 0.52128 0.23686
# Poissons Ratio (y) = 0.16249 0.22072
# Poissons Ratio (z) = 0.07486 0.22378
#
# Static dielectric constant tensor:
#      x y z
#    x 3.626970 0.000000 0.282970 
#    y 0.000000 4.245500 0.000000 
#    z 0.282970 0.000000 3.786200 
# 
# 
# High freq. dielectric constant tensor:
#      x y z
#    x 1.788780 0.000000 0.027530 
#    y 0.000000 1.837400 0.000000 
#    z 0.027530 0.000000 1.813160 
# 
# From -- ./inp_files/266309.got.cif
#   From: 2010.06.25/outbox.cif.g09.slc.cpg/sg12_134_cif.got.tgz:266309.got - 2010.06.28 00:19:55.
