data_PCOD8093058
_publ_section_title
;
Structure prediction by ZEFSAII (Michael W. Deem and Ramdas Pophale) SiO2 
 PCOD8093058
Probable space group: C 2/M
;
_chemical_formula_sum "Si O2"
_cell_formula_units_Z 64
_cell_length_a 15.211455
_cell_length_b 8.957727
_cell_length_c 33.001633
_cell_angle_alpha 90.000000
_cell_angle_beta 47.070955
_cell_angle_gamma 90.000000
_cell_volume 3292.550053
_symmetry_space_group_name_H-M "C 2/M"
_symmetry_group_IT_number 12
_symmetry_cell_setting 'monoclinic'
loop_
_space_group_symop_operation_xyz
x,y,z
-x,y,-z
-x,-y,-z
x,-y,z
1/2+x,1/2+y,z
1/2-x,1/2+y,-z
1/2-x,1/2-y,-z
1/2+x,1/2-y,z
loop_
_atom_site_type_symbol
_atom_site_label
_atom_site_fract_x
_atom_site_fract_y
_atom_site_fract_z
Si Si1 0.021283 0.169227 0.748540
Si Si2 0.086312 0.174791 0.936112
Si Si3 0.357926 0.174795 0.859596
Si Si4 0.863627 0.173188 0.367516
Si Si5 0.272237 0.670772 0.250847
Si Si6 0.599849 0.177596 0.437812
Si Si7 0.053452 0.676992 0.862485
Si Si8 0.567253 0.673610 0.362241
O O1 0.060995 0.244328 0.693466
O O2 0.135739 0.179973 0.741329
O O3 0.909266 0.257841 0.801936
O O4 0.977344 0.000000 0.756733
O O5 0.220041 0.225128 0.907377
O O6 0.038457 0.266369 0.912783
O O7 0.081635 0.000000 0.926986
O O8 0.000000 0.216455 0.000000
O O9 0.435218 0.228547 0.874291
O O10 0.369269 0.000000 0.851731
O O11 0.728940 0.238688 0.412752
O O12 0.931792 0.197804 0.388378
O O13 0.851180 0.000000 0.360231
O O14 0.238886 0.500000 0.251024
O O15 0.327940 0.747701 0.193635
O O16 0.154703 0.761107 0.300629
O O17 0.500000 0.240222 0.500000
O O18 0.575070 0.238361 0.401213
O O19 0.594564 0.000000 0.437396
O O20 0.069147 0.500000 0.856731
O O21 0.596880 0.500000 0.359682
#
# Coordination Sequence:
#
# PCOD8093058 Si02
#       8
#     8   8   8   8   8   8   8   8
#     4   9  17  33  57  80 110 148 185 225 277 339
#     4  10  22  40  59  81 113 153 193 232 279 337
#     4   9  20  37  55  81 114 146 185 233 280 331
#     4   9  19  36  55  82 115 149 185 227 283 338
#     4  10  19  35  59  84 114 150 191 230 276 341
#     4  10  21  41  64  81 108 154 199 234 273 334
#     4  10  21  37  57  84 116 147 186 236 288 332
#     4  11  22  35  56  86 119 149 183 234 290 334
#
# _framework density 19.437822000000001
#
# number of rings (size 3 to 8) (size 9 to 14) (size 15 to 20)
#    0.000    2.250    1.250    1.125    1.750    3.000 
#    0.000    1.875    0.000    0.000    0.000    0.000 
#    0.000    0.000    0.000    0.000    0.000    0.000 
#
# Total GULP energy -396820.619706 kJ/mol
# GULP energy per Si atom -12400.644366 kJ/mol
# Density = 1.939358 g / cm^3
# Si number density = 19.437822 Si / 1000 Ang^3
#
#
#
# Elastic Constant Matrix: (Units=GPa)
#
#
# Indices 1 2 3 4 5 6 
#
# 1 95.4668 20.7509 57.1491 0.0021 -16.4619 0.0019
# 2 20.7509 29.0709 19.5765 0.0038 -7.9415 0.0027
# 3 57.1491 19.5765 126.9002 0.0021 -24.2911 0.0013
# 4 0.0021 0.0038 0.0021 27.3396 0.0016 2.9202
# 5 -16.4619 -7.9415 -24.2911 0.0016 24.8861 0.0012
# 6 0.0019 0.0027 0.0013 2.9202 0.0012 24.9225
#
#
#
# Elastic Compliance Matrix: (Units=1/GPa)
#
#
# Indices 1 2 3 4 5 6 
#
# 1 0.015723 -0.006737 -0.005488 0.000000 0.002895 0.000000
# 2 -0.006737 0.042598 -0.002199 -0.000005 0.006990 -0.000004
# 3 -0.005488 -0.002199 0.012128 -0.000001 0.007506 0.000000
# 4 0.000000 -0.000005 -0.000001 0.037040 -0.000004 -0.004340
# 5 0.002895 0.006990 0.007506 -0.000004 0.051655 -0.000003
# 6 0.000000 -0.000004 0.000000 -0.004340 -0.000003 0.040633
#
#
# Mechanical properties :
#
#
# Convention : Reuss Voigt Hill
#
# Bulk Modulus (GPa) = 24.03792 49.59899 36.81846
# Shear Modulus (GPa) = 20.61916 25.69376 23.15646
#
# Velocity S-wave (km/s) = 3.26049 3.63966 3.45528
# Velocity P-wave (km/s) = 5.15440 6.57533 5.90774
#
# Compressibility (1/GPa) = 0.04160093
#
# Stress axis : x y z
#
# Youngs Moduli (GPa) = 63.59932 23.47507 82.45695
#
# Poissons Ratio (x) = 0.15816 0.45249
# Poissons Ratio (y) = 0.42849 0.18135
# Poissons Ratio (z) = 0.34901 0.05163
#
# Static dielectric constant tensor:
#      x y z
#    x 3.644610 0.000000 -0.146600 
#    y 0.000000 3.411150 0.000000 
#    z -0.146600 0.000000 3.655710 
# 
# 
# High freq. dielectric constant tensor:
#      x y z
#    x 1.763470 0.000000 -0.001990 
#    y 0.000000 1.740750 0.000000 
#    z -0.001990 0.000000 1.755850 
# 
# From -- ./inp_files/359780.got.cif
#   From: 2010.06.25/outbox.cif.g09.slc.cpg/sg12_180_cif.got.tgz:359780.got - 2010.06.28 00:19:55.
