data_PCOD8093008
_publ_section_title
;
Structure prediction by ZEFSAII (Michael W. Deem and Ramdas Pophale) SiO2 
 PCOD8093008
Probable space group: C 2/M
;
_chemical_formula_sum "Si O2"
_cell_formula_units_Z 64
_cell_length_a 20.424935
_cell_length_b 9.062142
_cell_length_c 22.189729
_cell_angle_alpha 90.000000
_cell_angle_beta 124.068175
_cell_angle_gamma 90.000000
_cell_volume 3402.269823
_symmetry_space_group_name_H-M "C 2/M"
_symmetry_group_IT_number 12
_symmetry_cell_setting 'monoclinic'
loop_
_space_group_symop_operation_xyz
x,y,z
-x,y,-z
-x,-y,-z
x,-y,z
1/2+x,1/2+y,z
1/2-x,1/2+y,-z
1/2-x,1/2-y,-z
1/2+x,1/2-y,z
loop_
_atom_site_type_symbol
_atom_site_label
_atom_site_fract_x
_atom_site_fract_y
_atom_site_fract_z
Si Si1 0.685666 0.328423 0.581020
Si Si2 0.228927 0.825212 0.051751
Si Si3 0.576943 0.825614 0.430161
Si Si4 0.632953 0.173317 0.328021
Si Si5 0.414258 0.329442 0.353884
Si Si6 0.641178 0.327559 0.806526
Si Si7 0.049661 0.174768 0.970118
Si Si8 0.506039 0.674010 0.187401
O O1 0.677365 0.500000 0.560025
O O2 0.644225 0.234508 0.508310
O O3 0.776294 0.278290 0.629869
O O4 0.647953 0.293219 0.626183
O O5 0.284696 0.767519 0.133581
O O6 0.237454 0.000000 0.048637
O O7 0.250000 0.750000 0.000000
O O8 0.140483 0.778275 0.024128
O O9 0.597173 0.773223 0.373116
O O10 0.492387 0.764273 0.406476
O O11 0.575628 0.000000 0.434756
O O12 0.586906 0.252028 0.250338
O O13 0.623195 0.000000 0.314703
O O14 0.439751 0.500000 0.366703
O O15 0.373301 0.285720 0.270174
O O16 0.659959 0.500000 0.825378
O O17 0.564664 0.279683 0.804776
O O18 0.014383 0.236012 0.889344
O O19 0.042183 0.000000 0.965687
O O20 0.000000 0.242849 0.000000
O O21 0.518310 0.500000 0.193834
#
# Coordination Sequence:
#
# PCOD8093008 Si02
#       8
#     8   8   8   8   8   8   8   8
#     4  10  22  39  57  79 111 150 185 224 278 335
#     4  11  21  35  58  85 112 146 185 228 274 323
#     4  11  22  36  57  84 112 143 183 234 278 322
#     4  10  22  38  56  82 113 144 183 228 277 328
#     4  10  21  38  59  80 109 149 187 225 275 335
#     4  10  20  36  57  84 112 143 187 230 272 327
#     4   9  19  36  56  81 113 146 181 221 270 327
#     4  10  19  35  59  82 108 146 186 224 271 328
#
# _framework density 18.810970999999999
#
# number of rings (size 3 to 8) (size 9 to 14) (size 15 to 20)
#    0.000    1.875    2.500    1.500    0.000    5.000 
#    0.000    0.000    0.000    2.625    0.000    0.000 
#    0.000    0.000    0.000    0.000    0.000    0.000 
#
# Total GULP energy -396945.869037 kJ/mol
# GULP energy per Si atom -12404.558407 kJ/mol
# Density = 1.876816 g / cm^3
# Si number density = 18.810971 Si / 1000 Ang^3
#
#
#
# Elastic Constant Matrix: (Units=GPa)
#
#
# Indices 1 2 3 4 5 6 
#
# 1 113.9969 38.1513 57.5425 0.0000 10.4659 0.0000
# 2 38.1513 49.1082 48.9234 0.0000 8.9280 0.0000
# 3 57.5425 48.9234 151.5959 0.0000 14.3706 0.0000
# 4 0.0000 0.0000 0.0000 37.5337 0.0000 8.0260
# 5 10.4659 8.9280 14.3706 0.0000 31.6752 0.0000
# 6 0.0000 0.0000 0.0000 8.0260 0.0000 16.6635
#
#
#
# Elastic Compliance Matrix: (Units=1/GPa)
#
#
# Indices 1 2 3 4 5 6 
#
# 1 0.012432 -0.007172 -0.002306 0.000000 -0.001040 0.000000
# 2 -0.007172 0.034707 -0.008125 0.000000 -0.003727 0.000000
# 3 -0.002306 -0.008125 0.010245 0.000000 -0.001596 0.000000
# 4 0.000000 0.000000 0.000000 0.029702 0.000000 -0.014306
# 5 -0.001040 -0.003727 -0.001596 0.000000 0.033689 0.000000
# 6 0.000000 0.000000 0.000000 -0.014306 0.000000 0.066902
#
#
# Mechanical properties :
#
#
# Convention : Reuss Voigt Hill
#
# Bulk Modulus (GPa) = 45.08890 67.10392 56.09641
# Shear Modulus (GPa) = 21.71322 28.51340 25.11331
#
# Velocity S-wave (km/s) = 3.40116 3.89753 3.65778
# Velocity P-wave (km/s) = 6.28056 7.48362 6.90833
#
# Compressibility (1/GPa) = 0.02217841
#
# Stress axis : x y z
#
# Youngs Moduli (GPa) = 80.43949 28.81259 97.60711
#
# Poissons Ratio (x) = 0.20664 0.22505
# Poissons Ratio (y) = 0.57690 0.79308
# Poissons Ratio (z) = 0.18547 0.23411
#
# Static dielectric constant tensor:
#      x y z
#    x 3.636560 0.000000 -0.040360 
#    y 0.000000 3.263050 0.000000 
#    z -0.040360 0.000000 3.625930 
# 
# 
# High freq. dielectric constant tensor:
#      x y z
#    x 1.736590 0.000000 0.000480 
#    y 0.000000 1.713520 0.000000 
#    z 0.000480 0.000000 1.745140 
# 
# From -- ./inp_files/346148.got.cif
#   From: 2010.06.25/outbox.cif.g09.slc.cpg/sg12_174_cif.got.tgz:346148.got - 2010.06.28 00:19:55.
