data_PCOD8093385
_publ_section_title
;
Structure prediction by ZEFSAII (Michael W. Deem and Ramdas Pophale) SiO2 
 PCOD8093385
Probable space group: C 2/M
;
_chemical_formula_sum "Si O2"
_cell_formula_units_Z 64
_cell_length_a 14.814793
_cell_length_b 18.117561
_cell_length_c 11.746311
_cell_angle_alpha 90.000000
_cell_angle_beta 86.066098
_cell_angle_gamma 90.000000
_cell_volume 3145.374408
_symmetry_space_group_name_H-M "C 2/M"
_symmetry_group_IT_number 12
_symmetry_cell_setting 'monoclinic'
loop_
_space_group_symop_operation_xyz
x,y,z
-x,y,-z
-x,-y,-z
x,-y,z
1/2+x,1/2+y,z
1/2-x,1/2+y,-z
1/2-x,1/2-y,-z
1/2+x,1/2-y,z
loop_
_atom_site_type_symbol
_atom_site_label
_atom_site_fract_x
_atom_site_fract_y
_atom_site_fract_z
Si Si1 0.327576 0.084762 0.836394
Si Si2 0.715427 0.586964 0.480159
Si Si3 0.329266 0.585998 0.763379
Si Si4 0.009569 0.166189 0.135688
Si Si5 0.848901 0.912414 0.275644
Si Si6 0.081700 0.585465 0.579572
Si Si7 0.009858 0.333160 0.796583
Si Si8 0.351033 0.917426 0.090643
O O1 0.239821 0.116282 0.781471
O O2 0.411651 0.132572 0.789520
O O3 0.346766 0.000000 0.800723
O O4 0.308035 0.094686 0.971060
O O5 0.707513 0.500000 0.478538
O O6 0.668955 0.615657 0.367326
O O7 0.658901 0.617541 0.593497
O O8 0.821801 0.607329 0.484580
O O9 0.357330 0.500000 0.771062
O O10 0.393101 0.634355 0.838397
O O11 0.226526 0.598065 0.811138
O O12 0.935926 0.115828 0.202841
O O13 0.998251 0.246330 0.190219
O O14 0.000000 0.165533 0.000000
O O15 0.853475 0.000000 0.272767
O O16 0.083387 0.500000 0.622036
O O17 0.069220 0.641858 0.684132
O O18 0.000000 0.597920 0.500000
O O19 0.063332 0.363519 0.902354
O O20 0.389288 0.000000 0.100559
#
# Coordination Sequence:
#
# PCOD8093385 Si02
#       8
#     8   8   8   8   8   8   8   8
#     4  10  20  35  60  91 121 155 201 255 304 356
#     4   9  18  37  65  94 118 147 197 257 314 361
#     4  10  21  40  66  90 115 157 211 264 309 357
#     4  12  27  43  59  85 124 171 211 252 309 366
#     4  10  22  42  66  91 118 155 208 264 308 357
#     4  10  19  36  65  96 128 163 200 247 302 366
#     4  12  23  38  57  91 129 164 199 242 305 378
#     4  10  19  35  62  91 118 155 202 253 305 359
#
# _framework density 20.347339000000002
#
# number of rings (size 3 to 8) (size 9 to 14) (size 15 to 20)
#    0.000    1.625    1.250    4.125    0.000    6.500 
#    2.250    5.000    0.000    0.000    0.000    0.000 
#    0.000    0.000    0.000    0.000    0.000    0.000 
#
# Total GULP energy -396786.742566 kJ/mol
# GULP energy per Si atom -12399.585705 kJ/mol
# Density = 2.030103 g / cm^3
# Si number density = 20.347339 Si / 1000 Ang^3
#
#
#
# Elastic Constant Matrix: (Units=GPa)
#
#
# Indices 1 2 3 4 5 6 
#
# 1 60.8465 19.4027 12.5208 0.0000 6.5462 0.0000
# 2 19.4027 60.2423 19.6181 0.0000 6.9889 0.0000
# 3 12.5208 19.6181 96.7188 0.0000 -2.9388 0.0000
# 4 0.0000 0.0000 0.0000 33.0280 0.0000 -4.1648
# 5 6.5462 6.9889 -2.9388 0.0000 39.1438 0.0000
# 6 0.0000 0.0000 0.0000 -4.1648 0.0000 4.1357
#
#
#
# Elastic Compliance Matrix: (Units=1/GPa)
#
#
# Indices 1 2 3 4 5 6 
#
# 1 0.018656 -0.005284 -0.001413 0.000000 -0.002283 0.000000
# 2 -0.005284 0.019748 -0.003410 0.000000 -0.002898 0.000000
# 3 -0.001413 -0.003410 0.011265 0.000000 0.001691 0.000000
# 4 0.000000 0.000000 0.000000 0.034682 0.000000 0.034926
# 5 -0.002283 -0.002898 0.001691 0.000000 0.026573 0.000000
# 6 0.000000 0.000000 0.000000 0.034926 0.000000 0.276972
#
#
# Mechanical properties :
#
#
# Convention : Reuss Voigt Hill
#
# Bulk Modulus (GPa) = 33.94811 35.65453 34.80132
# Shear Modulus (GPa) = 11.96382 26.34590 19.15486
#
# Velocity S-wave (km/s) = 2.42746 3.60225 3.07154
# Velocity P-wave (km/s) = 4.95755 5.90445 5.45160
#
# Compressibility (1/GPa) = 0.02945672
#
# Stress axis : x y z
#
# Youngs Moduli (GPa) = 53.60212 50.63794 88.76959
#
# Poissons Ratio (x) = 0.26756 0.12541
# Poissons Ratio (y) = 0.28322 0.30268
# Poissons Ratio (z) = 0.07573 0.17266
#
# Static dielectric constant tensor:
#      x y z
#    x 3.724950 0.000000 0.044230 
#    y 0.000000 3.415460 0.000000 
#    z 0.044230 0.000000 4.048300 
# 
# 
# High freq. dielectric constant tensor:
#      x y z
#    x 1.801780 0.000000 0.002600 
#    y 0.000000 1.759470 0.000000 
#    z 0.002600 0.000000 1.812070 
# 
# From -- ./inp_files/146158.got.cif
#   From: 2010.06.25/outbox.cif.g09.slc.cpg/sg12_74_cif.got.tgz:146158.got - 2010.06.28 00:19:55.
