data_PCOD8093654
_publ_section_title
;
Structure prediction by ZEFSAII (Michael W. Deem and Ramdas Pophale) SiO2 
 PCOD8093654
Probable space group: C 2/M
;
_chemical_formula_sum "Si O2"
_cell_formula_units_Z 52
_cell_length_a 19.589385
_cell_length_b 12.692498
_cell_length_c 11.954565
_cell_angle_alpha 90.000000
_cell_angle_beta 115.651211
_cell_angle_gamma 90.000000
_cell_volume 2679.423633
_symmetry_space_group_name_H-M "C 2/M"
_symmetry_group_IT_number 12
_symmetry_cell_setting 'monoclinic'
loop_
_space_group_symop_operation_xyz
x,y,z
-x,y,-z
-x,-y,-z
x,-y,z
1/2+x,1/2+y,z
1/2-x,1/2+y,-z
1/2-x,1/2-y,-z
1/2+x,1/2-y,z
loop_
_atom_site_type_symbol
_atom_site_label
_atom_site_fract_x
_atom_site_fract_y
_atom_site_fract_z
Si Si1 0.459749 0.810692 0.135695
Si Si2 0.011061 0.880846 0.289558
Si Si3 0.887829 0.376812 0.856615
Si Si4 0.123454 0.378225 0.701844
Si Si5 0.000000 0.258294 0.500000
Si Si6 0.681223 0.616620 0.446037
Si Si7 0.239727 0.753709 0.674259
O O1 0.468541 0.684663 0.162055
O O2 0.543731 0.861009 0.182979
O O3 0.417929 0.866631 0.208804
O O4 0.410609 0.826727 0.990879
O O5 0.999138 0.818715 0.394905
O O6 0.100008 0.883036 0.328696
O O7 0.977968 0.000000 0.271670
O O8 0.871269 0.500000 0.859478
O O9 0.812223 0.319288 0.764263
O O10 0.144443 0.500000 0.697812
O O11 0.199622 0.305886 0.750149
O O12 0.071297 0.337122 0.562394
O O13 0.710723 0.500000 0.488643
O O14 0.739858 0.667357 0.403079
O O15 0.680178 0.670177 0.568266
#
# Coordination Sequence:
#
# PCOD8093654 Si02
#       7
#     8   8   8   8   4   8   8
#     4  10  22  41  61  88 115 152 206 250 291 348
#     4  10  19  36  58  84 116 151 189 239 294 345
#     4  11  22  41  65  86 114 157 203 251 292 344
#     4  11  22  37  59  88 122 158 192 246 301 347
#     4  10  20  36  56  88 118 154 198 236 290 354
#     4  10  20  36  55  81 118 153 188 236 290 350
#     4  11  22  37  57  91 119 154 196 240 296 360
#
# _framework density 19.407159
#
# number of rings (size 3 to 8) (size 9 to 14) (size 15 to 20)
#    0.000    1.538    3.077    3.231    0.000    0.615 
#    0.000    8.462    0.000    0.000    0.000    0.000 
#    0.000    0.000    0.000    0.000    0.000    0.000 
#
# Total GULP energy -322316.887271 kJ/mol
# GULP energy per Si atom -12396.803357 kJ/mol
# Density = 1.936299 g / cm^3
# Si number density = 19.407159 Si / 1000 Ang^3
#
#
#
# Elastic Constant Matrix: (Units=GPa)
#
#
# Indices 1 2 3 4 5 6 
#
# 1 92.4409 48.5206 44.2063 0.0000 -5.9300 0.0000
# 2 48.5206 163.3334 62.2018 0.0000 -4.6235 0.0000
# 3 44.2063 62.2018 74.6657 0.0000 -8.3507 0.0000
# 4 0.0000 0.0000 0.0000 25.5455 0.0000 3.2074
# 5 -5.9300 -4.6235 -8.3507 0.0000 23.6545 0.0000
# 6 0.0000 0.0000 0.0000 3.2074 0.0000 25.1618
#
#
#
# Elastic Compliance Matrix: (Units=1/GPa)
#
#
# Indices 1 2 3 4 5 6 
#
# 1 0.015390 -0.001631 -0.007660 0.000000 0.000835 0.000000
# 2 -0.001631 0.009160 -0.006778 0.000000 -0.001011 0.000000
# 3 -0.007660 -0.006778 0.024166 0.000000 0.005286 0.000000
# 4 0.000000 0.000000 0.000000 0.039783 0.000000 -0.005071
# 5 0.000835 -0.001011 0.005286 0.000000 0.044153 0.000000
# 6 0.000000 0.000000 0.000000 -0.005071 0.000000 0.040389
#
#
# Mechanical properties :
#
#
# Convention : Reuss Voigt Hill
#
# Bulk Modulus (GPa) = 60.32060 71.14415 65.73238
# Shear Modulus (GPa) = 23.72992 26.57310 25.15151
#
# Velocity S-wave (km/s) = 3.50056 3.70434 3.60389
# Velocity P-wave (km/s) = 6.89113 7.41852 7.15969
#
# Compressibility (1/GPa) = 0.01657808
#
# Stress axis : x y z
#
# Youngs Moduli (GPa) = 64.97521 109.17454 41.38108
#
# Poissons Ratio (x) = 0.17810 0.31696
# Poissons Ratio (y) = 0.10600 0.28048
# Poissons Ratio (z) = 0.49768 0.73997
#
# Static dielectric constant tensor:
#      x y z
#    x 3.495080 0.000000 0.005390 
#    y 0.000000 3.817280 0.000000 
#    z 0.005390 0.000000 3.495610 
# 
# 
# High freq. dielectric constant tensor:
#      x y z
#    x 1.753770 0.000000 -0.001010 
#    y 0.000000 1.771980 0.000000 
#    z -0.001010 0.000000 1.737930 
# 
# From -- ./inp_files/165759.got.cif
#   From: 2010.06.25/outbox.cif.g09.slc.cpg/sg12_83_cif.got.tgz:165759.got - 2010.06.28 00:19:55.
