data_PCOD8093812
_publ_section_title
;
Structure prediction by ZEFSAII (Michael W. Deem and Ramdas Pophale) SiO2 
 PCOD8093812
Probable space group: C 2/M
;
_chemical_formula_sum "Si O2"
_cell_formula_units_Z 48
_cell_length_a 19.240851
_cell_length_b 12.420460
_cell_length_c 12.176707
_cell_angle_alpha 90.000000
_cell_angle_beta 67.349548
_cell_angle_gamma 90.000000
_cell_volume 2685.548696
_symmetry_space_group_name_H-M "C 2/M"
_symmetry_group_IT_number 12
_symmetry_cell_setting 'monoclinic'
loop_
_space_group_symop_operation_xyz
x,y,z
-x,y,-z
-x,-y,-z
x,-y,z
1/2+x,1/2+y,z
1/2-x,1/2+y,-z
1/2-x,1/2-y,-z
1/2+x,1/2-y,z
loop_
_atom_site_type_symbol
_atom_site_label
_atom_site_fract_x
_atom_site_fract_y
_atom_site_fract_z
Si Si1 0.672493 0.373936 0.875329
Si Si2 0.833228 0.722300 0.488596
Si Si3 0.590841 0.625036 0.146959
Si Si4 0.404440 0.000000 0.437631
Si Si5 0.334756 0.207109 0.747207
Si Si6 0.581604 0.625622 0.715878
Si Si7 0.074319 0.500000 0.316065
O O1 0.690777 0.500000 0.861218
O O2 0.749736 0.309733 0.838035
O O3 0.631150 0.338598 0.789415
O O4 0.619794 0.342189 0.009011
O O5 0.750000 0.750000 0.500000
O O6 0.856807 0.604328 0.429780
O O7 0.838952 0.725570 0.615335
O O8 0.891724 0.809644 0.407037
O O9 0.604168 0.500000 0.161365
O O10 0.636168 0.685840 0.213172
O O11 0.503694 0.655969 0.205349
O O12 0.487061 0.000000 0.331355
O O13 0.416627 0.000000 0.559494
O O14 0.385531 0.106418 0.755529
O O15 0.591235 0.500000 0.684287
#
# Coordination Sequence:
#
# PCOD8093812 Si02
#       7
#     8   8   8   4   8   8   4
#     4  10  19  36  60  82 106 145 191 231 264 314
#     4  11  22  35  56  82 112 147 181 225 278 327
#     4  10  22  37  55  83 114 146 180 223 279 332
#     4   9  20  34  52  77 110 139 185 220 265 327
#     4  11  20  35  58  81 112 141 183 229 276 324
#     4  10  21  37  59  82 111 144 184 227 273 329
#     4   9  18  34  56  79  99 141 183 231 265 309
#
# _framework density 17.873443000000002
#
# number of rings (size 3 to 8) (size 9 to 14) (size 15 to 20)
#    0.000    1.833    2.500    2.000    1.167    4.667 
#    0.000    1.667    0.000    0.000    0.000    3.500 
#    0.000    0.000    0.000    0.000    0.000    0.000 
#
# Total GULP energy -297682.971716 kJ/mol
# GULP energy per Si atom -12403.457155 kJ/mol
# Density = 1.783276 g / cm^3
# Si number density = 17.873443 Si / 1000 Ang^3
#
#
#
# Elastic Constant Matrix: (Units=GPa)
#
#
# Indices 1 2 3 4 5 6 
#
# 1 118.3114 57.6953 32.2828 0.0000 -25.1449 0.0000
# 2 57.6953 78.5044 42.7071 0.0000 -11.6761 0.0000
# 3 32.2828 42.7071 83.7518 0.0000 -21.6916 0.0000
# 4 0.0000 0.0000 0.0000 30.0632 0.0000 -2.3521
# 5 -25.1449 -11.6761 -21.6916 0.0000 34.5209 0.0000
# 6 0.0000 0.0000 0.0000 -2.3521 0.0000 34.1434
#
#
#
# Elastic Compliance Matrix: (Units=1/GPa)
#
#
# Indices 1 2 3 4 5 6 
#
# 1 0.015002 -0.010812 0.001928 0.000000 0.008481 0.000000
# 2 -0.010812 0.025425 -0.010283 0.000000 -0.005738 0.000000
# 3 0.001928 -0.010283 0.018995 0.000000 0.009862 0.000000
# 4 0.000000 0.000000 0.000000 0.033444 0.000000 0.002304
# 5 0.008481 -0.005738 0.009862 0.000000 0.039402 0.000000
# 6 0.000000 0.000000 0.000000 0.002304 0.000000 0.029447
#
#
# Mechanical properties :
#
#
# Convention : Reuss Voigt Hill
#
# Bulk Modulus (GPa) = 47.42550 60.65976 54.04263
# Shear Modulus (GPa) = 24.14543 29.60431 26.87487
#
# Velocity S-wave (km/s) = 3.67946 4.07422 3.88186
# Velocity P-wave (km/s) = 6.68154 7.49296 7.09885
#
# Compressibility (1/GPa) = 0.02108570
#
# Stress axis : x y z
#
# Youngs Moduli (GPa) = 66.65990 39.33089 52.64571
#
# Poissons Ratio (x) = 0.42526 -0.10148
# Poissons Ratio (y) = 0.72075 0.54137
# Poissons Ratio (z) = -0.12850 0.40445
#
# Static dielectric constant tensor:
#      x y z
#    x 3.359730 0.000000 -0.206620 
#    y 0.000000 3.339720 0.000000 
#    z -0.206620 0.000000 3.338040 
# 
# 
# High freq. dielectric constant tensor:
#      x y z
#    x 1.700250 0.000000 -0.019660 
#    y 0.000000 1.688420 0.000000 
#    z -0.019660 0.000000 1.687760 
# 
# From -- ./inp_files/154229.got.cif
#   From: 2010.06.25/outbox.cif.g09.slc.cpg/sg12_78_cif.got.tgz:154229.got - 2010.06.28 00:19:55.
