data_PCOD8093599
_publ_section_title
;
Structure prediction by ZEFSAII (Michael W. Deem and Ramdas Pophale) SiO2 
 PCOD8093599
Probable space group: C 2/M
;
_chemical_formula_sum "Si O2"
_cell_formula_units_Z 56
_cell_length_a 20.386366
_cell_length_b 9.051908
_cell_length_c 23.111184
_cell_angle_alpha 90.000000
_cell_angle_beta 45.992596
_cell_angle_gamma 90.000000
_cell_volume 3067.482055
_symmetry_space_group_name_H-M "C 2/M"
_symmetry_group_IT_number 12
_symmetry_cell_setting 'monoclinic'
loop_
_space_group_symop_operation_xyz
x,y,z
-x,y,-z
-x,-y,-z
x,-y,z
1/2+x,1/2+y,z
1/2-x,1/2+y,-z
1/2-x,1/2-y,-z
1/2+x,1/2-y,z
loop_
_atom_site_type_symbol
_atom_site_label
_atom_site_fract_x
_atom_site_fract_y
_atom_site_fract_z
Si Si1 0.722290 0.671150 0.148086
Si Si2 0.623717 0.675097 0.652955
Si Si3 0.309430 0.170107 0.599347
Si Si4 0.177653 0.173109 0.003013
Si Si5 0.553870 0.327542 0.176811
Si Si6 0.052273 0.671331 0.586050
Si Si7 0.362550 0.671848 0.681416
O O1 0.735924 0.500000 0.124839
O O2 0.811301 0.757234 0.068008
O O3 0.631816 0.735923 0.171883
O O4 0.712629 0.698346 0.222383
O O5 0.619307 0.500000 0.646385
O O6 0.720140 0.723668 0.619941
O O7 0.544900 0.735873 0.744908
O O8 0.612908 0.751391 0.597708
O O9 0.397943 0.192769 0.505634
O O10 0.318534 0.270704 0.649815
O O11 0.299923 0.000000 0.624574
O O12 0.197055 0.000000 0.987915
O O13 0.250000 0.250000 0.000000
O O14 0.078795 0.204699 0.093827
O O15 0.550398 0.500000 0.190779
O O16 0.041700 0.500000 0.608044
O O17 0.953622 0.742773 0.642202
O O18 0.387279 0.500000 0.660667
#
# Coordination Sequence:
#
# PCOD8093599 Si02
#       7
#     8   8   8   8   8   8   8
#     4   9  17  31  49  73 101 131 171 216 258 306
#     4  10  19  36  58  77 105 144 178 211 262 317
#     4  10  23  38  53  77 109 141 174 220 269 313
#     4   9  16  26  44  73 105 133 164 209 257 304
#     4   8  14  28  49  73 101 130 168 210 248 302
#     4  11  22  36  54  80 109 134 174 227 268 310
#     4  11  22  37  57  77 103 141 182 220 263 319
#
# _framework density 18.256015999999999
#
# number of rings (size 3 to 8) (size 9 to 14) (size 15 to 20)
#    0.000    2.286    1.429    3.000    0.000    4.571 
#    0.000    0.714    0.000    0.857    0.000    6.000 
#    0.000    0.000    0.000    0.000    0.000    0.000 
#
# Total GULP energy -347074.023442 kJ/mol
# GULP energy per Si atom -12395.500837 kJ/mol
# Density = 1.821446 g / cm^3
# Si number density = 18.256016 Si / 1000 Ang^3
#
#
#
# Elastic Constant Matrix: (Units=GPa)
#
#
# Indices 1 2 3 4 5 6 
#
# 1 74.0680 35.5345 25.3080 -0.0001 18.1507 0.0002
# 2 35.5345 77.0769 46.1622 -0.0002 13.5706 0.0006
# 3 25.3080 46.1622 99.8820 0.0000 20.7461 0.0001
# 4 -0.0001 -0.0002 0.0000 30.5969 0.0000 6.7696
# 5 18.1507 13.5706 20.7461 0.0000 19.2560 -0.0002
# 6 0.0002 0.0006 0.0001 6.7696 -0.0002 26.2172
#
#
#
# Elastic Compliance Matrix: (Units=1/GPa)
#
#
# Indices 1 2 3 4 5 6 
#
# 1 0.020442 -0.007627 0.001586 0.000000 -0.015602 0.000000
# 2 -0.007627 0.021134 -0.008032 0.000000 0.000949 0.000000
# 3 0.001586 -0.008032 0.016048 0.000000 -0.013125 0.000000
# 4 0.000000 0.000000 0.000000 0.034663 0.000000 -0.008950
# 5 -0.015602 0.000949 -0.013125 0.000000 0.080110 0.000001
# 6 0.000000 0.000000 0.000000 -0.008950 0.000001 0.040454
#
#
# Mechanical properties :
#
#
# Convention : Reuss Voigt Hill
#
# Bulk Modulus (GPa) = 33.92386 51.67070 42.79728
# Shear Modulus (GPa) = 19.93443 24.81550 22.37497
#
# Velocity S-wave (km/s) = 3.30803 3.69088 3.50469
# Velocity P-wave (km/s) = 5.76311 6.82116 6.31434
#
# Compressibility (1/GPa) = 0.02947778
#
# Stress axis : x y z
#
# Youngs Moduli (GPa) = 48.91968 47.31786 62.31288
#
# Poissons Ratio (x) = 0.36090 -0.09884
# Poissons Ratio (y) = 0.37312 0.50049
# Poissons Ratio (z) = -0.07760 0.38005
#
# Static dielectric constant tensor:
#      x y z
#    x 3.116450 0.000000 0.041920 
#    y 0.000000 3.349460 0.000000 
#    z 0.041920 0.000000 3.934100 
# 
# 
# High freq. dielectric constant tensor:
#      x y z
#    x 1.667020 0.000000 0.007390 
#    y 0.000000 1.699610 0.000000 
#    z 0.007390 0.000000 1.729510 
# 
# From -- ./inp_files/348485.got.cif
#   From: 2010.06.25/outbox.cif.g09.slc.cpg/sg12_175_cif.got.tgz:348485.got - 2010.06.28 00:19:55.
