data_PCOD8093762
_publ_section_title
;
Structure prediction by ZEFSAII (Michael W. Deem and Ramdas Pophale) SiO2 
 PCOD8093762
Probable space group: C 2/M
;
_chemical_formula_sum "Si O2"
_cell_formula_units_Z 64
_cell_length_a 14.464332
_cell_length_b 9.805562
_cell_length_c 28.977423
_cell_angle_alpha 90.000000
_cell_angle_beta 126.302031
_cell_angle_gamma 90.000000
_cell_volume 3312.193647
_symmetry_space_group_name_H-M "C 2/M"
_symmetry_group_IT_number 12
_symmetry_cell_setting 'monoclinic'
loop_
_space_group_symop_operation_xyz
x,y,z
-x,y,-z
-x,-y,-z
x,-y,z
1/2+x,1/2+y,z
1/2-x,1/2+y,-z
1/2-x,1/2-y,-z
1/2+x,1/2-y,z
loop_
_atom_site_type_symbol
_atom_site_label
_atom_site_fract_x
_atom_site_fract_y
_atom_site_fract_z
Si Si1 0.832243 0.657825 0.731857
Si Si2 0.115638 0.343406 0.063217
Si Si3 0.380626 0.154294 0.345394
Si Si4 0.074964 0.346200 0.336287
Si Si5 0.779337 0.334846 0.054144
Si Si6 0.559618 0.245791 0.471061
Si Si7 0.297800 0.356043 0.565855
Si Si8 0.460511 0.159511 0.858193
O O1 0.796383 0.500000 0.727959
O O2 0.722451 0.740401 0.682892
O O3 0.926965 0.672941 0.719413
O O4 0.886858 0.723342 0.794419
O O5 0.163057 0.500000 0.073745
O O6 0.202022 0.227346 0.071668
O O7 0.092807 0.298622 0.108809
O O8 0.000000 0.334524 0.000000
O O9 0.451024 0.193409 0.319818
O O10 0.460973 0.166679 0.413913
O O11 0.333398 0.000000 0.328775
O O12 0.104963 0.500000 0.359145
O O13 0.175850 0.260888 0.389806
O O14 0.762122 0.500000 0.042788
O O15 0.908079 0.294906 0.105703
O O16 0.750000 0.250000 0.000000
O O17 0.500000 0.307341 0.500000
O O18 0.621084 0.355702 0.455931
O O19 0.663133 0.143713 0.513988
O O20 0.323116 0.500000 0.597880
O O21 0.456117 0.000000 0.850123
#
# Coordination Sequence:
#
# PCOD8093762 Si02
#       8
#     8   8   8   8   8   8   8   8
#     4  10  21  39  60  80 106 147 194 230 271 332
#     4  10  19  36  59  84 118 156 186 225 281 333
#     4  10  21  37  56  80 110 144 182 231 285 332
#     4   9  20  38  57  77 109 148 181 224 284 336
#     4  11  21  36  59  87 116 151 190 228 275 334
#     4  10  21  35  53  79 112 145 176 220 284 343
#     4  10  21  36  56  82 108 139 184 230 272 332
#     4   9  20  38  58  81 114 153 187 226 282 336
#
# _framework density 19.322541000000001
#
# number of rings (size 3 to 8) (size 9 to 14) (size 15 to 20)
#    0.000    2.125    1.250    1.500    0.000    9.000 
#    0.000    3.125    0.000    0.000    0.000    0.000 
#    0.000    0.000    0.000    0.000    0.000    0.000 
#
# Total GULP energy -396560.808066 kJ/mol
# GULP energy per Si atom -12392.525252 kJ/mol
# Density = 1.927856 g / cm^3
# Si number density = 19.322541 Si / 1000 Ang^3
#
#
#
# Elastic Constant Matrix: (Units=GPa)
#
#
# Indices 1 2 3 4 5 6 
#
# 1 107.3638 37.3610 51.3276 0.0000 -5.9878 0.0000
# 2 37.3610 80.9801 26.3274 0.0000 2.3791 0.0000
# 3 51.3276 26.3274 91.1243 0.0000 -13.1326 0.0000
# 4 0.0000 0.0000 0.0000 2.7778 0.0000 3.6770
# 5 -5.9878 2.3791 -13.1326 0.0000 30.2604 0.0000
# 6 0.0000 0.0000 0.0000 3.6770 0.0000 20.4567
#
#
#
# Elastic Compliance Matrix: (Units=1/GPa)
#
#
# Indices 1 2 3 4 5 6 
#
# 1 0.013981 -0.004314 -0.006594 0.000000 0.000244 0.000000
# 2 -0.004314 0.015214 -0.002412 0.000000 -0.003097 0.000000
# 3 -0.006594 -0.002412 0.016240 0.000000 0.005933 0.000000
# 4 0.000000 0.000000 0.000000 0.472386 0.000000 -0.084910
# 5 0.000244 -0.003097 0.005933 0.000000 0.035913 0.000000
# 6 0.000000 0.000000 0.000000 -0.084910 0.000000 0.064146
#
#
# Mechanical properties :
#
#
# Convention : Reuss Voigt Hill
#
# Bulk Modulus (GPa) = 53.20242 56.61116 54.90679
# Shear Modulus (GPa) = 7.68304 21.66248 14.67276
#
# Velocity S-wave (km/s) = 1.99621 3.35191 2.75864
# Velocity P-wave (km/s) = 5.73644 6.65898 6.21485
#
# Compressibility (1/GPa) = 0.01879614
#
# Stress axis : x y z
#
# Youngs Moduli (GPa) = 71.52500 65.72853 61.57674
#
# Poissons Ratio (x) = 0.28354 0.40601
# Poissons Ratio (y) = 0.30855 0.14852
# Poissons Ratio (z) = 0.47161 0.15854
#
# Static dielectric constant tensor:
#      x y z
#    x 3.699740 0.000000 -0.215830 
#    y 0.000000 3.417240 0.000000 
#    z -0.215830 0.000000 3.596910 
# 
# 
# High freq. dielectric constant tensor:
#      x y z
#    x 1.763390 0.000000 -0.010490 
#    y 0.000000 1.736240 0.000000 
#    z -0.010490 0.000000 1.742280 
# 
# From -- ./inp_files/375692.got.cif
#   From: 2010.06.25/outbox.cif.g09.slc.cpg/sg12_188_cif.got.tgz:375692.got - 2010.06.28 00:19:55.
