data_PCOD8093377
_publ_section_title
;
Structure prediction by ZEFSAII (Michael W. Deem and Ramdas Pophale) SiO2 
 PCOD8093377
Probable space group: C 2/M
;
_chemical_formula_sum "Si O2"
_cell_formula_units_Z 64
_cell_length_a 20.347303
_cell_length_b 9.079803
_cell_length_c 33.675006
_cell_angle_alpha 90.000000
_cell_angle_beta 147.093535
_cell_angle_gamma 90.000000
_cell_volume 3379.916976
_symmetry_space_group_name_H-M "C 2/M"
_symmetry_group_IT_number 12
_symmetry_cell_setting 'monoclinic'
loop_
_space_group_symop_operation_xyz
x,y,z
-x,y,-z
-x,-y,-z
x,-y,z
1/2+x,1/2+y,z
1/2-x,1/2+y,-z
1/2-x,1/2-y,-z
1/2+x,1/2-y,z
loop_
_atom_site_type_symbol
_atom_site_label
_atom_site_fract_x
_atom_site_fract_y
_atom_site_fract_z
Si Si1 0.131349 0.672124 0.553390
Si Si2 0.463532 0.174802 0.147740
Si Si3 0.722124 0.174295 0.307115
Si Si4 0.764891 0.330983 0.832818
Si Si5 0.531791 0.173008 0.939470
Si Si6 0.140658 0.672531 0.466153
Si Si7 0.397688 0.329741 0.325372
Si Si8 0.755335 0.174589 0.908585
O O1 0.142493 0.500000 0.568057
O O2 0.235655 0.754777 0.630363
O O3 0.150023 0.710916 0.517147
O O4 0.000000 0.731276 0.500000
O O5 0.588536 0.235811 0.229468
O O6 0.446240 0.231992 0.094028
O O7 0.352041 0.232227 0.117433
O O8 0.470824 0.000000 0.150582
O O9 0.811061 0.223218 0.316929
O O10 0.720680 0.000000 0.311292
O O11 0.763860 0.500000 0.846506
O O12 0.668333 0.303226 0.749564
O O13 0.727271 0.227514 0.850025
O O14 0.895957 0.287987 0.882806
O O15 0.557852 0.000000 0.956142
O O16 0.618642 0.257954 0.013410
O O17 0.147433 0.500000 0.461750
O O18 0.250000 0.750000 0.500000
O O19 0.016378 0.731250 0.385063
O O20 0.433425 0.500000 0.349068
O O21 0.764298 0.000000 0.913971
#
# Coordination Sequence:
#
# PCOD8093377 Si02
#       8
#     8   8   8   8   8   8   8   8
#     4  10  21  38  58  84 118 151 182 227 287 338
#     4   9  19  37  58  82 112 147 188 235 286 335
#     4  10  19  35  62  89 111 144 196 243 277 333
#     4  10  21  38  60  83 110 150 195 234 279 342
#     4  10  19  37  62  81 105 149 197 235 278 338
#     4  11  24  41  61  86 121 157 190 232 284 342
#     4  10  20  37  62  88 113 146 193 242 285 335
#     4  11  23  36  53  83 121 150 182 237 293 338
#
# _framework density 18.935376999999999
#
# number of rings (size 3 to 8) (size 9 to 14) (size 15 to 20)
#    0.000    1.875    2.500    1.500    0.000    4.750 
#    0.000    5.000    0.000    0.000    0.000    0.000 
#    0.000    0.000    0.000    0.000    0.000    0.000 
#
# Total GULP energy -396948.251400 kJ/mol
# GULP energy per Si atom -12404.632856 kJ/mol
# Density = 1.889228 g / cm^3
# Si number density = 18.935377 Si / 1000 Ang^3
#
#
#
# Elastic Constant Matrix: (Units=GPa)
#
#
# Indices 1 2 3 4 5 6 
#
# 1 125.5332 50.2237 44.9061 0.0000 -5.1796 0.0001
# 2 50.2237 52.1723 43.1479 0.0001 0.1668 0.0001
# 3 44.9061 43.1479 112.9197 0.0001 -4.6467 0.0001
# 4 0.0000 0.0001 0.0001 20.8582 0.0000 -1.1997
# 5 -5.1796 0.1668 -4.6467 0.0000 28.2422 0.0000
# 6 0.0001 0.0001 0.0001 -1.1997 0.0000 29.2451
#
#
#
# Elastic Compliance Matrix: (Units=1/GPa)
#
#
# Indices 1 2 3 4 5 6 
#
# 1 0.013141 -0.012308 -0.000424 0.000000 0.002413 0.000000
# 2 -0.012308 0.039656 -0.010432 0.000000 -0.004208 0.000000
# 3 -0.000424 -0.010432 0.013098 0.000000 0.002139 0.000000
# 4 0.000000 0.000000 0.000000 0.048056 0.000000 0.001971
# 5 0.002413 -0.004208 0.002139 0.000000 0.036227 0.000000
# 6 0.000000 0.000000 0.000000 0.001971 0.000000 0.034275
#
#
# Mechanical properties :
#
#
# Convention : Reuss Voigt Hill
#
# Bulk Modulus (GPa) = 51.10006 63.02006 57.06006
# Shear Modulus (GPa) = 21.07012 25.82562 23.44787
#
# Velocity S-wave (km/s) = 3.33939 3.69708 3.52278
# Velocity P-wave (km/s) = 6.47409 7.18182 6.83712
#
# Compressibility (1/GPa) = 0.01956945
#
# Stress axis : x y z
#
# Youngs Moduli (GPa) = 76.09611 25.21697 76.34482
#
# Poissons Ratio (x) = 0.31036 0.03236
# Poissons Ratio (y) = 0.93656 0.79640
# Poissons Ratio (z) = 0.03226 0.26305
#
# Static dielectric constant tensor:
#      x y z
#    x 3.597810 0.000000 -0.021340 
#    y 0.000000 3.267310 0.000000 
#    z -0.021340 0.000000 3.498810 
# 
# 
# High freq. dielectric constant tensor:
#      x y z
#    x 1.743730 0.000000 -0.002710 
#    y 0.000000 1.717840 0.000000 
#    z -0.002710 0.000000 1.749340 
# 
# From -- ./inp_files/378494.got.cif
#   From: 2010.06.25/outbox.cif.g09.slc.cpg/sg12_190_cif.got.tgz:378494.got - 2010.06.28 00:19:55.
