data_PCOD8093155
_publ_section_title
;
Structure prediction by ZEFSAII (Michael W. Deem and Ramdas Pophale) SiO2 
 PCOD8093155
Probable space group: C 2/M
;
_chemical_formula_sum "Si O2"
_cell_formula_units_Z 48
_cell_length_a 23.238755
_cell_length_b 8.947846
_cell_length_c 12.111469
_cell_angle_alpha 90.000000
_cell_angle_beta 110.479974
_cell_angle_gamma 90.000000
_cell_volume 2359.242208
_symmetry_space_group_name_H-M "C 2/M"
_symmetry_group_IT_number 12
_symmetry_cell_setting 'monoclinic'
loop_
_space_group_symop_operation_xyz
x,y,z
-x,y,-z
-x,-y,-z
x,-y,z
1/2+x,1/2+y,z
1/2-x,1/2+y,-z
1/2-x,1/2-y,-z
1/2+x,1/2-y,z
loop_
_atom_site_type_symbol
_atom_site_label
_atom_site_fract_x
_atom_site_fract_y
_atom_site_fract_z
Si Si1 0.917520 0.328784 0.733212
Si Si2 0.235274 0.827989 0.103622
Si Si3 0.551680 0.822664 0.783245
Si Si4 0.147961 0.673440 0.667857
Si Si5 0.113268 0.329341 0.045963
Si Si6 0.816479 0.823173 0.529617
O O1 0.903278 0.500000 0.689216
O O2 0.928434 0.318376 0.872600
O O3 0.861000 0.225523 0.658923
O O4 0.981104 0.270951 0.720768
O O5 0.289329 0.800578 0.225694
O O6 0.174530 0.760486 0.116013
O O7 0.225259 0.000000 0.071606
O O8 0.250000 0.750000 0.000000
O O9 0.591464 0.768059 0.705374
O O10 0.553902 0.000000 0.793821
O O11 0.579487 0.758111 0.916611
O O12 0.138898 0.500000 0.630074
O O13 0.150016 0.771583 0.559574
O O14 0.131624 0.500000 0.032466
O O15 0.750000 0.750000 0.500000
O O16 0.807832 0.000000 0.525314
#
# Coordination Sequence:
#
# PCOD8093155 Si02
#       6
#     8   8   8   8   8   8
#     4  10  21  38  64  91 119 158 202 243 291 349
#     4  11  21  34  56  86 119 154 193 242 295 349
#     4   9  18  36  61  91 123 158 197 241 290 350
#     4  10  21  39  62  88 122 159 200 244 291 348
#     4  10  19  35  59  90 123 157 200 245 290 345
#     4  12  26  44  64  86 117 153 199 250 300 355
#
# _framework density 20.345516
#
# number of rings (size 3 to 8) (size 9 to 14) (size 15 to 20)
#    0.000    1.667    1.667    3.500    0.000    7.333 
#    0.000    5.000    0.000    2.000    0.000    0.000 
#    0.000    0.000    0.000    0.000    0.000    0.000 
#
# Total GULP energy -297633.637531 kJ/mol
# GULP energy per Si atom -12401.401564 kJ/mol
# Density = 2.029921 g / cm^3
# Si number density = 20.345516 Si / 1000 Ang^3
#
#
#
# Elastic Constant Matrix: (Units=GPa)
#
#
# Indices 1 2 3 4 5 6 
#
# 1 143.2710 30.4166 44.4747 0.0000 3.9782 0.0000
# 2 30.4166 69.2147 38.2619 0.0000 6.2029 0.0000
# 3 44.4747 38.2619 95.9999 0.0000 -8.8947 0.0000
# 4 0.0000 0.0000 0.0000 30.5573 0.0000 0.6656
# 5 3.9782 6.2029 -8.8947 0.0000 30.8675 0.0000
# 6 0.0000 0.0000 0.0000 0.6656 0.0000 25.6451
#
#
#
# Elastic Compliance Matrix: (Units=1/GPa)
#
#
# Indices 1 2 3 4 5 6 
#
# 1 0.008440 -0.001672 -0.003404 0.000000 -0.001733 0.000000
# 2 -0.001672 0.020015 -0.007763 0.000000 -0.006044 0.000000
# 3 -0.003404 -0.007763 0.015692 0.000000 0.006520 0.000000
# 4 0.000000 0.000000 0.000000 0.032744 0.000000 -0.000850
# 5 -0.001733 -0.006044 0.006520 0.000000 0.035713 0.000000
# 6 0.000000 0.000000 0.000000 -0.000850 0.000000 0.039016
#
#
# Mechanical properties :
#
#
# Convention : Reuss Voigt Hill
#
# Bulk Modulus (GPa) = 54.14366 59.42134 56.78250
# Shear Modulus (GPa) = 27.25489 30.43616 28.84552
#
# Velocity S-wave (km/s) = 3.66403 3.87197 3.76943
# Velocity P-wave (km/s) = 6.67608 7.01848 6.84942
#
# Compressibility (1/GPa) = 0.01846938
#
# Stress axis : x y z
#
# Youngs Moduli (GPa) = 118.49032 49.96169 63.72743
#
# Poissons Ratio (x) = 0.08352 0.21693
# Poissons Ratio (y) = 0.19808 0.49471
# Poissons Ratio (z) = 0.40335 0.38784
#
# Static dielectric constant tensor:
#      x y z
#    x 3.655410 0.000000 -0.070080 
#    y 0.000000 1.482410 0.000000 
#    z -0.070080 0.000000 3.632390 
# 
# 
# High freq. dielectric constant tensor:
#      x y z
#    x 1.809600 0.000000 -0.005650 
#    y 0.000000 1.764060 0.000000 
#    z -0.005650 0.000000 1.799340 
# 
# From -- ./inp_files/173071.got.cif
#   From: 2010.06.25/outbox.cif.g09.slc.cpg/sg12_87_cif.got.tgz:173071.got - 2010.06.28 00:19:55.
