data_PCOD8093000
_publ_section_title
;
Structure prediction by ZEFSAII (Michael W. Deem and Ramdas Pophale) SiO2 
 PCOD8093000
Probable space group: C 2/M
;
_chemical_formula_sum "Si O2"
_cell_formula_units_Z 64
_cell_length_a 19.544120
_cell_length_b 9.021810
_cell_length_c 31.069810
_cell_angle_alpha 90.000000
_cell_angle_beta 143.120432
_cell_angle_gamma 90.000000
_cell_volume 3287.739210
_symmetry_space_group_name_H-M "C 2/M"
_symmetry_group_IT_number 12
_symmetry_cell_setting 'monoclinic'
loop_
_space_group_symop_operation_xyz
x,y,z
-x,y,-z
-x,-y,-z
x,-y,z
1/2+x,1/2+y,z
1/2-x,1/2+y,-z
1/2-x,1/2-y,-z
1/2+x,1/2-y,z
loop_
_atom_site_type_symbol
_atom_site_label
_atom_site_fract_x
_atom_site_fract_y
_atom_site_fract_z
Si Si1 0.044016 0.176299 0.227428
Si Si2 0.235724 0.830703 0.770609
Si Si3 0.102777 0.173301 0.022084
Si Si4 0.463094 0.673085 0.871904
Si Si5 0.169207 0.674462 0.494690
Si Si6 0.715854 0.173068 0.616412
Si Si7 0.827180 0.829182 0.167052
Si Si8 0.570062 0.676254 0.611442
O O1 0.018114 0.236521 0.166467
O O2 0.165772 0.236272 0.304901
O O3 0.943218 0.240057 0.206379
O O4 0.046337 0.000000 0.231029
O O5 0.349556 0.738982 0.835272
O O6 0.161597 0.808046 0.776234
O O7 0.164161 0.775080 0.693806
O O8 0.271266 0.000000 0.781927
O O9 0.219742 0.250914 0.091956
O O10 0.119001 0.000000 0.038273
O O11 0.000000 0.234051 0.000000
O O12 0.070988 0.210181 0.956431
O O13 0.441527 0.500000 0.858943
O O14 0.159555 0.500000 0.479850
O O15 0.250000 0.750000 0.500000
O O16 0.220123 0.702604 0.567707
O O17 0.045725 0.748817 0.431024
O O18 0.611328 0.261703 0.585946
O O19 0.697634 0.000000 0.617459
O O20 0.815545 0.000000 0.148271
O O21 0.553096 0.500000 0.600476
#
# Coordination Sequence:
#
# PCOD8093000 Si02
#       8
#     8   8   8   8   8   8   8   8
#     4   9  19  36  59  84 110 146 189 236 285 337
#     4  10  21  35  56  85 114 146 191 242 286 335
#     4  10  20  34  53  80 113 147 186 236 292 346
#     4  10  19  35  59  81 109 148 192 235 284 346
#     4  11  25  42  63  92 124 159 198 240 292 350
#     4  10  21  40  66  88 115 157 202 240 285 352
#     4  10  21  36  56  81 111 149 192 235 288 347
#     4  11  23  39  62  90 123 157 195 246 297 345
#
# _framework density 19.466265
#
# number of rings (size 3 to 8) (size 9 to 14) (size 15 to 20)
#    0.000    1.875    2.500    1.125    1.750    4.250 
#    0.000    1.250    0.000    0.000    0.000    0.000 
#    0.000    0.000    0.000    0.000    0.000    0.000 
#
# Total GULP energy -396831.113564 kJ/mol
# GULP energy per Si atom -12400.972299 kJ/mol
# Density = 1.942196 g / cm^3
# Si number density = 19.466265 Si / 1000 Ang^3
#
#
#
# Elastic Constant Matrix: (Units=GPa)
#
#
# Indices 1 2 3 4 5 6 
#
# 1 140.0409 45.3021 47.7723 0.0000 6.6401 -0.0001
# 2 45.3021 61.0278 41.4572 0.0001 -0.1901 -0.0002
# 3 47.7723 41.4572 91.7356 0.0000 -0.7884 0.0000
# 4 0.0000 0.0001 0.0000 29.5440 0.0000 1.6941
# 5 6.6401 -0.1901 -0.7884 0.0000 36.3067 0.0000
# 6 -0.0001 -0.0002 0.0000 1.6941 0.0000 26.9414
#
#
#
# Elastic Compliance Matrix: (Units=1/GPa)
#
#
# Indices 1 2 3 4 5 6 
#
# 1 0.009947 -0.005570 -0.002679 0.000000 -0.001907 0.000000
# 2 -0.005570 0.026764 -0.009186 0.000000 0.000959 0.000000
# 3 -0.002679 -0.009186 0.016455 0.000000 0.000799 0.000000
# 4 0.000000 0.000000 0.000000 0.033970 0.000000 -0.002136
# 5 -0.001907 0.000959 0.000799 0.000000 0.027914 0.000000
# 6 0.000000 0.000000 0.000000 -0.002136 0.000000 0.037252
#
#
# Mechanical properties :
#
#
# Convention : Reuss Voigt Hill
#
# Bulk Modulus (GPa) = 54.66093 62.42974 58.54534
# Shear Modulus (GPa) = 25.87042 29.10993 27.49017
#
# Velocity S-wave (km/s) = 3.64948 3.87124 3.76200
# Velocity P-wave (km/s) = 6.77489 7.21958 7.00077
#
# Compressibility (1/GPa) = 0.01829460
#
# Stress axis : x y z
#
# Youngs Moduli (GPa) = 100.53391 37.36374 60.77328
#
# Poissons Ratio (x) = 0.20810 0.16283
# Poissons Ratio (y) = 0.55993 0.55829
# Poissons Ratio (z) = 0.26936 0.34324
#
# Static dielectric constant tensor:
#      x y z
#    x 3.764450 0.000000 -0.124300 
#    y 0.000000 3.370870 0.000000 
#    z -0.124300 0.000000 3.695950 
# 
# 
# High freq. dielectric constant tensor:
#      x y z
#    x 1.766050 0.000000 -0.007590 
#    y 0.000000 1.738890 0.000000 
#    z -0.007590 0.000000 1.768090 
# 
# From -- ./inp_files/378400.got.cif
#   From: 2010.06.25/outbox.cif.g09.slc.cpg/sg12_190_cif.got.tgz:378400.got - 2010.06.28 00:19:55.
