data_PCOD8093552
_publ_section_title
;
Structure prediction by ZEFSAII (Michael W. Deem and Ramdas Pophale) SiO2 
 PCOD8093552
Probable space group: C 2/M
;
_chemical_formula_sum "Si O2"
_cell_formula_units_Z 40
_cell_length_a 17.368934
_cell_length_b 12.400435
_cell_length_c 19.849246
_cell_angle_alpha 90.000000
_cell_angle_beta 29.114912
_cell_angle_gamma 90.000000
_cell_volume 2080.141981
_symmetry_space_group_name_H-M "C 2/M"
_symmetry_group_IT_number 12
_symmetry_cell_setting 'monoclinic'
loop_
_space_group_symop_operation_xyz
x,y,z
-x,y,-z
-x,-y,-z
x,-y,z
1/2+x,1/2+y,z
1/2-x,1/2+y,-z
1/2-x,1/2-y,-z
1/2+x,1/2-y,z
loop_
_atom_site_type_symbol
_atom_site_label
_atom_site_fract_x
_atom_site_fract_y
_atom_site_fract_z
Si Si1 0.727254 0.877300 0.095409
Si Si2 0.643443 0.186200 0.303983
Si Si3 0.198911 0.622833 0.408749
Si Si4 0.862856 0.376148 0.158063
Si Si5 0.994537 0.745836 0.180327
O O1 0.713739 0.875327 0.186135
O O2 0.581507 0.811604 0.175423
O O3 0.723611 0.000000 0.072332
O O4 0.891531 0.824937 0.947941
O O5 0.704140 0.122721 0.323397
O O6 0.453233 0.187301 0.447434
O O7 0.707001 0.308756 0.257066
O O8 0.193573 0.500000 0.438841
O O9 0.353571 0.682285 0.319473
O O10 0.810977 0.500000 0.197358
O O11 0.925365 0.345124 0.183974
O O12 0.000000 0.352213 0.000000
#
# Coordination Sequence:
#
# PCOD8093552 Si02
#       5
#     8   8   8   8   8
#     4  11  21  36  56  80 111 143 182 230 270 318
#     4  10  20  36  57  85 107 140 186 222 270 324
#     4  10  20  37  58  80 113 146 177 227 274 319
#     4  10  19  36  57  79 108 143 179 225 273 315
#     4  10  22  36  53  83 109 144 186 220 271 329
#
# _framework density 19.229455999999999
#
# number of rings (size 3 to 8) (size 9 to 14) (size 15 to 20)
#    0.000    1.800    2.000    3.600    0.000    0.800 
#    0.000   13.000    0.000    0.000    0.000    0.000 
#    0.000    0.000    0.000    0.000    0.000    0.000 
#
# Total GULP energy -248069.774513 kJ/mol
# GULP energy per Si atom -12403.488726 kJ/mol
# Density = 1.918569 g / cm^3
# Si number density = 19.229456 Si / 1000 Ang^3
#
#
#
# Elastic Constant Matrix: (Units=GPa)
#
#
# Indices 1 2 3 4 5 6 
#
# 1 38.1127 26.8969 22.0846 -0.0050 -8.9906 0.0004
# 2 26.8969 138.9996 64.0804 -0.0075 -15.9611 0.0005
# 3 22.0846 64.0804 95.3743 -0.0130 -21.8518 0.0027
# 4 -0.0050 -0.0075 -0.0130 25.3535 0.0051 -1.3732
# 5 -8.9906 -15.9611 -21.8518 0.0051 30.9333 0.0000
# 6 0.0004 0.0005 0.0027 -1.3732 0.0000 16.2861
#
#
#
# Elastic Compliance Matrix: (Units=1/GPa)
#
#
# Indices 1 2 3 4 5 6 
#
# 1 0.032326 -0.004000 -0.003720 0.000002 0.004703 0.000000
# 2 -0.004000 0.010924 -0.006429 -0.000001 -0.000067 0.000001
# 3 -0.003720 -0.006429 0.017489 0.000005 0.007956 -0.000002
# 4 0.000002 -0.000001 0.000005 0.039623 -0.000003 0.003341
# 5 0.004703 -0.000067 0.007956 -0.000003 0.039280 -0.000002
# 6 0.000000 0.000001 -0.000002 0.003341 -0.000002 0.061684
#
#
# Mechanical properties :
#
#
# Convention : Reuss Voigt Hill
#
# Bulk Modulus (GPa) = 30.82546 55.40117 43.11332
# Shear Modulus (GPa) = 20.79530 25.14289 22.96909
#
# Velocity S-wave (km/s) = 3.29208 3.61989 3.45987
# Velocity P-wave (km/s) = 5.52408 6.80768 6.19920
#
# Compressibility (1/GPa) = 0.03244071
#
# Stress axis : x y z
#
# Youngs Moduli (GPa) = 30.93481 91.53745 57.17910
#
# Poissons Ratio (x) = 0.36616 0.21271
# Poissons Ratio (y) = 0.12374 0.36762
# Poissons Ratio (z) = 0.11508 0.58851
#
# Static dielectric constant tensor:
#      x y z
#    x 3.355410 0.000000 -0.076110 
#    y 0.000000 3.479970 0.000000 
#    z -0.076110 0.000000 3.584730 
# 
# 
# High freq. dielectric constant tensor:
#      x y z
#    x 1.734490 0.000000 -0.005630 
#    y 0.000000 1.750620 0.000000 
#    z -0.005630 0.000000 1.752550 
# 
# From -- ./inp_files/71222.got.cif
#   From: 2010.06.25/outbox.cif.g09.slc.cpg/sg12_36_cif.got.tgz:71222.got - 2010.06.28 00:19:55.
