data_PCOD8093734
_publ_section_title
;
Structure prediction by ZEFSAII (Michael W. Deem and Ramdas Pophale) SiO2 
 PCOD8093734
Probable space group: C 2/M
;
_chemical_formula_sum "Si O2"
_cell_formula_units_Z 48
_cell_length_a 20.700427
_cell_length_b 8.703165
_cell_length_c 17.340034
_cell_angle_alpha 90.000000
_cell_angle_beta 53.985610
_cell_angle_gamma 90.000000
_cell_volume 2526.881306
_symmetry_space_group_name_H-M "C 2/M"
_symmetry_group_IT_number 12
_symmetry_cell_setting 'monoclinic'
loop_
_space_group_symop_operation_xyz
x,y,z
-x,y,-z
-x,-y,-z
x,-y,z
1/2+x,1/2+y,z
1/2-x,1/2+y,-z
1/2-x,1/2-y,-z
1/2+x,1/2-y,z
loop_
_atom_site_type_symbol
_atom_site_label
_atom_site_fract_x
_atom_site_fract_y
_atom_site_fract_z
Si Si1 0.763174 0.817569 0.718810
Si Si2 0.879861 0.181331 0.102329
Si Si3 0.021862 0.679548 0.095326
Si Si4 0.443591 0.681426 0.607309
Si Si5 0.484109 0.821251 0.292758
Si Si6 0.695656 0.181422 0.603439
O O1 0.710990 0.737195 0.822271
O O2 0.853718 0.756132 0.660486
O O3 0.727890 0.759945 0.662566
O O4 0.758130 0.000000 0.732512
O O5 0.935807 0.262730 0.126458
O O6 0.887199 0.000000 0.106244
O O7 0.907337 0.229973 0.997291
O O8 0.027841 0.500000 0.071986
O O9 0.030655 0.709787 0.180226
O O10 0.500000 0.751196 0.500000
O O11 0.443556 0.500000 0.600151
O O12 0.474363 0.726530 0.669460
O O13 0.394101 0.760325 0.346395
O O14 0.485405 0.000000 0.313595
O O15 0.750000 0.250000 0.500000
O O16 0.700390 0.000000 0.596889
#
# Coordination Sequence:
#
# PCOD8093734 Si02
#       6
#     8   8   8   8   8   8
#     4  10  20  38  58  79 113 154 191 225 280 348
#     4  11  21  33  55  89 118 143 185 239 285 328
#     4  10  19  36  59  82 114 154 187 224 286 348
#     4  10  22  39  60  83 112 153 193 234 282 336
#     4  10  21  37  58  83 112 148 188 232 282 337
#     4  10  20  35  55  81 109 142 187 235 281 333
#
# _framework density 18.995747000000001
#
# number of rings (size 3 to 8) (size 9 to 14) (size 15 to 20)
#    0.000    1.833    1.667    4.000    0.000    5.000 
#    0.000    0.833    0.000    0.000    0.000    0.000 
#    0.000    0.000    0.000    0.000    0.000    0.000 
#
# Total GULP energy -297655.857546 kJ/mol
# GULP energy per Si atom -12402.327398 kJ/mol
# Density = 1.895251 g / cm^3
# Si number density = 18.995747 Si / 1000 Ang^3
#
#
#
# Elastic Constant Matrix: (Units=GPa)
#
#
# Indices 1 2 3 4 5 6 
#
# 1 125.9322 20.8768 64.9271 0.0002 -11.0666 -0.0002
# 2 20.8768 34.2290 21.5569 0.0003 -5.3682 -0.0004
# 3 64.9271 21.5569 140.0331 0.0001 -14.2490 -0.0001
# 4 0.0002 0.0003 0.0001 32.4392 -0.0001 3.2587
# 5 -11.0666 -5.3682 -14.2490 -0.0001 34.9937 0.0001
# 6 -0.0002 -0.0004 -0.0001 3.2587 0.0001 26.0609
#
#
#
# Elastic Compliance Matrix: (Units=1/GPa)
#
#
# Indices 1 2 3 4 5 6 
#
# 1 0.010910 -0.003728 -0.004373 0.000000 0.001098 0.000000
# 2 -0.003728 0.033943 -0.003220 0.000000 0.002717 0.000000
# 3 -0.004373 -0.003220 0.009883 0.000000 0.002147 0.000000
# 4 0.000000 0.000000 0.000000 0.031219 0.000000 -0.003904
# 5 0.001098 0.002717 0.002147 0.000000 0.030215 0.000000
# 6 0.000000 0.000000 0.000000 -0.003904 0.000000 0.038860
#
#
# Mechanical properties :
#
#
# Convention : Reuss Voigt Hill
#
# Bulk Modulus (GPa) = 31.15900 57.21288 44.18594
# Shear Modulus (GPa) = 26.54364 31.55433 29.04899
#
# Velocity S-wave (km/s) = 3.74217 4.08011 3.91479
# Velocity P-wave (km/s) = 5.92541 7.23744 6.61404
#
# Compressibility (1/GPa) = 0.03209346
#
# Stress axis : x y z
#
# Youngs Moduli (GPa) = 91.66121 29.46125 101.18533
#
# Poissons Ratio (x) = 0.10983 0.44246
# Poissons Ratio (y) = 0.34171 0.32585
# Poissons Ratio (z) = 0.40081 0.09487
#
# Static dielectric constant tensor:
#      x y z
#    x 3.406280 0.000000 -0.114740 
#    y 0.000000 3.315570 0.000000 
#    z -0.114740 0.000000 3.709100 
# 
# 
# High freq. dielectric constant tensor:
#      x y z
#    x 1.721730 0.000000 -0.003470 
#    y 0.000000 1.729760 0.000000 
#    z -0.003470 0.000000 1.757150 
# 
# From -- ./inp_files/274040.got.cif
#   From: 2010.06.25/outbox.cif.g09.slc.cpg/sg12_138_cif.got.tgz:274040.got - 2010.06.28 00:19:55.
