data_PCOD8093277
_publ_section_title
;
Structure prediction by ZEFSAII (Michael W. Deem and Ramdas Pophale) SiO2 
 PCOD8093277
Probable space group: C 2/M
;
_chemical_formula_sum "Si O2"
_cell_formula_units_Z 56
_cell_length_a 13.257630
_cell_length_b 22.081764
_cell_length_c 9.116389
_cell_angle_alpha 90.000000
_cell_angle_beta 89.739463
_cell_angle_gamma 90.000000
_cell_volume 2668.812215
_symmetry_space_group_name_H-M "C 2/M"
_symmetry_group_IT_number 12
_symmetry_cell_setting 'monoclinic'
loop_
_space_group_symop_operation_xyz
x,y,z
-x,y,-z
-x,-y,-z
x,-y,z
1/2+x,1/2+y,z
1/2-x,1/2+y,-z
1/2-x,1/2-y,-z
1/2+x,1/2-y,z
loop_
_atom_site_type_symbol
_atom_site_label
_atom_site_fract_x
_atom_site_fract_y
_atom_site_fract_z
Si Si1 0.662270 0.246228 0.307950
Si Si2 0.887325 0.761537 0.368794
Si Si3 0.893009 0.360049 0.187003
Si Si4 0.308623 0.430869 0.140102
Si Si5 0.176690 0.873781 0.167030
Si Si6 0.017872 0.114746 0.667894
Si Si7 0.392709 0.131541 0.851511
O O1 0.771711 0.219232 0.344855
O O2 0.597917 0.261747 0.454795
O O3 0.671862 0.301965 0.195759
O O4 0.600190 0.192809 0.238446
O O5 0.907908 0.697785 0.291304
O O6 0.959171 0.813982 0.302699
O O7 0.788105 0.395677 0.227407
O O8 0.997314 0.399479 0.186450
O O9 0.877523 0.343738 0.016340
O O10 0.306936 0.500000 0.086423
O O11 0.388508 0.423666 0.270561
O O12 0.196146 0.413693 0.196748
O O13 0.338849 0.387946 0.004195
O O14 0.085292 0.905867 0.252222
O O15 0.000000 0.098176 0.500000
#
# Coordination Sequence:
#
# PCOD8093277 Si02
#       7
#     8   8   8   8   8   8   8
#     4  10  19  35  60  90 130 162 194 242 302 369
#     4  10  20  34  55  93 132 162 191 234 303 379
#     4   9  21  34  57  91 126 158 192 237 302 363
#     4  11  26  45  64  84 114 164 217 265 305 348
#     4  10  22  38  60  90 126 158 202 244 304 372
#     4  12  23  39  61  91 126 160 205 247 304 368
#     4  10  20  39  60  87 121 159 205 250 300 365
#
# _framework density 20.983117
#
# number of rings (size 3 to 8) (size 9 to 14) (size 15 to 20)
#    0.000    1.714    2.857    1.286    2.000    3.143 
#    0.000    5.714    0.000    0.000    0.000    5.000 
#    0.000    0.000    0.000    0.000    0.000    0.000 
#
# Total GULP energy -346926.011019 kJ/mol
# GULP energy per Si atom -12390.214679 kJ/mol
# Density = 2.093536 g / cm^3
# Si number density = 20.983117 Si / 1000 Ang^3
#
#
#
# Elastic Constant Matrix: (Units=GPa)
#
#
# Indices 1 2 3 4 5 6 
#
# 1 188.0253 34.0999 59.6359 0.0000 -16.2028 0.0000
# 2 34.0999 57.7010 30.3508 0.0000 11.3685 0.0000
# 3 59.6359 30.3508 82.6676 0.0000 12.8469 0.0000
# 4 0.0000 0.0000 0.0000 8.0466 0.0000 2.9228
# 5 -16.2028 11.3685 12.8469 0.0000 26.6878 0.0000
# 6 0.0000 0.0000 0.0000 2.9228 0.0000 10.1387
#
#
#
# Elastic Compliance Matrix: (Units=1/GPa)
#
#
# Indices 1 2 3 4 5 6 
#
# 1 0.009041 -0.003851 -0.006719 0.000000 0.010364 0.000000
# 2 -0.003851 0.023978 -0.004404 0.000000 -0.010432 0.000000
# 3 -0.006719 -0.004404 0.020431 0.000000 -0.012038 0.000000
# 4 0.000000 0.000000 0.000000 0.138811 0.000000 -0.040017
# 5 0.010364 -0.010432 -0.012038 0.000000 0.054001 0.000000
# 6 0.000000 0.000000 0.000000 -0.040017 0.000000 0.110169
#
#
# Mechanical properties :
#
#
# Convention : Reuss Voigt Hill
#
# Bulk Modulus (GPa) = 42.54812 64.06302 53.30557
# Shear Modulus (GPa) = 12.68348 22.59512 17.63930
#
# Velocity S-wave (km/s) = 2.46125 3.28506 2.90253
# Velocity P-wave (km/s) = 5.32901 6.70715 6.05740
#
# Compressibility (1/GPa) = 0.02350280
#
# Stress axis : x y z
#
# Youngs Moduli (GPa) = 110.60912 41.70403 48.94428
#
# Poissons Ratio (x) = 0.16059 0.32885
# Poissons Ratio (y) = 0.42592 0.21557
# Poissons Ratio (z) = 0.74316 0.18368
#
# Static dielectric constant tensor:
#      x y z
#    x 4.542310 0.000000 0.011160 
#    y 0.000000 3.195540 0.000000 
#    z 0.011160 0.000000 3.710550 
# 
# 
# High freq. dielectric constant tensor:
#      x y z
#    x 1.870080 0.000000 0.002060 
#    y 0.000000 1.759050 0.000000 
#    z 0.002060 0.000000 1.813570 
# 
# From -- ./inp_files/64096.got.cif
#   From: 2010.06.25/outbox.cif.g09.slc.cpg/sg12_33_cif.got.tgz:64096.got - 2010.06.28 00:19:55.
