data_PCOD8093151
_publ_section_title
;
Structure prediction by ZEFSAII (Michael W. Deem and Ramdas Pophale) SiO2 
 PCOD8093151
Probable space group: C 2/M
;
_chemical_formula_sum "Si O2"
_cell_formula_units_Z 64
_cell_length_a 11.372587
_cell_length_b 20.829240
_cell_length_c 27.012730
_cell_angle_alpha 90.000000
_cell_angle_beta 148.681666
_cell_angle_gamma 90.000000
_cell_volume 3326.068433
_symmetry_space_group_name_H-M "C 2/M"
_symmetry_group_IT_number 12
_symmetry_cell_setting 'monoclinic'
loop_
_space_group_symop_operation_xyz
x,y,z
-x,y,-z
-x,-y,-z
x,-y,z
1/2+x,1/2+y,z
1/2-x,1/2+y,-z
1/2-x,1/2-y,-z
1/2+x,1/2-y,z
loop_
_atom_site_type_symbol
_atom_site_label
_atom_site_fract_x
_atom_site_fract_y
_atom_site_fract_z
Si Si1 0.046575 0.074479 0.395855
Si Si2 0.924175 0.286896 0.229178
Si Si3 0.864383 0.308082 0.095934
Si Si4 0.022995 0.924600 0.206691
Si Si5 0.968252 0.830452 0.102676
Si Si6 0.969246 0.425840 0.608786
Si Si7 0.842386 0.854070 0.230406
Si Si8 0.285966 0.377394 0.391915
O O1 0.983035 0.121822 0.328386
O O2 0.860049 0.078105 0.372542
O O3 0.286631 0.101308 0.503440
O O4 0.058346 0.000000 0.382489
O O5 0.856746 0.314906 0.151693
O O6 0.735172 0.316358 0.197111
O O7 0.943608 0.210536 0.242456
O O8 0.170714 0.312608 0.331317
O O9 0.846434 0.231998 0.080900
O O10 0.083992 0.342253 0.151909
O O11 0.647142 0.342657 0.992581
O O12 0.278567 0.898114 0.309126
O O13 0.924026 0.890946 0.122068
O O14 0.862933 0.908306 0.195617
O O15 0.019955 0.000000 0.195376
O O16 0.979641 0.500000 0.601569
O O17 0.888528 0.415923 0.636205
O O18 0.500000 0.354242 0.500000
#
# Coordination Sequence:
#
# PCOD8093151 Si02
#       8
#     8   8   8   8   8   8   8   8
#     4  10  20  37  59  85 117 155 197 236 279 338
#     4  11  20  38  61  85 118 148 188 243 289 346
#     4  10  21  39  62  85 112 145 197 246 285 339
#     4  11  22  39  59  84 121 155 191 233 285 348
#     4  10  21  38  63  87 108 151 197 239 287 339
#     4   9  19  36  60  85 114 156 199 236 277 339
#     4  11  23  37  57  87 118 152 193 234 289 345
#     4  10  19  35  59  90 115 148 193 240 290 337
#
# _framework density 19.241937
#
# number of rings (size 3 to 8) (size 9 to 14) (size 15 to 20)
#    0.000    1.750    3.750    1.125    0.000    2.500 
#    2.250    5.000    0.000    0.750    0.000    0.000 
#    0.000    0.000    0.000    0.000    0.000    0.000 
#
# Total GULP energy -396681.600019 kJ/mol
# GULP energy per Si atom -12396.300001 kJ/mol
# Density = 1.919814 g / cm^3
# Si number density = 19.241937 Si / 1000 Ang^3
#
#
#
# Elastic Constant Matrix: (Units=GPa)
#
#
# Indices 1 2 3 4 5 6 
#
# 1 74.1753 34.5263 25.7083 0.0019 -14.5709 0.0010
# 2 34.5263 70.9756 49.7729 -0.0007 -4.7079 -0.0004
# 3 25.7083 49.7729 97.5944 0.0042 -16.8426 0.0011
# 4 0.0019 -0.0007 0.0042 28.7924 0.0011 -3.4121
# 5 -14.5709 -4.7079 -16.8426 0.0011 29.5414 0.0003
# 6 0.0010 -0.0004 0.0011 -3.4121 0.0003 31.5401
#
#
#
# Elastic Compliance Matrix: (Units=1/GPa)
#
#
# Indices 1 2 3 4 5 6 
#
# 1 0.019265 -0.009795 0.001432 -0.000002 0.008758 -0.000001
# 2 -0.009795 0.027189 -0.012613 0.000004 -0.007689 0.000002
# 3 0.001432 -0.012613 0.017832 -0.000004 0.008862 -0.000001
# 4 -0.000002 0.000004 -0.000004 0.035182 -0.000004 0.003806
# 5 0.008758 -0.007689 0.008862 -0.000004 0.041998 -0.000001
# 6 -0.000001 0.000002 -0.000001 0.003806 -0.000001 0.032117
#
#
# Mechanical properties :
#
#
# Convention : Reuss Voigt Hill
#
# Bulk Modulus (GPa) = 44.77613 51.41778 48.09696
# Shear Modulus (GPa) = 22.42356 26.82397 24.62376
#
# Velocity S-wave (km/s) = 3.41742 3.73773 3.58116
# Velocity P-wave (km/s) = 6.23637 6.73849 6.49229
#
# Compressibility (1/GPa) = 0.02233333
#
# Stress axis : x y z
#
# Youngs Moduli (GPa) = 51.90841 36.77922 56.08032
#
# Poissons Ratio (x) = 0.36024 -0.08030
# Poissons Ratio (y) = 0.50842 0.70736
# Poissons Ratio (z) = -0.07433 0.46391
#
# Static dielectric constant tensor:
#      x y z
#    x 3.546050 0.000000 0.021000 
#    y 0.000000 3.275510 0.000000 
#    z 0.021000 0.000000 3.778120 
# 
# 
# High freq. dielectric constant tensor:
#      x y z
#    x 1.753110 0.000000 -0.003270 
#    y 0.000000 1.725990 0.000000 
#    z -0.003270 0.000000 1.753310 
# 
# From -- ./inp_files/265515.got.cif
#   From: 2010.06.25/outbox.cif.g09.slc.cpg/sg12_133_cif.got.tgz:265515.got - 2010.06.28 00:19:55.
