data_PCOD8093330
_publ_section_title
;
Structure prediction by ZEFSAII (Michael W. Deem and Ramdas Pophale) SiO2 
 PCOD8093330
Probable space group: C 2/M
;
_chemical_formula_sum "Si O2"
_cell_formula_units_Z 56
_cell_length_a 18.782632
_cell_length_b 16.907212
_cell_length_c 9.562928
_cell_angle_alpha 90.000000
_cell_angle_beta 118.985820
_cell_angle_gamma 90.000000
_cell_volume 2656.428640
_symmetry_space_group_name_H-M "C 2/M"
_symmetry_group_IT_number 12
_symmetry_cell_setting 'monoclinic'
loop_
_space_group_symop_operation_xyz
x,y,z
-x,y,-z
-x,-y,-z
x,-y,z
1/2+x,1/2+y,z
1/2-x,1/2+y,-z
1/2-x,1/2-y,-z
1/2+x,1/2-y,z
loop_
_atom_site_type_symbol
_atom_site_label
_atom_site_fract_x
_atom_site_fract_y
_atom_site_fract_z
Si Si1 0.914441 0.090559 0.869415
Si Si2 0.361147 0.093648 0.722908
Si Si3 0.013329 0.407055 0.675111
Si Si4 0.688598 0.590204 0.476351
Si Si5 0.917067 0.090163 0.359229
Si Si6 0.674370 0.655361 0.969473
Si Si7 0.655136 0.837385 0.988314
O O1 0.874135 0.131725 0.692760
O O2 0.934985 0.000000 0.853873
O O3 0.845533 0.097409 0.921683
O O4 0.000000 0.131893 0.000000
O O5 0.434762 0.116973 0.691456
O O6 0.279249 0.127519 0.569940
O O7 0.354313 0.000000 0.737458
O O8 0.373023 0.129820 0.888489
O O9 0.032178 0.500000 0.707713
O O10 0.088533 0.357635 0.807643
O O11 0.000000 0.384094 0.500000
O O12 0.696973 0.500000 0.433555
O O13 0.655133 0.596391 0.599748
O O14 0.896857 0.145644 0.210903
O O15 0.000000 0.124365 0.500000
O O16 0.929814 0.000000 0.319890
O O17 0.671251 0.744532 0.020764
O O18 0.759753 0.626338 0.985390
#
# Coordination Sequence:
#
# PCOD8093330 Si02
#       7
#     8   8   8   8   8   8   8
#     4  10  21  37  58  86 118 153 199 252 302 352
#     4  10  20  39  65  91 118 154 200 248 306 366
#     4  10  23  41  66  96 119 147 198 257 309 363
#     4   9  18  33  57  88 118 149 193 248 301 355
#     4  10  19  35  61  89 118 156 201 248 297 352
#     4  11  24  39  58  86 122 164 204 239 289 358
#     4  11  24  41  58  86 124 162 202 243 291 357
#
# _framework density 21.080933999999999
#
# number of rings (size 3 to 8) (size 9 to 14) (size 15 to 20)
#    0.000    1.857    1.429    2.143    2.000    6.857 
#    0.000    2.143    0.000    0.000    0.000    0.000 
#    0.000    0.000    0.000    0.000    0.000    0.000 
#
# Total GULP energy -347135.595178 kJ/mol
# GULP energy per Si atom -12397.699828 kJ/mol
# Density = 2.103295 g / cm^3
# Si number density = 21.080934 Si / 1000 Ang^3
#
#
#
# Elastic Constant Matrix: (Units=GPa)
#
#
# Indices 1 2 3 4 5 6 
#
# 1 101.1607 21.7771 36.1966 0.0000 -3.1137 0.0000
# 2 21.7771 22.3194 20.6957 0.0000 -0.4747 0.0000
# 3 36.1966 20.6957 140.3499 0.0000 1.6620 0.0000
# 4 0.0000 0.0000 0.0000 15.0711 0.0000 3.2370
# 5 -3.1137 -0.4747 1.6620 0.0000 41.4375 0.0000
# 6 0.0000 0.0000 0.0000 3.2370 0.0000 21.2018
#
#
#
# Elastic Compliance Matrix: (Units=1/GPa)
#
#
# Indices 1 2 3 4 5 6 
#
# 1 0.012888 -0.010962 -0.001718 0.000000 0.000912 0.000000
# 2 -0.010962 0.061259 -0.006207 0.000000 0.000127 0.000000
# 3 -0.001718 -0.006207 0.008490 0.000000 -0.000541 0.000000
# 4 0.000000 0.000000 0.000000 0.068602 0.000000 -0.010474
# 5 0.000912 0.000127 -0.000541 0.000000 0.024224 0.000000
# 6 0.000000 0.000000 0.000000 -0.010474 0.000000 0.048765
#
#
# Mechanical properties :
#
#
# Convention : Reuss Voigt Hill
#
# Bulk Modulus (GPa) = 22.29115 46.79653 34.54384
# Shear Modulus (GPa) = 18.05336 27.88611 22.96973
#
# Velocity S-wave (km/s) = 2.92958 3.64099 3.30449
# Velocity P-wave (km/s) = 4.69471 6.31842 5.56609
#
# Compressibility (1/GPa) = 0.04486086
#
# Stress axis : x y z
#
# Youngs Moduli (GPa) = 77.59157 16.32423 117.78705
#
# Poissons Ratio (x) = 0.17895 0.20238
# Poissons Ratio (y) = 0.85058 0.73115
# Poissons Ratio (z) = 0.13332 0.10133
#
# Static dielectric constant tensor:
#      x y z
#    x 3.985180 0.000000 0.150760 
#    y 0.000000 3.383140 0.000000 
#    z 0.150760 0.000000 4.014080 
# 
# 
# High freq. dielectric constant tensor:
#      x y z
#    x 1.839660 0.000000 0.005490 
#    y 0.000000 1.781390 0.000000 
#    z 0.005490 0.000000 1.842770 
# 
# From -- ./inp_files/75986.got.cif
#   From: 2010.06.25/outbox.cif.g09.slc.cpg/sg12_38_cif.got.tgz:75986.got - 2010.06.28 00:19:55.
