data_PCOD8093969
_publ_section_title
;
Structure prediction by ZEFSAII (Michael W. Deem and Ramdas Pophale) SiO2 
 PCOD8093969
Probable space group: C 2/M
;
_chemical_formula_sum "Si O2"
_cell_formula_units_Z 56
_cell_length_a 14.542011
_cell_length_b 15.442797
_cell_length_c 11.863385
_cell_angle_alpha 90.000000
_cell_angle_beta 82.558597
_cell_angle_gamma 90.000000
_cell_volume 2641.714413
_symmetry_space_group_name_H-M "C 2/M"
_symmetry_group_IT_number 12
_symmetry_cell_setting 'monoclinic'
loop_
_space_group_symop_operation_xyz
x,y,z
-x,y,-z
-x,-y,-z
x,-y,z
1/2+x,1/2+y,z
1/2-x,1/2+y,-z
1/2-x,1/2-y,-z
1/2+x,1/2-y,z
loop_
_atom_site_type_symbol
_atom_site_label
_atom_site_fract_x
_atom_site_fract_y
_atom_site_fract_z
Si Si1 0.604522 0.145632 0.998705
Si Si2 0.098692 0.220486 0.469324
Si Si3 0.811743 0.593130 0.244427
Si Si4 0.752593 0.903602 0.140562
Si Si5 0.407128 0.654902 0.963554
Si Si6 0.596623 0.594167 0.279143
Si Si7 0.212220 0.223599 0.662054
O O1 0.648895 0.116656 0.111375
O O2 0.608140 0.248403 0.990616
O O3 0.500000 0.110872 0.000000
O O4 0.664206 0.105717 0.889431
O O5 0.062306 0.141766 0.396980
O O6 0.144740 0.183833 0.577558
O O7 0.179849 0.275132 0.394433
O O8 0.000000 0.272962 0.500000
O O9 0.856731 0.500000 0.279700
O O10 0.704273 0.579888 0.273959
O O11 0.834395 0.680901 0.310370
O O12 0.789405 0.835648 0.227129
O O13 0.753630 0.000000 0.192686
O O14 0.820170 0.900289 0.021280
O O15 0.420617 0.653354 0.827272
O O16 0.500000 0.614137 0.000000
O O17 0.547335 0.500000 0.275637
#
# Coordination Sequence:
#
# PCOD8093969 Si02
#       7
#     8   8   8   8   8   8   8
#     4  11  22  37  60  90 131 172 214 253 309 384
#     4  10  23  42  65  85 116 167 220 264 321 373
#     4  10  19  36  61  86 120 162 207 260 315 375
#     4  12  24  40  64  96 136 169 205 263 324 386
#     4  11  23  38  62  95 131 173 208 256 324 384
#     4  10  21  37  59  89 125 163 209 259 314 384
#     4  10  23  43  63  91 123 162 214 270 318 384
#
# _framework density 21.198353999999998
#
# number of rings (size 3 to 8) (size 9 to 14) (size 15 to 20)
#    0.000    1.429    2.857    3.000    2.000    4.286 
#    0.000    2.143    0.000    0.857    0.000    0.000 
#    0.000    0.000    0.000    0.000    0.000    0.000 
#
# Total GULP energy -346912.587188 kJ/mol
# GULP energy per Si atom -12389.735257 kJ/mol
# Density = 2.115011 g / cm^3
# Si number density = 21.198354 Si / 1000 Ang^3
#
#
#
# Elastic Constant Matrix: (Units=GPa)
#
#
# Indices 1 2 3 4 5 6 
#
# 1 85.0586 28.9244 36.0194 0.0000 12.5394 0.0000
# 2 28.9244 106.6568 36.9599 0.0000 2.2829 0.0000
# 3 36.0194 36.9599 120.7874 0.0000 14.7193 0.0000
# 4 0.0000 0.0000 0.0000 15.5774 0.0000 -3.7409
# 5 12.5394 2.2829 14.7193 0.0000 24.8808 0.0000
# 6 0.0000 0.0000 0.0000 -3.7409 0.0000 15.3881
#
#
#
# Elastic Compliance Matrix: (Units=1/GPa)
#
#
# Indices 1 2 3 4 5 6 
#
# 1 0.014756 -0.002898 -0.002845 0.000000 -0.005488 0.000000
# 2 -0.002898 0.011081 -0.002781 0.000000 0.002089 0.000000
# 3 -0.002845 -0.002781 0.010532 0.000000 -0.004542 0.000000
# 4 0.000000 0.000000 0.000000 0.068176 0.000000 0.016574
# 5 -0.005488 0.002089 -0.004542 0.000000 0.045453 0.000000
# 6 0.000000 0.000000 0.000000 0.016574 0.000000 0.069014
#
#
# Mechanical properties :
#
#
# Convention : Reuss Voigt Hill
#
# Bulk Modulus (GPa) = 51.75867 57.36784 54.56325
# Shear Modulus (GPa) = 20.61864 25.20920 22.91392
#
# Velocity S-wave (km/s) = 3.12212 3.45223 3.29132
# Velocity P-wave (km/s) = 6.12097 6.55833 6.34342
#
# Compressibility (1/GPa) = 0.01932043
#
# Stress axis : x y z
#
# Youngs Moduli (GPa) = 67.76981 90.24578 94.95162
#
# Poissons Ratio (x) = 0.26157 0.27010
# Poissons Ratio (y) = 0.19643 0.26405
# Poissons Ratio (z) = 0.19278 0.25097
#
# Static dielectric constant tensor:
#      x y z
#    x 4.089420 0.000000 -0.392600 
#    y 0.000000 4.820830 0.000000 
#    z -0.392600 0.000000 4.450230 
# 
# 
# High freq. dielectric constant tensor:
#      x y z
#    x 1.827280 0.000000 -0.004690 
#    y 0.000000 1.818540 0.000000 
#    z -0.004690 0.000000 1.826560 
# 
# From -- ./inp_files/143724.got.cif
#   From: 2010.06.25/outbox.cif.g09.slc.cpg/sg12_72_cif.got.tgz:143724.got - 2010.06.28 00:19:55.
