data_PCOD8093626
_publ_section_title
;
Structure prediction by ZEFSAII (Michael W. Deem and Ramdas Pophale) SiO2 
 PCOD8093626
Probable space group: C 2/M
;
_chemical_formula_sum "Si O2"
_cell_formula_units_Z 64
_cell_length_a 31.495057
_cell_length_b 11.030249
_cell_length_c 18.544252
_cell_angle_alpha 90.000000
_cell_angle_beta 30.993287
_cell_angle_gamma 90.000000
_cell_volume 3317.352911
_symmetry_space_group_name_H-M "C 2/M"
_symmetry_group_IT_number 12
_symmetry_cell_setting 'monoclinic'
loop_
_space_group_symop_operation_xyz
x,y,z
-x,y,-z
-x,-y,-z
x,-y,z
1/2+x,1/2+y,z
1/2-x,1/2+y,-z
1/2-x,1/2-y,-z
1/2+x,1/2-y,z
loop_
_atom_site_type_symbol
_atom_site_label
_atom_site_fract_x
_atom_site_fract_y
_atom_site_fract_z
Si Si1 0.194844 0.860866 0.707739
Si Si2 0.138979 0.363933 0.987684
Si Si3 0.589482 0.135213 0.338618
Si Si4 0.859203 0.778490 0.505189
Si Si5 0.099294 0.138036 0.711696
Si Si6 0.548556 0.757969 0.997629
Si Si7 0.972361 0.359222 0.726448
Si Si8 0.676293 0.639793 0.290883
O O1 0.274283 0.793343 0.621749
O O2 0.171779 0.815329 0.660129
O O3 0.114100 0.842162 0.875358
O O4 0.219503 0.000000 0.672289
O O5 0.148058 0.500000 0.000491
O O6 0.099036 0.361047 0.966088
O O7 0.230615 0.310904 0.852231
O O8 0.080689 0.297779 0.131525
O O9 0.500000 0.119452 0.500000
O O10 0.581849 0.165309 0.265424
O O11 0.629175 0.253844 0.317149
O O12 0.633000 0.000000 0.286548
O O13 0.874267 0.850606 0.409544
O O14 0.849865 0.867196 0.587093
O O15 0.936310 0.693762 0.410476
O O16 0.082418 0.000000 0.755752
O O17 0.014235 0.205502 0.852058
O O18 0.500000 0.814499 0.000000
O O19 0.987039 0.500000 0.719251
O O20 0.662936 0.500000 0.280858
#
# Coordination Sequence:
#
# PCOD8093626 Si02
#       8
#     8   8   8   8   8   8   8   8
#     4  10  21  35  55  82 113 152 198 247 292 338
#     4  10  21  40  59  82 118 153 192 238 289 348
#     4  10  21  40  64  92 120 152 193 243 293 350
#     4  12  20  35  59  84 116 152 194 239 286 358
#     4  10  21  36  53  79 116 154 193 244 295 341
#     4  10  19  36  58  80 111 152 196 239 288 344
#     4  10  21  38  62  86 112 149 192 243 294 343
#     4  11  24  40  61  89 123 159 189 239 303 356
#
# _framework density 19.292489
#
# number of rings (size 3 to 8) (size 9 to 14) (size 15 to 20)
#    0.000    1.625    3.750    1.500    0.000    3.000 
#    0.000    0.000    0.000    0.000    0.000    0.000 
#    0.000    0.000    0.000    0.000    0.000    0.000 
#
# Total GULP energy -396441.192727 kJ/mol
# GULP energy per Si atom -12388.787273 kJ/mol
# Density = 1.924858 g / cm^3
# Si number density = 19.292489 Si / 1000 Ang^3
#
#
#
# Elastic Constant Matrix: (Units=GPa)
#
#
# Indices 1 2 3 4 5 6 
#
# 1 108.5933 48.7208 40.6333 0.0001 1.8277 0.0000
# 2 48.7208 78.6869 24.7594 0.0004 -9.3016 -0.0002
# 3 40.6333 24.7594 95.6427 0.0004 -2.3332 -0.0003
# 4 0.0001 0.0004 0.0004 22.6116 -0.0001 -1.0947
# 5 1.8277 -9.3016 -2.3332 -0.0001 31.2828 0.0000
# 6 0.0000 -0.0002 -0.0003 -1.0947 0.0000 27.2471
#
#
#
# Elastic Compliance Matrix: (Units=1/GPa)
#
#
# Indices 1 2 3 4 5 6 
#
# 1 0.014427 -0.008052 -0.004131 0.000000 -0.003545 0.000000
# 2 -0.008052 0.018809 -0.001303 0.000000 0.005966 0.000000
# 3 -0.004131 -0.001303 0.012567 0.000000 0.000791 0.000000
# 4 0.000000 0.000000 0.000000 0.044311 0.000000 0.001780
# 5 -0.003545 0.005966 0.000791 0.000000 0.034007 0.000000
# 6 0.000000 0.000000 0.000000 0.001780 0.000000 0.036773
#
#
# Mechanical properties :
#
#
# Convention : Reuss Voigt Hill
#
# Bulk Modulus (GPa) = 53.10267 56.79443 54.94855
# Shear Modulus (GPa) = 25.75430 27.48225 26.61827
#
# Velocity S-wave (km/s) = 3.65765 3.77836 3.71849
# Velocity P-wave (km/s) = 6.73963 6.96686 6.85419
#
# Compressibility (1/GPa) = 0.01883145
#
# Stress axis : x y z
#
# Youngs Moduli (GPa) = 69.31658 53.16540 79.57171
#
# Poissons Ratio (x) = 0.42807 0.32872
# Poissons Ratio (y) = 0.55812 0.10368
# Poissons Ratio (z) = 0.28636 0.06927
#
# Static dielectric constant tensor:
#      x y z
#    x 3.829580 0.000000 0.061070 
#    y 0.000000 3.296620 0.000000 
#    z 0.061070 0.000000 3.784180 
# 
# 
# High freq. dielectric constant tensor:
#      x y z
#    x 1.756240 0.000000 0.006020 
#    y 0.000000 1.729620 0.000000 
#    z 0.006020 0.000000 1.762250 
# 
# From -- ./inp_files/245937.got.cif
#   From: 2010.06.25/outbox.cif.g09.slc.cpg/sg12_123_cif.got.tgz:245937.got - 2010.06.28 00:19:55.
