data_PCOD8093129
_publ_section_title
;
Structure prediction by ZEFSAII (Michael W. Deem and Ramdas Pophale) SiO2 
 PCOD8093129
Probable space group: C 2/M
;
_chemical_formula_sum "Si O2"
_cell_formula_units_Z 64
_cell_length_a 15.315509
_cell_length_b 8.779831
_cell_length_c 23.649556
_cell_angle_alpha 90.000000
_cell_angle_beta 92.484384
_cell_angle_gamma 90.000000
_cell_volume 3177.109519
_symmetry_space_group_name_H-M "C 2/M"
_symmetry_group_IT_number 12
_symmetry_cell_setting 'monoclinic'
loop_
_space_group_symop_operation_xyz
x,y,z
-x,y,-z
-x,-y,-z
x,-y,z
1/2+x,1/2+y,z
1/2-x,1/2+y,-z
1/2-x,1/2-y,-z
1/2+x,1/2-y,z
loop_
_atom_site_type_symbol
_atom_site_label
_atom_site_fract_x
_atom_site_fract_y
_atom_site_fract_z
Si Si1 0.169874 0.179829 0.879071
Si Si2 0.398375 0.679664 0.244186
Si Si3 0.489984 0.824158 0.065955
Si Si4 0.987291 0.319427 0.562742
Si Si5 0.848446 0.820032 0.867948
Si Si6 0.645314 0.177241 0.643096
Si Si7 0.905826 0.180487 0.748750
Si Si8 0.162147 0.822921 0.372661
O O1 0.148080 0.231487 0.814627
O O2 0.268360 0.232816 0.895491
O O3 0.105710 0.264973 0.920097
O O4 0.160421 0.000000 0.887607
O O5 0.399872 0.500000 0.249640
O O6 0.346134 0.745268 0.295813
O O7 0.496270 0.747653 0.247127
O O8 0.561713 0.722460 0.099192
O O9 0.501030 0.000000 0.083866
O O10 0.500000 0.801217 0.000000
O O11 0.991065 0.500000 0.562175
O O12 0.893515 0.267008 0.582683
O O13 0.000000 0.254381 0.500000
O O14 0.065259 0.253834 0.604389
O O15 0.853709 0.764377 0.802756
O O16 0.833952 0.000000 0.872468
O O17 0.735664 0.206322 0.611903
O O18 0.630950 0.000000 0.653496
O O19 0.858871 0.239789 0.690802
O O20 0.910475 0.000000 0.750032
O O21 0.137575 0.000000 0.376318
#
# Coordination Sequence:
#
# PCOD8093129 Si02
#       8
#     8   8   8   8   8   8   8   8
#     4  11  23  40  62  91 124 158 197 241 295 359
#     4  10  19  35  59  87 118 151 187 232 286 346
#     4  11  25  44  64  88 119 158 205 252 298 350
#     4  10  22  39  55  76 111 149 188 238 290 338
#     4  11  22  40  65  92 123 159 197 243 298 352
#     4  10  21  36  56  84 113 147 189 234 287 345
#     4   9  17  33  57  85 117 148 180 229 292 346
#     4  10  20  36  58  82 111 145 186 232 279 340
#
# _framework density 20.144096000000001
#
# number of rings (size 3 to 8) (size 9 to 14) (size 15 to 20)
#    0.000    1.750    2.500    1.875    0.000    4.750 
#    0.000    1.250    0.000    0.000    0.000    0.000 
#    0.000    0.000    0.000    0.000    0.000    0.000 
#
# Total GULP energy -396900.037218 kJ/mol
# GULP energy per Si atom -12403.126163 kJ/mol
# Density = 2.009825 g / cm^3
# Si number density = 20.144096 Si / 1000 Ang^3
#
#
#
# Elastic Constant Matrix: (Units=GPa)
#
#
# Indices 1 2 3 4 5 6 
#
# 1 104.0923 15.0367 27.2696 0.0000 -24.2889 0.0000
# 2 15.0367 38.0571 31.8774 0.0000 -7.5354 0.0000
# 3 27.2696 31.8774 100.7120 0.0000 -25.0661 0.0000
# 4 0.0000 0.0000 0.0000 25.8966 0.0000 -4.8975
# 5 -24.2889 -7.5354 -25.0661 0.0000 25.0605 0.0000
# 6 0.0000 0.0000 0.0000 -4.8975 0.0000 30.4633
#
#
#
# Elastic Compliance Matrix: (Units=1/GPa)
#
#
# Indices 1 2 3 4 5 6 
#
# 1 0.012692 -0.003076 0.000491 0.000000 0.011867 0.000000
# 2 -0.003076 0.036512 -0.011628 0.000000 -0.003633 0.000000
# 3 0.000491 -0.011628 0.016943 0.000000 0.013926 0.000000
# 4 0.000000 0.000000 0.000000 0.039826 0.000000 0.006403
# 5 0.011867 -0.003633 0.013926 0.000000 0.064241 0.000000
# 6 0.000000 0.000000 0.000000 0.006403 0.000000 0.033856
#
#
# Mechanical properties :
#
#
# Convention : Reuss Voigt Hill
#
# Bulk Modulus (GPa) = 26.51129 43.46989 34.99059
# Shear Modulus (GPa) = 20.40231 27.52926 23.96578
#
# Velocity S-wave (km/s) = 3.18593 3.70079 3.45297
# Velocity P-wave (km/s) = 5.16942 6.31565 5.77107
#
# Compressibility (1/GPa) = 0.03771978
#
# Stress axis : x y z
#
# Youngs Moduli (GPa) = 78.79214 27.38798 59.02121
#
# Poissons Ratio (x) = 0.08424 -0.02895
# Poissons Ratio (y) = 0.24235 0.68632
# Poissons Ratio (z) = -0.03865 0.31848
#
# Static dielectric constant tensor:
#      x y z
#    x 3.739080 0.000000 0.007030 
#    y 0.000000 3.391850 0.000000 
#    z 0.007030 0.000000 3.731270 
# 
# 
# High freq. dielectric constant tensor:
#      x y z
#    x 1.800230 0.000000 -0.004960 
#    y 0.000000 1.767320 0.000000 
#    z -0.004960 0.000000 1.782950 
# 
# From -- ./inp_files/338721.got.cif
#   From: 2010.06.25/outbox.cif.g09.slc.cpg/sg12_170_cif.got.tgz:338721.got - 2010.06.28 00:19:55.
