data_PCOD8093353
_publ_section_title
;
Structure prediction by ZEFSAII (Michael W. Deem and Ramdas Pophale) SiO2 
 PCOD8093353
Probable space group: C 2/M
;
_chemical_formula_sum "Si O2"
_cell_formula_units_Z 56
_cell_length_a 20.840828
_cell_length_b 14.123649
_cell_length_c 18.232656
_cell_angle_alpha 90.000000
_cell_angle_beta 147.724475
_cell_angle_gamma 90.000000
_cell_volume 2865.800463
_symmetry_space_group_name_H-M "C 2/M"
_symmetry_group_IT_number 12
_symmetry_cell_setting 'monoclinic'
loop_
_space_group_symop_operation_xyz
x,y,z
-x,y,-z
-x,-y,-z
x,-y,z
1/2+x,1/2+y,z
1/2-x,1/2+y,-z
1/2-x,1/2-y,-z
1/2+x,1/2-y,z
loop_
_atom_site_type_symbol
_atom_site_label
_atom_site_fract_x
_atom_site_fract_y
_atom_site_fract_z
Si Si1 0.416572 0.390327 0.195468
Si Si2 0.007558 0.393401 0.885210
Si Si3 0.355192 0.279679 0.547213
Si Si4 0.510778 0.104102 0.298612
Si Si5 0.750699 0.609883 0.691594
Si Si6 0.248046 0.104476 0.099267
Si Si7 0.250910 0.300342 0.158716
O O1 0.419301 0.500000 0.220697
O O2 0.550982 0.349022 0.321512
O O3 0.338160 0.333939 0.178746
O O4 0.361372 0.375702 0.061707
O O5 0.058876 0.500000 0.940067
O O6 0.958214 0.373452 0.755985
O O7 0.894962 0.379659 0.830630
O O8 0.113336 0.324337 0.009467
O O9 0.250000 0.250000 0.500000
O O10 0.423093 0.182857 0.588138
O O11 0.308662 0.331324 0.430467
O O12 0.367995 0.108269 0.166893
O O13 0.559396 0.000000 0.368180
O O14 0.712333 0.500000 0.648120
O O15 0.703042 0.653536 0.721518
O O16 0.253575 0.185542 0.166717
O O17 0.234501 0.000000 0.122983
#
# Coordination Sequence:
#
# PCOD8093353 Si02
#       7
#     8   8   8   8   8   8   8
#     4  11  22  37  62  94 121 153 199 252 301 348
#     4  10  19  35  61  91 119 151 194 245 298 354
#     4  12  24  39  59  84 120 165 198 238 291 354
#     4  10  19  37  63  88 112 149 202 251 291 345
#     4  11  25  40  57  88 127 162 196 238 293 362
#     4  10  21  38  64  92 115 147 200 258 300 344
#     4  12  21  37  63  90 123 157 194 245 306 357
#
# _framework density 19.540787999999999
#
# number of rings (size 3 to 8) (size 9 to 14) (size 15 to 20)
#    0.000    1.143    4.286    3.429    0.000    2.286 
#    0.000    2.143    0.000    3.429    0.000    0.000 
#    0.000    0.000    0.000    0.000    0.000    0.000 
#
# Total GULP energy -347216.820956 kJ/mol
# GULP energy per Si atom -12400.600748 kJ/mol
# Density = 1.949631 g / cm^3
# Si number density = 19.540788 Si / 1000 Ang^3
#
#
#
# Elastic Constant Matrix: (Units=GPa)
#
#
# Indices 1 2 3 4 5 6 
#
# 1 48.6053 35.7620 22.9612 0.0000 -7.3042 0.0000
# 2 35.7620 169.4516 57.0617 0.0000 -12.3734 0.0000
# 3 22.9612 57.0617 81.9884 0.0000 4.2675 0.0000
# 4 0.0000 0.0000 0.0000 35.8736 0.0000 2.3237
# 5 -7.3042 -12.3734 4.2675 0.0000 21.9835 0.0000
# 6 0.0000 0.0000 0.0000 2.3237 0.0000 29.2101
#
#
#
# Elastic Compliance Matrix: (Units=1/GPa)
#
#
# Indices 1 2 3 4 5 6 
#
# 1 0.026841 -0.003112 -0.005782 0.000000 0.008289 0.000000
# 2 -0.003112 0.008770 -0.005491 0.000000 0.004968 0.000000
# 3 -0.005782 -0.005491 0.018081 0.000000 -0.008522 0.000000
# 4 0.000000 0.000000 0.000000 0.028020 0.000000 -0.002229
# 5 0.008289 0.004968 -0.008522 0.000000 0.052693 0.000000
# 6 0.000000 0.000000 0.000000 -0.002229 0.000000 0.034412
#
#
# Mechanical properties :
#
#
# Convention : Reuss Voigt Hill
#
# Bulk Modulus (GPa) = 40.12585 59.06834 49.59710
# Shear Modulus (GPa) = 24.28425 29.69746 26.99086
#
# Velocity S-wave (km/s) = 3.52909 3.90265 3.72056
# Velocity P-wave (km/s) = 6.09794 7.11347 6.62519
#
# Compressibility (1/GPa) = 0.02492159
#
# Stress axis : x y z
#
# Youngs Moduli (GPa) = 37.25646 114.02659 55.30647
#
# Poissons Ratio (x) = 0.35488 0.31980
# Poissons Ratio (y) = 0.11595 0.30366
# Poissons Ratio (z) = 0.21543 0.62607
#
# Static dielectric constant tensor:
#      x y z
#    x 3.400560 0.000000 0.161430 
#    y 0.000000 3.997600 0.000000 
#    z 0.161430 0.000000 3.473890 
# 
# 
# High freq. dielectric constant tensor:
#      x y z
#    x 1.736770 0.000000 0.017170 
#    y 0.000000 1.779690 0.000000 
#    z 0.017170 0.000000 1.752420 
# 
# From -- ./inp_files/284517.got.cif
#   From: 2010.06.25/outbox.cif.g09.slc.cpg/sg12_143_cif.got.tgz:284517.got - 2010.06.28 00:19:55.
