data_PCOD8093433
_publ_section_title
;
Structure prediction by ZEFSAII (Michael W. Deem and Ramdas Pophale) SiO2 
 PCOD8093433
Probable space group: C 2/M
;
_chemical_formula_sum "Si O2"
_cell_formula_units_Z 64
_cell_length_a 9.455860
_cell_length_b 15.062671
_cell_length_c 32.123166
_cell_angle_alpha 90.000000
_cell_angle_beta 136.083969
_cell_angle_gamma 90.000000
_cell_volume 3173.456747
_symmetry_space_group_name_H-M "C 2/M"
_symmetry_group_IT_number 12
_symmetry_cell_setting 'monoclinic'
loop_
_space_group_symop_operation_xyz
x,y,z
-x,y,-z
-x,-y,-z
x,-y,z
1/2+x,1/2+y,z
1/2-x,1/2+y,-z
1/2-x,1/2-y,-z
1/2+x,1/2-y,z
loop_
_atom_site_type_symbol
_atom_site_label
_atom_site_fract_x
_atom_site_fract_y
_atom_site_fract_z
Si Si1 0.113694 0.603304 0.113938
Si Si2 0.268174 0.758738 0.709959
Si Si3 0.278933 0.752944 0.207089
Si Si4 0.315471 0.100072 0.365820
Si Si5 0.449343 0.603435 0.116224
Si Si6 0.516303 0.402084 0.377394
Si Si7 0.346593 0.838922 0.504520
Si Si8 0.156193 0.894888 0.998552
O O1 0.119254 0.500000 0.129051
O O2 0.193411 0.663149 0.168490
O O3 0.246765 0.617556 0.100650
O O4 0.885161 0.636826 0.056265
O O5 0.506343 0.777853 0.768043
O O6 0.168273 0.766694 0.733967
O O7 0.222260 0.661994 0.681779
O O8 0.167799 0.831961 0.658182
O O9 0.131114 0.837328 0.172573
O O10 0.146376 0.121491 0.364279
O O11 0.539261 0.112482 0.433362
O O12 0.297170 0.000000 0.345340
O O13 0.515430 0.500000 0.130821
O O14 0.406724 0.638290 0.060546
O O15 0.420352 0.500000 0.354038
O O16 0.663001 0.400063 0.448729
O O17 0.500000 0.815711 0.500000
O O18 0.250000 0.750000 0.500000
O O19 0.148340 0.000000 0.997737
O O20 0.000000 0.855520 0.000000
#
# Coordination Sequence:
#
# PCOD8093433 Si02
#       8
#     8   8   8   8   8   8   8   8
#     4  10  22  42  66  89 120 164 203 246 305 368
#     4  12  24  41  61  86 122 163 206 255 306 353
#     4  12  26  41  61  90 122 160 212 257 298 360
#     4  10  21  39  65  91 119 162 207 249 303 372
#     4  10  22  42  65  89 122 162 202 249 305 366
#     4  10  21  39  64  92 121 159 206 252 304 368
#     4  10  19  35  65  93 123 156 197 252 311 363
#     4   9  19  36  63  98 127 152 196 254 309 360
#
# _framework density 20.167283000000001
#
# number of rings (size 3 to 8) (size 9 to 14) (size 15 to 20)
#    0.000    1.625    3.750    0.750    1.750    5.500 
#    0.000    0.000    0.000    0.750    0.000    0.000 
#    0.000    0.000    0.000    0.000    0.000    0.000 
#
# Total GULP energy -396854.823506 kJ/mol
# GULP energy per Si atom -12401.713235 kJ/mol
# Density = 2.012138 g / cm^3
# Si number density = 20.167283 Si / 1000 Ang^3
#
#
#
# Elastic Constant Matrix: (Units=GPa)
#
#
# Indices 1 2 3 4 5 6 
#
# 1 66.5719 40.5798 43.7472 0.0000 -0.7455 0.0000
# 2 40.5798 101.3607 50.5484 0.0000 10.3383 0.0000
# 3 43.7472 50.5484 115.1305 0.0000 9.1938 0.0000
# 4 0.0000 0.0000 0.0000 31.7564 0.0000 -2.3291
# 5 -0.7455 10.3383 9.1938 0.0000 37.5286 0.0000
# 6 0.0000 0.0000 0.0000 -2.3291 0.0000 26.0114
#
#
#
# Elastic Compliance Matrix: (Units=1/GPa)
#
#
# Indices 1 2 3 4 5 6 
#
# 1 0.023145 -0.006550 -0.006221 0.000000 0.003788 0.000000
# 2 -0.006550 0.014660 -0.003687 0.000000 -0.003265 0.000000
# 3 -0.006221 -0.003687 0.012849 0.000000 -0.002256 0.000000
# 4 0.000000 0.000000 0.000000 0.031698 0.000000 0.002838
# 5 0.003788 -0.003265 -0.002256 0.000000 0.028174 0.000000
# 6 0.000000 0.000000 0.000000 0.002838 0.000000 0.038699
#
#
# Mechanical properties :
#
#
# Convention : Reuss Voigt Hill
#
# Bulk Modulus (GPa) = 56.37919 61.42376 58.90147
# Shear Modulus (GPa) = 26.58852 28.93847 27.76349
#
# Velocity S-wave (km/s) = 3.63492 3.79215 3.71436
# Velocity P-wave (km/s) = 6.75524 7.04962 6.90400
#
# Compressibility (1/GPa) = 0.01773704
#
# Stress axis : x y z
#
# Youngs Moduli (GPa) = 43.20674 68.21467 77.82958
#
# Poissons Ratio (x) = 0.44679 0.48420
# Poissons Ratio (y) = 0.28299 0.28694
# Poissons Ratio (z) = 0.26880 0.25150
#
# Static dielectric constant tensor:
#      x y z
#    x 3.669030 0.000000 0.001310 
#    y 0.000000 3.342470 0.000000 
#    z 0.001310 0.000000 3.974670 
# 
# 
# High freq. dielectric constant tensor:
#      x y z
#    x 1.779610 0.000000 0.004680 
#    y 0.000000 1.785510 0.000000 
#    z 0.004680 0.000000 1.796130 
# 
# From -- ./inp_files/372583.got.cif
#   From: 2010.06.25/outbox.cif.g09.slc.cpg/sg12_187_cif.got.tgz:372583.got - 2010.06.28 00:19:55.
