data_PCOD8093833
_publ_section_title
;
Structure prediction by ZEFSAII (Michael W. Deem and Ramdas Pophale) SiO2 
 PCOD8093833
Probable space group: C 2/M
;
_chemical_formula_sum "Si O2"
_cell_formula_units_Z 64
_cell_length_a 14.282173
_cell_length_b 8.762712
_cell_length_c 29.948494
_cell_angle_alpha 90.000000
_cell_angle_beta 118.604622
_cell_angle_gamma 90.000000
_cell_volume 3290.597834
_symmetry_space_group_name_H-M "C 2/M"
_symmetry_group_IT_number 12
_symmetry_cell_setting 'monoclinic'
loop_
_space_group_symop_operation_xyz
x,y,z
-x,y,-z
-x,-y,-z
x,-y,z
1/2+x,1/2+y,z
1/2-x,1/2+y,-z
1/2-x,1/2-y,-z
1/2+x,1/2-y,z
loop_
_atom_site_type_symbol
_atom_site_label
_atom_site_fract_x
_atom_site_fract_y
_atom_site_fract_z
Si Si1 0.531857 0.180600 0.287381
Si Si2 0.263426 0.320556 0.365277
Si Si3 0.038742 0.821891 0.907788
Si Si4 0.191010 0.319098 0.444558
Si Si5 0.526289 0.681960 0.634634
Si Si6 0.404668 0.320754 0.179168
Si Si7 0.807692 0.821131 0.888864
Si Si8 0.880424 0.672021 0.990493
O O1 0.655390 0.233989 0.315884
O O2 0.469497 0.261932 0.313442
O O3 0.482538 0.231189 0.229596
O O4 0.522003 0.000000 0.291868
O O5 0.271585 0.500000 0.363733
O O6 0.257869 0.270816 0.415866
O O7 0.367517 0.251616 0.365152
O O8 0.918001 0.772827 0.890951
O O9 0.062164 0.771591 0.862958
O O10 0.054402 0.000000 0.919025
O O11 0.122398 0.739936 0.960162
O O12 0.182119 0.500000 0.446901
O O13 0.250000 0.250000 0.500000
O O14 0.072835 0.250873 0.414866
O O15 0.519902 0.500000 0.631825
O O16 0.415633 0.500000 0.190099
O O17 0.283490 0.267314 0.159428
O O18 0.805936 0.769043 0.940269
O O19 0.786110 0.000000 0.881210
O O20 0.836387 0.500000 0.981135
O O21 0.000000 0.680536 0.000000
#
# Coordination Sequence:
#
# PCOD8093833 Si02
#       8
#     8   8   8   8   8   8   8   8
#     4  10  21  39  57  78 108 141 177 223 273 323
#     4   8  18  36  58  80 108 146 186 222 267 322
#     4   9  20  37  55  76 105 138 174 216 263 316
#     4  10  20  36  55  83 120 155 187 226 270 315
#     4  10  19  36  60  84 108 144 188 228 269 317
#     4  11  23  38  55  79 107 137 176 222 269 320
#     4  10  20  36  56  78 105 138 173 214 265 319
#     4   9  17  31  53  79 105 135 172 213 259 316
#
# _framework density 19.449354
#
# number of rings (size 3 to 8) (size 9 to 14) (size 15 to 20)
#    0.000    2.375    0.000    3.000    0.000    5.000 
#    0.000   12.500    0.000    0.000    0.000    0.000 
#    0.000    0.000    0.000    0.000    0.000    0.000 
#
# Total GULP energy -396844.875938 kJ/mol
# GULP energy per Si atom -12401.402373 kJ/mol
# Density = 1.940509 g / cm^3
# Si number density = 19.449354 Si / 1000 Ang^3
#
#
#
# Elastic Constant Matrix: (Units=GPa)
#
#
# Indices 1 2 3 4 5 6 
#
# 1 113.2872 29.3846 48.3072 0.0000 1.5850 0.0000
# 2 29.3846 66.3787 31.0843 0.0000 2.4407 0.0000
# 3 48.3072 31.0843 125.3226 0.0000 5.1585 0.0000
# 4 0.0000 0.0000 0.0000 39.0250 0.0000 1.7353
# 5 1.5850 2.4407 5.1585 0.0000 18.4074 0.0000
# 6 0.0000 0.0000 0.0000 1.7353 0.0000 24.2385
#
#
#
# Elastic Compliance Matrix: (Units=1/GPa)
#
#
# Indices 1 2 3 4 5 6 
#
# 1 0.011176 -0.003324 -0.003502 0.000000 0.000460 0.000000
# 2 -0.003324 0.018055 -0.003146 0.000000 -0.001226 0.000000
# 3 -0.003502 -0.003146 0.010198 0.000000 -0.002139 0.000000
# 4 0.000000 0.000000 0.000000 0.025706 0.000000 -0.001840
# 5 0.000460 -0.001226 -0.002139 0.000000 0.055048 0.000000
# 6 0.000000 0.000000 0.000000 -0.001840 0.000000 0.041388
#
#
# Mechanical properties :
#
#
# Convention : Reuss Voigt Hill
#
# Bulk Modulus (GPa) = 51.32657 58.06006 54.69331
# Shear Modulus (GPa) = 26.59379 29.41501 28.00440
#
# Velocity S-wave (km/s) = 3.70176 3.89316 3.79867
# Velocity P-wave (km/s) = 6.68714 7.07995 6.88635
#
# Compressibility (1/GPa) = 0.01948309
#
# Stress axis : x y z
#
# Youngs Moduli (GPa) = 89.47367 55.38570 98.05885
#
# Poissons Ratio (x) = 0.18412 0.34345
# Poissons Ratio (y) = 0.29744 0.30854
# Poissons Ratio (z) = 0.31338 0.17427
#
# Static dielectric constant tensor:
#      x y z
#    x 3.767960 0.000000 0.021490 
#    y 0.000000 3.476240 0.000000 
#    z 0.021490 0.000000 3.544040 
# 
# 
# High freq. dielectric constant tensor:
#      x y z
#    x 1.760480 0.000000 0.003990 
#    y 0.000000 1.755190 0.000000 
#    z 0.003990 0.000000 1.757950 
# 
# From -- ./inp_files/375103.got.cif
#   From: 2010.06.25/outbox.cif.g09.slc.cpg/sg12_188_cif.got.tgz:375103.got - 2010.06.28 00:19:55.
