data_PCOD8093970
_publ_section_title
;
Structure prediction by ZEFSAII (Michael W. Deem and Ramdas Pophale) SiO2 
 PCOD8093970
Probable space group: C 2/M
;
_chemical_formula_sum "Si O2"
_cell_formula_units_Z 64
_cell_length_a 19.320442
_cell_length_b 14.281662
_cell_length_c 26.253361
_cell_angle_alpha 90.000000
_cell_angle_beta 151.346466
_cell_angle_gamma 90.000000
_cell_volume 3473.603049
_symmetry_space_group_name_H-M "C 2/M"
_symmetry_group_IT_number 12
_symmetry_cell_setting 'monoclinic'
loop_
_space_group_symop_operation_xyz
x,y,z
-x,y,-z
-x,-y,-z
x,-y,z
1/2+x,1/2+y,z
1/2-x,1/2+y,-z
1/2-x,1/2-y,-z
1/2+x,1/2-y,z
loop_
_atom_site_type_symbol
_atom_site_label
_atom_site_fract_x
_atom_site_fract_y
_atom_site_fract_z
Si Si1 0.023293 0.890639 0.073099
Si Si2 0.483510 0.724710 0.429299
Si Si3 0.720659 0.731231 0.039617
Si Si4 0.286516 0.892673 0.737813
Si Si5 0.351201 0.894820 0.293506
Si Si6 0.942732 0.391601 0.019170
Si Si7 0.560706 0.894561 0.764381
Si Si8 0.747573 0.893232 0.401501
O O1 0.184704 0.869200 0.197119
O O2 0.986240 0.000000 0.052422
O O3 0.000000 0.855698 0.000000
O O4 0.916654 0.836390 0.041851
O O5 0.500000 0.726887 0.500000
O O6 0.344136 0.665838 0.322393
O O7 0.463805 0.829270 0.395765
O O8 0.625865 0.675882 0.498049
O O9 0.865040 0.681465 0.152140
O O10 0.750000 0.750000 0.000000
O O11 0.694283 0.827656 0.054141
O O12 0.433574 0.864580 0.860628
O O13 0.303263 0.871999 0.688881
O O14 0.248957 0.000000 0.724416
O O15 0.371058 0.884566 0.246546
O O16 0.385696 0.000000 0.333958
O O17 0.895966 0.500000 0.992791
O O18 0.000000 0.367361 0.000000
O O19 0.389570 0.874765 0.651055
O O20 0.586413 0.000000 0.802508
O O21 0.804179 0.000000 0.442323
#
# Coordination Sequence:
#
# PCOD8093970 Si02
#       8
#     8   8   8   8   8   8   8   8
#     4  10  19  36  61  87 111 143 194 243 279 326
#     4  10  20  33  54  81 108 138 181 232 284 338
#     4  12  23  33  55  86 117 150 183 230 285 332
#     4   9  17  32  55  81 106 138 180 224 272 327
#     4  10  21  36  57  81 106 141 187 236 281 330
#     4  10  22  37  54  79 115 155 186 219 272 343
#     4  10  21  37  56  80 108 143 189 237 283 328
#     4   9  18  34  55  79 109 140 179 231 281 332
#
# _framework density 18.424672999999999
#
# number of rings (size 3 to 8) (size 9 to 14) (size 15 to 20)
#    0.000    2.000    1.250    2.625    1.750    5.250 
#    0.000    0.000    0.000    0.750    0.000    0.000 
#    0.000    0.000    0.000    0.000    0.000    0.000 
#
# Total GULP energy -396841.145712 kJ/mol
# GULP energy per Si atom -12401.285804 kJ/mol
# Density = 1.838274 g / cm^3
# Si number density = 18.424673 Si / 1000 Ang^3
#
#
#
# Elastic Constant Matrix: (Units=GPa)
#
#
# Indices 1 2 3 4 5 6 
#
# 1 82.4598 40.2577 17.6022 0.0003 18.0377 0.0001
# 2 40.2577 106.7080 49.5098 0.0008 13.3780 0.0004
# 3 17.6022 49.5098 63.8184 0.0111 14.6196 -0.0005
# 4 0.0003 0.0008 0.0111 39.8269 0.0034 0.2366
# 5 18.0377 13.3780 14.6196 0.0034 22.3678 -0.0003
# 6 0.0001 0.0004 -0.0005 0.2366 -0.0003 22.8378
#
#
#
# Elastic Compliance Matrix: (Units=1/GPa)
#
#
# Indices 1 2 3 4 5 6 
#
# 1 0.017231 -0.006353 0.002927 0.000000 -0.012009 0.000000
# 2 -0.006353 0.017031 -0.012114 0.000003 0.002855 -0.000001
# 3 0.002927 -0.012114 0.027216 -0.000006 -0.012904 0.000001
# 4 0.000000 0.000003 -0.000006 0.025110 -0.000002 -0.000260
# 5 -0.012009 0.002855 -0.012904 -0.000002 0.061117 0.000001
# 6 0.000000 -0.000001 0.000001 -0.000260 0.000001 0.043790
#
#
# Mechanical properties :
#
#
# Convention : Reuss Voigt Hill
#
# Bulk Modulus (GPa) = 32.89763 51.96951 42.43357
# Shear Modulus (GPa) = 21.48614 26.71426 24.10020
#
# Velocity S-wave (km/s) = 3.41862 3.81191 3.62061
# Velocity P-wave (km/s) = 5.78589 6.90231 6.36861
#
# Compressibility (1/GPa) = 0.03039733
#
# Stress axis : x y z
#
# Youngs Moduli (GPa) = 58.03554 58.71640 36.74290
#
# Poissons Ratio (x) = 0.37304 -0.10755
# Poissons Ratio (y) = 0.36872 0.44511
# Poissons Ratio (z) = -0.16988 0.71130
#
# Static dielectric constant tensor:
#      x y z
#    x 3.288860 0.000000 0.154040 
#    y 0.000000 3.575390 -0.000010 
#    z 0.154040 -0.000010 3.341080 
# 
# 
# High freq. dielectric constant tensor:
#      x y z
#    x 1.704740 0.000000 0.012520 
#    y 0.000000 1.723370 0.000000 
#    z 0.012520 0.000000 1.702270 
# 
# From -- ./inp_files/183747.got.cif
#   From: 2010.06.25/outbox.cif.g09.slc.cpg/sg12_92_cif.got.tgz:183747.got - 2010.06.28 00:19:55.
