data_PCOD8093271
_publ_section_title
;
Structure prediction by ZEFSAII (Michael W. Deem and Ramdas Pophale) SiO2 
 PCOD8093271
Probable space group: C 2/M
;
_chemical_formula_sum "Si O2"
_cell_formula_units_Z 56
_cell_length_a 28.166573
_cell_length_b 8.594906
_cell_length_c 19.431858
_cell_angle_alpha 90.000000
_cell_angle_beta 142.818884
_cell_angle_gamma 90.000000
_cell_volume 2842.944191
_symmetry_space_group_name_H-M "C 2/M"
_symmetry_group_IT_number 12
_symmetry_cell_setting 'monoclinic'
loop_
_space_group_symop_operation_xyz
x,y,z
-x,y,-z
-x,-y,-z
x,-y,z
1/2+x,1/2+y,z
1/2-x,1/2+y,-z
1/2-x,1/2-y,-z
1/2+x,1/2-y,z
loop_
_atom_site_type_symbol
_atom_site_label
_atom_site_fract_x
_atom_site_fract_y
_atom_site_fract_z
Si Si1 0.026576 0.319145 0.830830
Si Si2 0.999086 0.179658 0.657082
Si Si3 0.303722 0.180774 0.923387
Si Si4 0.049078 0.818889 0.123510
Si Si5 0.801488 0.680777 0.762941
Si Si6 0.642226 0.180374 0.748990
Si Si7 0.860666 0.680626 0.412451
O O1 0.015814 0.500000 0.801491
O O2 0.980562 0.280976 0.846930
O O3 0.990582 0.218522 0.727644
O O4 0.118500 0.277416 0.944450
O O5 0.086640 0.218855 0.733514
O O6 0.938630 0.282928 0.544357
O O7 0.979978 0.000000 0.622640
O O8 0.318163 0.228075 0.860972
O O9 0.232216 0.280220 0.872022
O O10 0.281626 0.000000 0.902784
O O11 0.140515 0.780732 0.217606
O O12 0.037641 0.000000 0.126388
O O13 0.000000 0.766751 0.000000
O O14 0.816907 0.500000 0.767037
O O15 0.711986 0.722724 0.640098
O O16 0.624817 0.227072 0.650050
O O17 0.625895 0.000000 0.744549
O O18 0.839694 0.500000 0.393924
#
# Coordination Sequence:
#
# PCOD8093271 Si02
#       7
#     8   8   8   8   8   8   8
#     4  11  23  40  60  84 118 157 196 240 291 346
#     4  12  25  40  58  83 117 157 197 240 291 347
#     4   9  19  35  57  86 117 150 191 239 289 342
#     4  11  22  36  59  90 122 154 192 236 286 344
#     4  10  19  35  60  90 119 150 193 241 289 339
#     4  10  21  37  61  88 115 151 195 241 289 342
#     4  10  21  39  62  88 117 151 195 243 290 342
#
# _framework density 19.697889
#
# number of rings (size 3 to 8) (size 9 to 14) (size 15 to 20)
#    0.000    1.571    1.429    3.857    0.000    6.286 
#    0.000    0.714    0.000    0.000    0.000    0.000 
#    0.000    0.000    0.000    0.000    0.000    0.000 
#
# Total GULP energy -347395.886108 kJ/mol
# GULP energy per Si atom -12406.995932 kJ/mol
# Density = 1.965306 g / cm^3
# Si number density = 19.697889 Si / 1000 Ang^3
#
#
#
# Elastic Constant Matrix: (Units=GPa)
#
#
# Indices 1 2 3 4 5 6 
#
# 1 86.1939 20.5526 28.8289 0.0000 5.4850 0.0000
# 2 20.5526 53.1232 20.8932 0.0000 -0.0064 0.0000
# 3 28.8289 20.8932 43.4995 0.0000 2.9600 0.0000
# 4 0.0000 0.0000 0.0000 32.8997 0.0000 4.1199
# 5 5.4850 -0.0064 2.9600 0.0000 25.8804 0.0000
# 6 0.0000 0.0000 0.0000 4.1199 0.0000 33.4703
#
#
#
# Elastic Compliance Matrix: (Units=1/GPa)
#
#
# Indices 1 2 3 4 5 6 
#
# 1 0.015268 -0.002450 -0.008790 0.000000 -0.002231 0.000000
# 2 -0.002450 0.023644 -0.009845 0.000000 0.001651 0.000000
# 3 -0.008790 -0.009845 0.033678 0.000000 -0.001991 0.000000
# 4 0.000000 0.000000 0.000000 0.030871 0.000000 -0.003800
# 5 -0.002231 0.001651 -0.001991 0.000000 0.039340 0.000000
# 6 0.000000 0.000000 0.000000 -0.003800 0.000000 0.030345
#
#
# Mechanical properties :
#
#
# Convention : Reuss Voigt Hill
#
# Bulk Modulus (GPa) = 32.87294 35.92954 34.40124
# Shear Modulus (GPa) = 22.17708 25.95287 24.06497
#
# Velocity S-wave (km/s) = 3.35903 3.63374 3.49908
# Velocity P-wave (km/s) = 5.63639 5.99044 5.81611
#
# Compressibility (1/GPa) = 0.03042016
#
# Stress axis : x y z
#
# Youngs Moduli (GPa) = 65.49692 42.29342 29.69254
#
# Poissons Ratio (x) = 0.10362 0.26100
# Poissons Ratio (y) = 0.16047 0.29233
# Poissons Ratio (z) = 0.57572 0.41639
#
# Static dielectric constant tensor:
#      x y z
#    x 3.481080 0.000000 0.085610 
#    y 0.000000 3.548720 0.000000 
#    z 0.085610 0.000000 3.511460 
# 
# 
# High freq. dielectric constant tensor:
#      x y z
#    x 1.762720 0.000000 0.012040 
#    y 0.000000 1.774920 0.000000 
#    z 0.012040 0.000000 1.761230 
# 
# From -- ./inp_files/280868.got.cif
#   From: 2010.06.25/outbox.cif.g09.slc.cpg/sg12_141_cif.got.tgz:280868.got - 2010.06.28 00:19:55.
