data_PCOD8093925
_publ_section_title
;
Structure prediction by ZEFSAII (Michael W. Deem and Ramdas Pophale) SiO2 
 PCOD8093925
Probable space group: C 2/M
;
_chemical_formula_sum "Si O2"
_cell_formula_units_Z 32
_cell_length_a 12.201180
_cell_length_b 20.477900
_cell_length_c 6.249047
_cell_angle_alpha 90.000000
_cell_angle_beta 106.453071
_cell_angle_gamma 90.000000
_cell_volume 1497.418577
_symmetry_space_group_name_H-M "C 2/M"
_symmetry_group_IT_number 12
_symmetry_cell_setting 'monoclinic'
loop_
_space_group_symop_operation_xyz
x,y,z
-x,y,-z
-x,-y,-z
x,-y,z
1/2+x,1/2+y,z
1/2-x,1/2+y,-z
1/2-x,1/2-y,-z
1/2+x,1/2-y,z
loop_
_atom_site_type_symbol
_atom_site_label
_atom_site_fract_x
_atom_site_fract_y
_atom_site_fract_z
Si Si1 0.814574 0.687812 0.141788
Si Si2 0.708644 0.427970 0.844111
Si Si3 0.000000 0.264782 0.500000
Si Si4 0.500000 0.399022 0.000000
Si Si5 0.347194 0.658231 0.576685
O O1 0.765390 0.670244 0.348537
O O2 0.951992 0.695418 0.265168
O O3 0.750000 0.750000 0.000000
O O4 0.799323 0.625004 0.980768
O O5 0.764674 0.500000 0.846993
O O6 0.667009 0.403050 0.589850
O O7 0.604181 0.439304 0.954077
O O8 0.884121 0.223719 0.475901
O O9 0.544549 0.353280 0.212433
#
# Coordination Sequence:
#
# PCOD8093925 Si02
#       5
#     8   8   4   4   8
#     4  11  24  41  63  95 124 159 210 260 309 368
#     4  11  23  39  59  89 129 167 204 254 310 372
#     4  12  20  40  64  90 122 160 202 260 312 362
#     4  10  19  36  60  92 124 162 203 252 313 372
#     4  11  21  39  61  93 125 156 204 256 318 369
#
# _framework density 21.37011
#
# number of rings (size 3 to 8) (size 9 to 14) (size 15 to 20)
#    0.000    1.000    5.000    2.625    0.000    6.000 
#    0.000    0.625    0.000    1.500    0.000    0.000 
#    0.000    0.000    0.000    0.000    0.000    0.000 
#
# Total GULP energy -198225.398350 kJ/mol
# GULP energy per Si atom -12389.087397 kJ/mol
# Density = 2.132147 g / cm^3
# Si number density = 21.370110 Si / 1000 Ang^3
#
#
#
# Elastic Constant Matrix: (Units=GPa)
#
#
# Indices 1 2 3 4 5 6 
#
# 1 33.1093 24.4557 23.4821 0.0000 10.0877 0.0000
# 2 24.4557 160.0548 67.9234 0.0000 24.4732 0.0000
# 3 23.4821 67.9234 138.7828 0.0000 23.4796 0.0000
# 4 0.0000 0.0000 0.0000 9.5488 0.0000 7.2159
# 5 10.0877 24.4732 23.4796 0.0000 48.9693 0.0000
# 6 0.0000 0.0000 0.0000 7.2159 0.0000 18.6459
#
#
#
# Elastic Compliance Matrix: (Units=1/GPa)
#
#
# Indices 1 2 3 4 5 6 
#
# 1 0.036649 -0.003335 -0.003889 0.000000 -0.004018 0.000000
# 2 -0.003335 0.008429 -0.003226 0.000000 -0.001979 0.000000
# 3 -0.003889 -0.003226 0.009832 0.000000 -0.002301 0.000000
# 4 0.000000 0.000000 0.000000 0.148012 0.000000 -0.057280
# 5 -0.004018 -0.001979 -0.002301 0.000000 0.023341 0.000000
# 6 0.000000 0.000000 0.000000 -0.057280 0.000000 0.075798
#
#
# Mechanical properties :
#
#
# Convention : Reuss Voigt Hill
#
# Bulk Modulus (GPa) = 29.40393 62.62991 46.01692
# Shear Modulus (GPa) = 14.95674 29.83852 22.39763
#
# Velocity S-wave (km/s) = 2.64841 3.74073 3.24092
# Velocity P-wave (km/s) = 4.81055 6.93024 5.96530
#
# Compressibility (1/GPa) = 0.03400906
#
# Stress axis : x y z
#
# Youngs Moduli (GPa) = 27.28609 118.63548 101.71079
#
# Poissons Ratio (x) = 0.39565 0.39555
# Poissons Ratio (y) = 0.09100 0.32816
# Poissons Ratio (z) = 0.10611 0.38277
#
# Static dielectric constant tensor:
#      x y z
#    x 3.613090 0.000000 -0.026780 
#    y 0.000000 3.732830 0.000000 
#    z -0.026780 0.000000 4.050540 
# 
# 
# High freq. dielectric constant tensor:
#      x y z
#    x 1.801110 0.000000 0.003060 
#    y 0.000000 1.826650 0.000000 
#    z 0.003060 0.000000 1.862800 
# 
# From -- ./inp_files/6838.got.cif
#   From: 2010.06.25/outbox.cif.g09.slc.cpg/sg12_4_cif.got.tgz:6838.got - 2010.06.28 00:19:55.
