data_PCOD8093168
_publ_section_title
;
Structure prediction by ZEFSAII (Michael W. Deem and Ramdas Pophale) SiO2 
 PCOD8093168
Probable space group: C 2/M
;
_chemical_formula_sum "Si O2"
_cell_formula_units_Z 56
_cell_length_a 14.121127
_cell_length_b 18.452793
_cell_length_c 17.108790
_cell_angle_alpha 90.000000
_cell_angle_beta 134.841342
_cell_angle_gamma 90.000000
_cell_volume 3161.076815
_symmetry_space_group_name_H-M "C 2/M"
_symmetry_group_IT_number 12
_symmetry_cell_setting 'monoclinic'
loop_
_space_group_symop_operation_xyz
x,y,z
-x,y,-z
-x,-y,-z
x,-y,z
1/2+x,1/2+y,z
1/2-x,1/2+y,-z
1/2-x,1/2-y,-z
1/2+x,1/2-y,z
loop_
_atom_site_type_symbol
_atom_site_label
_atom_site_fract_x
_atom_site_fract_y
_atom_site_fract_z
Si Si1 0.557147 0.082206 0.788370
Si Si2 0.255717 0.355413 0.794862
Si Si3 0.224684 0.826982 0.023391
Si Si4 0.093582 0.821960 0.368216
Si Si5 0.608483 0.728707 0.625132
Si Si6 0.803424 0.327806 0.621763
Si Si7 0.020938 0.084912 0.183836
O O1 0.633949 0.091739 0.749856
O O2 0.635765 0.128386 0.900288
O O3 0.405043 0.106834 0.691518
O O4 0.557275 0.000000 0.815659
O O5 0.316890 0.318326 0.909206
O O6 0.199104 0.295303 0.703946
O O7 0.368840 0.402070 0.818522
O O8 0.250000 0.750000 0.000000
O O9 0.112020 0.870390 0.911702
O O10 0.115930 0.747822 0.333464
O O11 0.223679 0.839966 0.495024
O O12 0.074189 0.888891 0.298725
O O13 0.961210 0.811749 0.343420
O O14 0.500000 0.759059 0.500000
O O15 0.702867 0.670841 0.636542
O O16 0.987346 0.000000 0.167740
#
# Coordination Sequence:
#
# PCOD8093168 Si02
#       7
#     8   8   8   8   8   8   8
#     4  10  21  36  55  83 117 148 184 231 290 348
#     4  10  21  33  58  87 116 147 187 232 292 349
#     4  10  22  38  58  81 114 150 195 235 277 340
#     4  10  20  36  57  86 112 153 196 235 279 340
#     4  10  19  35  60  87 114 147 195 245 282 331
#     4  10  19  35  60  82 116 149 192 240 284 333
#     4  12  23  37  57  86 123 154 186 236 297 349
#
# _framework density 17.715482999999999
#
# number of rings (size 3 to 8) (size 9 to 14) (size 15 to 20)
#    0.857    0.857    2.857    3.000    0.000    1.143 
#    0.000    0.714    0.000    5.143    0.000    3.000 
#    0.000    0.000    0.000    0.000    0.000    0.000 
#
# Total GULP energy -347147.992196 kJ/mol
# GULP energy per Si atom -12398.142578 kJ/mol
# Density = 1.767516 g / cm^3
# Si number density = 17.715483 Si / 1000 Ang^3
#
#
#
# Elastic Constant Matrix: (Units=GPa)
#
#
# Indices 1 2 3 4 5 6 
#
# 1 97.9427 42.1328 34.3903 0.0000 1.5056 0.0000
# 2 42.1328 132.3433 61.4308 0.0000 3.0038 0.0000
# 3 34.3903 61.4308 94.8197 0.0000 5.3893 0.0000
# 4 0.0000 0.0000 0.0000 24.7192 0.0000 4.0854
# 5 1.5056 3.0038 5.3893 0.0000 28.4780 0.0000
# 6 0.0000 0.0000 0.0000 4.0854 0.0000 22.9786
#
#
#
# Elastic Compliance Matrix: (Units=1/GPa)
#
#
# Indices 1 2 3 4 5 6 
#
# 1 0.012314 -0.002641 -0.002764 0.000000 0.000151 0.000000
# 2 -0.002641 0.011373 -0.006419 0.000000 0.000155 0.000000
# 3 -0.002764 -0.006419 0.015831 0.000000 -0.002173 0.000000
# 4 0.000000 0.000000 0.000000 0.041679 0.000000 -0.007410
# 5 0.000151 0.000155 -0.002173 0.000000 0.035502 0.000000
# 6 0.000000 0.000000 0.000000 -0.007410 0.000000 0.044836
#
#
# Mechanical properties :
#
#
# Convention : Reuss Voigt Hill
#
# Bulk Modulus (GPa) = 63.01034 66.77927 64.89481
# Shear Modulus (GPa) = 26.25039 27.71195 26.98117
#
# Velocity S-wave (km/s) = 3.85356 3.95939 3.90683
# Velocity P-wave (km/s) = 7.44615 7.66026 7.55396
#
# Compressibility (1/GPa) = 0.01587041
#
# Stress axis : x y z
#
# Youngs Moduli (GPa) = 81.20677 87.92773 63.16686
#
# Poissons Ratio (x) = 0.23220 0.17459
# Poissons Ratio (y) = 0.21445 0.40548
# Poissons Ratio (z) = 0.22445 0.56443
#
# Static dielectric constant tensor:
#      x y z
#    x 3.350980 0.000000 0.058660 
#    y 0.000000 2.989460 0.000000 
#    z 0.058660 0.000000 3.329280 
# 
# 
# High freq. dielectric constant tensor:
#      x y z
#    x 1.684760 0.000000 0.006960 
#    y 0.000000 1.661750 0.000000 
#    z 0.006960 0.000000 1.693230 
# 
# From -- ./inp_files/271464.got.cif
#   From: 2010.06.25/outbox.cif.g09.slc.cpg/sg12_136_cif.got.tgz:271464.got - 2010.06.28 00:19:55.
