data_PCOD8093831
_publ_section_title
;
Structure prediction by ZEFSAII (Michael W. Deem and Ramdas Pophale) SiO2 
 PCOD8093831
Probable space group: C 2/M
;
_chemical_formula_sum "Si O2"
_cell_formula_units_Z 44
_cell_length_a 23.011334
_cell_length_b 18.769221
_cell_length_c 13.799720
_cell_angle_alpha 90.000000
_cell_angle_beta 22.140213
_cell_angle_gamma 90.000000
_cell_volume 2246.234114
_symmetry_space_group_name_H-M "C 2/M"
_symmetry_group_IT_number 12
_symmetry_cell_setting 'monoclinic'
loop_
_space_group_symop_operation_xyz
x,y,z
-x,y,-z
-x,-y,-z
x,-y,z
1/2+x,1/2+y,z
1/2-x,1/2+y,-z
1/2-x,1/2-y,-z
1/2+x,1/2-y,z
loop_
_atom_site_type_symbol
_atom_site_label
_atom_site_fract_x
_atom_site_fract_y
_atom_site_fract_z
Si Si1 0.740140 0.347261 0.822780
Si Si2 0.336867 0.830575 0.279960
Si Si3 0.543795 0.651872 0.614448
Si Si4 0.681225 0.000000 0.230045
Si Si5 0.664997 0.330502 0.727279
Si Si6 0.000000 0.750163 0.500000
Si Si7 0.040631 0.000000 0.325824
O O1 0.772025 0.430793 0.782210
O O2 0.763944 0.328394 0.673297
O O3 0.852582 0.301004 0.716942
O O4 0.565565 0.329778 0.125283
O O5 0.372939 0.748929 0.251353
O O6 0.263273 0.868500 0.489476
O O7 0.220623 0.833051 0.368520
O O8 0.500000 0.868013 0.000000
O O9 0.484878 0.699321 0.616279
O O10 0.535931 0.568859 0.602768
O O11 0.500000 0.000000 0.500000
O O12 0.774185 0.000000 0.983230
O O13 0.500000 0.370116 0.000000
O O14 0.000000 0.000000 0.500000
#
# Coordination Sequence:
#
# PCOD8093831 Si02
#       7
#     8   8   8   4   8   4   4
#     4  11  22  39  61  91 120 157 198 251 298 359
#     4  10  21  36  58  88 117 155 196 248 297 348
#     4  11  22  40  60  89 122 156 202 246 300 360
#     4  10  22  42  60  85 126 158 198 242 300 358
#     4  10  19  36  60  83 119 155 195 247 302 348
#     4  12  22  34  62  92 124 150 200 254 298 348
#     4  10  22  42  62  82 122 168 196 235 304 361
#
# _framework density 19.588341
#
# number of rings (size 3 to 8) (size 9 to 14) (size 15 to 20)
#    0.000    1.455    5.455    0.545    0.000    0.000 
#    6.545    1.818    0.000    0.000    0.000    0.000 
#    0.000    0.000    0.000    0.000    0.000    0.000 
#
# Total GULP energy -272741.527922 kJ/mol
# GULP energy per Si atom -12397.342178 kJ/mol
# Density = 1.954376 g / cm^3
# Si number density = 19.588341 Si / 1000 Ang^3
#
#
#
# Elastic Constant Matrix: (Units=GPa)
#
#
# Indices 1 2 3 4 5 6 
#
# 1 124.6644 21.7486 62.4413 -0.0005 8.5595 0.0003
# 2 21.7486 83.1180 24.9345 -0.0003 0.7707 0.0015
# 3 62.4413 24.9345 164.8511 -0.0074 2.2632 0.0030
# 4 -0.0005 -0.0003 -0.0074 17.2670 0.0019 1.5030
# 5 8.5595 0.7707 2.2632 0.0019 40.9319 -0.0008
# 6 0.0003 0.0015 0.0030 1.5030 -0.0008 13.6377
#
#
#
# Elastic Compliance Matrix: (Units=1/GPa)
#
#
# Indices 1 2 3 4 5 6 
#
# 1 0.010238 -0.001577 -0.003613 -0.000001 -0.001911 0.000001
# 2 -0.001577 0.012847 -0.001348 0.000000 0.000162 -0.000001
# 3 -0.003613 -0.001348 0.007634 0.000003 0.000359 -0.000002
# 4 -0.000001 0.000000 0.000003 0.058475 -0.000003 -0.006444
# 5 -0.001911 0.000162 0.000359 -0.000003 0.024808 0.000002
# 6 0.000001 -0.000001 -0.000002 -0.006444 0.000002 0.074036
#
#
# Mechanical properties :
#
#
# Convention : Reuss Voigt Hill
#
# Bulk Modulus (GPa) = 56.68422 65.65358 61.16890
# Shear Modulus (GPa) = 24.15537 31.93459 28.04498
#
# Velocity S-wave (km/s) = 3.51543 4.04206 3.78791
# Velocity P-wave (km/s) = 6.74376 7.44135 7.10113
#
# Compressibility (1/GPa) = 0.01764159
#
# Stress axis : x y z
#
# Youngs Moduli (GPa) = 97.67963 77.84135 131.00125
#
# Poissons Ratio (x) = 0.12277 0.47330
# Poissons Ratio (y) = 0.15406 0.17658
# Poissons Ratio (z) = 0.35291 0.10493
#
# Static dielectric constant tensor:
#      x y z
#    x 3.424400 -0.000010 0.202040 
#    y -0.000010 3.308490 0.000010 
#    z 0.202040 0.000010 3.955420 
# 
# 
# High freq. dielectric constant tensor:
#      x y z
#    x 1.761980 0.000000 0.006070 
#    y 0.000000 1.736620 0.000000 
#    z 0.006070 0.000000 1.775000 
# 
# From -- ./inp_files/120787.got.cif
#   From: 2010.06.25/outbox.cif.g09.slc.cpg/sg12_61_cif.got.tgz:120787.got - 2010.06.28 00:19:55.
