data_PCOD8093839
_publ_section_title
;
Structure prediction by ZEFSAII (Michael W. Deem and Ramdas Pophale) SiO2 
 PCOD8093839
Probable space group: C 2/M
;
_chemical_formula_sum "Si O2"
_cell_formula_units_Z 56
_cell_length_a 15.728948
_cell_length_b 10.500887
_cell_length_c 27.197375
_cell_angle_alpha 90.000000
_cell_angle_beta 38.792764
_cell_angle_gamma 90.000000
_cell_volume 2814.345794
_symmetry_space_group_name_H-M "C 2/M"
_symmetry_group_IT_number 12
_symmetry_cell_setting 'monoclinic'
loop_
_space_group_symop_operation_xyz
x,y,z
-x,y,-z
-x,-y,-z
x,-y,z
1/2+x,1/2+y,z
1/2-x,1/2+y,-z
1/2-x,1/2-y,-z
1/2+x,1/2-y,z
loop_
_atom_site_type_symbol
_atom_site_label
_atom_site_fract_x
_atom_site_fract_y
_atom_site_fract_z
Si Si1 0.319021 0.198947 0.890139
Si Si2 0.723170 0.856242 0.289417
Si Si3 0.239686 0.356257 0.573680
Si Si4 0.612965 0.138772 0.734261
Si Si5 0.677595 0.646554 0.859366
Si Si6 0.078909 0.354971 0.546552
Si Si7 0.591822 0.637013 0.064566
O O1 0.451478 0.122338 0.813473
O O2 0.232813 0.231629 0.879897
O O3 0.368888 0.320111 0.898464
O O4 0.224422 0.123044 0.970962
O O5 0.832557 0.753146 0.257279
O O6 0.715694 0.846879 0.233645
O O7 0.579294 0.822712 0.378104
O O8 0.766687 0.000000 0.285184
O O9 0.302151 0.500000 0.546032
O O10 0.147276 0.330311 0.662482
O O11 0.142647 0.338366 0.571200
O O12 0.357838 0.249030 0.519203
O O13 0.675721 0.000000 0.720657
O O14 0.663025 0.500000 0.885048
O O15 0.532702 0.708941 0.907140
O O16 0.102037 0.500000 0.516543
O O17 0.526173 0.500000 0.103501
#
# Coordination Sequence:
#
# PCOD8093839 Si02
#       7
#     8   8   8   8   8   8   8
#     4  11  21  35  61  85 115 150 194 239 291 343
#     4  10  21  37  57  81 113 149 191 239 281 335
#     4   9  19  35  56  80 109 144 184 231 286 341
#     4  11  22  36  54  82 115 149 187 235 290 343
#     4  10  19  36  60  84 111 150 196 238 282 341
#     4   9  18  35  57  81 107 141 188 236 279 333
#     4  10  21  37  58  86 116 148 192 243 291 345
#
# _framework density 19.898052
#
# number of rings (size 3 to 8) (size 9 to 14) (size 15 to 20)
#    0.000    2.000    1.429    2.571    0.000    5.143 
#    0.000    3.571    0.000    5.143    0.000    0.000 
#    0.000    0.000    0.000    0.000    0.000    0.000 
#
# Total GULP energy -346928.163978 kJ/mol
# GULP energy per Si atom -12390.291571 kJ/mol
# Density = 1.985276 g / cm^3
# Si number density = 19.898052 Si / 1000 Ang^3
#
#
#
# Elastic Constant Matrix: (Units=GPa)
#
#
# Indices 1 2 3 4 5 6 
#
# 1 120.8426 52.8158 39.9565 0.0000 1.0466 0.0000
# 2 52.8158 90.3216 47.8312 0.0000 0.4093 0.0000
# 3 39.9565 47.8312 132.5226 0.0000 -1.8489 0.0000
# 4 0.0000 0.0000 0.0000 5.6798 0.0000 -5.3852
# 5 1.0466 0.4093 -1.8489 0.0000 33.7449 0.0000
# 6 0.0000 0.0000 0.0000 -5.3852 0.0000 20.3999
#
#
#
# Elastic Compliance Matrix: (Units=1/GPa)
#
#
# Indices 1 2 3 4 5 6 
#
# 1 0.011288 -0.005927 -0.001269 0.000000 -0.000348 0.000000
# 2 -0.005927 0.016807 -0.004282 0.000000 -0.000255 0.000000
# 3 -0.001269 -0.004282 0.009483 0.000000 0.000611 0.000000
# 4 0.000000 0.000000 0.000000 0.234843 0.000000 0.061995
# 5 -0.000348 -0.000255 0.000611 0.000000 0.029681 0.000000
# 6 0.000000 0.000000 0.000000 0.061995 0.000000 0.065385
#
#
# Mechanical properties :
#
#
# Convention : Reuss Voigt Hill
#
# Bulk Modulus (GPa) = 68.39889 69.43264 68.91577
# Shear Modulus (GPa) = 12.64802 25.50379 19.07591
#
# Velocity S-wave (km/s) = 2.52393 3.58400 3.09962
# Velocity P-wave (km/s) = 6.55308 7.21780 6.89346
#
# Compressibility (1/GPa) = 0.01462012
#
# Stress axis : x y z
#
# Youngs Moduli (GPa) = 88.58600 59.50073 105.45557
#
# Poissons Ratio (x) = 0.35268 0.13383
# Poissons Ratio (y) = 0.52508 0.45160
# Poissons Ratio (z) = 0.11242 0.25480
#
# Static dielectric constant tensor:
#      x y z
#    x 3.505870 0.000000 -0.024900 
#    y 0.000000 3.564430 0.000000 
#    z -0.024900 0.000000 3.766160 
# 
# 
# High freq. dielectric constant tensor:
#      x y z
#    x 1.767780 0.000000 0.000780 
#    y 0.000000 1.752510 0.000000 
#    z 0.000780 0.000000 1.793500 
# 
# From -- ./inp_files/360773.got.cif
#   From: 2010.06.25/outbox.cif.g09.slc.cpg/sg12_181_cif.got.tgz:360773.got - 2010.06.28 00:19:55.
