data_PCOD8093893
_publ_section_title
;
Structure prediction by ZEFSAII (Michael W. Deem and Ramdas Pophale) SiO2 
 PCOD8093893
Probable space group: C 2/M
;
_chemical_formula_sum "Si O2"
_cell_formula_units_Z 56
_cell_length_a 13.357975
_cell_length_b 13.844395
_cell_length_c 17.844264
_cell_angle_alpha 90.000000
_cell_angle_beta 64.478734
_cell_angle_gamma 90.000000
_cell_volume 2977.999185
_symmetry_space_group_name_H-M "C 2/M"
_symmetry_group_IT_number 12
_symmetry_cell_setting 'monoclinic'
loop_
_space_group_symop_operation_xyz
x,y,z
-x,y,-z
-x,-y,-z
x,-y,z
1/2+x,1/2+y,z
1/2-x,1/2+y,-z
1/2-x,1/2-y,-z
1/2+x,1/2-y,z
loop_
_atom_site_type_symbol
_atom_site_label
_atom_site_fract_x
_atom_site_fract_y
_atom_site_fract_z
Si Si1 0.701796 0.611034 0.811137
Si Si2 0.526086 0.749084 0.799244
Si Si3 0.120505 0.609464 0.372374
Si Si4 0.228035 0.759682 0.094314
Si Si5 0.413912 0.113166 0.091344
Si Si6 0.913026 0.280158 0.390332
Si Si7 0.265885 0.611731 0.470892
O O1 0.672780 0.500000 0.836133
O O2 0.596841 0.657745 0.803677
O O3 0.810406 0.622759 0.725541
O O4 0.727061 0.661612 0.882018
O O5 0.398706 0.719011 0.845832
O O6 0.548222 0.842531 0.842472
O O7 0.557637 0.779458 0.705849
O O8 0.074690 0.500000 0.393395
O O9 0.198209 0.633890 0.417093
O O10 0.017140 0.682299 0.405179
O O11 0.292600 0.851026 0.107228
O O12 0.250000 0.750000 0.000000
O O13 0.411099 0.000000 0.103165
O O14 0.500000 0.146250 0.000000
O O15 0.808841 0.352691 0.435387
O O16 0.879791 0.173119 0.430145
O O17 0.297937 0.500000 0.469625
#
# Coordination Sequence:
#
# PCOD8093893 Si02
#       7
#     8   8   8   8   8   8   8
#     4  10  22  38  60  88 118 152 194 243 289 341
#     4  11  22  38  60  85 119 152 192 242 291 345
#     4  10  19  36  60  87 114 149 198 243 285 341
#     4  11  22  39  60  86 117 152 193 239 288 342
#     4  10  22  39  58  82 115 154 194 238 288 342
#     4  11  21  35  61  89 115 153 194 240 292 342
#     4  10  22  39  59  86 120 153 193 240 290 347
#
# _framework density 18.804573000000001
#
# number of rings (size 3 to 8) (size 9 to 14) (size 15 to 20)
#    0.000    1.571    4.286    0.857    0.000    4.000 
#    0.000    0.714    0.000    7.714    0.000    0.000 
#    0.000    0.000    0.000    0.000    0.000    0.000 
#
# Total GULP energy -347303.778889 kJ/mol
# GULP energy per Si atom -12403.706389 kJ/mol
# Density = 1.876177 g / cm^3
# Si number density = 18.804573 Si / 1000 Ang^3
#
#
#
# Elastic Constant Matrix: (Units=GPa)
#
#
# Indices 1 2 3 4 5 6 
#
# 1 101.6110 51.9769 30.6663 0.0000 -20.8298 0.0000
# 2 51.9769 125.6370 37.1700 0.0000 -15.2978 0.0000
# 3 30.6663 37.1700 112.0953 0.0000 -7.5839 0.0000
# 4 0.0000 0.0000 0.0000 23.8346 0.0000 -7.9447
# 5 -20.8298 -15.2978 -7.5839 0.0000 21.1322 0.0000
# 6 0.0000 0.0000 0.0000 -7.9447 0.0000 22.7987
#
#
#
# Elastic Compliance Matrix: (Units=1/GPa)
#
#
# Indices 1 2 3 4 5 6 
#
# 1 0.014811 -0.004242 -0.001912 0.000000 0.010842 0.000000
# 2 -0.004242 0.010704 -0.002201 0.000000 0.002778 0.000000
# 3 -0.001912 -0.002201 0.010186 0.000000 0.000178 0.000000
# 4 0.000000 0.000000 0.000000 0.047470 0.000000 0.016542
# 5 0.010842 0.002778 0.000178 0.000000 0.060083 0.000000
# 6 0.000000 0.000000 0.000000 0.016542 0.000000 0.049626
#
#
# Mechanical properties :
#
#
# Convention : Reuss Voigt Hill
#
# Bulk Modulus (GPa) = 52.65499 64.32998 58.49248
# Shear Modulus (GPa) = 23.15695 28.18845 25.67270
#
# Velocity S-wave (km/s) = 3.51301 3.87592 3.69892
# Velocity P-wave (km/s) = 6.67210 7.36983 7.02963
#
# Compressibility (1/GPa) = 0.01899155
#
# Stress axis : x y z
#
# Youngs Moduli (GPa) = 67.51881 93.42696 98.17549
#
# Poissons Ratio (x) = 0.39627 0.18769
# Poissons Ratio (y) = 0.28638 0.21608
# Poissons Ratio (z) = 0.12908 0.20563
#
# Static dielectric constant tensor:
#      x y z
#    x 3.487420 0.000000 -0.079460 
#    y 0.000000 3.431480 0.000000 
#    z -0.079460 0.000000 3.617740 
# 
# 
# High freq. dielectric constant tensor:
#      x y z
#    x 1.728730 0.000000 -0.002690 
#    y 0.000000 1.727670 0.000000 
#    z -0.002690 0.000000 1.745600 
# 
# From -- ./inp_files/205022.got.cif
#   From: 2010.06.25/outbox.cif.g09.slc.cpg/sg12_103_cif.got.tgz:205022.got - 2010.06.28 00:19:55.
