data_PCOD8093627
_publ_section_title
;
Structure prediction by ZEFSAII (Michael W. Deem and Ramdas Pophale) SiO2 
 PCOD8093627
Probable space group: C 2/M
;
_chemical_formula_sum "Si O2"
_cell_formula_units_Z 48
_cell_length_a 16.662183
_cell_length_b 14.075599
_cell_length_c 11.035419
_cell_angle_alpha 90.000000
_cell_angle_beta 93.883231
_cell_angle_gamma 90.000000
_cell_volume 2582.197097
_symmetry_space_group_name_H-M "C 2/M"
_symmetry_group_IT_number 12
_symmetry_cell_setting 'monoclinic'
loop_
_space_group_symop_operation_xyz
x,y,z
-x,y,-z
-x,-y,-z
x,-y,z
1/2+x,1/2+y,z
1/2-x,1/2+y,-z
1/2-x,1/2-y,-z
1/2+x,1/2-y,z
loop_
_atom_site_type_symbol
_atom_site_label
_atom_site_fract_x
_atom_site_fract_y
_atom_site_fract_z
Si Si1 0.778350 0.106130 0.358584
Si Si2 0.502209 0.797616 0.800263
Si Si3 0.877428 0.277966 0.984944
Si Si4 0.900264 0.608902 0.594154
Si Si5 0.572422 0.721706 0.576901
Si Si6 0.279658 0.607850 0.078022
O O1 0.687919 0.141972 0.370538
O O2 0.842605 0.170843 0.435636
O O3 0.800278 0.110217 0.220661
O O4 0.787616 0.000000 0.410616
O O5 0.430011 0.752653 0.871735
O O6 0.463139 0.879805 0.712360
O O7 0.546383 0.723700 0.714971
O O8 0.570596 0.828880 0.903149
O O9 0.810593 0.355796 0.949924
O O10 0.842071 0.175630 0.016352
O O11 0.901902 0.500000 0.551897
O O12 0.922191 0.672511 0.480349
O O13 0.500000 0.666564 0.500000
O O14 0.286893 0.500000 0.028527
#
# Coordination Sequence:
#
# PCOD8093627 Si02
#       6
#     8   8   8   8   8   8
#     4  10  19  36  58  81 108 145 189 226 268 326
#     4  10  20  34  54  83 112 146 178 222 279 321
#     4  10  20  36  58  81 115 143 181 228 270 325
#     4  10  21  37  58  82 111 145 185 225 271 330
#     4  10  21  36  56  80 111 146 183 226 279 318
#     4  10  20  36  58  82 110 149 186 220 270 327
#
# _framework density 18.588820999999999
#
# number of rings (size 3 to 8) (size 9 to 14) (size 15 to 20)
#    0.000    2.000    3.333    0.500    0.000    4.000 
#    0.000    4.167    0.000    1.000    0.000    0.000 
#    0.000    0.000    0.000    0.000    0.000    0.000 
#
# Total GULP energy -297394.482935 kJ/mol
# GULP energy per Si atom -12391.436789 kJ/mol
# Density = 1.854651 g / cm^3
# Si number density = 18.588821 Si / 1000 Ang^3
#
#
#
# Elastic Constant Matrix: (Units=GPa)
#
#
# Indices 1 2 3 4 5 6 
#
# 1 113.7536 45.7262 35.9364 0.0000 11.0564 0.0000
# 2 45.7262 90.7361 31.3761 0.0000 10.6931 0.0000
# 3 35.9364 31.3761 83.6821 0.0000 -0.3610 0.0000
# 4 0.0000 0.0000 0.0000 20.2861 0.0000 1.6583
# 5 11.0564 10.6931 -0.3610 0.0000 38.5032 0.0000
# 6 0.0000 0.0000 0.0000 1.6583 0.0000 17.2186
#
#
#
# Elastic Compliance Matrix: (Units=1/GPa)
#
#
# Indices 1 2 3 4 5 6 
#
# 1 0.011918 -0.004568 -0.003415 0.000000 -0.002186 0.000000
# 2 -0.004568 0.014921 -0.003645 0.000000 -0.002866 0.000000
# 3 -0.003415 -0.003645 0.014793 0.000000 0.002132 0.000000
# 4 0.000000 0.000000 0.000000 0.049686 0.000000 -0.004785
# 5 -0.002186 -0.002866 0.002132 0.000000 0.027416 0.000000
# 6 0.000000 0.000000 0.000000 -0.004785 0.000000 0.058537
#
#
# Mechanical properties :
#
#
# Convention : Reuss Voigt Hill
#
# Bulk Modulus (GPa) = 54.41932 57.13880 55.77906
# Shear Modulus (GPa) = 24.19518 26.87714 25.53616
#
# Velocity S-wave (km/s) = 3.61168 3.80659 3.71042
# Velocity P-wave (km/s) = 6.83602 7.07991 6.95904
#
# Compressibility (1/GPa) = 0.01837583
#
# Stress axis : x y z
#
# Youngs Moduli (GPa) = 83.90425 67.01849 67.60154
#
# Poissons Ratio (x) = 0.30612 0.23086
# Poissons Ratio (y) = 0.38325 0.24644
# Poissons Ratio (z) = 0.28653 0.24431
#
# Static dielectric constant tensor:
#      x y z
#    x 3.724600 0.000000 0.048760 
#    y 0.000000 3.134090 0.000000 
#    z 0.048760 0.000000 3.428220 
# 
# 
# High freq. dielectric constant tensor:
#      x y z
#    x 1.747510 0.000000 0.001520 
#    y 0.000000 1.687760 0.000000 
#    z 0.001520 0.000000 1.721520 
# 
# From -- ./inp_files/142869.got.cif
#   From: 2010.06.25/outbox.cif.g09.slc.cpg/sg12_72_cif.got.tgz:142869.got - 2010.06.28 00:19:55.
