data_PCOD8093043
_publ_section_title
;
Structure prediction by ZEFSAII (Michael W. Deem and Ramdas Pophale) SiO2 
 PCOD8093043
Probable space group: C 2/M
;
_chemical_formula_sum "Si O2"
_cell_formula_units_Z 64
_cell_length_a 24.972041
_cell_length_b 9.069974
_cell_length_c 29.841807
_cell_angle_alpha 90.000000
_cell_angle_beta 151.119752
_cell_angle_gamma 90.000000
_cell_volume 3264.486220
_symmetry_space_group_name_H-M "C 2/M"
_symmetry_group_IT_number 12
_symmetry_cell_setting 'monoclinic'
loop_
_space_group_symop_operation_xyz
x,y,z
-x,y,-z
-x,-y,-z
x,-y,z
1/2+x,1/2+y,z
1/2-x,1/2+y,-z
1/2-x,1/2-y,-z
1/2+x,1/2-y,z
loop_
_atom_site_type_symbol
_atom_site_label
_atom_site_fract_x
_atom_site_fract_y
_atom_site_fract_z
Si Si1 0.660495 0.666142 0.906920
Si Si2 0.440971 0.324728 0.318743
Si Si3 0.140253 0.826987 0.403863
Si Si4 0.830345 0.324821 0.761780
Si Si5 0.414293 0.326821 0.737263
Si Si6 0.260602 0.168206 0.884998
Si Si7 0.919324 0.825055 0.402412
Si Si8 0.987028 0.827122 0.042605
O O1 0.667058 0.500000 0.928053
O O2 0.540582 0.729019 0.831475
O O3 0.680688 0.678931 0.869081
O O4 0.750000 0.750000 0.000000
O O5 0.442304 0.500000 0.316617
O O6 0.536930 0.261215 0.356704
O O7 0.317481 0.273824 0.212740
O O8 0.461204 0.269309 0.384404
O O9 0.250000 0.750000 0.500000
O O10 0.130149 0.790121 0.344343
O O11 0.149008 0.000000 0.418899
O O12 0.844210 0.500000 0.774106
O O13 0.847589 0.268983 0.724029
O O14 0.706875 0.272568 0.683897
O O15 0.916998 0.253476 0.859586
O O16 0.403685 0.500000 0.740492
O O17 0.301058 0.000000 0.906753
O O18 0.366911 0.270675 0.970015
O O19 0.000000 0.757821 0.500000
O O20 0.924457 0.000000 0.408532
O O21 0.995021 0.000000 0.058481
O O22 0.000000 0.789624 0.000000
#
# Coordination Sequence:
#
# PCOD8093043 Si02
#       8
#     8   8   8   8   8   8   8   8
#     4  10  20  34  53  79 109 146 189 230 281 340
#     4   9  17  34  59  83 113 150 187 238 296 341
#     4  10  21  37  60  87 116 155 196 237 293 351
#     4  11  23  38  60  91 118 151 198 244 290 343
#     4  10  21  39  58  82 122 161 191 232 295 356
#     4  10  19  35  59  84 109 144 194 243 283 335
#     4   9  19  34  55  86 116 143 185 242 294 334
#     4  11  24  40  58  83 118 159 194 234 294 353
#
# _framework density 19.604922999999999
#
# number of rings (size 3 to 8) (size 9 to 14) (size 15 to 20)
#    0.000    2.000    1.250    2.250    1.750    5.500 
#    0.000    0.625    0.000    3.000    0.000    0.000 
#    0.000    0.000    0.000    0.000    0.000    0.000 
#
# Total GULP energy -396788.638768 kJ/mol
# GULP energy per Si atom -12399.644962 kJ/mol
# Density = 1.956030 g / cm^3
# Si number density = 19.604923 Si / 1000 Ang^3
#
#
#
# Elastic Constant Matrix: (Units=GPa)
#
#
# Indices 1 2 3 4 5 6 
#
# 1 119.2626 39.1392 62.6283 -0.0001 -1.8992 0.0003
# 2 39.1392 51.6375 43.6327 0.0007 -1.4621 0.0013
# 3 62.6283 43.6327 163.8141 0.0009 -6.4030 0.0003
# 4 -0.0001 0.0007 0.0009 26.1642 0.0002 -0.5436
# 5 -1.8992 -1.4621 -6.4030 0.0002 36.2835 0.0000
# 6 0.0003 0.0013 0.0003 -0.5436 0.0000 25.4436
#
#
#
# Elastic Compliance Matrix: (Units=1/GPa)
#
#
# Indices 1 2 3 4 5 6 
#
# 1 0.012090 -0.006785 -0.002821 0.000000 -0.000138 0.000000
# 2 -0.006785 0.028798 -0.005080 -0.000001 -0.000091 -0.000001
# 3 -0.002821 -0.005080 0.008581 0.000000 0.001162 0.000000
# 4 0.000000 -0.000001 0.000000 0.038237 0.000000 0.000817
# 5 -0.000138 -0.000091 0.001162 0.000000 0.027755 0.000000
# 6 0.000000 -0.000001 0.000000 0.000817 0.000000 0.039320
#
#
# Mechanical properties :
#
#
# Convention : Reuss Voigt Hill
#
# Bulk Modulus (GPa) = 49.75327 69.50160 59.62743
# Shear Modulus (GPa) = 26.19816 30.19919 28.19867
#
# Velocity S-wave (km/s) = 3.65952 3.92904 3.79667
# Velocity P-wave (km/s) = 6.57945 7.49074 7.04983
#
# Compressibility (1/GPa) = 0.02009918
#
# Stress axis : x y z
#
# Youngs Moduli (GPa) = 82.71034 34.72416 116.53079
#
# Poissons Ratio (x) = 0.23559 0.32869
# Poissons Ratio (y) = 0.56115 0.59201
# Poissons Ratio (z) = 0.23329 0.17641
#
# Static dielectric constant tensor:
#      x y z
#    x 2.282720 -0.000330 0.906090 
#    y -0.000330 3.690040 0.000210 
#    z 0.906090 0.000210 3.076420 
# 
# 
# High freq. dielectric constant tensor:
#      x y z
#    x 1.779170 0.000000 -0.003650 
#    y 0.000000 1.728850 0.000000 
#    z -0.003650 0.000000 1.778540 
# 
# From -- ./inp_files/382534.got.cif
#   From: 2010.06.25/outbox.cif.g09.slc.cpg/sg12_192_cif.got.tgz:382534.got - 2010.06.28 00:19:55.
