data_PCOD8093562
_publ_section_title
;
Structure prediction by ZEFSAII (Michael W. Deem and Ramdas Pophale) SiO2 
 PCOD8093562
Probable space group: C 2/M
;
_chemical_formula_sum "Si O2"
_cell_formula_units_Z 64
_cell_length_a 17.759689
_cell_length_b 14.234848
_cell_length_c 25.456397
_cell_angle_alpha 90.000000
_cell_angle_beta 32.333878
_cell_angle_gamma 90.000000
_cell_volume 3442.062771
_symmetry_space_group_name_H-M "C 2/M"
_symmetry_group_IT_number 12
_symmetry_cell_setting 'monoclinic'
loop_
_space_group_symop_operation_xyz
x,y,z
-x,y,-z
-x,-y,-z
x,-y,z
1/2+x,1/2+y,z
1/2-x,1/2+y,-z
1/2-x,1/2-y,-z
1/2+x,1/2-y,z
loop_
_atom_site_type_symbol
_atom_site_label
_atom_site_fract_x
_atom_site_fract_y
_atom_site_fract_z
Si Si1 0.777099 0.231948 0.543901
Si Si2 0.468471 0.102663 0.458238
Si Si3 0.548941 0.893815 0.097537
Si Si4 0.811832 0.108721 0.872777
Si Si5 0.627771 0.814848 0.889570
Si Si6 0.277704 0.224049 0.715299
Si Si7 0.058972 0.246519 0.757728
Si Si8 0.026000 0.894332 0.423425
O O1 0.750000 0.250000 0.500000
O O2 0.837513 0.328398 0.531602
O O3 0.638283 0.209359 0.660156
O O4 0.883920 0.144972 0.481508
O O5 0.500000 0.091421 0.500000
O O6 0.603397 0.145534 0.349167
O O7 0.435017 0.000000 0.453366
O O8 0.433247 0.883415 0.119597
O O9 0.522022 0.828811 0.163757
O O10 0.543301 0.000000 0.121321
O O11 0.702223 0.869256 0.983968
O O12 0.742619 0.131687 0.857141
O O13 0.950865 0.169194 0.800476
O O14 0.855807 0.000000 0.846629
O O15 0.699319 0.726600 0.817779
O O16 0.500000 0.775142 0.000000
O O17 0.170182 0.198251 0.731954
O O18 0.341761 0.328004 0.667064
O O19 0.000000 0.893996 0.500000
O O20 0.055786 0.000000 0.385075
#
# Coordination Sequence:
#
# PCOD8093562 Si02
#       8
#     8   8   8   8   8   8   8   8
#     4  11  23  38  53  80 117 143 178 229 275 327
#     4  10  20  38  61  78 103 144 189 229 263 314
#     4   9  19  37  59  81 110 146 184 226 272 332
#     4  10  21  35  54  85 116 143 180 227 279 329
#     4   9  19  35  58  84 111 142 179 229 282 326
#     4  10  19  36  57  81 110 141 188 226 262 326
#     4  11  21  34  54  82 110 146 183 222 276 327
#     4  10  20  37  59  81 109 143 183 226 272 330
#
# _framework density 18.593502000000001
#
# number of rings (size 3 to 8) (size 9 to 14) (size 15 to 20)
#    0.000    2.000    2.500    1.500    3.500    6.000 
#    0.000    0.000    0.000    0.375    0.000    0.000 
#    0.000    0.000    0.000    0.000    0.000    0.000 
#
# Total GULP energy -396723.392226 kJ/mol
# GULP energy per Si atom -12397.606007 kJ/mol
# Density = 1.855118 g / cm^3
# Si number density = 18.593502 Si / 1000 Ang^3
#
#
#
# Elastic Constant Matrix: (Units=GPa)
#
#
# Indices 1 2 3 4 5 6 
#
# 1 90.3210 31.7136 37.3875 0.0001 -0.7981 0.0000
# 2 31.7136 91.7356 28.6522 -0.0005 -5.5539 -0.0001
# 3 37.3875 28.6522 98.9744 -0.0017 3.3658 0.0005
# 4 0.0001 -0.0005 -0.0017 11.1163 0.0000 -1.4714
# 5 -0.7981 -5.5539 3.3658 0.0000 33.6449 -0.0001
# 6 0.0000 -0.0001 0.0005 -1.4714 -0.0001 18.8050
#
#
#
# Elastic Compliance Matrix: (Units=1/GPa)
#
#
# Indices 1 2 3 4 5 6 
#
# 1 0.014092 -0.003514 -0.004312 -0.000001 0.000186 0.000000
# 2 -0.003514 0.013046 -0.002528 0.000000 0.002323 0.000000
# 3 -0.004312 -0.002528 0.012525 0.000002 -0.001773 0.000000
# 4 -0.000001 0.000000 0.000002 0.090899 0.000000 0.007113
# 5 0.000186 0.002323 -0.001773 0.000000 0.030287 0.000000
# 6 0.000000 0.000000 0.000000 0.007113 0.000000 0.053734
#
#
# Mechanical properties :
#
#
# Convention : Reuss Voigt Hill
#
# Bulk Modulus (GPa) = 52.75931 52.94863 52.85397
# Shear Modulus (GPa) = 20.69450 24.93176 22.81313
#
# Velocity S-wave (km/s) = 3.33978 3.66578 3.50657
# Velocity P-wave (km/s) = 6.58095 6.81587 6.69944
#
# Compressibility (1/GPa) = 0.01895400
#
# Stress axis : x y z
#
# Youngs Moduli (GPa) = 70.96213 76.65233 79.84109
#
# Poissons Ratio (x) = 0.26932 0.34431
# Poissons Ratio (y) = 0.24933 0.20187
# Poissons Ratio (z) = 0.30602 0.19381
#
# Static dielectric constant tensor:
#      x y z
#    x 3.284400 0.000000 0.043510 
#    y 0.000000 2.860650 0.000000 
#    z 0.043510 0.000000 3.591270 
# 
# 
# High freq. dielectric constant tensor:
#      x y z
#    x 1.713150 0.000000 -0.000270 
#    y 0.000000 1.701790 0.000000 
#    z -0.000270 0.000000 1.736500 
# 
# From -- ./inp_files/340166.got.cif
#   From: 2010.06.25/outbox.cif.g09.slc.cpg/sg12_171_cif.got.tgz:340166.got - 2010.06.28 00:19:55.
