data_PCOD8093684
_publ_section_title
;
Structure prediction by ZEFSAII (Michael W. Deem and Ramdas Pophale) SiO2 
 PCOD8093684
Probable space group: C 2/M
;
_chemical_formula_sum "Si O2"
_cell_formula_units_Z 56
_cell_length_a 24.376623
_cell_length_b 8.963533
_cell_length_c 17.596300
_cell_angle_alpha 90.000000
_cell_angle_beta 126.749459
_cell_angle_gamma 90.000000
_cell_volume 3080.684981
_symmetry_space_group_name_H-M "C 2/M"
_symmetry_group_IT_number 12
_symmetry_cell_setting 'monoclinic'
loop_
_space_group_symop_operation_xyz
x,y,z
-x,y,-z
-x,-y,-z
x,-y,z
1/2+x,1/2+y,z
1/2-x,1/2+y,-z
1/2-x,1/2-y,-z
1/2+x,1/2-y,z
loop_
_atom_site_type_symbol
_atom_site_label
_atom_site_fract_x
_atom_site_fract_y
_atom_site_fract_z
Si Si1 0.808022 0.672380 0.269335
Si Si2 0.896927 0.673395 0.203939
Si Si3 0.460135 0.676436 0.659107
Si Si4 0.936830 0.677074 0.793526
Si Si5 0.430295 0.174190 0.483477
Si Si6 0.665659 0.176602 0.161052
Si Si7 0.912003 0.673968 0.048078
O O1 0.788300 0.500000 0.258900
O O2 0.833096 0.712825 0.204853
O O3 0.867493 0.714808 0.377055
O O4 0.742125 0.767388 0.235234
O O5 0.918234 0.500000 0.231496
O O6 0.876022 0.708170 0.099407
O O7 0.961628 0.770463 0.282062
O O8 0.457217 0.500000 0.661885
O O9 0.422252 0.745360 0.700964
O O10 0.419821 0.732095 0.551474
O O11 0.938012 0.500000 0.782142
O O12 0.878703 0.729080 0.803724
O O13 0.010133 0.734283 0.886316
O O14 0.500000 0.223562 0.500000
O O15 0.432547 0.000000 0.505682
O O16 0.667384 0.000000 0.157414
O O17 0.631850 0.247289 0.056437
O O18 0.915386 0.500000 0.034226
#
# Coordination Sequence:
#
# PCOD8093684 Si02
#       7
#     8   8   8   8   8   8   8
#     4  10  21  35  53  77 107 143 177 211 257 320
#     4   9  17  34  55  76 105 144 182 210 252 318
#     4  11  21  32  53  85 111 129 166 227 279 304
#     4   9  18  35  57  76 103 144 185 215 252 314
#     4  10  19  36  59  78 101 139 182 210 250 323
#     4  10  20  34  53  79 108 141 179 222 264 302
#     4   8  15  30  56  81 101 134 184 225 251 299
#
# _framework density 18.177775
#
# number of rings (size 3 to 8) (size 9 to 14) (size 15 to 20)
#    0.000    2.429    1.429    2.571    0.000    4.286 
#    0.000    3.571    0.000    4.286    0.000    0.000 
#    0.000    0.000    0.000    0.000    0.000    0.000 
#
# Total GULP energy -347188.893166 kJ/mol
# GULP energy per Si atom -12399.603327 kJ/mol
# Density = 1.813640 g / cm^3
# Si number density = 18.177775 Si / 1000 Ang^3
#
#
#
# Elastic Constant Matrix: (Units=GPa)
#
#
# Indices 1 2 3 4 5 6 
#
# 1 136.7177 37.3410 82.4770 0.0000 -8.3825 0.0000
# 2 37.3410 47.0211 37.1983 0.0000 -9.9767 0.0000
# 3 82.4770 37.1983 115.9533 0.0000 -15.0163 0.0000
# 4 0.0000 0.0000 0.0000 14.0710 0.0000 4.6808
# 5 -8.3825 -9.9767 -15.0163 0.0000 26.9624 0.0000
# 6 0.0000 0.0000 0.0000 4.6808 0.0000 24.7073
#
#
#
# Elastic Compliance Matrix: (Units=1/GPa)
#
#
# Indices 1 2 3 4 5 6 
#
# 1 0.013504 -0.004507 -0.008441 0.000000 -0.002170 0.000000
# 2 -0.004507 0.030896 -0.005827 0.000000 0.006786 0.000000
# 3 -0.008441 -0.005827 0.017112 0.000000 0.004750 0.000000
# 4 0.000000 0.000000 0.000000 0.075848 0.000000 -0.014369
# 5 -0.002170 0.006786 0.004750 0.000000 0.041571 0.000000
# 6 0.000000 0.000000 0.000000 -0.014369 0.000000 0.043196
#
#
# Mechanical properties :
#
#
# Convention : Reuss Voigt Hill
#
# Bulk Modulus (GPa) = 41.73081 68.19163 54.96122
# Shear Modulus (GPa) = 18.68016 22.65986 20.67001
#
# Velocity S-wave (km/s) = 3.20916 3.53451 3.37575
# Velocity P-wave (km/s) = 6.06123 7.36561 6.74502
#
# Compressibility (1/GPa) = 0.02396311
#
# Stress axis : x y z
#
# Youngs Moduli (GPa) = 74.05073 32.36699 58.43742
#
# Poissons Ratio (x) = 0.14589 0.49325
# Poissons Ratio (y) = 0.33377 0.34050
# Poissons Ratio (z) = 0.62503 0.18859
#
# Static dielectric constant tensor:
#      x y z
#    x 3.383810 0.000000 -0.246550 
#    y 0.000000 3.058050 0.000000 
#    z -0.246550 0.000000 3.475940 
# 
# 
# High freq. dielectric constant tensor:
#      x y z
#    x 1.701900 0.000000 -0.018400 
#    y 0.000000 1.676890 0.000000 
#    z -0.018400 0.000000 1.704750 
# 
# From -- ./inp_files/288466.got.cif
#   From: 2010.06.25/outbox.cif.g09.slc.cpg/sg12_145_cif.got.tgz:288466.got - 2010.06.28 00:19:55.
