data_PCOD8093753
_publ_section_title
;
Structure prediction by ZEFSAII (Michael W. Deem and Ramdas Pophale) SiO2 
 PCOD8093753
Probable space group: C 2/M
;
_chemical_formula_sum "Si O2"
_cell_formula_units_Z 48
_cell_length_a 25.268543
_cell_length_b 14.635592
_cell_length_c 10.962872
_cell_angle_alpha 90.000000
_cell_angle_beta 148.079954
_cell_angle_gamma 90.000000
_cell_volume 2143.646504
_symmetry_space_group_name_H-M "C 2/M"
_symmetry_group_IT_number 12
_symmetry_cell_setting 'monoclinic'
loop_
_space_group_symop_operation_xyz
x,y,z
-x,y,-z
-x,-y,-z
x,-y,z
1/2+x,1/2+y,z
1/2-x,1/2+y,-z
1/2-x,1/2-y,-z
1/2+x,1/2-y,z
loop_
_atom_site_type_symbol
_atom_site_label
_atom_site_fract_x
_atom_site_fract_y
_atom_site_fract_z
Si Si1 0.749731 0.103783 0.903964
Si Si2 0.177381 0.402925 0.229717
Si Si3 0.116998 0.244871 0.725791
Si Si4 0.059192 0.224398 0.995016
Si Si5 0.860205 0.817762 0.494047
Si Si6 0.735468 0.857700 0.604123
O O1 0.666018 0.153336 0.826129
O O2 0.715379 0.094479 0.695515
O O3 0.770445 0.000000 0.992492
O O4 0.847075 0.172336 0.099784
O O5 0.129081 0.500000 0.095065
O O6 0.290796 0.403039 0.395611
O O7 0.184920 0.408392 0.392029
O O8 0.108208 0.320116 0.042604
O O9 0.158939 0.200953 0.684337
O O10 0.000000 0.257826 0.500000
O O11 0.980200 0.177655 0.747270
O O12 0.145299 0.149974 0.186058
O O13 0.000000 0.248740 0.000000
O O14 0.815337 0.740983 0.495815
#
# Coordination Sequence:
#
# PCOD8093753 Si02
#       6
#     8   8   8   8   8   8
#     4  10  22  40  63  89 118 154 196 246 298 351
#     4  11  22  35  56  90 122 149 189 242 289 338
#     4  10  22  41  63  87 115 156 199 248 297 349
#     4  11  18  35  59  82 111 161 195 226 281 350
#     4  10  20  38  58  81 117 156 195 229 290 352
#     4  10  19  36  59  83 119 157 191 230 287 354
#
# _framework density 22.391753000000001
#
# number of rings (size 3 to 8) (size 9 to 14) (size 15 to 20)
#    0.000    1.667    3.333    2.500    0.000    3.000 
#    0.000    5.000    0.000    0.000    0.000    0.000 
#    0.000    0.000    0.000    0.000    0.000    0.000 
#
# Total GULP energy -297329.518084 kJ/mol
# GULP energy per Si atom -12388.729920 kJ/mol
# Density = 2.234079 g / cm^3
# Si number density = 22.391753 Si / 1000 Ang^3
#
#
#
# Elastic Constant Matrix: (Units=GPa)
#
#
# Indices 1 2 3 4 5 6 
#
# 1 55.0052 10.1701 5.0671 0.0000 14.7402 0.0000
# 2 10.1701 102.8871 -2.2881 0.0000 11.2446 0.0000
# 3 5.0671 -2.2881 70.4444 0.0000 23.1711 0.0000
# 4 0.0000 0.0000 0.0000 16.3357 0.0000 0.7486
# 5 14.7402 11.2446 23.1711 0.0000 35.1709 0.0000
# 6 0.0000 0.0000 0.0000 0.7486 0.0000 11.7724
#
#
#
# Elastic Compliance Matrix: (Units=1/GPa)
#
#
# Indices 1 2 3 4 5 6 
#
# 1 0.020740 -0.000986 0.001572 0.000000 -0.009413 0.000000
# 2 -0.000986 0.010294 0.001726 0.000000 -0.004015 0.000000
# 3 0.001572 0.001726 0.018558 0.000000 -0.013437 0.000000
# 4 0.000000 0.000000 0.000000 0.061395 0.000000 -0.003904
# 5 -0.009413 -0.004015 -0.013437 0.000000 0.042514 0.000000
# 6 0.000000 0.000000 0.000000 -0.003904 0.000000 0.085193
#
#
# Mechanical properties :
#
#
# Convention : Reuss Voigt Hill
#
# Bulk Modulus (GPa) = 18.44480 28.24832 23.34656
# Shear Modulus (GPa) = 19.83006 27.01496 23.42251
#
# Velocity S-wave (km/s) = 2.97913 3.47719 3.23775
# Velocity P-wave (km/s) = 4.48205 5.36321 4.94231
#
# Compressibility (1/GPa) = 0.05421581
#
# Stress axis : x y z
#
# Youngs Moduli (GPa) = 48.21592 97.14345 53.88384
#
# Poissons Ratio (x) = 0.09582 -0.08472
# Poissons Ratio (y) = 0.04756 -0.09300
# Poissons Ratio (z) = -0.07580 -0.16766
#
# Static dielectric constant tensor:
#      x y z
#    x 3.998780 0.000000 0.053300 
#    y 0.000000 3.859240 0.000000 
#    z 0.053300 0.000000 4.270930 
# 
# 
# High freq. dielectric constant tensor:
#      x y z
#    x 1.884010 0.000000 -0.000480 
#    y 0.000000 1.850980 0.000000 
#    z -0.000480 0.000000 1.878250 
# 
# From -- ./inp_files/183659.got.cif
#   From: 2010.06.25/outbox.cif.g09.slc.cpg/sg12_92_cif.got.tgz:183659.got - 2010.06.28 00:19:55.
