data_PCOD8093299
_publ_section_title
;
Structure prediction by ZEFSAII (Michael W. Deem and Ramdas Pophale) SiO2 
 PCOD8093299
Probable space group: C 2/M
;
_chemical_formula_sum "Si O2"
_cell_formula_units_Z 48
_cell_length_a 19.528380
_cell_length_b 18.676141
_cell_length_c 19.386121
_cell_angle_alpha 90.000000
_cell_angle_beta 159.057327
_cell_angle_gamma 90.000000
_cell_volume 2527.200824
_symmetry_space_group_name_H-M "C 2/M"
_symmetry_group_IT_number 12
_symmetry_cell_setting 'monoclinic'
loop_
_space_group_symop_operation_xyz
x,y,z
-x,y,-z
-x,-y,-z
x,-y,z
1/2+x,1/2+y,z
1/2-x,1/2+y,-z
1/2-x,1/2-y,-z
1/2+x,1/2-y,z
loop_
_atom_site_type_symbol
_atom_site_label
_atom_site_fract_x
_atom_site_fract_y
_atom_site_fract_z
Si Si1 0.681316 0.366250 0.440124
Si Si2 0.934762 0.418474 0.250189
Si Si3 0.673996 0.245985 0.329794
Si Si4 0.726647 0.418319 0.915054
Si Si5 0.377019 0.805903 0.947988
Si Si6 0.443160 0.807721 0.372015
O O1 0.600089 0.298529 0.320642
O O2 0.791695 0.334720 0.610625
O O3 0.503000 0.414941 0.293891
O O4 0.835033 0.413193 0.542417
O O5 0.878269 0.500000 0.213467
O O6 0.864053 0.370936 0.248405
O O7 0.825999 0.391333 0.079092
O O8 0.873164 0.274391 0.490064
O O9 0.512187 0.245300 0.119997
O O10 0.786502 0.500000 0.956192
O O11 0.792975 0.371056 0.912971
O O12 0.209939 0.755432 0.761761
O O13 0.500000 0.837697 0.000000
O O14 0.500000 0.839881 0.500000
#
# Coordination Sequence:
#
# PCOD8093299 Si02
#       6
#     8   8   8   8   8   8
#     4  10  19  35  61  85 114 142 191 237 288 330
#     4  10  22  38  59  87 118 151 188 232 281 342
#     4  10  20  34  58  90 108 145 190 243 282 332
#     4  11  23  38  58  84 117 154 189 232 287 339
#     4  12  23  37  59  83 117 149 194 239 282 331
#     4  11  22  38  60  86 115 151 193 233 286 335
#
# _framework density 18.993345000000001
#
# number of rings (size 3 to 8) (size 9 to 14) (size 15 to 20)
#    0.000    1.333    5.000    1.500    0.000    2.000 
#    0.000    0.000    0.000    2.000    0.000    0.000 
#    0.000    0.000    0.000    0.000    0.000    0.000 
#
# Total GULP energy -297646.152216 kJ/mol
# GULP energy per Si atom -12401.923009 kJ/mol
# Density = 1.895012 g / cm^3
# Si number density = 18.993345 Si / 1000 Ang^3
#
#
#
# Elastic Constant Matrix: (Units=GPa)
#
#
# Indices 1 2 3 4 5 6 
#
# 1 110.9975 43.3959 25.9659 0.1284 -6.8328 -0.0032
# 2 43.3959 79.3561 22.0785 0.1032 -5.0879 0.0328
# 3 25.9659 22.0785 72.1114 0.0925 -2.3144 0.0312
# 4 0.1284 0.1032 0.0925 24.4619 0.0287 1.9883
# 5 -6.8328 -5.0879 -2.3144 0.0287 31.3112 -0.0003
# 6 -0.0032 0.0328 0.0312 1.9883 -0.0003 -23.4770
#
#
#
# Elastic Compliance Matrix: (Units=1/GPa)
#
#
# Indices 1 2 3 4 5 6 
#
# 1 0.011925 -0.005733 -0.002491 -0.000029 0.001487 -0.000015
# 2 -0.005733 0.016648 -0.002993 -0.000032 0.001233 0.000017
# 3 -0.002491 -0.002993 0.015685 -0.000035 0.000129 0.000014
# 4 -0.000029 -0.000032 -0.000035 0.040601 -0.000051 0.003438
# 5 0.001487 0.001233 0.000129 -0.000051 0.032472 -0.000003
# 6 -0.000015 0.000017 0.000014 0.003438 -0.000003 -0.042304
#
#
# Mechanical properties :
#
#
# Convention : Reuss Voigt Hill
#
# Bulk Modulus (GPa) = 45.82099 49.48286 47.65192
# Shear Modulus (GPa) = 47.73915 17.86085 32.80000
#
# Velocity S-wave (km/s) = 5.01889 3.06988 4.16013
# Velocity P-wave (km/s) = 7.60018 6.21891 6.94398
#
# Compressibility (1/GPa) = 0.02182406
#
# Stress axis : x y z
#
# Youngs Moduli (GPa) = 83.85941 60.06637 63.75493
#
# Poissons Ratio (x) = 0.34434 0.15881
# Poissons Ratio (y) = 0.48074 0.19084
# Poissons Ratio (z) = 0.20889 0.17980
#
# Static dielectric constant tensor:
#      x y z
#    x 3.533570 -0.000060 -0.099050 
#    y -0.000060 3.309270 -0.000110 
#    z -0.099050 -0.000110 3.522150 
# 
# 
# High freq. dielectric constant tensor:
#      x y z
#    x 1.733470 0.000000 -0.000060 
#    y 0.000000 1.723070 -0.000010 
#    z -0.000060 -0.000010 1.747430 
# 
# From -- ./inp_files/25528.got.cif
#   From: 2010.06.25/outbox.cif.g09.slc.cpg/sg12_13_cif.got.tgz:25528.got - 2010.06.28 00:19:55.
