data_PCOD8093222
_publ_section_title
;
Structure prediction by ZEFSAII (Michael W. Deem and Ramdas Pophale) SiO2 
 PCOD8093222
Probable space group: C 2/M
;
_chemical_formula_sum "Si O2"
_cell_formula_units_Z 64
_cell_length_a 29.994548
_cell_length_b 8.732087
_cell_length_c 15.207618
_cell_angle_alpha 90.000000
_cell_angle_beta 51.992852
_cell_angle_gamma 90.000000
_cell_volume 3138.422283
_symmetry_space_group_name_H-M "C 2/M"
_symmetry_group_IT_number 12
_symmetry_cell_setting 'monoclinic'
loop_
_space_group_symop_operation_xyz
x,y,z
-x,y,-z
-x,-y,-z
x,-y,z
1/2+x,1/2+y,z
1/2-x,1/2+y,-z
1/2-x,1/2-y,-z
1/2+x,1/2-y,z
loop_
_atom_site_type_symbol
_atom_site_label
_atom_site_fract_x
_atom_site_fract_y
_atom_site_fract_z
Si Si1 0.510557 0.180061 0.737033
Si Si2 0.612736 0.677307 0.137307
Si Si3 0.460666 0.673008 0.119231
Si Si4 0.334765 0.322000 0.739933
Si Si5 0.288178 0.683572 0.112510
Si Si6 0.310069 0.682676 0.446384
Si Si7 0.839637 0.830876 0.225170
Si Si8 0.885016 0.318949 0.505274
O O1 0.447626 0.245956 0.807105
O O2 0.541648 0.232132 0.788268
O O3 0.552396 0.231118 0.605743
O O4 0.504878 0.000000 0.744375
O O5 0.605358 0.500000 0.124544
O O6 0.627771 0.707232 0.219910
O O7 0.664379 0.742936 0.014473
O O8 0.479642 0.500000 0.121296
O O9 0.405385 0.666262 0.124850
O O10 0.500000 0.754737 0.000000
O O11 0.324467 0.500000 0.733873
O O12 0.273973 0.245629 0.832323
O O13 0.371398 0.251487 0.616565
O O14 0.286913 0.500000 0.112820
O O15 0.305693 0.751421 0.187517
O O16 0.311549 0.500000 0.458417
O O17 0.250000 0.750000 0.500000
O O18 0.340666 0.742136 0.320979
O O19 0.336670 0.761218 0.498584
O O20 0.812660 0.000000 0.265676
O O21 0.880690 0.500000 0.518336
#
# Coordination Sequence:
#
# PCOD8093222 Si02
#       8
#     8   8   8   8   8   8   8   8
#     4  11  24  40  61  90 125 163 209 263 314 363
#     4  10  23  42  65  91 123 163 208 256 316 385
#     4  10  19  35  60  86 117 159 201 241 294 364
#     4  11  24  41  63  93 122 159 209 264 322 374
#     4  10  20  39  65  93 126 162 201 250 308 380
#     4  11  21  35  57  86 121 160 200 247 299 360
#     4   9  18  32  54  85 115 150 193 230 280 351
#     4  11  24  42  61  86 123 168 212 259 314 373
#
# _framework density 20.392412
#
# number of rings (size 3 to 8) (size 9 to 14) (size 15 to 20)
#    0.000    1.625    1.250    3.375    0.000    6.750 
#    0.000    3.750    0.000    0.000    0.000    0.000 
#    0.000    0.000    0.000    0.000    0.000    0.000 
#
# Total GULP energy -396466.191389 kJ/mol
# GULP energy per Si atom -12389.568481 kJ/mol
# Density = 2.034600 g / cm^3
# Si number density = 20.392412 Si / 1000 Ang^3
#
#
#
# Elastic Constant Matrix: (Units=GPa)
#
#
# Indices 1 2 3 4 5 6 
#
# 1 88.5398 32.5643 28.7068 0.0000 -5.8372 0.0001
# 2 32.5643 51.4469 37.9881 0.0001 1.5211 0.0006
# 3 28.7068 37.9881 117.8582 0.0000 -4.0765 0.0000
# 4 0.0000 0.0001 0.0000 27.5066 0.0000 -4.3790
# 5 -5.8372 1.5211 -4.0765 0.0000 38.1250 0.0000
# 6 0.0001 0.0006 0.0000 -4.3790 0.0000 27.7517
#
#
#
# Elastic Compliance Matrix: (Units=1/GPa)
#
#
# Indices 1 2 3 4 5 6 
#
# 1 0.015025 -0.009122 -0.000629 0.000000 0.002597 0.000000
# 2 -0.009122 0.031185 -0.007951 0.000000 -0.003491 -0.000001
# 3 -0.000629 -0.007951 0.011250 0.000000 0.001424 0.000000
# 4 0.000000 0.000000 0.000000 0.037292 0.000000 0.005884
# 5 0.002597 -0.003491 0.001424 0.000000 0.026919 0.000000
# 6 0.000000 -0.000001 0.000000 0.005884 0.000000 0.036962
#
#
# Mechanical properties :
#
#
# Convention : Reuss Voigt Hill
#
# Bulk Modulus (GPa) = 45.33975 50.70702 48.02339
# Shear Modulus (GPa) = 24.82754 29.24904 27.03829
#
# Velocity S-wave (km/s) = 3.49304 3.79134 3.64524
# Velocity P-wave (km/s) = 6.20889 6.63967 6.42789
#
# Compressibility (1/GPa) = 0.02205570
#
# Stress axis : x y z
#
# Youngs Moduli (GPa) = 66.55689 32.06623 88.88906
#
# Poissons Ratio (x) = 0.29251 0.05596
# Poissons Ratio (y) = 0.60714 0.70672
# Poissons Ratio (z) = 0.04190 0.25494
#
# Static dielectric constant tensor:
#      x y z
#    x 3.684990 0.000000 0.014600 
#    y 0.000000 3.545390 0.000000 
#    z 0.014600 0.000000 4.017680 
# 
# 
# High freq. dielectric constant tensor:
#      x y z
#    x 1.805310 0.000000 -0.002380 
#    y 0.000000 1.775910 0.000000 
#    z -0.002380 0.000000 1.818220 
# 
# From -- ./inp_files/249729.got.cif
#   From: 2010.06.25/outbox.cif.g09.slc.cpg/sg12_125_cif.got.tgz:249729.got - 2010.06.28 00:19:55.
