data_PCOD8093227
_publ_section_title
;
Structure prediction by ZEFSAII (Michael W. Deem and Ramdas Pophale) SiO2 
 PCOD8093227
Probable space group: C 2/M
;
_chemical_formula_sum "Si O2"
_cell_formula_units_Z 56
_cell_length_a 9.412297
_cell_length_b 25.677493
_cell_length_c 14.966067
_cell_angle_alpha 90.000000
_cell_angle_beta 54.506497
_cell_angle_gamma 90.000000
_cell_volume 2944.944289
_symmetry_space_group_name_H-M "C 2/M"
_symmetry_group_IT_number 12
_symmetry_cell_setting 'monoclinic'
loop_
_space_group_symop_operation_xyz
x,y,z
-x,y,-z
-x,-y,-z
x,-y,z
1/2+x,1/2+y,z
1/2-x,1/2+y,-z
1/2-x,1/2-y,-z
1/2+x,1/2-y,z
loop_
_atom_site_type_symbol
_atom_site_label
_atom_site_fract_x
_atom_site_fract_y
_atom_site_fract_z
Si Si1 0.949126 0.940361 0.717014
Si Si2 0.515163 0.159000 0.136337
Si Si3 0.021986 0.766202 0.765845
Si Si4 0.175651 0.560005 0.485630
Si Si5 0.262620 0.114448 0.352030
Si Si6 0.112859 0.228115 0.377924
Si Si7 0.218101 0.145405 0.106230
O O1 0.873292 0.923134 0.648586
O O2 0.862995 0.908483 0.829569
O O3 0.158129 0.932250 0.640111
O O4 0.899280 0.000000 0.751901
O O5 0.564985 0.212699 0.167266
O O6 0.448664 0.116105 0.231944
O O7 0.352620 0.169956 0.128716
O O8 0.682289 0.135764 0.023641
O O9 0.229149 0.766601 0.705071
O O10 0.002674 0.776625 0.667734
O O11 0.935905 0.813111 0.852874
O O12 0.159861 0.500000 0.521613
O O13 0.202044 0.595305 0.562128
O O14 0.000000 0.578262 0.500000
O O15 0.185361 0.172462 0.383790
O O16 0.000000 0.252216 0.500000
#
# Coordination Sequence:
#
# PCOD8093227 Si02
#       7
#     8   8   8   8   8   8   8
#     4  10  19  35  60  87 113 146 185 228 282 334
#     4   9  20  36  57  79 111 147 190 235 276 324
#     4  11  19  38  55  79 111 153 186 229 279 331
#     4  10  21  37  58  84 115 147 183 230 279 337
#     4  10  19  37  58  84 112 148 187 230 278 332
#     4  11  22  36  54  82 121 149 184 231 282 335
#     4  10  19  38  57  81 114 146 189 239 276 327
#
# _framework density 19.015639
#
# number of rings (size 3 to 8) (size 9 to 14) (size 15 to 20)
#    0.000    1.857    4.286    2.571    0.000    1.143 
#    5.143    6.429    0.000    0.000    0.000    3.000 
#    0.000    0.000    0.000    0.000    0.000    0.000 
#
# Total GULP energy -347195.569963 kJ/mol
# GULP energy per Si atom -12399.841784 kJ/mol
# Density = 1.897236 g / cm^3
# Si number density = 19.015639 Si / 1000 Ang^3
#
#
#
# Elastic Constant Matrix: (Units=GPa)
#
#
# Indices 1 2 3 4 5 6 
#
# 1 62.1247 38.6875 28.8720 0.0000 -12.6182 0.0000
# 2 38.6875 89.5759 38.3574 0.0000 -12.4277 0.0000
# 3 28.8720 38.3574 120.4989 0.0000 -19.6927 0.0000
# 4 0.0000 0.0000 0.0000 28.6028 0.0000 3.2825
# 5 -12.6182 -12.4277 -19.6927 0.0000 28.2577 0.0000
# 6 0.0000 0.0000 0.0000 3.2825 0.0000 28.0080
#
#
#
# Elastic Compliance Matrix: (Units=1/GPa)
#
#
# Indices 1 2 3 4 5 6 
#
# 1 0.023416 -0.008506 -0.002038 0.000000 0.005295 0.000000
# 2 -0.008506 0.016274 -0.002927 0.000000 0.001319 0.000000
# 3 -0.002038 -0.002927 0.010563 0.000000 0.005164 0.000000
# 4 0.000000 0.000000 0.000000 0.035438 0.000000 -0.004153
# 5 0.005295 0.001319 0.005164 0.000000 0.041932 0.000000
# 6 0.000000 0.000000 0.000000 -0.004153 0.000000 0.036191
#
#
# Mechanical properties :
#
#
# Convention : Reuss Voigt Hill
#
# Bulk Modulus (GPa) = 42.89643 53.78148 48.33896
# Shear Modulus (GPa) = 25.18573 28.05922 26.62248
#
# Velocity S-wave (km/s) = 3.64328 3.84550 3.74576
# Velocity P-wave (km/s) = 6.34866 6.93263 6.64706
#
# Compressibility (1/GPa) = 0.02331196
#
# Stress axis : x y z
#
# Youngs Moduli (GPa) = 42.70532 61.44862 94.67408
#
# Poissons Ratio (x) = 0.52270 0.19290
# Poissons Ratio (y) = 0.36326 0.27707
# Poissons Ratio (z) = 0.08701 0.17983
#
# Static dielectric constant tensor:
#      x y z
#    x 3.470300 0.000000 -0.239910 
#    y 0.000000 3.327460 0.000000 
#    z -0.239910 0.000000 3.751660 
# 
# 
# High freq. dielectric constant tensor:
#      x y z
#    x 1.722350 0.000000 -0.014140 
#    y 0.000000 1.723470 0.000000 
#    z -0.014140 0.000000 1.749790 
# 
# From -- ./inp_files/185162.got.cif
#   From: 2010.06.25/outbox.cif.g09.slc.cpg/sg12_93_cif.got.tgz:185162.got - 2010.06.28 00:19:55.
