data_PCOD8093897
_publ_section_title
;
Structure prediction by ZEFSAII (Michael W. Deem and Ramdas Pophale) SiO2 
 PCOD8093897
Probable space group: C 2/M
;
_chemical_formula_sum "Si O2"
_cell_formula_units_Z 56
_cell_length_a 9.385678
_cell_length_b 18.222873
_cell_length_c 24.295194
_cell_angle_alpha 90.000000
_cell_angle_beta 135.752846
_cell_angle_gamma 90.000000
_cell_volume 2899.384095
_symmetry_space_group_name_H-M "C 2/M"
_symmetry_group_IT_number 12
_symmetry_cell_setting 'monoclinic'
loop_
_space_group_symop_operation_xyz
x,y,z
-x,y,-z
-x,-y,-z
x,-y,z
1/2+x,1/2+y,z
1/2-x,1/2+y,-z
1/2-x,1/2-y,-z
1/2+x,1/2-y,z
loop_
_atom_site_type_symbol
_atom_site_label
_atom_site_fract_x
_atom_site_fract_y
_atom_site_fract_z
Si Si1 0.310379 0.086068 0.094288
Si Si2 0.530900 0.083622 0.339866
Si Si3 0.957023 0.087004 0.076872
Si Si4 0.234091 0.788808 0.553119
Si Si5 0.951122 0.792820 0.287597
Si Si6 0.300592 0.914672 0.735114
Si Si7 0.632855 0.667075 0.222897
O O1 0.146199 0.115359 0.092546
O O2 0.535687 0.112558 0.173470
O O3 0.299788 0.000000 0.098435
O O4 0.249984 0.106547 0.014709
O O5 0.657224 0.131858 0.418537
O O6 0.608148 0.101335 0.299642
O O7 0.291173 0.101144 0.278634
O O8 0.568246 0.000000 0.366323
O O9 0.964953 0.136756 0.133451
O O10 0.966478 0.000000 0.093461
O O11 0.250000 0.750000 0.500000
O O12 0.342368 0.740450 0.629953
O O13 0.000000 0.801591 0.500000
O O14 0.898198 0.865501 0.308585
O O15 0.761450 0.736771 0.237213
O O16 0.999325 0.812606 0.238532
O O17 0.242427 0.000000 0.725697
#
# Coordination Sequence:
#
# PCOD8093897 Si02
#       7
#     8   8   8   8   8   8   8
#     4   8  15  29  55  86 114 147 189 237 284 329
#     4  10  20  36  62  90 113 144 188 232 281 340
#     4   9  16  30  56  86 112 149 195 236 281 331
#     4  11  22  40  61  82 111 148 185 230 288 345
#     4  11  24  39  58  83 113 150 194 232 287 346
#     4  10  19  36  60  87 117 148 188 239 285 333
#     4  11  21  36  57  81 116 155 192 236 278 337
#
# _framework density 19.314447000000001
#
# number of rings (size 3 to 8) (size 9 to 14) (size 15 to 20)
#    0.000    2.000    1.429    5.571    0.000    1.429 
#    0.000    2.143    0.000    4.286    0.000    0.000 
#    0.000    0.000    0.000    0.000    0.000    0.000 
#
# Total GULP energy -347114.132038 kJ/mol
# GULP energy per Si atom -12396.933287 kJ/mol
# Density = 1.927049 g / cm^3
# Si number density = 19.314447 Si / 1000 Ang^3
#
#
#
# Elastic Constant Matrix: (Units=GPa)
#
#
# Indices 1 2 3 4 5 6 
#
# 1 64.0060 34.1271 5.8351 0.0000 -13.0973 0.0000
# 2 34.1271 100.1057 47.9193 0.0000 -9.1788 0.0000
# 3 5.8351 47.9193 82.2841 0.0000 -13.0316 0.0000
# 4 0.0000 0.0000 0.0000 33.6234 0.0000 -6.1987
# 5 -13.0973 -9.1788 -13.0316 0.0000 30.0081 0.0000
# 6 0.0000 0.0000 0.0000 -6.1987 0.0000 28.1997
#
#
#
# Elastic Compliance Matrix: (Units=1/GPa)
#
#
# Indices 1 2 3 4 5 6 
#
# 1 0.021845 -0.009099 0.005175 0.000000 0.008998 0.000000
# 2 -0.009099 0.017658 -0.010107 0.000000 -0.002959 0.000000
# 3 0.005175 -0.010107 0.018835 0.000000 0.007347 0.000000
# 4 0.000000 0.000000 0.000000 0.030997 0.000000 0.006814
# 5 0.008998 -0.002959 0.007347 0.000000 0.039537 0.000000
# 6 0.000000 0.000000 0.000000 0.006814 0.000000 0.036959
#
#
# Mechanical properties :
#
#
# Convention : Reuss Voigt Hill
#
# Bulk Modulus (GPa) = 33.02926 46.90653 39.96789
# Shear Modulus (GPa) = 24.51148 28.93385 26.72266
#
# Velocity S-wave (km/s) = 3.56627 3.87465 3.72366
# Velocity P-wave (km/s) = 5.83915 6.66001 6.26304
#
# Compressibility (1/GPa) = 0.03027619
#
# Stress axis : x y z
#
# Youngs Moduli (GPa) = 45.77781 56.63099 53.09124
#
# Poissons Ratio (x) = 0.51530 -0.27475
# Poissons Ratio (y) = 0.41654 0.53659
# Poissons Ratio (z) = -0.23690 0.57236
#
# Static dielectric constant tensor:
#      x y z
#    x 3.426990 0.000000 0.356660 
#    y 0.000000 3.541120 0.000000 
#    z 0.356660 0.000000 4.394170 
# 
# 
# High freq. dielectric constant tensor:
#      x y z
#    x 1.729900 0.000000 -0.000890 
#    y 0.000000 1.747430 0.000000 
#    z -0.000890 0.000000 1.755050 
# 
# From -- ./inp_files/333368.got.cif
#   From: 2010.06.25/outbox.cif.g09.slc.cpg/sg12_167_cif.got.tgz:333368.got - 2010.06.28 00:19:55.
