data_PCOD8093927
_publ_section_title
;
Structure prediction by ZEFSAII (Michael W. Deem and Ramdas Pophale) SiO2 
 PCOD8093927
Probable space group: C 2/M
;
_chemical_formula_sum "Si O2"
_cell_formula_units_Z 48
_cell_length_a 22.227649
_cell_length_b 17.446472
_cell_length_c 21.893808
_cell_angle_alpha 90.000000
_cell_angle_beta 161.113772
_cell_angle_gamma 90.000000
_cell_volume 2748.221530
_symmetry_space_group_name_H-M "C 2/M"
_symmetry_group_IT_number 12
_symmetry_cell_setting 'monoclinic'
loop_
_space_group_symop_operation_xyz
x,y,z
-x,y,-z
-x,-y,-z
x,-y,z
1/2+x,1/2+y,z
1/2-x,1/2+y,-z
1/2-x,1/2-y,-z
1/2+x,1/2-y,z
loop_
_atom_site_type_symbol
_atom_site_label
_atom_site_fract_x
_atom_site_fract_y
_atom_site_fract_z
Si Si1 0.685260 0.587683 0.961851
Si Si2 0.390897 0.292079 0.718707
Si Si3 0.155541 0.848506 0.804137
Si Si4 0.998412 0.301491 0.289895
Si Si5 0.476859 0.814003 0.908820
Si Si6 0.617176 0.590294 0.553691
O O1 0.671350 0.500000 0.969160
O O2 0.514891 0.632811 0.828803
O O3 0.676530 0.592994 0.880239
O O4 0.882025 0.620530 0.174267
O O5 0.443469 0.224224 0.722281
O O6 0.416459 0.259516 0.811225
O O7 0.177362 0.316639 0.503713
O O8 0.136456 0.762478 0.811101
O O9 0.970399 0.870728 0.590049
O O10 0.333392 0.853056 0.931545
O O11 0.326207 0.881217 0.761339
O O12 0.500000 0.784052 0.000000
O O13 0.500000 0.615371 0.500000
O O14 0.617597 0.500000 0.545129
#
# Coordination Sequence:
#
# PCOD8093927 Si02
#       6
#     8   8   8   8   8   8
#     4  11  22  35  57  86 115 145 181 237 293 331
#     4  10  20  37  57  84 108 145 193 234 274 334
#     4  11  20  38  56  81 111 150 192 227 269 334
#     4  10  19  36  61  77 111 146 187 237 278 327
#     4  12  22  36  60  82 109 153 197 227 268 328
#     4  11  24  37  50  79 120 155 188 227 268 321
#
# _framework density 17.465841000000001
#
# number of rings (size 3 to 8) (size 9 to 14) (size 15 to 20)
#    0.000    1.167    6.667    1.500    0.000    2.333 
#    0.000    0.000    0.000    0.500    0.000    1.167 
#    0.000    0.000    0.000    0.000    0.000    0.000 
#
# Total GULP energy -297744.509328 kJ/mol
# GULP energy per Si atom -12406.021222 kJ/mol
# Density = 1.742609 g / cm^3
# Si number density = 17.465841 Si / 1000 Ang^3
#
#
#
# Elastic Constant Matrix: (Units=GPa)
#
#
# Indices 1 2 3 4 5 6 
#
# 1 81.5302 16.9790 26.6437 0.0077 -10.7540 0.0101
# 2 16.9790 82.4776 24.8713 0.0155 -7.4113 0.0104
# 3 26.6437 24.8713 104.4738 -0.0425 -5.4223 -0.0036
# 4 0.0077 0.0155 -0.0425 25.9527 -0.0179 -0.0273
# 5 -10.7540 -7.4113 -5.4223 -0.0179 33.8707 -0.0030
# 6 0.0101 0.0104 -0.0036 -0.0273 -0.0030 14.9659
#
#
#
# Elastic Compliance Matrix: (Units=1/GPa)
#
#
# Indices 1 2 3 4 5 6 
#
# 1 0.014072 -0.001665 -0.003004 -0.000006 0.003622 -0.000008
# 2 -0.001665 0.013452 -0.002675 -0.000011 0.001987 -0.000008
# 3 -0.003004 -0.002675 0.010986 0.000021 0.000220 0.000007
# 4 -0.000006 -0.000011 0.000021 0.038532 0.000020 0.000070
# 5 0.003622 0.001987 0.000220 0.000020 0.031144 0.000003
# 6 -0.000008 -0.000008 0.000007 0.000070 0.000003 0.066819
#
#
# Mechanical properties :
#
#
# Convention : Reuss Voigt Hill
#
# Bulk Modulus (GPa) = 41.97857 45.05216 43.51537
# Shear Modulus (GPa) = 25.29929 28.29038 26.79484
#
# Velocity S-wave (km/s) = 3.81005 4.02898 3.92104
# Velocity P-wave (km/s) = 6.59106 6.89159 6.74300
#
# Compressibility (1/GPa) = 0.02382168
#
# Stress axis : x y z
#
# Youngs Moduli (GPa) = 71.06410 74.33608 91.02424
#
# Poissons Ratio (x) = 0.12380 0.27346
# Poissons Ratio (y) = 0.11835 0.24346
# Poissons Ratio (z) = 0.21349 0.19883
#
# Static dielectric constant tensor:
#      x y z
#    x 3.230930 -0.000030 -0.009560 
#    y -0.000030 2.919870 -0.000080 
#    z -0.009560 -0.000080 3.447280 
# 
# 
# High freq. dielectric constant tensor:
#      x y z
#    x 1.665320 0.000000 0.001630 
#    y 0.000000 1.648520 -0.000010 
#    z 0.001630 -0.000010 1.699630 
# 
# From -- ./inp_files/322533.got.cif
#   From: 2010.06.25/outbox.cif.g09.slc.cpg/sg12_162_cif.got.tgz:322533.got - 2010.06.28 00:19:55.
