data_PCOD8093173
_publ_section_title
;
Structure prediction by ZEFSAII (Michael W. Deem and Ramdas Pophale) SiO2 
 PCOD8093173
Probable space group: C 2/M
;
_chemical_formula_sum "Si O2"
_cell_formula_units_Z 56
_cell_length_a 19.943506
_cell_length_b 9.117878
_cell_length_c 18.990520
_cell_angle_alpha 90.000000
_cell_angle_beta 120.361452
_cell_angle_gamma 90.000000
_cell_volume 2979.678604
_symmetry_space_group_name_H-M "C 2/M"
_symmetry_group_IT_number 12
_symmetry_cell_setting 'monoclinic'
loop_
_space_group_symop_operation_xyz
x,y,z
-x,y,-z
-x,-y,-z
x,-y,z
1/2+x,1/2+y,z
1/2-x,1/2+y,-z
1/2-x,1/2-y,-z
1/2+x,1/2-y,z
loop_
_atom_site_type_symbol
_atom_site_label
_atom_site_fract_x
_atom_site_fract_y
_atom_site_fract_z
Si Si1 0.533839 0.329433 0.814574
Si Si2 0.860244 0.170698 0.741141
Si Si3 0.915896 0.328452 0.428061
Si Si4 0.134728 0.826438 0.740457
Si Si5 0.072642 0.826283 0.989883
Si Si6 0.687310 0.826858 0.146590
Si Si7 0.732238 0.171070 0.562674
O O1 0.552435 0.500000 0.827534
O O2 0.443477 0.300731 0.749423
O O3 0.584456 0.260232 0.778426
O O4 0.557034 0.264900 0.903045
O O5 0.857550 0.265673 0.809805
O O6 0.794015 0.225940 0.653142
O O7 0.849607 0.000000 0.755870
O O8 0.913448 0.500000 0.409102
O O9 0.896084 0.242706 0.347295
O O10 0.853742 0.289094 0.455797
O O11 0.000000 0.278346 0.500000
O O12 0.223055 0.780093 0.801319
O O13 0.125258 0.000000 0.728464
O O14 0.085880 0.000000 0.998802
O O15 0.150327 0.746247 0.057835
O O16 0.000000 0.781843 0.000000
O O17 0.676836 0.000000 0.137088
O O18 0.750000 0.250000 0.500000
O O19 0.742481 0.000000 0.554691
#
# Coordination Sequence:
#
# PCOD8093173 Si02
#       7
#     8   8   8   8   8   8   8
#     4   9  19  36  58  83 109 141 192 238 269 324
#     4  10  19  37  61  81 106 150 196 229 270 329
#     4  10  22  40  59  82 115 151 185 229 282 336
#     4  10  22  39  58  82 113 150 187 229 279 333
#     4  10  19  35  60  84 108 148 193 230 274 331
#     4  11  22  35  55  84 117 147 180 231 286 331
#     4  10  22  37  58  86 115 146 186 232 278 332
#
# _framework density 18.793973000000001
#
# number of rings (size 3 to 8) (size 9 to 14) (size 15 to 20)
#    0.000    2.000    2.857    0.429    2.000    2.857 
#    0.000    1.429    0.000    0.000    0.000    0.000 
#    0.000    0.000    0.000    0.000    0.000    0.000 
#
# Total GULP energy -347261.698002 kJ/mol
# GULP energy per Si atom -12402.203500 kJ/mol
# Density = 1.875120 g / cm^3
# Si number density = 18.793973 Si / 1000 Ang^3
#
#
#
# Elastic Constant Matrix: (Units=GPa)
#
#
# Indices 1 2 3 4 5 6 
#
# 1 126.3668 31.5163 64.9680 0.0000 2.2094 0.0000
# 2 31.5163 33.7120 38.2992 0.0000 3.2540 0.0000
# 3 64.9680 38.2992 128.0104 0.0000 13.0800 0.0000
# 4 0.0000 0.0000 0.0000 33.0105 0.0000 -1.2503
# 5 2.2094 3.2540 13.0800 0.0000 38.2030 0.0000
# 6 0.0000 0.0000 0.0000 -1.2503 0.0000 18.1123
#
#
#
# Elastic Compliance Matrix: (Units=1/GPa)
#
#
# Indices 1 2 3 4 5 6 
#
# 1 0.011576 -0.006245 -0.004137 0.000000 0.001279 0.000000
# 2 -0.006245 0.048330 -0.011302 0.000000 0.000114 0.000000
# 3 -0.004137 -0.011302 0.013648 0.000000 -0.003471 0.000000
# 4 0.000000 0.000000 0.000000 0.030373 0.000000 0.002097
# 5 0.001279 0.000114 -0.003471 0.000000 0.027281 0.000000
# 6 0.000000 0.000000 0.000000 0.002097 0.000000 0.055356
#
#
# Mechanical properties :
#
#
# Convention : Reuss Voigt Hill
#
# Bulk Modulus (GPa) = 33.12902 61.96178 47.54540
# Shear Modulus (GPa) = 20.83401 28.08557 24.45979
#
# Velocity S-wave (km/s) = 3.33310 3.86993 3.61150
# Velocity P-wave (km/s) = 5.69899 7.28073 6.53787
#
# Compressibility (1/GPa) = 0.03018502
#
# Stress axis : x y z
#
# Youngs Moduli (GPa) = 86.38838 20.69108 73.27314
#
# Poissons Ratio (x) = 0.12922 0.30314
# Poissons Ratio (y) = 0.53950 0.82813
# Poissons Ratio (z) = 0.35740 0.23385
#
# Static dielectric constant tensor:
#      x y z
#    x 3.670730 0.000000 0.080500 
#    y 0.000000 3.223080 0.000000 
#    z 0.080500 0.000000 3.619110 
# 
# 
# High freq. dielectric constant tensor:
#      x y z
#    x 1.739260 0.000000 0.006260 
#    y 0.000000 1.705780 0.000000 
#    z 0.006260 0.000000 1.740850 
# 
# From -- ./inp_files/280948.got.cif
#   From: 2010.06.25/outbox.cif.g09.slc.cpg/sg12_141_cif.got.tgz:280948.got - 2010.06.28 00:19:55.
