data_PCOD8093716
_publ_section_title
;
Structure prediction by ZEFSAII (Michael W. Deem and Ramdas Pophale) SiO2 
 PCOD8093716
Probable space group: C 2/M
;
_chemical_formula_sum "Si O2"
_cell_formula_units_Z 48
_cell_length_a 15.818899
_cell_length_b 9.012129
_cell_length_c 16.761826
_cell_angle_alpha 90.000000
_cell_angle_beta 91.013813
_cell_angle_gamma 90.000000
_cell_volume 2389.224670
_symmetry_space_group_name_H-M "C 2/M"
_symmetry_group_IT_number 12
_symmetry_cell_setting 'monoclinic'
loop_
_space_group_symop_operation_xyz
x,y,z
-x,y,-z
-x,-y,-z
x,-y,z
1/2+x,1/2+y,z
1/2-x,1/2+y,-z
1/2-x,1/2-y,-z
1/2+x,1/2-y,z
loop_
_atom_site_type_symbol
_atom_site_label
_atom_site_fract_x
_atom_site_fract_y
_atom_site_fract_z
Si Si1 0.081833 0.669699 0.174628
Si Si2 0.329579 0.829136 0.664089
Si Si3 0.906272 0.324090 0.501711
Si Si4 0.160043 0.324875 0.669045
Si Si5 0.586124 0.675365 0.813207
Si Si6 0.249594 0.675367 0.085151
O O1 0.062865 0.500000 0.150922
O O2 0.095989 0.684727 0.269997
O O3 0.165471 0.727292 0.130447
O O4 0.000878 0.767640 0.147830
O O5 0.360124 0.763208 0.579929
O O6 0.252525 0.730801 0.694413
O O7 0.299422 0.000000 0.656851
O O8 0.911686 0.500000 0.508738
O O9 0.856758 0.273508 0.422064
O O10 0.000000 0.255886 0.500000
O O11 0.151880 0.500000 0.678819
O O12 0.092263 0.249203 0.726078
O O13 0.582867 0.500000 0.804110
O O14 0.666345 0.727400 0.866750
O O15 0.250382 0.500000 0.075118
O O16 0.250000 0.750000 0.000000
#
# Coordination Sequence:
#
# PCOD8093716 Si02
#       6
#     8   8   8   8   8   8
#     4  10  21  40  64  90 120 159 202 243 294 357
#     4  10  19  36  59  81 117 160 199 247 299 348
#     4   9  18  32  52  79 112 155 202 247 295 347
#     4  11  21  34  56  86 117 155 205 248 293 352
#     4  11  23  41  63  90 122 159 200 244 299 355
#     4  10  23  43  65  90 122 156 194 241 299 360
#
# _framework density 20.090198000000001
#
# number of rings (size 3 to 8) (size 9 to 14) (size 15 to 20)
#    0.000    1.833    1.667    2.500    0.000    6.000 
#    0.000    4.167    0.000    3.500    0.000    0.000 
#    0.000    0.000    0.000    0.000    0.000    0.000 
#
# Total GULP energy -297653.743667 kJ/mol
# GULP energy per Si atom -12402.239319 kJ/mol
# Density = 2.004447 g / cm^3
# Si number density = 20.090198 Si / 1000 Ang^3
#
#
#
# Elastic Constant Matrix: (Units=GPa)
#
#
# Indices 1 2 3 4 5 6 
#
# 1 153.8849 48.2877 51.7911 0.0000 -6.3057 0.0000
# 2 48.2877 57.1527 38.4122 0.0000 -0.5119 0.0000
# 3 51.7911 38.4122 122.2536 0.0000 -8.5659 0.0000
# 4 0.0000 0.0000 0.0000 30.5496 0.0000 -2.8606
# 5 -6.3057 -0.5119 -8.5659 0.0000 21.8669 0.0000
# 6 0.0000 0.0000 0.0000 -2.8606 0.0000 33.6500
#
#
#
# Elastic Compliance Matrix: (Units=1/GPa)
#
#
# Indices 1 2 3 4 5 6 
#
# 1 0.009228 -0.006642 -0.001693 0.000000 0.001842 0.000000
# 2 -0.006642 0.027072 -0.005945 0.000000 -0.003610 0.000000
# 3 -0.001693 -0.005945 0.011024 0.000000 0.003691 0.000000
# 4 0.000000 0.000000 0.000000 0.032996 0.000000 0.002805
# 5 0.001842 -0.003610 0.003691 0.000000 0.047624 0.000000
# 6 0.000000 0.000000 0.000000 0.002805 0.000000 0.029956
#
#
# Mechanical properties :
#
#
# Convention : Reuss Voigt Hill
#
# Bulk Modulus (GPa) = 53.29738 67.80814 60.55276
# Shear Modulus (GPa) = 25.94499 30.19999 28.07249
#
# Velocity S-wave (km/s) = 3.59754 3.88134 3.74213
# Velocity P-wave (km/s) = 6.62141 7.34245 6.99123
#
# Compressibility (1/GPa) = 0.01876265
#
# Stress axis : x y z
#
# Youngs Moduli (GPa) = 108.36637 36.93818 90.71385
#
# Poissons Ratio (x) = 0.24534 0.15360
# Poissons Ratio (y) = 0.71977 0.53932
# Poissons Ratio (z) = 0.18350 0.21961
#
# Static dielectric constant tensor:
#      x y z
#    x 3.750170 0.000000 -0.072390 
#    y 0.000000 3.338280 0.000000 
#    z -0.072390 0.000000 3.693780 
# 
# 
# High freq. dielectric constant tensor:
#      x y z
#    x 1.795260 0.000000 -0.004140 
#    y 0.000000 1.758650 0.000000 
#    z -0.004140 0.000000 1.786100 
# 
# From -- ./inp_files/267675.got.cif
#   From: 2010.06.25/outbox.cif.g09.slc.cpg/sg12_134_cif.got.tgz:267675.got - 2010.06.28 00:19:55.
