data_PCOD8093401
_publ_section_title
;
Structure prediction by ZEFSAII (Michael W. Deem and Ramdas Pophale) SiO2 
 PCOD8093401
Probable space group: C 2/M
;
_chemical_formula_sum "Si O2"
_cell_formula_units_Z 56
_cell_length_a 20.600865
_cell_length_b 17.108204
_cell_length_c 22.904627
_cell_angle_alpha 90.000000
_cell_angle_beta 20.536207
_cell_angle_gamma 90.000000
_cell_volume 2831.859639
_symmetry_space_group_name_H-M "C 2/M"
_symmetry_group_IT_number 12
_symmetry_cell_setting 'monoclinic'
loop_
_space_group_symop_operation_xyz
x,y,z
-x,y,-z
-x,-y,-z
x,-y,z
1/2+x,1/2+y,z
1/2-x,1/2+y,-z
1/2-x,1/2-y,-z
1/2+x,1/2-y,z
loop_
_atom_site_type_symbol
_atom_site_label
_atom_site_fract_x
_atom_site_fract_y
_atom_site_fract_z
Si Si1 0.510897 0.913675 0.602618
Si Si2 0.210166 0.286843 0.716181
Si Si3 0.439430 0.088347 0.904506
Si Si4 0.126262 0.790916 0.183958
Si Si5 0.589787 0.247673 0.346821
Si Si6 0.582213 0.352254 0.745079
Si Si7 0.192604 0.380686 0.105913
O O1 0.427225 0.846808 0.631383
O O2 0.732216 0.902275 0.420766
O O3 0.401604 0.910519 0.756114
O O4 0.474823 0.000000 0.606507
O O5 0.418593 0.291656 0.519156
O O6 0.222997 0.272588 0.776250
O O7 0.102520 0.216212 0.775919
O O8 0.120642 0.370333 0.777883
O O9 0.438875 0.086790 0.834566
O O10 0.432183 0.000000 0.934978
O O11 0.264828 0.137194 0.073594
O O12 0.070004 0.769018 0.296341
O O13 0.212337 0.713064 0.082972
O O14 0.954070 0.816188 0.288808
O O15 0.408509 0.406526 0.913476
#
# Coordination Sequence:
#
# PCOD8093401 Si02
#       7
#     8   8   8   8   8   8   8
#     4  10  22  36  57  90 120 148 189 245 295 332
#     4  10  19  39  57  84 108 154 200 225 286 347
#     4  11  21  34  58  87 117 144 186 248 296 330
#     4  10  19  37  58  87 110 153 197 235 278 350
#     4   9  22  37  60  79 112 156 198 235 271 356
#     4  10  19  35  63  82 116 155 197 229 284 352
#     4  10  19  37  59  88 119 154 189 237 285 353
#
# _framework density 19.774989999999999
#
# number of rings (size 3 to 8) (size 9 to 14) (size 15 to 20)
#    0.000    2.000    2.857    1.286    2.000    5.143 
#    0.000    9.286    0.000    0.857    0.000    0.000 
#    0.000    0.000    0.000    0.000    0.000    0.000 
#
# Total GULP energy -346908.617144 kJ/mol
# GULP energy per Si atom -12389.593469 kJ/mol
# Density = 1.972998 g / cm^3
# Si number density = 19.774990 Si / 1000 Ang^3
#
#
#
# Elastic Constant Matrix: (Units=GPa)
#
#
# Indices 1 2 3 4 5 6 
#
# 1 79.3542 17.5236 21.4425 0.0072 -25.7491 -0.0081
# 2 17.5236 129.6950 30.6654 -0.0373 -19.7890 -0.0029
# 3 21.4425 30.6654 81.0211 0.0653 -7.7775 -0.0763
# 4 0.0072 -0.0373 0.0653 8.1627 -0.0128 2.7316
# 5 -25.7491 -19.7890 -7.7775 -0.0128 24.4615 -0.0043
# 6 -0.0081 -0.0029 -0.0763 2.7316 -0.0043 -1.4922
#
#
#
# Elastic Compliance Matrix: (Units=1/GPa)
#
#
# Indices 1 2 3 4 5 6 
#
# 1 0.020204 0.001413 -0.003848 0.000028 0.021187 0.000075
# 2 0.001413 0.009522 -0.003193 0.000026 0.008175 0.000162
# 3 -0.003848 -0.003193 0.014371 0.000065 -0.002064 -0.000582
# 4 0.000028 0.000026 0.000065 0.075971 0.000135 0.139064
# 5 0.021187 0.008175 -0.002064 0.000135 0.069140 0.000025
# 6 0.000075 0.000162 -0.000582 0.139064 0.000025 -0.415543
#
#
# Mechanical properties :
#
#
# Convention : Reuss Voigt Hill
#
# Bulk Modulus (GPa) = 30.45012 47.70369 39.07691
# Shear Modulus (GPa) = -24.49406 20.92233 -1.78587
#
# Velocity S-wave (km/s) = -3.52325 3.25625 -0.95134
# Velocity P-wave (km/s) = 1.05797 6.18976 4.31242
#
# Compressibility (1/GPa) = 0.03284059
#
# Stress axis : x y z
#
# Youngs Moduli (GPa) = 49.49393 105.02214 69.58696
#
# Poissons Ratio (x) = -0.14837 0.26777
# Poissons Ratio (y) = -0.06992 0.22218
# Poissons Ratio (z) = 0.19045 0.33532
#
# Static dielectric constant tensor:
#      x y z
#    x 4.063080 -0.000050 -0.127440 
#    y -0.000050 3.573170 0.000120 
#    z -0.127440 0.000120 3.520420 
# 
# 
# High freq. dielectric constant tensor:
#      x y z
#    x 1.769490 0.000000 -0.001500 
#    y 0.000000 1.758700 0.000010 
#    z -0.001500 0.000010 1.765940 
# 
# From -- ./inp_files/347771.got.cif
#   From: 2010.06.25/outbox.cif.g09.slc.cpg/sg12_174_cif.got.tgz:347771.got - 2010.06.28 00:19:55.
