data_PCOD8093283
_publ_section_title
;
Structure prediction by ZEFSAII (Michael W. Deem and Ramdas Pophale) SiO2 
 PCOD8093283
Probable space group: C 2/M
;
_chemical_formula_sum "Si O2"
_cell_formula_units_Z 48
_cell_length_a 17.958006
_cell_length_b 10.353428
_cell_length_c 12.525047
_cell_angle_alpha 90.000000
_cell_angle_beta 63.945933
_cell_angle_gamma 90.000000
_cell_volume 2092.096480
_symmetry_space_group_name_H-M "C 2/M"
_symmetry_group_IT_number 12
_symmetry_cell_setting 'monoclinic'
loop_
_space_group_symop_operation_xyz
x,y,z
-x,y,-z
-x,-y,-z
x,-y,z
1/2+x,1/2+y,z
1/2-x,1/2+y,-z
1/2-x,1/2-y,-z
1/2+x,1/2-y,z
loop_
_atom_site_type_symbol
_atom_site_label
_atom_site_fract_x
_atom_site_fract_y
_atom_site_fract_z
Si Si1 0.645365 0.500000 0.650739
Si Si2 0.296987 0.000000 0.414498
Si Si3 0.486419 0.853822 0.835293
Si Si4 0.843447 0.263462 0.238097
Si Si5 0.805563 0.654356 0.033642
Si Si6 0.942842 0.729632 0.638565
Si Si7 0.471719 0.500000 0.638651
Si Si8 0.102064 0.500000 0.435879
O O1 0.701076 0.500000 0.509189
O O2 0.672664 0.621620 0.705341
O O3 0.549877 0.500000 0.671769
O O4 0.314889 0.870005 0.340265
O O5 0.358547 0.000000 0.475138
O O6 0.557883 0.771155 0.847212
O O7 0.493171 0.834345 0.703553
O O8 0.508311 0.000000 0.849582
O O9 0.397666 0.815427 0.935606
O O10 0.794125 0.295009 0.161174
O O11 0.784535 0.500000 0.035560
O O12 0.750000 0.750000 0.000000
O O13 0.914193 0.872950 0.695337
O O14 0.870178 0.629833 0.647540
O O15 0.000000 0.753481 0.500000
O O16 0.500000 0.500000 0.500000
O O17 0.000000 0.500000 0.500000
#
# Coordination Sequence:
#
# PCOD8093283 Si02
#       8
#     4   4   8   8   8   8   4   4
#     4  12  28  44  69 105 149 188 230 287 366 419
#     4  12  26  46  71  99 144 190 235 291 349 423
#     4  11  21  42  78 101 132 182 238 288 338 414
#     4  12  24  49  72 102 138 187 244 293 343 425
#     4  11  27  51  74 105 139 180 236 298 361 417
#     4  10  19  35  60  99 132 169 220 275 330 398
#     4  10  22  40  59  92 144 174 216 278 340 411
#     4  10  20  34  63  93 123 173 227 271 320 399
#
# _framework density 22.943493
#
# number of rings (size 3 to 8) (size 9 to 14) (size 15 to 20)
#    0.000    1.000    4.167    3.000    3.500    2.667 
#    9.000    0.833    0.000    0.000    0.000    0.000 
#    0.000    0.000    0.000    0.000    0.000    0.000 
#
# Total GULP energy -297353.854997 kJ/mol
# GULP energy per Si atom -12389.743958 kJ/mol
# Density = 2.289127 g / cm^3
# Si number density = 22.943493 Si / 1000 Ang^3
#
#
#
# Elastic Constant Matrix: (Units=GPa)
#
#
# Indices 1 2 3 4 5 6 
#
# 1 79.2081 63.1622 51.4209 0.0000 28.2518 0.0000
# 2 63.1622 232.5677 62.0506 0.0000 13.5939 0.0000
# 3 51.4209 62.0506 74.7200 0.0000 24.3289 0.0000
# 4 0.0000 0.0000 0.0000 20.7136 0.0000 5.5506
# 5 28.2518 13.5939 24.3289 0.0000 47.6044 0.0000
# 6 0.0000 0.0000 0.0000 5.5506 0.0000 20.1284
#
#
#
# Elastic Compliance Matrix: (Units=1/GPa)
#
#
# Indices 1 2 3 4 5 6 
#
# 1 0.026525 -0.003299 -0.012831 0.000000 -0.008242 0.000000
# 2 -0.003299 0.005968 -0.003321 0.000000 0.001951 0.000000
# 3 -0.012831 -0.003321 0.026611 0.000000 -0.005037 0.000000
# 4 0.000000 0.000000 0.000000 0.052130 0.000000 -0.014375
# 5 -0.008242 0.001951 -0.005037 0.000000 0.027915 0.000000
# 6 0.000000 0.000000 0.000000 -0.014375 0.000000 0.053645
#
#
# Mechanical properties :
#
#
# Convention : Reuss Voigt Hill
#
# Bulk Modulus (GPa) = 49.49798 82.19590 65.84694
# Shear Modulus (GPa) = 20.97059 31.68008 26.32534
#
# Velocity S-wave (km/s) = 3.02654 3.71993 3.39100
# Velocity P-wave (km/s) = 5.81670 7.37249 6.64031
#
# Compressibility (1/GPa) = 0.02020284
#
# Stress axis : x y z
#
# Youngs Moduli (GPa) = 37.70040 167.56832 37.57825
#
# Poissons Ratio (x) = 0.55275 0.48216
# Poissons Ratio (y) = 0.12436 0.12479
# Poissons Ratio (z) = 0.48373 0.55648
#
# Static dielectric constant tensor:
#      x y z
#    x 3.985590 0.000000 0.137070 
#    y 0.000000 6.721630 0.000000 
#    z 0.137070 0.000000 4.246680 
# 
# 
# High freq. dielectric constant tensor:
#      x y z
#    x 1.889600 0.000000 0.022160 
#    y 0.000000 1.931440 0.000000 
#    z 0.022160 0.000000 1.897800 
# 
# From -- ./inp_files/154271.got.cif
#   From: 2010.06.25/outbox.cif.g09.slc.cpg/sg12_78_cif.got.tgz:154271.got - 2010.06.28 00:19:55.
