data_PCOD8093388
_publ_section_title
;
Structure prediction by ZEFSAII (Michael W. Deem and Ramdas Pophale) SiO2 
 PCOD8093388
Probable space group: C 2/M
;
_chemical_formula_sum "Si O2"
_cell_formula_units_Z 48
_cell_length_a 21.526457
_cell_length_b 9.338440
_cell_length_c 12.166628
_cell_angle_alpha 90.000000
_cell_angle_beta 101.569625
_cell_angle_gamma 90.000000
_cell_volume 2396.084443
_symmetry_space_group_name_H-M "C 2/M"
_symmetry_group_IT_number 12
_symmetry_cell_setting 'monoclinic'
loop_
_space_group_symop_operation_xyz
x,y,z
-x,y,-z
-x,-y,-z
x,-y,z
1/2+x,1/2+y,z
1/2-x,1/2+y,-z
1/2-x,1/2-y,-z
1/2+x,1/2-y,z
loop_
_atom_site_type_symbol
_atom_site_label
_atom_site_fract_x
_atom_site_fract_y
_atom_site_fract_z
Si Si1 0.995655 0.841295 0.374106
Si Si2 0.926778 0.168197 0.953194
Si Si3 0.647671 0.658207 0.681987
Si Si4 0.588364 0.164759 0.267879
Si Si5 0.189344 0.167561 0.932843
Si Si6 0.813123 0.335654 0.506295
O O1 0.924614 0.853627 0.306290
O O2 0.000000 0.783796 0.500000
O O3 0.027380 0.728486 0.305577
O O4 0.027972 0.000000 0.378685
O O5 0.898339 0.250428 0.838680
O O6 0.926195 0.000000 0.927790
O O7 0.878070 0.208547 0.034066
O O8 0.000000 0.217564 0.000000
O O9 0.671561 0.500000 0.651694
O O10 0.686359 0.708265 0.802838
O O11 0.650753 0.771371 0.585230
O O12 0.648033 0.183389 0.368510
O O13 0.575034 0.000000 0.235399
O O14 0.201835 0.000000 0.953753
O O15 0.250000 0.250000 0.000000
O O16 0.798592 0.500000 0.475594
O O17 0.750000 0.250000 0.500000
#
# Coordination Sequence:
#
# PCOD8093388 Si02
#       6
#     8   8   8   8   8   8
#     4  10  19  35  62  91 119 156 199 240 294 364
#     4  10  22  43  68  91 121 164 215 259 302 366
#     4  10  21  40  64  90 121 156 200 251 301 361
#     4  11  24  39  60  92 128 159 196 253 311 361
#     4  10  23  41  63  91 122 159 204 257 309 364
#     4  11  25  41  59  87 123 162 203 249 305 364
#
# _framework density 20.032682000000001
#
# number of rings (size 3 to 8) (size 9 to 14) (size 15 to 20)
#    0.000    1.667    1.667    2.000    2.333    7.333 
#    0.000    1.667    0.000    0.000    0.000    0.000 
#    0.000    0.000    0.000    0.000    0.000    0.000 
#
# Total GULP energy -297592.935044 kJ/mol
# GULP energy per Si atom -12399.705627 kJ/mol
# Density = 1.998709 g / cm^3
# Si number density = 20.032682 Si / 1000 Ang^3
#
#
#
# Elastic Constant Matrix: (Units=GPa)
#
#
# Indices 1 2 3 4 5 6 
#
# 1 90.8880 42.9439 20.6740 0.0000 4.8494 0.0000
# 2 42.9439 101.2329 57.4700 0.0000 -1.5965 0.0000
# 3 20.6740 57.4700 107.8931 0.0000 3.3690 0.0000
# 4 0.0000 0.0000 0.0000 34.6066 0.0000 3.2531
# 5 4.8494 -1.5965 3.3690 0.0000 30.5452 0.0000
# 6 0.0000 0.0000 0.0000 3.2531 0.0000 27.4107
#
#
#
# Elastic Compliance Matrix: (Units=1/GPa)
#
#
# Indices 1 2 3 4 5 6 
#
# 1 0.014005 -0.006460 0.000840 0.000000 -0.002654 0.000000
# 2 -0.006460 0.017216 -0.008020 0.000000 0.002810 0.000000
# 3 0.000840 -0.008020 0.013443 0.000000 -0.002035 0.000000
# 4 0.000000 0.000000 0.000000 0.029222 0.000000 -0.003468
# 5 -0.002654 0.002810 -0.002035 0.000000 0.033531 0.000000
# 6 0.000000 0.000000 0.000000 -0.003468 0.000000 0.036894
#
#
# Mechanical properties :
#
#
# Convention : Reuss Voigt Hill
#
# Bulk Modulus (GPa) = 57.52284 60.24332 58.88308
# Shear Modulus (GPa) = 28.18713 30.44089 29.31401
#
# Velocity S-wave (km/s) = 3.75515 3.90238 3.82947
# Velocity P-wave (km/s) = 6.89770 7.10230 7.00075
#
# Compressibility (1/GPa) = 0.01738440
#
# Stress axis : x y z
#
# Youngs Moduli (GPa) = 71.40122 58.08568 74.38851
#
# Poissons Ratio (x) = 0.37524 -0.06250
# Poissons Ratio (y) = 0.46125 0.59660
# Poissons Ratio (z) = -0.05999 0.46585
#
# Static dielectric constant tensor:
#      x y z
#    x 3.633840 0.000000 -0.114000 
#    y 0.000000 3.681570 0.000000 
#    z -0.114000 0.000000 4.291970 
# 
# 
# High freq. dielectric constant tensor:
#      x y z
#    x 1.781780 0.000000 0.003210 
#    y 0.000000 1.777640 0.000000 
#    z 0.003210 0.000000 1.792750 
# 
# From -- ./inp_files/172421.got.cif
#   From: 2010.06.25/outbox.cif.g09.slc.cpg/sg12_87_cif.got.tgz:172421.got - 2010.06.28 00:19:55.
