data_PCOD8093561
_publ_section_title
;
Structure prediction by ZEFSAII (Michael W. Deem and Ramdas Pophale) SiO2 
 PCOD8093561
Probable space group: C 2/M
;
_chemical_formula_sum "Si O2"
_cell_formula_units_Z 64
_cell_length_a 17.220524
_cell_length_b 14.308930
_cell_length_c 26.279551
_cell_angle_alpha 90.000000
_cell_angle_beta 148.533118
_cell_angle_gamma 90.000000
_cell_volume 3380.233132
_symmetry_space_group_name_H-M "C 2/M"
_symmetry_group_IT_number 12
_symmetry_cell_setting 'monoclinic'
loop_
_space_group_symop_operation_xyz
x,y,z
-x,y,-z
-x,-y,-z
x,-y,z
1/2+x,1/2+y,z
1/2-x,1/2+y,-z
1/2-x,1/2-y,-z
1/2+x,1/2-y,z
loop_
_atom_site_type_symbol
_atom_site_label
_atom_site_fract_x
_atom_site_fract_y
_atom_site_fract_z
Si Si1 0.357245 0.252663 0.948581
Si Si2 0.068471 0.727101 0.208013
Si Si3 0.037962 0.731366 0.740328
Si Si4 0.629766 0.896645 0.964495
Si Si5 0.534137 0.107511 0.394757
Si Si6 0.860479 0.308623 0.390154
Si Si7 0.315974 0.605281 0.618342
Si Si8 0.422214 0.394284 0.068045
O O1 0.216891 0.268559 0.832970
O O2 0.500000 0.211155 0.000000
O O3 0.301581 0.171630 0.955122
O O4 0.415432 0.347012 0.008678
O O5 0.248282 0.725248 0.311833
O O6 0.998779 0.697821 0.223168
O O7 0.021913 0.647971 0.141947
O O8 0.015848 0.830435 0.159776
O O9 0.974386 0.661240 0.663071
O O10 0.960789 0.831825 0.689543
O O11 0.595686 0.000000 0.967148
O O12 0.751213 0.900825 0.988448
O O13 0.413343 0.140254 0.368707
O O14 0.699782 0.123664 0.508177
O O15 0.501713 0.000000 0.365230
O O16 0.765847 0.377785 0.373456
O O17 0.000000 0.267574 0.500000
O O18 0.374953 0.500000 0.650916
O O19 0.490214 0.500000 0.103286
#
# Coordination Sequence:
#
# PCOD8093561 Si02
#       8
#     8   8   8   8   8   8   8   8
#     4  11  23  38  53  80 117 143 178 229 272 320
#     4  10  19  36  57  81 110 141 187 223 260 325
#     4  11  21  34  54  82 110 147 181 217 273 325
#     4  10  20  38  60  77 104 146 190 228 260 311
#     4  10  21  35  54  85 116 140 171 221 283 332
#     4   9  19  35  58  84 110 139 174 224 280 324
#     4   9  19  37  59  81 108 142 183 224 263 324
#     4  10  20  37  60  82 108 141 182 226 270 323
#
# _framework density 18.933606000000001
#
# number of rings (size 3 to 8) (size 9 to 14) (size 15 to 20)
#    0.000    2.000    2.500    1.500    3.500    6.000 
#    0.000    0.000    0.000    0.375    0.000    0.000 
#    0.000    0.000    0.000    0.000    0.000    0.000 
#
# Total GULP energy -396683.110039 kJ/mol
# GULP energy per Si atom -12396.347189 kJ/mol
# Density = 1.889051 g / cm^3
# Si number density = 18.933606 Si / 1000 Ang^3
#
#
#
# Elastic Constant Matrix: (Units=GPa)
#
#
# Indices 1 2 3 4 5 6 
#
# 1 52.9826 20.5219 26.8176 0.0001 1.5382 0.0000
# 2 20.5219 80.7360 21.6204 0.0003 -8.6779 0.0001
# 3 26.8176 21.6204 91.6234 0.0011 2.5855 0.0002
# 4 0.0001 0.0003 0.0011 17.5763 0.0003 2.6506
# 5 1.5382 -8.6779 2.5855 0.0003 32.8693 0.0000
# 6 0.0000 0.0001 0.0002 2.6506 0.0000 14.1075
#
#
#
# Elastic Compliance Matrix: (Units=1/GPa)
#
#
# Indices 1 2 3 4 5 6 
#
# 1 0.023658 -0.004672 -0.005769 0.000000 -0.001887 0.000000
# 2 -0.004672 0.014620 -0.002203 0.000000 0.004252 0.000000
# 3 -0.005769 -0.002203 0.013161 -0.000001 -0.001347 0.000000
# 4 0.000000 0.000000 -0.000001 0.058554 -0.000001 -0.011002
# 5 -0.001887 0.004252 -0.001347 -0.000001 0.031740 0.000000
# 6 0.000000 0.000000 0.000000 -0.011002 0.000000 0.072951
#
#
# Mechanical properties :
#
#
# Convention : Reuss Voigt Hill
#
# Bulk Modulus (GPa) = 38.23674 40.36244 39.29959
# Shear Modulus (GPa) = 20.10545 23.33609 21.72077
#
# Velocity S-wave (km/s) = 3.26220 3.51454 3.39072
# Velocity P-wave (km/s) = 5.86756 6.15089 6.01090
#
# Compressibility (1/GPa) = 0.02615286
#
# Stress axis : x y z
#
# Youngs Moduli (GPa) = 42.26824 68.39792 75.98444
#
# Poissons Ratio (x) = 0.31952 0.43836
# Poissons Ratio (y) = 0.19746 0.16737
# Poissons Ratio (z) = 0.24385 0.15065
#
# Static dielectric constant tensor:
#      x y z
#    x 3.301880 0.000000 -0.013830 
#    y 0.000000 3.427020 0.000000 
#    z -0.013830 0.000000 3.635940 
# 
# 
# High freq. dielectric constant tensor:
#      x y z
#    x 1.720940 0.000000 -0.004180 
#    y 0.000000 1.715850 0.000000 
#    z -0.004180 0.000000 1.750380 
# 
# From -- ./inp_files/340197.got.cif
#   From: 2010.06.25/outbox.cif.g09.slc.cpg/sg12_171_cif.got.tgz:340197.got - 2010.06.28 00:19:55.
