data_PCOD8093604
_publ_section_title
;
Structure prediction by ZEFSAII (Michael W. Deem and Ramdas Pophale) SiO2 
 PCOD8093604
Probable space group: C 2/M
;
_chemical_formula_sum "Si O2"
_cell_formula_units_Z 64
_cell_length_a 14.582395
_cell_length_b 9.015377
_cell_length_c 29.475117
_cell_angle_alpha 90.000000
_cell_angle_beta 60.622350
_cell_angle_gamma 90.000000
_cell_volume 3376.668713
_symmetry_space_group_name_H-M "C 2/M"
_symmetry_group_IT_number 12
_symmetry_cell_setting 'monoclinic'
loop_
_space_group_symop_operation_xyz
x,y,z
-x,y,-z
-x,-y,-z
x,-y,z
1/2+x,1/2+y,z
1/2-x,1/2+y,-z
1/2-x,1/2-y,-z
1/2+x,1/2-y,z
loop_
_atom_site_type_symbol
_atom_site_label
_atom_site_fract_x
_atom_site_fract_y
_atom_site_fract_z
Si Si1 0.387852 0.827186 0.006870
Si Si2 0.915010 0.174764 0.813591
Si Si3 0.079440 0.324128 0.441704
Si Si4 0.323962 0.826967 0.920942
Si Si5 0.671718 0.829658 0.247630
Si Si6 0.508370 0.824492 0.361427
Si Si7 0.352723 0.669515 0.270225
Si Si8 0.289151 0.175196 0.374853
O O1 0.293777 0.738328 0.053627
O O2 0.370950 0.000000 0.021628
O O3 0.500000 0.773132 0.000000
O O4 0.381431 0.795020 0.954765
O O5 0.896859 0.249785 0.866235
O O6 0.830905 0.233451 0.797469
O O7 0.029553 0.223325 0.768012
O O8 0.904360 0.000000 0.822010
O O9 0.093601 0.500000 0.438078
O O10 0.191532 0.249598 0.424198
O O11 0.000000 0.272305 0.500000
O O12 0.036717 0.262247 0.404099
O O13 0.315694 0.000000 0.912758
O O14 0.588833 0.763005 0.304154
O O15 0.788627 0.814865 0.239097
O O16 0.644165 0.000000 0.242590
O O17 0.391539 0.772154 0.377559
O O18 0.518437 0.000000 0.359902
O O19 0.349486 0.500000 0.288420
O O20 0.297891 0.770935 0.321061
O O21 0.275749 0.000000 0.378327
#
# Coordination Sequence:
#
# PCOD8093604 Si02
#       8
#     8   8   8   8   8   8   8   8
#     4   9  19  38  63  88 116 151 193 239 284 327
#     4  11  23  37  55  84 119 148 188 240 280 326
#     4  10  21  39  60  80 107 146 187 226 275 337
#     4  10  21  37  58  85 118 156 192 231 283 338
#     4  10  19  36  58  78 108 147 185 227 278 337
#     4   9  18  34  56  80 108 142 178 222 277 334
#     4  10  21  37  57  80 109 147 189 227 273 335
#     4  11  21  34  56  82 110 141 178 227 280 331
#
# _framework density 18.953590999999999
#
# number of rings (size 3 to 8) (size 9 to 14) (size 15 to 20)
#    0.000    2.000    2.500    1.125    0.000    3.500 
#    0.000    3.750    0.000    0.000    0.000    0.000 
#    0.000    0.000    0.000    0.000    0.000    0.000 
#
# Total GULP energy -396904.122914 kJ/mol
# GULP energy per Si atom -12403.253841 kJ/mol
# Density = 1.891045 g / cm^3
# Si number density = 18.953591 Si / 1000 Ang^3
#
#
#
# Elastic Constant Matrix: (Units=GPa)
#
#
# Indices 1 2 3 4 5 6 
#
# 1 100.5889 26.1669 20.5046 0.0000 -1.3237 0.0000
# 2 26.1669 55.6447 32.0902 0.0000 -3.3682 0.0000
# 3 20.5046 32.0902 83.8967 0.0000 2.1873 0.0000
# 4 0.0000 0.0000 0.0000 29.4940 0.0000 -4.4835
# 5 -1.3237 -3.3682 2.1873 0.0000 25.5011 0.0000
# 6 0.0000 0.0000 0.0000 -4.4835 0.0000 27.7283
#
#
#
# Elastic Compliance Matrix: (Units=1/GPa)
#
#
# Indices 1 2 3 4 5 6 
#
# 1 0.011385 -0.004807 -0.000945 0.000000 0.000037 0.000000
# 2 -0.004807 0.025462 -0.008665 0.000000 0.003857 0.000000
# 3 -0.000945 -0.008665 0.015531 0.000000 -0.002526 0.000000
# 4 0.000000 0.000000 0.000000 0.034760 0.000000 0.005620
# 5 0.000037 0.003857 -0.002526 0.000000 0.039942 0.000000
# 6 0.000000 0.000000 0.000000 0.005620 0.000000 0.036973
#
#
# Mechanical properties :
#
#
# Convention : Reuss Voigt Hill
#
# Bulk Modulus (GPa) = 42.47275 44.18372 43.32824
# Shear Modulus (GPa) = 24.90870 27.30259 26.10564
#
# Velocity S-wave (km/s) = 3.62911 3.79951 3.71529
# Velocity P-wave (km/s) = 6.32599 6.52767 6.42762
#
# Compressibility (1/GPa) = 0.02354451
#
# Stress axis : x y z
#
# Youngs Moduli (GPa) = 87.83536 39.27431 64.38938
#
# Poissons Ratio (x) = 0.18877 0.06085
# Poissons Ratio (y) = 0.42218 0.55793
# Poissons Ratio (z) = 0.08300 0.34031
#
# Static dielectric constant tensor:
#      x y z
#    x 3.607740 0.000000 0.001720 
#    y 0.000000 3.318760 0.000000 
#    z 0.001720 0.000000 3.438220 
# 
# 
# High freq. dielectric constant tensor:
#      x y z
#    x 1.745850 0.000000 -0.000740 
#    y 0.000000 1.723570 0.000000 
#    z -0.000740 0.000000 1.732650 
# 
# From -- ./inp_files/374996.got.cif
#   From: 2010.06.25/outbox.cif.g09.slc.cpg/sg12_188_cif.got.tgz:374996.got - 2010.06.28 00:19:55.
