data_PCOD8093662
_publ_section_title
;
Structure prediction by ZEFSAII (Michael W. Deem and Ramdas Pophale) SiO2 
 PCOD8093662
Probable space group: C 2/M
;
_chemical_formula_sum "Si O2"
_cell_formula_units_Z 48
_cell_length_a 9.371554
_cell_length_b 17.053510
_cell_length_c 18.038070
_cell_angle_alpha 90.000000
_cell_angle_beta 62.319750
_cell_angle_gamma 90.000000
_cell_volume 2552.880075
_symmetry_space_group_name_H-M "C 2/M"
_symmetry_group_IT_number 12
_symmetry_cell_setting 'monoclinic'
loop_
_space_group_symop_operation_xyz
x,y,z
-x,y,-z
-x,-y,-z
x,-y,z
1/2+x,1/2+y,z
1/2-x,1/2+y,-z
1/2-x,1/2-y,-z
1/2+x,1/2-y,z
loop_
_atom_site_type_symbol
_atom_site_label
_atom_site_fract_x
_atom_site_fract_y
_atom_site_fract_z
Si Si1 0.999695 0.280707 0.190061
Si Si2 0.396275 0.309689 0.451942
Si Si3 0.089621 0.411854 0.054340
Si Si4 0.667732 0.090877 0.419468
Si Si5 0.879646 0.182453 0.961649
Si Si6 0.662433 0.777859 0.300138
O O1 0.823665 0.273902 0.268966
O O2 0.009579 0.354842 0.133597
O O3 0.031965 0.198274 0.138308
O O4 0.132070 0.296691 0.221320
O O5 0.500000 0.328660 0.500000
O O6 0.250000 0.250000 0.500000
O O7 0.315960 0.388793 0.438818
O O8 0.515159 0.274677 0.362757
O O9 0.066883 0.500000 0.088955
O O10 0.280478 0.398465 0.991892
O O11 0.000000 0.396114 0.000000
O O12 0.500000 0.111425 0.500000
O O13 0.678443 0.141858 0.342274
O O14 0.677957 0.000000 0.394885
O O15 0.750000 0.250000 0.000000
O O16 0.000000 0.187938 0.000000
#
# Coordination Sequence:
#
# PCOD8093662 Si02
#       6
#     8   8   8   8   8   8
#     4  11  21  34  60  89 115 152 199 244 299 353
#     4  12  20  39  66  90 116 157 211 242 279 363
#     4  10  21  39  59  81 117 160 198 243 295 350
#     4  11  24  42  62  89 123 159 198 251 303 349
#     4  10  19  36  58  85 113 149 201 242 280 351
#     4  12  21  36  61  90 120 156 194 249 297 355
#
# _framework density 18.802292999999999
#
# number of rings (size 3 to 8) (size 9 to 14) (size 15 to 20)
#    0.000    1.000    5.000    5.000    0.000    1.333 
#    0.000    1.667    0.000    0.000    0.000    0.000 
#    0.000    0.000    0.000    0.000    0.000    0.000 
#
# Total GULP energy -297565.613850 kJ/mol
# GULP energy per Si atom -12398.567244 kJ/mol
# Density = 1.875950 g / cm^3
# Si number density = 18.802293 Si / 1000 Ang^3
#
#
#
# Elastic Constant Matrix: (Units=GPa)
#
#
# Indices 1 2 3 4 5 6 
#
# 1 149.8250 51.7953 46.2023 0.0000 14.5186 0.0000
# 2 51.7953 100.4511 50.5451 0.0000 8.0826 0.0000
# 3 46.2023 50.5451 96.8856 0.0000 3.2983 0.0000
# 4 0.0000 0.0000 0.0000 25.3477 0.0000 1.0336
# 5 14.5186 8.0826 3.2983 0.0000 42.6657 0.0000
# 6 0.0000 0.0000 0.0000 1.0336 0.0000 27.1941
#
#
#
# Elastic Compliance Matrix: (Units=1/GPa)
#
#
# Indices 1 2 3 4 5 6 
#
# 1 0.008712 -0.003068 -0.002479 0.000000 -0.002192 0.000000
# 2 -0.003068 0.014755 -0.006191 0.000000 -0.001272 0.000000
# 3 -0.002479 -0.006191 0.014704 0.000000 0.000880 0.000000
# 4 0.000000 0.000000 0.000000 0.039513 0.000000 -0.001502
# 5 -0.002192 -0.001272 0.000880 0.000000 0.024357 0.000000
# 6 0.000000 0.000000 0.000000 -0.001502 0.000000 0.036830
#
#
# Mechanical properties :
#
#
# Convention : Reuss Voigt Hill
#
# Bulk Modulus (GPa) = 68.05800 71.58301 69.82050
# Shear Modulus (GPa) = 29.89631 32.28278 31.08955
#
# Velocity S-wave (km/s) = 3.99185 4.14812 4.07073
# Velocity P-wave (km/s) = 7.58431 7.81643 7.70124
#
# Compressibility (1/GPa) = 0.01469335
#
# Stress axis : x y z
#
# Youngs Moduli (GPa) = 114.78272 67.77451 68.01041
#
# Poissons Ratio (x) = 0.20796 0.16861
# Poissons Ratio (y) = 0.35219 0.42105
# Poissons Ratio (z) = 0.28457 0.41959
#
# Static dielectric constant tensor:
#      x y z
#    x 3.677710 0.000000 -0.365720 
#    y 0.000000 3.496380 0.000000 
#    z -0.365720 0.000000 3.549710 
# 
# 
# High freq. dielectric constant tensor:
#      x y z
#    x 1.754510 0.000000 0.000440 
#    y 0.000000 1.704680 0.000000 
#    z 0.000440 0.000000 1.736000 
# 
# From -- ./inp_files/196478.got.cif
#   From: 2010.06.25/outbox.cif.g09.slc.cpg/sg12_99_cif.got.tgz:196478.got - 2010.06.28 00:19:55.
