data_PCOD8093347
_publ_section_title
;
Structure prediction by ZEFSAII (Michael W. Deem and Ramdas Pophale) SiO2 
 PCOD8093347
Probable space group: C 2/M
;
_chemical_formula_sum "Si O2"
_cell_formula_units_Z 48
_cell_length_a 12.025811
_cell_length_b 17.952297
_cell_length_c 12.413189
_cell_angle_alpha 90.000000
_cell_angle_beta 70.547942
_cell_angle_gamma 90.000000
_cell_volume 2526.927791
_symmetry_space_group_name_H-M "C 2/M"
_symmetry_group_IT_number 12
_symmetry_cell_setting 'monoclinic'
loop_
_space_group_symop_operation_xyz
x,y,z
-x,y,-z
-x,-y,-z
x,-y,z
1/2+x,1/2+y,z
1/2-x,1/2+y,-z
1/2-x,1/2-y,-z
1/2+x,1/2-y,z
loop_
_atom_site_type_symbol
_atom_site_label
_atom_site_fract_x
_atom_site_fract_y
_atom_site_fract_z
Si Si1 0.504301 0.915264 0.877008
Si Si2 0.767161 0.353608 0.896655
Si Si3 0.137256 0.812172 0.140232
Si Si4 0.867617 0.170797 0.268151
Si Si5 0.376859 0.588114 0.486454
Si Si6 0.716785 0.166369 0.702794
O O1 0.373584 0.912179 0.869499
O O2 0.591066 0.867042 0.775967
O O3 0.549514 0.000000 0.863845
O O4 0.500000 0.882390 0.000000
O O5 0.819203 0.271358 0.885208
O O6 0.699435 0.369884 0.807796
O O7 0.679129 0.362832 0.026330
O O8 0.190098 0.847542 0.231649
O O9 0.997494 0.810345 0.186325
O O10 0.871276 0.114320 0.365650
O O11 0.800087 0.246889 0.320947
O O12 0.500000 0.614148 0.500000
O O13 0.362947 0.500000 0.495946
O O14 0.266531 0.624990 0.582425
#
# Coordination Sequence:
#
# PCOD8093347 Si02
#       6
#     8   8   8   8   8   8
#     4  11  22  37  59  89 127 162 197 238 293 366
#     4  10  21  35  59  92 124 158 186 246 305 353
#     4  10  19  35  61  90 123 150 198 244 296 355
#     4  11  22  38  63  92 119 156 201 257 296 356
#     4  11  24  42  62  83 118 162 204 254 305 359
#     4  11  21  39  64  90 117 156 208 250 294 354
#
# _framework density 18.995397000000001
#
# number of rings (size 3 to 8) (size 9 to 14) (size 15 to 20)
#    0.000    1.333    5.000    1.500    0.000    0.667 
#    0.000    1.667    0.000    4.000    0.000    0.000 
#    0.000    0.000    0.000    0.000    0.000    0.000 
#
# Total GULP energy -297708.347446 kJ/mol
# GULP energy per Si atom -12404.514477 kJ/mol
# Density = 1.895216 g / cm^3
# Si number density = 18.995397 Si / 1000 Ang^3
#
#
#
# Elastic Constant Matrix: (Units=GPa)
#
#
# Indices 1 2 3 4 5 6 
#
# 1 118.9926 12.0904 46.2946 0.0000 12.5535 0.0000
# 2 12.0904 34.0375 8.7256 0.0000 5.4227 0.0000
# 3 46.2946 8.7256 88.0083 0.0000 3.2265 0.0000
# 4 0.0000 0.0000 0.0000 18.4354 0.0000 3.1655
# 5 12.5535 5.4227 3.2265 0.0000 32.7451 0.0000
# 6 0.0000 0.0000 0.0000 3.1655 0.0000 26.5265
#
#
#
# Elastic Compliance Matrix: (Units=1/GPa)
#
#
# Indices 1 2 3 4 5 6 
#
# 1 0.011113 -0.001992 -0.005524 0.000000 -0.003386 0.000000
# 2 -0.001992 0.031246 -0.001895 0.000000 -0.004224 0.000000
# 3 -0.005524 -0.001895 0.014419 0.000000 0.001011 0.000000
# 4 0.000000 0.000000 0.000000 0.055378 0.000000 -0.006609
# 5 -0.003386 -0.004224 0.001011 0.000000 0.032437 0.000000
# 6 0.000000 0.000000 0.000000 -0.006609 0.000000 0.038487
#
#
# Mechanical properties :
#
#
# Convention : Reuss Voigt Hill
#
# Bulk Modulus (GPa) = 26.34664 41.69550 34.02107
# Shear Modulus (GPa) = 23.30427 27.13660 25.22043
#
# Velocity S-wave (km/s) = 3.50642 3.78377 3.64773
# Velocity P-wave (km/s) = 5.50395 6.40993 5.97414
#
# Compressibility (1/GPa) = 0.03795550
#
# Stress axis : x y z
#
# Youngs Moduli (GPa) = 89.98810 32.00448 69.35233
#
# Poissons Ratio (x) = 0.06375 0.38309
# Poissons Ratio (y) = 0.17924 0.13144
# Poissons Ratio (z) = 0.49708 0.06066
#
# Static dielectric constant tensor:
#      x y z
#    x 3.600810 0.000000 0.035610 
#    y 0.000000 3.226270 0.000000 
#    z 0.035610 0.000000 3.495230 
# 
# 
# High freq. dielectric constant tensor:
#      x y z
#    x 1.746020 0.000000 -0.003200 
#    y 0.000000 1.721780 0.000000 
#    z -0.003200 0.000000 1.742600 
# 
# From -- ./inp_files/131072.got.cif
#   From: 2010.06.25/outbox.cif.g09.slc.cpg/sg12_66_cif.got.tgz:131072.got - 2010.06.28 00:19:55.
