data_PCOD8093882
_publ_section_title
;
Structure prediction by ZEFSAII (Michael W. Deem and Ramdas Pophale) SiO2 
 PCOD8093882
Probable space group: C 2/M
;
_chemical_formula_sum "Si O2"
_cell_formula_units_Z 52
_cell_length_a 12.082789
_cell_length_b 18.304085
_cell_length_c 23.267149
_cell_angle_alpha 90.000000
_cell_angle_beta 149.488446
_cell_angle_gamma 90.000000
_cell_volume 2612.617938
_symmetry_space_group_name_H-M "C 2/M"
_symmetry_group_IT_number 12
_symmetry_cell_setting 'monoclinic'
loop_
_space_group_symop_operation_xyz
x,y,z
-x,y,-z
-x,-y,-z
x,-y,z
1/2+x,1/2+y,z
1/2-x,1/2+y,-z
1/2-x,1/2-y,-z
1/2+x,1/2-y,z
loop_
_atom_site_type_symbol
_atom_site_label
_atom_site_fract_x
_atom_site_fract_y
_atom_site_fract_z
Si Si1 0.969011 0.667024 0.226378
Si Si2 0.944916 0.839185 0.638590
Si Si3 0.562393 0.830421 0.392039
Si Si4 0.133986 0.174957 0.270261
Si Si5 0.861976 0.917716 0.060419
Si Si6 0.887420 0.417137 0.812369
Si Si7 0.500000 0.635597 0.000000
O O1 0.015324 0.632786 0.309910
O O2 0.711497 0.685956 0.105939
O O3 0.096142 0.738756 0.261952
O O4 0.040711 0.598720 0.220296
O O5 0.915052 0.753208 0.617390
O O6 0.192618 0.863284 0.741624
O O7 0.776345 0.869648 0.515245
O O8 0.879853 0.863686 0.673822
O O9 0.374067 0.839479 0.354326
O O10 0.963393 0.141053 0.149088
O O11 0.913365 0.000000 0.104623
O O12 0.601266 0.903346 0.947064
O O13 0.955011 0.911986 0.037148
O O14 0.804327 0.500000 0.780453
#
# Coordination Sequence:
#
# PCOD8093882 Si02
#       7
#     8   8   8   8   8   8   4
#     4  10  21  36  61  90 118 153 201 245 300 343
#     4  10  22  37  61  84 120 157 198 238 301 352
#     4  10  20  39  59  88 116 154 199 252 286 348
#     4  11  21  37  62  89 119 153 197 249 296 355
#     4  10  22  38  61  87 119 159 198 244 301 356
#     4  10  22  41  60  87 123 157 197 244 297 358
#     4  10  19  36  60  86 117 154 194 252 291 354
#
# _framework density 19.903407000000001
#
# number of rings (size 3 to 8) (size 9 to 14) (size 15 to 20)
#    0.000    1.846    3.077    0.692    0.000    7.385 
#    0.000    3.846    0.000    1.846    0.000    0.000 
#    0.000    0.000    0.000    0.000    0.000    0.000 
#
# Total GULP energy -322182.479929 kJ/mol
# GULP energy per Si atom -12391.633843 kJ/mol
# Density = 1.985811 g / cm^3
# Si number density = 19.903407 Si / 1000 Ang^3
#
#
#
# Elastic Constant Matrix: (Units=GPa)
#
#
# Indices 1 2 3 4 5 6 
#
# 1 105.7098 8.0324 48.6724 -0.0003 -11.5671 0.0001
# 2 8.0324 30.8424 15.0710 -0.0005 -3.3738 -0.0003
# 3 48.6724 15.0710 110.5592 0.0030 -11.7577 0.0009
# 4 -0.0003 -0.0005 0.0030 8.3380 0.0008 7.7444
# 5 -11.5671 -3.3738 -11.7577 0.0008 39.0713 0.0000
# 6 0.0001 -0.0003 0.0009 7.7444 0.0000 11.1002
#
#
#
# Elastic Compliance Matrix: (Units=1/GPa)
#
#
# Indices 1 2 3 4 5 6 
#
# 1 0.012025 -0.000460 -0.005017 0.000005 0.002010 -0.000003
# 2 -0.000460 0.034855 -0.004383 0.000007 0.001554 -0.000004
# 3 -0.005017 -0.004383 0.012038 -0.000011 0.001759 0.000007
# 4 0.000005 0.000007 -0.000011 0.340740 -0.000008 -0.237729
# 5 0.002010 0.001554 0.001759 -0.000008 0.026853 0.000006
# 6 -0.000003 -0.000004 0.000007 -0.237729 0.000006 0.255948
#
#
# Mechanical properties :
#
#
# Convention : Reuss Voigt Hill
#
# Bulk Modulus (GPa) = 25.51261 43.40701 34.45981
# Shear Modulus (GPa) = 6.99059 23.39093 15.19076
#
# Velocity S-wave (km/s) = 1.87614 3.43187 2.76565
# Velocity P-wave (km/s) = 4.18799 6.12861 5.24876
#
# Compressibility (1/GPa) = 0.03919630
#
# Stress axis : x y z
#
# Youngs Moduli (GPa) = 83.16045 28.69055 83.06816
#
# Poissons Ratio (x) = 0.01320 0.41678
# Poissons Ratio (y) = 0.03826 0.36412
# Poissons Ratio (z) = 0.41724 0.12576
#
# Static dielectric constant tensor:
#      x y z
#    x 3.755440 0.000000 -0.144430 
#    y 0.000000 3.218100 0.000000 
#    z -0.144430 0.000000 4.111340 
# 
# 
# High freq. dielectric constant tensor:
#      x y z
#    x 1.788720 0.000000 -0.001080 
#    y 0.000000 1.737990 0.000000 
#    z -0.001080 0.000000 1.788800 
# 
# From -- ./inp_files/306925.got.cif
#   From: 2010.06.25/outbox.cif.g09.slc.cpg/sg12_154_cif.got.tgz:306925.got - 2010.06.28 00:19:55.
