data_PCOD8093876
_publ_section_title
;
Structure prediction by ZEFSAII (Michael W. Deem and Ramdas Pophale) SiO2 
 PCOD8093876
Probable space group: C 2/M
;
_chemical_formula_sum "Si O2"
_cell_formula_units_Z 52
_cell_length_a 21.239233
_cell_length_b 23.335000
_cell_length_c 9.123230
_cell_angle_alpha 90.000000
_cell_angle_beta 143.858211
_cell_angle_gamma 90.000000
_cell_volume 2666.793320
_symmetry_space_group_name_H-M "C 2/M"
_symmetry_group_IT_number 12
_symmetry_cell_setting 'monoclinic'
loop_
_space_group_symop_operation_xyz
x,y,z
-x,y,-z
-x,-y,-z
x,-y,z
1/2+x,1/2+y,z
1/2-x,1/2+y,-z
1/2-x,1/2-y,-z
1/2+x,1/2-y,z
loop_
_atom_site_type_symbol
_atom_site_label
_atom_site_fract_x
_atom_site_fract_y
_atom_site_fract_z
Si Si1 0.526721 0.500000 0.877994
Si Si2 0.009635 0.877756 0.341964
Si Si3 0.272807 0.000000 0.384521
Si Si4 0.610093 0.000000 0.117868
Si Si5 0.129137 0.599464 0.603575
Si Si6 0.783978 0.191089 0.238538
Si Si7 0.803820 0.192432 0.943004
Si Si8 0.892425 0.401452 0.116130
O O1 0.483725 0.441527 0.719272
O O2 0.500000 0.500000 0.000000
O O3 0.654020 0.500000 0.100536
O O4 0.000000 0.886892 0.500000
O O5 0.114909 0.840642 0.494550
O O6 0.910366 0.841003 0.088219
O O7 0.284330 0.000000 0.581684
O O8 0.337770 0.945634 0.454018
O O9 0.500000 0.000000 0.000000
O O10 0.620342 0.945497 0.036619
O O11 0.203235 0.653277 0.730719
O O12 0.135867 0.570891 0.778424
O O13 0.011978 0.622783 0.346473
O O14 0.733740 0.249665 0.213836
O O15 0.824098 0.206570 0.151231
O O16 0.684128 0.150266 0.059994
#
# Coordination Sequence:
#
# PCOD8093876 Si02
#       8
#     4   8   4   4   8   8   8   8
#     4  12  27  42  59  85 121 165 203 251 300 356
#     4  10  21  40  63  89 118 156 203 245 297 359
#     4  12  23  39  58  81 113 159 196 244 299 344
#     4  12  23  37  54  82 117 154 191 236 287 350
#     4  10  19  36  60  86 115 149 193 242 294 343
#     4   9  20  33  58  90 119 149 187 245 296 345
#     4   9  18  35  57  89 118 148 189 242 296 349
#     4  10  21  35  57  88 118 150 190 240 290 348
#
# _framework density 19.499075000000001
#
# number of rings (size 3 to 8) (size 9 to 14) (size 15 to 20)
#    0.000    1.846    3.077    0.692    4.308    1.231 
#    0.000    0.000    0.000    4.615    0.000    0.000 
#    0.000    0.000    0.000    0.000    0.000    0.000 
#
# Total GULP energy -322117.205196 kJ/mol
# GULP energy per Si atom -12389.123277 kJ/mol
# Density = 1.945469 g / cm^3
# Si number density = 19.499075 Si / 1000 Ang^3
#
#
#
# Elastic Constant Matrix: (Units=GPa)
#
#
# Indices 1 2 3 4 5 6 
#
# 1 67.9208 49.1644 42.1025 0.0000 6.9420 0.0000
# 2 49.1644 131.8869 64.8077 0.0000 7.4625 0.0000
# 3 42.1025 64.8077 117.2612 0.0000 17.8082 0.0000
# 4 0.0000 0.0000 0.0000 47.5684 0.0000 5.4089
# 5 6.9420 7.4625 17.8082 0.0000 34.5132 0.0000
# 6 0.0000 0.0000 0.0000 5.4089 0.0000 21.5902
#
#
#
# Elastic Compliance Matrix: (Units=1/GPa)
#
#
# Indices 1 2 3 4 5 6 
#
# 1 0.021844 -0.005908 -0.004453 0.000000 -0.000818 0.000000
# 2 -0.005908 0.012027 -0.004678 0.000000 0.001002 0.000000
# 3 -0.004453 -0.004678 0.013479 0.000000 -0.005048 0.000000
# 4 0.000000 0.000000 0.000000 0.021639 0.000000 -0.005421
# 5 -0.000818 0.001002 -0.005048 0.000000 0.031527 0.000000
# 6 0.000000 0.000000 0.000000 -0.005421 0.000000 0.047676
#
#
# Mechanical properties :
#
#
# Convention : Reuss Voigt Hill
#
# Bulk Modulus (GPa) = 57.90133 69.91310 63.90721
# Shear Modulus (GPa) = 27.17011 31.46730 29.31871
#
# Velocity S-wave (km/s) = 3.73688 4.02155 3.88183
# Velocity P-wave (km/s) = 6.95542 7.58263 7.27579
#
# Compressibility (1/GPa) = 0.01727076
#
# Stress axis : x y z
#
# Youngs Moduli (GPa) = 45.77939 83.14943 74.19107
#
# Poissons Ratio (x) = 0.49127 0.33040
# Poissons Ratio (y) = 0.27048 0.34703
# Poissons Ratio (z) = 0.20387 0.38894
#
# Static dielectric constant tensor:
#      x y z
#    x 3.282030 0.000000 0.251530 
#    y 0.000000 3.597700 0.000000 
#    z 0.251530 0.000000 3.723230 
# 
# 
# High freq. dielectric constant tensor:
#      x y z
#    x 1.735020 0.000000 0.026620 
#    y 0.000000 1.764790 0.000000 
#    z 0.026620 0.000000 1.763270 
# 
# From -- ./inp_files/90739.got.cif
#   From: 2010.06.25/outbox.cif.g09.slc.cpg/sg12_46_cif.got.tgz:90739.got - 2010.06.28 00:19:55.
