data_PCOD8093229
_publ_section_title
;
Structure prediction by ZEFSAII (Michael W. Deem and Ramdas Pophale) SiO2 
 PCOD8093229
Probable space group: C 2/M
;
_chemical_formula_sum "Si O2"
_cell_formula_units_Z 60
_cell_length_a 22.346266
_cell_length_b 17.314755
_cell_length_c 11.381207
_cell_angle_alpha 90.000000
_cell_angle_beta 136.471414
_cell_angle_gamma 90.000000
_cell_volume 3032.843900
_symmetry_space_group_name_H-M "C 2/M"
_symmetry_group_IT_number 12
_symmetry_cell_setting 'monoclinic'
loop_
_space_group_symop_operation_xyz
x,y,z
-x,y,-z
-x,-y,-z
x,-y,z
1/2+x,1/2+y,z
1/2-x,1/2+y,-z
1/2-x,1/2-y,-z
1/2+x,1/2-y,z
loop_
_atom_site_type_symbol
_atom_site_label
_atom_site_fract_x
_atom_site_fract_y
_atom_site_fract_z
Si Si1 0.493837 0.187897 0.191567
Si Si2 0.350236 0.090084 0.868399
Si Si3 0.847252 0.088079 0.738363
Si Si4 0.000000 0.194057 0.000000
Si Si5 0.444448 0.301228 0.303297
Si Si6 0.657235 0.090869 0.412914
Si Si7 0.433009 0.582691 0.619911
Si Si8 0.182798 0.086756 0.770796
O O1 0.522494 0.256631 0.146405
O O2 0.439196 0.219032 0.227461
O O3 0.579779 0.142145 0.358146
O O4 0.437311 0.129935 0.034752
O O5 0.330770 0.113591 0.706816
O O6 0.272967 0.116058 0.844833
O O7 0.365691 0.000000 0.900550
O O8 0.914610 0.141476 0.906192
O O9 0.745887 0.111638 0.610194
O O10 0.863770 0.097992 0.623032
O O11 0.861732 0.000000 0.800316
O O12 0.500000 0.288841 0.500000
O O13 0.494180 0.352824 0.278289
O O14 0.352240 0.344990 0.192921
O O15 0.636067 0.000000 0.395987
O O16 0.479148 0.500000 0.706926
O O17 0.386471 0.579453 0.429760
O O18 0.191469 0.000000 0.841250
#
# Coordination Sequence:
#
# PCOD8093229 Si02
#       8
#     8   8   8   4   8   8   8   8
#     4  12  23  37  55  88 122 152 188 239 303 351
#     4  10  19  35  60  87 114 146 193 250 297 336
#     4  10  20  36  57  82 116 158 196 229 279 353
#     4  12  23  36  51  90 126 156 180 230 309 360
#     4  10  21  36  53  79 113 150 194 233 286 342
#     4  10  20  38  63  87 112 153 203 244 283 341
#     4   9  15  29  53  78 105 139 184 229 272 330
#     4   9  17  32  56  82 106 143 193 239 281 330
#
# _framework density 19.783414
#
# number of rings (size 3 to 8) (size 9 to 14) (size 15 to 20)
#    0.000    1.867    4.000    1.000    0.000    3.733 
#    4.800    0.000    0.000    1.600    0.000    0.000 
#    0.000    0.000    0.000    0.000    0.000    0.000 
#
# Total GULP energy -371753.787679 kJ/mol
# GULP energy per Si atom -12391.792923 kJ/mol
# Density = 1.973839 g / cm^3
# Si number density = 19.783414 Si / 1000 Ang^3
#
#
#
# Elastic Constant Matrix: (Units=GPa)
#
#
# Indices 1 2 3 4 5 6 
#
# 1 68.6785 42.8127 12.8940 0.0000 14.0684 0.0000
# 2 42.8127 64.5831 33.2569 0.0000 12.3899 0.0000
# 3 12.8940 33.2569 59.2903 0.0000 20.4617 0.0000
# 4 0.0000 0.0000 0.0000 13.9488 0.0000 10.5227
# 5 14.0684 12.3899 20.4617 0.0000 28.5986 0.0000
# 6 0.0000 0.0000 0.0000 10.5227 0.0000 25.8180
#
#
#
# Elastic Compliance Matrix: (Units=1/GPa)
#
#
# Indices 1 2 3 4 5 6 
#
# 1 0.028885 -0.022139 0.010265 0.000000 -0.011962 0.000000
# 2 -0.022139 0.038760 -0.019772 0.000000 0.008245 0.000000
# 3 0.010265 -0.019772 0.032547 0.000000 -0.019770 0.000000
# 4 0.000000 0.000000 0.000000 0.103519 0.000000 -0.042191
# 5 -0.011962 0.008245 -0.019770 0.000000 0.051424 0.000000
# 6 0.000000 0.000000 0.000000 -0.042191 0.000000 0.055929
#
#
# Mechanical properties :
#
#
# Convention : Reuss Voigt Hill
#
# Bulk Modulus (GPa) = 27.10064 41.16435 34.13250
# Shear Modulus (GPa) = 12.93143 20.57897 16.75520
#
# Velocity S-wave (km/s) = 2.55943 3.22873 2.91337
# Velocity P-wave (km/s) = 4.73948 5.89511 5.34860
#
# Compressibility (1/GPa) = 0.03689949
#
# Stress axis : x y z
#
# Youngs Moduli (GPa) = 34.62052 25.80011 30.72469
#
# Poissons Ratio (x) = 0.57118 -0.31537
# Poissons Ratio (y) = 0.76645 0.60748
# Poissons Ratio (z) = -0.35536 0.51011
#
# Static dielectric constant tensor:
#      x y z
#    x 3.620330 0.000000 0.175260 
#    y 0.000000 3.775690 0.000000 
#    z 0.175260 0.000000 3.342270 
# 
# 
# High freq. dielectric constant tensor:
#      x y z
#    x 1.753690 0.000000 0.013600 
#    y 0.000000 1.773330 0.000000 
#    z 0.013600 0.000000 1.745940 
# 
# From -- ./inp_files/177385.got.cif
#   From: 2010.06.25/outbox.cif.g09.slc.cpg/sg12_89_cif.got.tgz:177385.got - 2010.06.28 00:19:55.
