data_PCOD8093306
_publ_section_title
;
Structure prediction by ZEFSAII (Michael W. Deem and Ramdas Pophale) SiO2 
 PCOD8093306
Probable space group: C 2/M
;
_chemical_formula_sum "Si O2"
_cell_formula_units_Z 64
_cell_length_a 14.622513
_cell_length_b 14.842176
_cell_length_c 24.246798
_cell_angle_alpha 90.000000
_cell_angle_beta 35.846934
_cell_angle_gamma 90.000000
_cell_volume 3081.706470
_symmetry_space_group_name_H-M "C 2/M"
_symmetry_group_IT_number 12
_symmetry_cell_setting 'monoclinic'
loop_
_space_group_symop_operation_xyz
x,y,z
-x,y,-z
-x,-y,-z
x,-y,z
1/2+x,1/2+y,z
1/2-x,1/2+y,-z
1/2-x,1/2-y,-z
1/2+x,1/2-y,z
loop_
_atom_site_type_symbol
_atom_site_label
_atom_site_fract_x
_atom_site_fract_y
_atom_site_fract_z
Si Si1 0.653575 0.193048 0.897417
Si Si2 0.996585 0.262999 0.610647
Si Si3 0.792161 0.238984 0.389755
Si Si4 0.898944 0.402823 0.275442
Si Si5 0.488834 0.683923 0.895858
Si Si6 0.301212 0.402542 0.727342
Si Si7 0.681912 0.189124 0.099480
Si Si8 0.731030 0.393966 0.699133
O O1 0.607322 0.281869 0.884910
O O2 0.749728 0.122855 0.814072
O O3 0.766630 0.224138 0.890837
O O4 0.500000 0.147646 0.000000
O O5 0.060546 0.254787 0.641828
O O6 0.134129 0.276590 0.500091
O O7 0.913438 0.167901 0.641808
O O8 0.876738 0.345567 0.659024
O O9 0.783649 0.331335 0.360024
O O10 0.808662 0.154199 0.340029
O O11 0.878665 0.500000 0.314973
O O12 0.853575 0.409948 0.233609
O O13 0.082576 0.377325 0.187005
O O14 0.434041 0.773541 0.890628
O O15 0.578574 0.614110 0.812521
O O16 0.333973 0.638780 0.999114
O O17 0.386470 0.500000 0.688682
O O18 0.768147 0.500000 0.671371
#
# Coordination Sequence:
#
# PCOD8093306 Si02
#       8
#     8   8   8   8   8   8   8   8
#     4  10  19  35  61  86 120 165 206 249 308 369
#     4  11  24  44  68  89 126 167 204 263 327 386
#     4  11  24  44  67  93 122 164 212 260 324 385
#     4  11  22  38  63  90 122 163 208 252 305 373
#     4  10  20  37  59  89 123 164 211 252 304 376
#     4  11  22  38  61  90 124 161 204 256 311 370
#     4  10  19  36  63  85 122 172 204 250 312 365
#     4  12  25  43  69  98 131 169 215 270 327 384
#
# _framework density 20.767714000000002
#
# number of rings (size 3 to 8) (size 9 to 14) (size 15 to 20)
#    0.000    1.250    5.000    1.125    0.000    3.250 
#    0.000    3.750    0.000    2.250    0.000    0.000 
#    0.000    0.000    0.000    0.000    0.000    0.000 
#
# Total GULP energy -396601.359336 kJ/mol
# GULP energy per Si atom -12393.792479 kJ/mol
# Density = 2.072045 g / cm^3
# Si number density = 20.767714 Si / 1000 Ang^3
#
#
#
# Elastic Constant Matrix: (Units=GPa)
#
#
# Indices 1 2 3 4 5 6 
#
# 1 90.8451 32.8868 28.5924 0.0002 1.8091 -0.0001
# 2 32.8868 139.8521 40.9599 0.0001 -0.6960 0.0000
# 3 28.5924 40.9599 89.6160 0.0003 2.1009 -0.0003
# 4 0.0002 0.0001 0.0003 11.5320 -0.0003 1.1434
# 5 1.8091 -0.6960 2.1009 -0.0003 25.8131 0.0002
# 6 -0.0001 0.0000 -0.0003 1.1434 0.0002 15.9494
#
#
#
# Elastic Compliance Matrix: (Units=1/GPa)
#
#
# Indices 1 2 3 4 5 6 
#
# 1 0.012755 -0.002096 -0.003095 0.000000 -0.000699 0.000000
# 2 -0.002096 0.008607 -0.003280 0.000000 0.000646 0.000000
# 3 -0.003095 -0.003280 0.013669 0.000000 -0.000984 0.000000
# 4 0.000000 0.000000 0.000000 0.087336 0.000001 -0.006261
# 5 -0.000699 0.000646 -0.000984 0.000001 0.038886 -0.000001
# 6 0.000000 0.000000 0.000000 -0.006261 -0.000001 0.063147
#
#
# Mechanical properties :
#
#
# Convention : Reuss Voigt Hill
#
# Bulk Modulus (GPa) = 55.28736 58.35461 56.82098
# Shear Modulus (GPa) = 20.21247 25.18385 22.69816
#
# Velocity S-wave (km/s) = 3.12310 3.48608 3.30957
# Velocity P-wave (km/s) = 6.29957 6.66059 6.48259
#
# Compressibility (1/GPa) = 0.01808732
#
# Stress axis : x y z
#
# Youngs Moduli (GPa) = 78.40288 116.17982 73.16058
#
# Poissons Ratio (x) = 0.24355 0.22642
# Poissons Ratio (y) = 0.16436 0.23999
# Poissons Ratio (z) = 0.24265 0.38111
#
# Static dielectric constant tensor:
#      x y z
#    x 3.992900 0.000000 0.001700 
#    y 0.000000 3.570200 0.000000 
#    z 0.001700 0.000000 3.876550 
# 
# 
# High freq. dielectric constant tensor:
#      x y z
#    x 1.822030 0.000000 0.001480 
#    y 0.000000 1.778740 0.000000 
#    z 0.001480 0.000000 1.822920 
# 
# From -- ./inp_files/340124.got.cif
#   From: 2010.06.25/outbox.cif.g09.slc.cpg/sg12_171_cif.got.tgz:340124.got - 2010.06.28 00:19:55.
