data_PCOD8093603
_publ_section_title
;
Structure prediction by ZEFSAII (Michael W. Deem and Ramdas Pophale) SiO2 
 PCOD8093603
Probable space group: C 2/M
;
_chemical_formula_sum "Si O2"
_cell_formula_units_Z 56
_cell_length_a 29.828739
_cell_length_b 9.272214
_cell_length_c 15.006587
_cell_angle_alpha 90.000000
_cell_angle_beta 51.307877
_cell_angle_gamma 90.000000
_cell_volume 3239.532046
_symmetry_space_group_name_H-M "C 2/M"
_symmetry_group_IT_number 12
_symmetry_cell_setting 'monoclinic'
loop_
_space_group_symop_operation_xyz
x,y,z
-x,y,-z
-x,-y,-z
x,-y,z
1/2+x,1/2+y,z
1/2-x,1/2+y,-z
1/2-x,1/2-y,-z
1/2+x,1/2-y,z
loop_
_atom_site_type_symbol
_atom_site_label
_atom_site_fract_x
_atom_site_fract_y
_atom_site_fract_z
Si Si1 0.151575 0.830110 0.867255
Si Si2 0.863962 0.330962 0.467471
Si Si3 0.402276 0.333300 0.883936
Si Si4 0.109163 0.663846 0.753564
Si Si5 0.798549 0.830309 0.884129
Si Si6 0.516301 0.162771 0.733138
Si Si7 0.783105 0.327978 0.721819
O O1 0.117670 0.767056 0.825967
O O2 0.217966 0.785018 0.781112
O O3 0.145078 0.000000 0.871511
O O4 0.124169 0.767422 0.992202
O O5 0.855432 0.500000 0.486043
O O6 0.849711 0.288230 0.381672
O O7 0.821493 0.262730 0.593081
O O8 0.931815 0.294485 0.400396
O O9 0.413785 0.500000 0.884763
O O10 0.359055 0.305612 0.856990
O O11 0.462773 0.264587 0.784175
O O12 0.122979 0.500000 0.765353
O O13 0.043061 0.675153 0.800282
O O14 0.804482 0.756995 0.781246
O O15 0.783585 0.000000 0.895613
O O16 0.750000 0.750000 0.000000
O O17 0.495570 0.000000 0.741314
O O18 0.789559 0.500000 0.729199
#
# Coordination Sequence:
#
# PCOD8093603 Si02
#       7
#     8   8   8   8   8   8   8
#     4  10  20  32  49  78 108 140 175 211 265 320
#     4   7  15  34  56  75 104 140 175 217 259 303
#     4  10  21  36  52  75 108 138 171 214 265 318
#     4   8  17  34  52  76 107 137 176 218 255 303
#     4  11  22  38  56  79 108 138 173 216 263 315
#     4   8  17  35  55  76 102 138 181 217 253 303
#     4  10  19  36  58  78 106 141 175 217 264 311
#
# _framework density 17.286446999999999
#
# number of rings (size 3 to 8) (size 9 to 14) (size 15 to 20)
#    0.857    2.000    1.429    0.429    0.000    4.000 
#    0.000    5.000    0.000    4.286    0.000    0.000 
#    0.000    0.000    0.000    0.000    0.000    0.000 
#
# Total GULP energy -346866.404450 kJ/mol
# GULP energy per Si atom -12388.085873 kJ/mol
# Density = 1.724710 g / cm^3
# Si number density = 17.286447 Si / 1000 Ang^3
#
#
#
# Elastic Constant Matrix: (Units=GPa)
#
#
# Indices 1 2 3 4 5 6 
#
# 1 59.0489 25.3916 10.4987 0.0000 -8.8017 0.0000
# 2 25.3916 33.2996 13.5635 0.0000 -4.0726 -0.0001
# 3 10.4987 13.5635 37.8685 0.0000 -10.9239 0.0000
# 4 0.0000 0.0000 0.0000 23.9752 0.0000 1.1800
# 5 -8.8017 -4.0726 -10.9239 0.0000 23.9926 0.0000
# 6 0.0000 -0.0001 0.0000 1.1800 0.0000 34.3744
#
#
#
# Elastic Compliance Matrix: (Units=1/GPa)
#
#
# Indices 1 2 3 4 5 6 
#
# 1 0.026210 -0.019894 0.001909 0.000000 0.007108 0.000000
# 2 -0.019894 0.050261 -0.013965 0.000000 -0.005125 0.000000
# 3 0.001909 -0.013965 0.034994 0.000000 0.014263 0.000000
# 4 0.000000 0.000000 0.000000 0.041780 0.000000 -0.001434
# 5 0.007108 -0.005125 0.014263 0.000000 0.049911 0.000000
# 6 0.000000 0.000000 0.000000 -0.001434 0.000000 0.029141
#
#
# Mechanical properties :
#
#
# Convention : Reuss Voigt Hill
#
# Bulk Modulus (GPa) = 21.02356 25.45829 23.24093
# Shear Modulus (GPa) = 16.02299 21.85265 18.93782
#
# Velocity S-wave (km/s) = 3.04782 3.55934 3.31347
# Velocity P-wave (km/s) = 4.95721 5.62594 5.30213
#
# Compressibility (1/GPa) = 0.04756568
#
# Stress axis : x y z
#
# Youngs Moduli (GPa) = 38.15402 19.89603 28.57611
#
# Poissons Ratio (x) = 0.39581 -0.05456
# Poissons Ratio (y) = 0.75903 0.39908
# Poissons Ratio (z) = -0.07285 0.27786
#
# Static dielectric constant tensor:
#      x y z
#    x 3.081300 0.000000 0.034130 
#    y 0.000000 3.024180 0.000000 
#    z 0.034130 0.000000 3.496160 
# 
# 
# High freq. dielectric constant tensor:
#      x y z
#    x 1.658490 0.000000 -0.000990 
#    y 0.000000 1.651380 0.000000 
#    z -0.000990 0.000000 1.667500 
# 
# From -- ./inp_files/248881.got.cif
#   From: 2010.06.25/outbox.cif.g09.slc.cpg/sg12_125_cif.got.tgz:248881.got - 2010.06.28 00:19:55.
