data_PCOD8093736
_publ_section_title
;
Structure prediction by ZEFSAII (Michael W. Deem and Ramdas Pophale) SiO2 
 PCOD8093736
Probable space group: C 2/M
;
_chemical_formula_sum "Si O2"
_cell_formula_units_Z 48
_cell_length_a 14.905675
_cell_length_b 8.833192
_cell_length_c 18.945408
_cell_angle_alpha 90.000000
_cell_angle_beta 90.332673
_cell_angle_gamma 90.000000
_cell_volume 2494.399209
_symmetry_space_group_name_H-M "C 2/M"
_symmetry_group_IT_number 12
_symmetry_cell_setting 'monoclinic'
loop_
_space_group_symop_operation_xyz
x,y,z
-x,y,-z
-x,-y,-z
x,-y,z
1/2+x,1/2+y,z
1/2-x,1/2+y,-z
1/2-x,1/2-y,-z
1/2+x,1/2-y,z
loop_
_atom_site_type_symbol
_atom_site_label
_atom_site_fract_x
_atom_site_fract_y
_atom_site_fract_z
Si Si1 0.331380 0.825125 0.663566
Si Si2 0.521283 0.320943 0.422662
Si Si3 0.615735 0.821000 0.183191
Si Si4 0.587346 0.178460 0.832262
Si Si5 0.870665 0.175384 0.313293
Si Si6 0.265070 0.679864 0.075829
O O1 0.382186 0.738116 0.601576
O O2 0.360473 0.755330 0.739452
O O3 0.225757 0.802106 0.650864
O O4 0.359005 0.000000 0.659734
O O5 0.500000 0.254584 0.500000
O O6 0.523801 0.500000 0.425434
O O7 0.444790 0.264771 0.368303
O O8 0.516082 0.770772 0.161004
O O9 0.686091 0.757994 0.126362
O O10 0.625316 0.000000 0.186726
O O11 0.625503 0.224831 0.756639
O O12 0.639750 0.264614 0.894129
O O13 0.598734 0.000000 0.842333
O O14 0.885434 0.000000 0.292525
O O15 0.264585 0.500000 0.070563
O O16 0.250000 0.750000 0.000000
#
# Coordination Sequence:
#
# PCOD8093736 Si02
#       6
#     8   8   8   8   8   8
#     4  10  19  36  59  83 109 150 196 231 280 346
#     4  10  22  38  55  83 121 153 186 239 297 337
#     4   9  19  36  59  83 114 150 187 231 284 341
#     4  11  21  36  60  88 112 146 193 237 281 339
#     4  10  20  36  58  82 113 153 190 234 288 342
#     4  11  23  42  61  85 120 155 188 233 287 339
#
# _framework density 19.243110999999999
#
# number of rings (size 3 to 8) (size 9 to 14) (size 15 to 20)
#    0.000    1.833    3.333    1.000    0.000    2.333 
#    0.000    6.667    0.000    0.000    0.000    0.000 
#    0.000    0.000    0.000    0.000    0.000    0.000 
#
# Total GULP energy -297683.652745 kJ/mol
# GULP energy per Si atom -12403.485531 kJ/mol
# Density = 1.919931 g / cm^3
# Si number density = 19.243111 Si / 1000 Ang^3
#
#
#
# Elastic Constant Matrix: (Units=GPa)
#
#
# Indices 1 2 3 4 5 6 
#
# 1 90.7186 15.9790 14.3143 0.0000 -2.5725 0.0000
# 2 15.9790 35.9771 16.7713 0.0000 2.7270 0.0000
# 3 14.3143 16.7713 88.1944 0.0000 -4.3370 0.0000
# 4 0.0000 0.0000 0.0000 29.2216 0.0000 -3.9912
# 5 -2.5725 2.7270 -4.3370 0.0000 34.5174 0.0000
# 6 0.0000 0.0000 0.0000 -3.9912 0.0000 28.1785
#
#
#
# Elastic Compliance Matrix: (Units=1/GPa)
#
#
# Indices 1 2 3 4 5 6 
#
# 1 0.012090 -0.005016 -0.000950 0.000000 0.001178 0.000000
# 2 -0.005016 0.032926 -0.005628 0.000000 -0.003682 0.000000
# 3 -0.000950 -0.005628 0.012660 0.000000 0.001964 0.000000
# 4 0.000000 0.000000 0.000000 0.034896 0.000000 0.004943
# 5 0.001178 -0.003682 0.001964 0.000000 0.029596 0.000000
# 6 0.000000 0.000000 0.000000 0.004943 0.000000 0.036188
#
#
# Mechanical properties :
#
#
# Convention : Reuss Voigt Hill
#
# Bulk Modulus (GPa) = 28.99689 34.33547 31.66618
# Shear Modulus (GPa) = 25.90117 29.57187 27.73652
#
# Velocity S-wave (km/s) = 3.67276 3.92439 3.80066
# Velocity P-wave (km/s) = 5.75213 6.19808 5.97927
#
# Compressibility (1/GPa) = 0.03448646
#
# Stress axis : x y z
#
# Youngs Moduli (GPa) = 82.71328 30.37108 78.99045
#
# Poissons Ratio (x) = 0.15234 0.07508
# Poissons Ratio (y) = 0.41488 0.44458
# Poissons Ratio (z) = 0.07862 0.17094
#
# Static dielectric constant tensor:
#      x y z
#    x 3.904430 0.000000 0.087840 
#    y 0.000000 3.301280 0.000000 
#    z 0.087840 0.000000 3.600540 
# 
# 
# High freq. dielectric constant tensor:
#      x y z
#    x 1.763330 0.000000 0.001070 
#    y 0.000000 1.728770 0.000000 
#    z 0.001070 0.000000 1.746750 
# 
# From -- ./inp_files/267647.got.cif
#   From: 2010.06.25/outbox.cif.g09.slc.cpg/sg12_134_cif.got.tgz:267647.got - 2010.06.28 00:19:55.
