data_PCOD8093737
_publ_section_title
;
Structure prediction by ZEFSAII (Michael W. Deem and Ramdas Pophale) SiO2 
 PCOD8093737
Probable space group: C 2/M
;
_chemical_formula_sum "Si O2"
_cell_formula_units_Z 48
_cell_length_a 15.151263
_cell_length_b 8.747507
_cell_length_c 19.201906
_cell_angle_alpha 90.000000
_cell_angle_beta 90.028376
_cell_angle_gamma 90.000000
_cell_volume 2544.939261
_symmetry_space_group_name_H-M "C 2/M"
_symmetry_group_IT_number 12
_symmetry_cell_setting 'monoclinic'
loop_
_space_group_symop_operation_xyz
x,y,z
-x,y,-z
-x,-y,-z
x,-y,z
1/2+x,1/2+y,z
1/2-x,1/2+y,-z
1/2-x,1/2-y,-z
1/2+x,1/2-y,z
loop_
_atom_site_type_symbol
_atom_site_label
_atom_site_fract_x
_atom_site_fract_y
_atom_site_fract_z
Si Si1 0.527223 0.819282 0.574716
Si Si2 0.374287 0.818718 0.828398
Si Si3 0.033241 0.319748 0.923678
Si Si4 0.273898 0.819121 0.425845
Si Si5 0.628641 0.182122 0.328684
Si Si6 0.279894 0.680771 0.072547
O O1 0.500000 0.748163 0.500000
O O2 0.626405 0.770526 0.593877
O O3 0.460034 0.758222 0.633354
O O4 0.519119 0.000000 0.570134
O O5 0.461419 0.760290 0.868277
O O6 0.374185 0.754710 0.749990
O O7 0.287123 0.760129 0.868037
O O8 0.375759 0.000000 0.827824
O O9 0.049720 0.500000 0.918969
O O10 0.123378 0.234487 0.905612
O O11 0.000000 0.273231 0.000000
O O12 0.250000 0.750000 0.500000
O O13 0.213587 0.752052 0.365527
O O14 0.263150 0.000000 0.430426
O O15 0.636162 0.000000 0.331372
O O16 0.276462 0.500000 0.065491
O O17 0.250000 0.750000 0.000000
#
# Coordination Sequence:
#
# PCOD8093737 Si02
#       6
#     8   8   8   8   8   8
#     4   9  17  32  55  80 104 138 181 219 263 327
#     4   9  20  37  57  80 112 149 183 225 286 344
#     4  10  19  36  59  83 110 145 189 234 279 336
#     4  11  21  35  57  85 112 143 185 232 275 327
#     4  10  20  38  59  79 109 149 185 226 281 334
#     4  11  21  36  57  85 113 147 190 234 281 338
#
# _framework density 18.860962000000001
#
# number of rings (size 3 to 8) (size 9 to 14) (size 15 to 20)
#    0.000    2.000    3.333    1.000    0.000    1.667 
#    0.000    6.667    0.000    0.000    0.000    0.000 
#    0.000    0.000    0.000    0.000    0.000    0.000 
#
# Total GULP energy -297621.347294 kJ/mol
# GULP energy per Si atom -12400.889471 kJ/mol
# Density = 1.881803 g / cm^3
# Si number density = 18.860962 Si / 1000 Ang^3
#
#
#
# Elastic Constant Matrix: (Units=GPa)
#
#
# Indices 1 2 3 4 5 6 
#
# 1 197.6450 36.7171 107.9148 0.0000 -1.8955 0.0000
# 2 36.7171 38.2414 32.3785 0.0000 -0.6258 0.0000
# 3 107.9148 32.3785 189.7888 0.0000 1.0490 0.0000
# 4 0.0000 0.0000 0.0000 19.8076 0.0000 4.9287
# 5 -1.8955 -0.6258 1.0490 0.0000 38.5466 0.0000
# 6 0.0000 0.0000 0.0000 4.9287 0.0000 32.8723
#
#
#
# Elastic Compliance Matrix: (Units=1/GPa)
#
#
# Indices 1 2 3 4 5 6 
#
# 1 0.007941 -0.004433 -0.003761 0.000000 0.000421 0.000000
# 2 -0.004433 0.033055 -0.003121 0.000000 0.000404 0.000000
# 3 -0.003761 -0.003121 0.007943 0.000000 -0.000452 0.000000
# 4 0.000000 0.000000 0.000000 0.052442 0.000000 -0.007863
# 5 0.000421 0.000404 -0.000452 0.000000 0.025982 0.000000
# 6 0.000000 0.000000 0.000000 -0.007863 0.000000 0.031600
#
#
# Mechanical properties :
#
#
# Convention : Reuss Voigt Hill
#
# Bulk Modulus (GPa) = 38.01088 86.63288 62.32188
# Shear Modulus (GPa) = 26.26579 34.82294 30.54437
#
# Velocity S-wave (km/s) = 3.73581 4.30152 4.02860
# Velocity P-wave (km/s) = 6.22939 8.40850 7.39960
#
# Compressibility (1/GPa) = 0.02630826
#
# Stress axis : x y z
#
# Youngs Moduli (GPa) = 125.93287 30.25275 125.90316
#
# Poissons Ratio (x) = 0.13410 0.47355
# Poissons Ratio (y) = 0.55823 0.39294
# Poissons Ratio (z) = 0.47366 0.09442
#
# Static dielectric constant tensor:
#      x y z
#    x 3.866350 0.000000 -0.085380 
#    y 0.000000 3.148040 0.000000 
#    z -0.085380 0.000000 3.274610 
# 
# 
# High freq. dielectric constant tensor:
#      x y z
#    x 1.751910 0.000000 -0.000530 
#    y 0.000000 1.700480 0.000000 
#    z -0.000530 0.000000 1.735350 
# 
# From -- ./inp_files/267598.got.cif
#   From: 2010.06.25/outbox.cif.g09.slc.cpg/sg12_134_cif.got.tgz:267598.got - 2010.06.28 00:19:55.
