data_PCOD8093725
_publ_section_title
;
Structure prediction by ZEFSAII (Michael W. Deem and Ramdas Pophale) SiO2 
 PCOD8093725
Probable space group: C 2/M
;
_chemical_formula_sum "Si O2"
_cell_formula_units_Z 56
_cell_length_a 14.925337
_cell_length_b 9.100959
_cell_length_c 24.323156
_cell_angle_alpha 90.000000
_cell_angle_beta 116.641052
_cell_angle_gamma 90.000000
_cell_volume 2953.164958
_symmetry_space_group_name_H-M "C 2/M"
_symmetry_group_IT_number 12
_symmetry_cell_setting 'monoclinic'
loop_
_space_group_symop_operation_xyz
x,y,z
-x,y,-z
-x,-y,-z
x,-y,z
1/2+x,1/2+y,z
1/2-x,1/2+y,-z
1/2-x,1/2-y,-z
1/2+x,1/2-y,z
loop_
_atom_site_type_symbol
_atom_site_label
_atom_site_fract_x
_atom_site_fract_y
_atom_site_fract_z
Si Si1 0.156767 0.169804 0.000506
Si Si2 0.322327 0.173912 0.789246
Si Si3 0.737881 0.673879 0.651840
Si Si4 0.541715 0.827189 0.884599
Si Si5 0.768738 0.668105 0.136417
Si Si6 0.485562 0.670774 0.431732
Si Si7 0.673040 0.825340 0.437807
O O1 0.170587 0.186806 0.070054
O O2 0.156881 0.000000 0.983470
O O3 0.250000 0.250000 0.000000
O O4 0.057548 0.246120 0.948008
O O5 0.288409 0.237939 0.720921
O O6 0.436074 0.225760 0.831017
O O7 0.246593 0.234169 0.814187
O O8 0.314508 0.000000 0.788390
O O9 0.738415 0.500000 0.653726
O O10 0.623707 0.728180 0.615696
O O11 0.800685 0.727141 0.616521
O O12 0.629357 0.781037 0.866183
O O13 0.544428 0.000000 0.896750
O O14 0.780120 0.500000 0.158114
O O15 0.500000 0.697234 0.500000
O O16 0.503005 0.500000 0.421885
O O17 0.561456 0.771199 0.418750
O O18 0.750000 0.750000 0.500000
O O19 0.681574 0.000000 0.446999
#
# Coordination Sequence:
#
# PCOD8093725 Si02
#       7
#     8   8   8   8   8   8   8
#     4   9  17  31  53  79 107 140 178 223 275 323
#     4  10  21  37  56  77 104 146 190 222 261 327
#     4   9  20  38  56  77 111 148 181 220 275 328
#     4   9  19  35  54  77 108 143 180 223 273 323
#     4   9  19  35  53  76 108 141 175 226 282 320
#     4  10  19  36  59  82 111 147 178 219 276 323
#     4  11  21  36  59  86 112 142 179 222 272 326
#
# _framework density 18.962706000000001
#
# number of rings (size 3 to 8) (size 9 to 14) (size 15 to 20)
#    0.000    2.429    1.429    1.714    0.000    5.429 
#    0.000    6.429    0.000    0.000    0.000    0.000 
#    0.000    0.000    0.000    0.000    0.000    0.000 
#
# Total GULP energy -347139.519358 kJ/mol
# GULP energy per Si atom -12397.839977 kJ/mol
# Density = 1.891955 g / cm^3
# Si number density = 18.962706 Si / 1000 Ang^3
#
#
#
# Elastic Constant Matrix: (Units=GPa)
#
#
# Indices 1 2 3 4 5 6 
#
# 1 96.3679 24.3907 39.2617 0.0000 0.4750 0.0000
# 2 24.3907 46.5223 27.7574 0.0000 -3.1257 0.0000
# 3 39.2617 27.7574 116.9614 0.0000 3.2261 0.0000
# 4 0.0000 0.0000 0.0000 22.2722 0.0000 -4.0110
# 5 0.4750 -3.1257 3.2261 0.0000 33.2012 0.0000
# 6 0.0000 0.0000 0.0000 -4.0110 0.0000 30.9583
#
#
#
# Elastic Compliance Matrix: (Units=1/GPa)
#
#
# Indices 1 2 3 4 5 6 
#
# 1 0.012907 -0.004905 -0.003159 0.000000 -0.000339 0.000000
# 2 -0.004905 0.027195 -0.004893 0.000000 0.003106 0.000000
# 3 -0.003159 -0.004893 0.010812 0.000000 -0.001466 0.000000
# 4 0.000000 0.000000 0.000000 0.045972 0.000000 0.005956
# 5 -0.000339 0.003106 -0.001466 0.000000 0.030559 0.000000
# 6 0.000000 0.000000 0.000000 0.005956 0.000000 0.033073
#
#
# Mechanical properties :
#
#
# Convention : Reuss Voigt Hill
#
# Bulk Modulus (GPa) = 40.00088 49.18572 44.59330
# Shear Modulus (GPa) = 25.67196 28.51581 27.09388
#
# Velocity S-wave (km/s) = 3.68341 3.88207 3.78405
# Velocity P-wave (km/s) = 6.26341 6.78885 6.53141
#
# Compressibility (1/GPa) = 0.02499945
#
# Stress axis : x y z
#
# Youngs Moduli (GPa) = 77.47667 36.77195 92.48959
#
# Poissons Ratio (x) = 0.18036 0.29220
# Poissons Ratio (y) = 0.38000 0.45256
# Poissons Ratio (z) = 0.24477 0.17993
#
# Static dielectric constant tensor:
#      x y z
#    x 3.908200 0.000000 -0.005820 
#    y 0.000000 3.333610 0.000000 
#    z -0.005820 0.000000 3.838490 
# 
# 
# High freq. dielectric constant tensor:
#      x y z
#    x 1.735310 0.000000 0.004220 
#    y 0.000000 1.719540 0.000000 
#    z 0.004220 0.000000 1.741100 
# 
# From -- ./inp_files/339028.got.cif
#   From: 2010.06.25/outbox.cif.g09.slc.cpg/sg12_170_cif.got.tgz:339028.got - 2010.06.28 00:19:55.
