data_PCOD8093088
_publ_section_title
;
Structure prediction by ZEFSAII (Michael W. Deem and Ramdas Pophale) SiO2 
 PCOD8093088
Probable space group: C 2/M
;
_chemical_formula_sum "Si O2"
_cell_formula_units_Z 64
_cell_length_a 28.773764
_cell_length_b 15.339592
_cell_length_c 8.505138
_cell_angle_alpha 90.000000
_cell_angle_beta 128.588160
_cell_angle_gamma 90.000000
_cell_volume 2934.295430
_symmetry_space_group_name_H-M "C 2/M"
_symmetry_group_IT_number 12
_symmetry_cell_setting 'monoclinic'
loop_
_space_group_symop_operation_xyz
x,y,z
-x,y,-z
-x,-y,-z
x,-y,z
1/2+x,1/2+y,z
1/2-x,1/2+y,-z
1/2-x,1/2-y,-z
1/2+x,1/2-y,z
loop_
_atom_site_type_symbol
_atom_site_label
_atom_site_fract_x
_atom_site_fract_y
_atom_site_fract_z
Si Si1 0.775825 0.600951 0.337409
Si Si2 0.825758 0.101823 0.433713
Si Si3 0.865727 0.724832 0.376899
Si Si4 0.104417 0.311203 0.915020
Si Si5 0.354980 0.638036 0.852825
Si Si6 0.298258 0.098449 0.725767
Si Si7 0.516076 0.776882 0.217267
Si Si8 0.984325 0.908689 0.149197
O O1 0.793653 0.500000 0.342091
O O2 0.807626 0.664255 0.278315
O O3 0.703969 0.608725 0.176992
O O4 0.798968 0.640634 0.553016
O O5 0.856361 0.171468 0.382452
O O6 0.850568 0.116357 0.660189
O O7 0.756745 0.131632 0.285165
O O8 0.835749 0.000000 0.402737
O O9 0.887058 0.715306 0.245053
O O10 0.918442 0.688043 0.603070
O O11 0.035050 0.330737 0.799896
O O12 0.132986 0.240186 0.094275
O O13 0.141651 0.395934 0.045652
O O14 0.413723 0.588539 0.035832
O O15 0.282805 0.000000 0.651396
O O16 0.513395 0.677981 0.282701
O O17 0.500000 0.781472 0.000000
O O18 0.010297 0.000000 0.275286
O O19 0.000000 0.906131 0.000000
#
# Coordination Sequence:
#
# PCOD8093088 Si02
#       8
#     8   8   8   8   8   8   8   8
#     4  10  21  38  62  88 115 151 200 250 289 339
#     4  10  20  36  60  87 116 154 199 241 280 335
#     4  12  24  38  57  85 123 157 188 236 300 361
#     4  11  23  38  57  85 120 155 188 235 301 358
#     4  10  19  35  59  85 116 153 198 241 282 336
#     4   9  19  37  60  86 113 147 197 248 287 334
#     4  10  21  38  60  81 106 148 200 245 283 338
#     4   9  16  28  52  83 109 137 180 233 283 328
#
# _framework density 21.811029000000001
#
# number of rings (size 3 to 8) (size 9 to 14) (size 15 to 20)
#    0.000    1.875    0.000    6.750    0.000    6.000 
#    0.000    5.625    0.000    7.500    0.000    0.000 
#    0.000    0.000    0.000    0.000    0.000    0.000 
#
# Total GULP energy -396460.415223 kJ/mol
# GULP energy per Si atom -12389.387976 kJ/mol
# Density = 2.176139 g / cm^3
# Si number density = 21.811029 Si / 1000 Ang^3
#
#
#
# Elastic Constant Matrix: (Units=GPa)
#
#
# Indices 1 2 3 4 5 6 
#
# 1 127.4866 27.3644 25.4481 0.0000 10.0199 0.0000
# 2 27.3644 49.5739 13.4127 0.0000 2.2112 0.0000
# 3 25.4481 13.4127 38.8580 0.0000 8.2843 0.0000
# 4 0.0000 0.0000 0.0000 3.6976 0.0000 9.4722
# 5 10.0199 2.2112 8.2843 0.0000 30.1871 0.0000
# 6 0.0000 0.0000 0.0000 9.4722 0.0000 11.5854
#
#
#
# Elastic Compliance Matrix: (Units=1/GPa)
#
#
# Indices 1 2 3 4 5 6 
#
# 1 0.009774 -0.004065 -0.004642 0.000000 -0.001673 0.000000
# 2 -0.004065 0.023948 -0.005860 0.000000 0.001203 0.000000
# 3 -0.004642 -0.005860 0.032265 0.000000 -0.006885 0.000000
# 4 0.000000 0.000000 0.000000 -0.247108 0.000000 0.202034
# 5 -0.001673 0.001203 -0.006885 0.000000 0.035483 0.000000
# 6 0.000000 0.000000 0.000000 0.202034 0.000000 -0.078867
#
#
# Mechanical properties :
#
#
# Convention : Reuss Voigt Hill
#
# Bulk Modulus (GPa) = 27.13467 38.70767 32.92117
# Shear Modulus (GPa) = -27.30953 19.07358 -4.11797
#
# Velocity S-wave (km/s) = -3.54234 2.96039 -1.37554
# Velocity P-wave (km/s) = 2.06472 5.42868 3.55018
#
# Compressibility (1/GPa) = 0.03685322
#
# Stress axis : x y z
#
# Youngs Moduli (GPa) = 102.30718 41.75769 30.99322
#
# Poissons Ratio (x) = 0.16974 0.14386
# Poissons Ratio (y) = 0.41588 0.18164
# Poissons Ratio (z) = 0.47486 0.24472
#
# Static dielectric constant tensor:
#      x y z
#    x 4.058580 0.000000 0.293070 
#    y 0.000000 4.004530 0.000000 
#    z 0.293070 0.000000 3.595770 
# 
# 
# High freq. dielectric constant tensor:
#      x y z
#    x 1.862810 0.000000 0.022250 
#    y 0.000000 1.843490 0.000000 
#    z 0.022250 0.000000 1.829360 
# 
# From -- ./inp_files/112004.got.cif
#   From: 2010.06.25/outbox.cif.g09.slc.cpg/sg12_57_cif.got.tgz:112004.got - 2010.06.28 00:19:55.
