data_PCOD8093247
_publ_section_title
;
Structure prediction by ZEFSAII (Michael W. Deem and Ramdas Pophale) SiO2 
 PCOD8093247
Probable space group: C 2/M
;
_chemical_formula_sum "Si O2"
_cell_formula_units_Z 64
_cell_length_a 15.318711
_cell_length_b 17.248148
_cell_length_c 12.032617
_cell_angle_alpha 90.000000
_cell_angle_beta 87.456759
_cell_angle_gamma 90.000000
_cell_volume 3176.119272
_symmetry_space_group_name_H-M "C 2/M"
_symmetry_group_IT_number 12
_symmetry_cell_setting 'monoclinic'
loop_
_space_group_symop_operation_xyz
x,y,z
-x,y,-z
-x,-y,-z
x,-y,z
1/2+x,1/2+y,z
1/2-x,1/2+y,-z
1/2-x,1/2-y,-z
1/2+x,1/2-y,z
loop_
_atom_site_type_symbol
_atom_site_label
_atom_site_fract_x
_atom_site_fract_y
_atom_site_fract_z
Si Si1 0.682069 0.412858 0.546134
Si Si2 0.879172 0.590367 0.544038
Si Si3 0.912954 0.909519 0.073686
Si Si4 0.234640 0.908185 0.087931
Si Si5 0.071557 0.589919 0.912614
Si Si6 0.869913 0.088685 0.696367
Si Si7 0.032955 0.648187 0.675858
Si Si8 0.550888 0.328172 0.702866
O O1 0.653494 0.500000 0.582239
O O2 0.779302 0.395120 0.583560
O O3 0.684109 0.405102 0.413484
O O4 0.615633 0.351672 0.600483
O O5 0.903900 0.500000 0.545117
O O6 0.896197 0.622050 0.419172
O O7 0.936408 0.635529 0.631601
O O8 0.911047 0.859424 0.184362
O O9 0.910613 0.000000 0.104756
O O10 0.826672 0.884129 0.011287
O O11 0.000000 0.889928 0.000000
O O12 0.332252 0.872605 0.070047
O O13 0.190795 0.876210 0.203360
O O14 0.241069 0.000000 0.097820
O O15 0.077625 0.500000 0.941634
O O16 0.043586 0.598544 0.786609
O O17 0.000000 0.628786 0.000000
O O18 0.956835 0.138134 0.680837
O O19 0.896825 0.000000 0.722311
O O20 0.046262 0.736557 0.708329
#
# Coordination Sequence:
#
# PCOD8093247 Si02
#       8
#     8   8   8   8   8   8   8   8
#     4  10  22  38  62  92 121 155 204 255 300 351
#     4  10  22  44  69  88 111 159 217 258 291 355
#     4  10  19  36  59  83 116 162 210 247 284 354
#     4   9  18  35  63  91 110 149 207 249 294 348
#     4  10  21  40  65  89 115 150 204 267 303 342
#     4  10  19  35  60  88 121 160 199 241 295 365
#     4  11  24  40  60  89 122 161 199 242 311 373
#     4  12  24  36  55  89 131 162 191 244 312 368
#
# _framework density 20.150376999999999
#
# number of rings (size 3 to 8) (size 9 to 14) (size 15 to 20)
#    0.000    1.750    1.250    3.750    3.500    5.000 
#    2.250    3.125    0.000    0.000    0.000    0.000 
#    0.000    0.000    0.000    0.000    0.000    0.000 
#
# Total GULP energy -396874.379833 kJ/mol
# GULP energy per Si atom -12402.324370 kJ/mol
# Density = 2.010451 g / cm^3
# Si number density = 20.150377 Si / 1000 Ang^3
#
#
#
# Elastic Constant Matrix: (Units=GPa)
#
#
# Indices 1 2 3 4 5 6 
#
# 1 144.6288 25.5955 53.6933 0.0000 -4.6191 0.0000
# 2 25.5955 60.7541 26.9253 0.0000 -4.8382 0.0000
# 3 53.6933 26.9253 107.3198 0.0000 9.8305 0.0000
# 4 0.0000 0.0000 0.0000 14.1341 0.0000 -2.0745
# 5 -4.6191 -4.8382 9.8305 0.0000 27.0727 0.0000
# 6 0.0000 0.0000 0.0000 -2.0745 0.0000 -6.1380
#
#
#
# Elastic Compliance Matrix: (Units=1/GPa)
#
#
# Indices 1 2 3 4 5 6 
#
# 1 0.008884 -0.001618 -0.004294 0.000000 0.002786 0.000000
# 2 -0.001618 0.019540 -0.004539 0.000000 0.004864 0.000000
# 3 -0.004294 -0.004539 0.013185 0.000000 -0.006331 0.000000
# 4 0.000000 0.000000 0.000000 0.067407 0.000000 -0.022782
# 5 0.002786 0.004864 -0.006331 0.000000 0.040581 0.000000
# 6 0.000000 0.000000 0.000000 -0.022782 0.000000 -0.155219
#
#
# Mechanical properties :
#
#
# Convention : Reuss Voigt Hill
#
# Bulk Modulus (GPa) = 48.29013 58.34788 53.31900
# Shear Modulus (GPa) = 225.42008 20.77967 123.09987
#
# Velocity S-wave (km/s) = 10.58828 3.21476 7.82453
# Velocity P-wave (km/s) = 13.17191 6.54207 10.39947
#
# Compressibility (1/GPa) = 0.02070817
#
# Stress axis : x y z
#
# Youngs Moduli (GPa) = 112.56672 51.17675 75.84485
#
# Poissons Ratio (x) = 0.08279 0.32567
# Poissons Ratio (y) = 0.18211 0.34422
# Poissons Ratio (z) = 0.48335 0.23227
#
# Static dielectric constant tensor:
#      x y z
#    x 3.903030 0.000000 -0.003360 
#    y 0.000000 3.387150 0.000000 
#    z -0.003360 0.000000 3.660570 
# 
# 
# High freq. dielectric constant tensor:
#      x y z
#    x 1.799710 0.000000 0.004370 
#    y 0.000000 1.757670 0.000000 
#    z 0.004370 0.000000 1.791750 
# 
# From -- ./inp_files/146137.got.cif
#   From: 2010.06.25/outbox.cif.g09.slc.cpg/sg12_74_cif.got.tgz:146137.got - 2010.06.28 00:19:55.
