data_PCOD8093949
_publ_section_title
;
Structure prediction by ZEFSAII (Michael W. Deem and Ramdas Pophale) SiO2 
 PCOD8093949
Probable space group: C 2/M
;
_chemical_formula_sum "Si O2"
_cell_formula_units_Z 64
_cell_length_a 31.108485
_cell_length_b 9.152896
_cell_length_c 17.425465
_cell_angle_alpha 90.000000
_cell_angle_beta 136.942577
_cell_angle_gamma 90.000000
_cell_volume 3387.438231
_symmetry_space_group_name_H-M "C 2/M"
_symmetry_group_IT_number 12
_symmetry_cell_setting 'monoclinic'
loop_
_space_group_symop_operation_xyz
x,y,z
-x,y,-z
-x,-y,-z
x,-y,z
1/2+x,1/2+y,z
1/2-x,1/2+y,-z
1/2-x,1/2-y,-z
1/2+x,1/2-y,z
loop_
_atom_site_type_symbol
_atom_site_label
_atom_site_fract_x
_atom_site_fract_y
_atom_site_fract_z
Si Si1 0.579018 0.672980 0.176236
Si Si2 0.879565 0.331061 0.216393
Si Si3 0.636847 0.327721 0.532528
Si Si4 0.155949 0.332370 0.001217
Si Si5 0.793444 0.827473 0.226240
Si Si6 0.184286 0.825375 0.430452
Si Si7 0.502343 0.671125 0.412939
Si Si8 0.939222 0.827055 0.017773
O O1 0.578141 0.500000 0.177991
O O2 0.635163 0.732708 0.302490
O O3 0.588899 0.724377 0.101211
O O4 0.511374 0.728230 0.119063
O O5 0.886624 0.500000 0.247630
O O6 0.843920 0.310499 0.089633
O O7 0.839872 0.251044 0.229000
O O8 0.948158 0.259566 0.299062
O O9 0.631542 0.500000 0.522039
O O10 0.687692 0.281275 0.662981
O O11 0.659281 0.267580 0.479803
O O12 0.567987 0.267397 0.464911
O O13 0.146091 0.500000 0.011456
O O14 0.222434 0.273962 0.119810
O O15 0.099778 0.241678 0.964559
O O16 0.800846 0.000000 0.222087
O O17 0.250000 0.750000 0.500000
O O18 0.192018 0.000000 0.438852
O O19 0.500000 0.703484 0.500000
O O20 0.493105 0.500000 0.384166
O O21 0.935575 0.000000 0.020865
#
# Coordination Sequence:
#
# PCOD8093949 Si02
#       8
#     8   8   8   8   8   8   8   8
#     4   8  17  35  56  80 111 140 177 230 275 321
#     4  11  23  37  53  82 118 146 177 227 286 327
#     4   9  19  35  58  84 107 141 190 233 268 323
#     4  10  23  37  54  81 114 144 180 232 281 324
#     4  10  20  39  59  76 106 150 192 226 265 327
#     4  10  21  37  57  83 115 146 183 228 277 329
#     4  10  19  36  61  85 108 144 194 231 266 330
#     4   9  18  35  59  81 103 142 187 226 275 328
#
# _framework density 18.893333999999999
#
# number of rings (size 3 to 8) (size 9 to 14) (size 15 to 20)
#    0.000    2.375    1.250    1.500    3.500    1.750 
#    0.000    3.125    0.000    0.000    0.000    0.000 
#    0.000    0.000    0.000    0.000    0.000    0.000 
#
# Total GULP energy -396815.553740 kJ/mol
# GULP energy per Si atom -12400.486054 kJ/mol
# Density = 1.885033 g / cm^3
# Si number density = 18.893334 Si / 1000 Ang^3
#
#
#
# Elastic Constant Matrix: (Units=GPa)
#
#
# Indices 1 2 3 4 5 6 
#
# 1 117.0035 25.2317 49.4473 0.0000 4.6822 0.0000
# 2 25.2317 35.1337 30.4378 0.0000 1.6437 0.0000
# 3 49.4473 30.4378 143.5085 0.0000 7.9087 0.0000
# 4 0.0000 0.0000 0.0000 24.5483 0.0000 5.4645
# 5 4.6822 1.6437 7.9087 0.0000 29.5513 0.0000
# 6 0.0000 0.0000 0.0000 5.4645 0.0000 23.6131
#
#
#
# Elastic Compliance Matrix: (Units=1/GPa)
#
#
# Indices 1 2 3 4 5 6 
#
# 1 0.010840 -0.005574 -0.002512 0.000000 -0.000735 0.000000
# 2 -0.005574 0.037736 -0.006106 0.000000 0.000418 0.000000
# 3 -0.002512 -0.006106 0.009224 0.000000 -0.001731 0.000000
# 4 0.000000 0.000000 0.000000 0.042948 0.000000 -0.009939
# 5 -0.000735 0.000418 -0.001731 0.000000 0.034396 0.000000
# 6 0.000000 0.000000 0.000000 -0.009939 0.000000 0.044650
#
#
# Mechanical properties :
#
#
# Convention : Reuss Voigt Hill
#
# Bulk Modulus (GPa) = 33.99558 56.20880 45.10219
# Shear Modulus (GPa) = 22.93740 28.24445 25.59093
#
# Velocity S-wave (km/s) = 3.48810 3.87064 3.68434
# Velocity P-wave (km/s) = 5.85277 7.05628 6.48251
#
# Compressibility (1/GPa) = 0.02941559
#
# Stress axis : x y z
#
# Youngs Moduli (GPa) = 92.25174 26.49971 108.40833
#
# Poissons Ratio (x) = 0.14771 0.27235
# Poissons Ratio (y) = 0.51420 0.66197
# Poissons Ratio (z) = 0.23176 0.16181
#
# Static dielectric constant tensor:
#      x y z
#    x 3.556260 0.000000 -0.026100 
#    y 0.000000 3.136340 0.000000 
#    z -0.026100 0.000000 3.889240 
# 
# 
# High freq. dielectric constant tensor:
#      x y z
#    x 1.739920 0.000000 0.000820 
#    y 0.000000 1.699260 0.000000 
#    z 0.000820 0.000000 1.750300 
# 
# From -- ./inp_files/295876.got.cif
#   From: 2010.06.25/outbox.cif.g09.slc.cpg/sg12_148_cif.got.tgz:295876.got - 2010.06.28 00:19:55.
