data_PCOD8093497
_publ_section_title
;
Structure prediction by ZEFSAII (Michael W. Deem and Ramdas Pophale) SiO2 
 PCOD8093497
Probable space group: C 2/M
;
_chemical_formula_sum "Si O2"
_cell_formula_units_Z 64
_cell_length_a 8.872769
_cell_length_b 28.086409
_cell_length_c 14.014334
_cell_angle_alpha 90.000000
_cell_angle_beta 81.084944
_cell_angle_gamma 90.000000
_cell_volume 3450.239719
_symmetry_space_group_name_H-M "C 2/M"
_symmetry_group_IT_number 12
_symmetry_cell_setting 'monoclinic'
loop_
_space_group_symop_operation_xyz
x,y,z
-x,y,-z
-x,-y,-z
x,-y,z
1/2+x,1/2+y,z
1/2-x,1/2+y,-z
1/2-x,1/2-y,-z
1/2+x,1/2-y,z
loop_
_atom_site_type_symbol
_atom_site_label
_atom_site_fract_x
_atom_site_fract_y
_atom_site_fract_z
Si Si1 0.808858 0.717609 0.130704
Si Si2 0.098944 0.795570 0.330794
Si Si3 0.668807 0.052699 0.442502
Si Si4 0.738725 0.137793 0.552065
Si Si5 0.660478 0.313597 0.954317
Si Si6 0.936923 0.380606 0.699941
Si Si7 0.452782 0.863902 0.902619
Si Si8 0.257182 0.800727 0.633588
O O1 0.698664 0.700982 0.225845
O O2 0.854505 0.773770 0.129028
O O3 0.963855 0.686990 0.116635
O O4 0.722339 0.711209 0.041959
O O5 0.126047 0.843024 0.392986
O O6 0.154930 0.749229 0.382123
O O7 0.920608 0.792161 0.325746
O O8 0.500000 0.049255 0.500000
O O9 0.773846 0.085963 0.501157
O O10 0.654288 0.075336 0.338210
O O11 0.742788 0.000000 0.428632
O O12 0.584944 0.134050 0.626769
O O13 0.711841 0.175088 0.470589
O O14 0.771200 0.356593 0.915370
O O15 0.500000 0.336647 0.000000
O O16 0.986614 0.394836 0.803900
O O17 0.827290 0.334003 0.710420
O O18 0.500000 0.888312 0.000000
#
# Coordination Sequence:
#
# PCOD8093497 Si02
#       8
#     8   8   8   8   8   8   8   8
#     4  10  20  31  45  65  90 137 175 222 262 299
#     4  12  23  33  49  71 107 143 184 217 264 305
#     4   8  16  32  59  87 105 130 167 213 265 319
#     4  10  20  37  53  73 107 137 174 216 261 314
#     4  10  20  31  48  64  95 128 185 232 259 295
#     4  10  19  36  56  75 105 137 176 219 263 317
#     4  10  20  34  49  70 100 135 173 216 270 309
#     4  11  24  33  49  71 103 145 185 220 254 305
#
# _framework density 18.549436
#
# number of rings (size 3 to 8) (size 9 to 14) (size 15 to 20)
#    0.000    1.875    1.250    5.250    5.250    1.000 
#    0.000    0.000    0.000    6.375    0.000    0.000 
#    0.000    0.500    0.000    0.000    0.000    0.000 
#
# Total GULP energy -396550.648032 kJ/mol
# GULP energy per Si atom -12392.207751 kJ/mol
# Density = 1.850722 g / cm^3
# Si number density = 18.549436 Si / 1000 Ang^3
#
#
#
# Elastic Constant Matrix: (Units=GPa)
#
#
# Indices 1 2 3 4 5 6 
#
# 1 81.3242 22.6286 17.3357 0.0000 -5.6502 0.0000
# 2 22.6286 90.8045 29.8071 0.0000 9.0576 0.0000
# 3 17.3357 29.8071 115.8335 0.0000 3.7619 0.0000
# 4 0.0000 0.0000 0.0000 18.2946 0.0000 4.3643
# 5 -5.6502 9.0576 3.7619 0.0000 22.9962 0.0000
# 6 0.0000 0.0000 0.0000 4.3643 0.0000 14.7233
#
#
#
# Elastic Compliance Matrix: (Units=1/GPa)
#
#
# Indices 1 2 3 4 5 6 
#
# 1 0.013913 -0.003530 -0.001337 0.000000 0.005027 0.000000
# 2 -0.003530 0.013353 -0.002723 0.000000 -0.005681 0.000000
# 3 -0.001337 -0.002723 0.009561 0.000000 -0.000820 0.000000
# 4 0.000000 0.000000 0.000000 0.058820 0.000000 -0.017436
# 5 0.005027 -0.005681 -0.000820 0.000000 0.047092 0.000000
# 6 0.000000 0.000000 0.000000 -0.017436 0.000000 0.073088
#
#
# Mechanical properties :
#
#
# Convention : Reuss Voigt Hill
#
# Bulk Modulus (GPa) = 46.19769 47.50054 46.84912
# Shear Modulus (GPa) = 20.98877 25.74888 23.36882
#
# Velocity S-wave (km/s) = 3.36743 3.72979 3.55324
# Velocity P-wave (km/s) = 6.33078 6.64918 6.49193
#
# Compressibility (1/GPa) = 0.02164610
#
# Stress axis : x y z
#
# Youngs Moduli (GPa) = 71.87550 74.89019 104.59576
#
# Poissons Ratio (x) = 0.26434 0.13987
# Poissons Ratio (y) = 0.25370 0.28485
# Poissons Ratio (z) = 0.09611 0.20395
#
# Static dielectric constant tensor:
#      x y z
#    x 3.487300 0.000000 0.062010 
#    y 0.000000 3.258620 0.000000 
#    z 0.062010 0.000000 3.677430 
# 
# 
# High freq. dielectric constant tensor:
#      x y z
#    x 1.715170 0.000000 0.002840 
#    y 0.000000 1.658360 0.000000 
#    z 0.002840 0.000000 1.736970 
# 
# From -- ./inp_files/200565.got.cif
#   From: 2010.06.25/outbox.cif.g09.slc.cpg/sg12_101_cif.got.tgz:200565.got - 2010.06.28 00:19:55.
