data_PCOD8093165
_publ_section_title
;
Structure prediction by ZEFSAII (Michael W. Deem and Ramdas Pophale) SiO2 
 PCOD8093165
Probable space group: C 2/M
;
_chemical_formula_sum "Si O2"
_cell_formula_units_Z 56
_cell_length_a 26.544358
_cell_length_b 17.453918
_cell_length_c 9.244996
_cell_angle_alpha 90.000000
_cell_angle_beta 38.640885
_cell_angle_gamma 90.000000
_cell_volume 2674.610790
_symmetry_space_group_name_H-M "C 2/M"
_symmetry_group_IT_number 12
_symmetry_cell_setting 'monoclinic'
loop_
_space_group_symop_operation_xyz
x,y,z
-x,y,-z
-x,-y,-z
x,-y,z
1/2+x,1/2+y,z
1/2-x,1/2+y,-z
1/2-x,1/2-y,-z
1/2+x,1/2-y,z
loop_
_atom_site_type_symbol
_atom_site_label
_atom_site_fract_x
_atom_site_fract_y
_atom_site_fract_z
Si Si1 0.800143 0.910956 0.616703
Si Si2 0.522928 0.849337 0.106432
Si Si3 0.131506 0.413510 0.445991
Si Si4 0.547753 0.283889 0.248995
Si Si5 0.183357 0.411396 0.637544
Si Si6 0.515562 0.588582 0.798005
Si Si7 0.809361 0.307257 0.940162
O O1 0.770724 0.896804 0.515679
O O2 0.892014 0.884634 0.436022
O O3 0.791307 0.000000 0.674328
O O4 0.741398 0.865395 0.851367
O O5 0.462981 0.916410 0.295461
O O6 0.502019 0.779017 0.257419
O O7 0.500000 0.820454 0.000000
O O8 0.616250 0.874430 0.894979
O O9 0.157936 0.500000 0.344834
O O10 0.181769 0.381605 0.474321
O O11 0.142665 0.357309 0.285564
O O12 0.500000 0.303134 0.500000
O O13 0.547771 0.362692 0.156147
O O14 0.634534 0.247890 0.089114
O O15 0.160598 0.500000 0.680209
O O16 0.502561 0.500000 0.785134
O O17 0.500000 0.602511 0.000000
O O18 0.750000 0.250000 0.000000
#
# Coordination Sequence:
#
# PCOD8093165 Si02
#       7
#     8   8   8   8   8   8   8
#     4  10  21  41  67  93 123 161 209 265 318 374
#     4  10  19  35  59  92 129 165 203 251 305 370
#     4  10  21  38  60  89 128 172 210 251 308 380
#     4  12  23  41  62  94 129 167 209 252 309 378
#     4   9  18  35  62  95 128 162 207 256 310 370
#     4  10  24  47  72  94 119 161 217 271 318 373
#     4  12  25  41  58  90 131 167 206 260 317 375
#
# _framework density 20.937625000000001
#
# number of rings (size 3 to 8) (size 9 to 14) (size 15 to 20)
#    0.000    1.571    2.857    2.143    0.000    3.143 
#    0.000    5.000    0.000    0.000    0.000    0.000 
#    0.000    0.000    0.000    0.000    0.000    0.000 
#
# Total GULP energy -347024.139827 kJ/mol
# GULP energy per Si atom -12393.719280 kJ/mol
# Density = 2.088997 g / cm^3
# Si number density = 20.937625 Si / 1000 Ang^3
#
#
#
# Elastic Constant Matrix: (Units=GPa)
#
#
# Indices 1 2 3 4 5 6 
#
# 1 114.0143 65.7569 47.8665 0.0000 0.5752 0.0000
# 2 65.7569 92.6730 40.9469 0.0000 2.6201 0.0000
# 3 47.8665 40.9469 84.5701 0.0000 3.2038 0.0000
# 4 0.0000 0.0000 0.0000 21.3756 0.0000 -2.2779
# 5 0.5752 2.6201 3.2038 0.0000 26.7605 0.0000
# 6 0.0000 0.0000 0.0000 -2.2779 0.0000 30.4758
#
#
#
# Elastic Compliance Matrix: (Units=1/GPa)
#
#
# Indices 1 2 3 4 5 6 
#
# 1 0.016155 -0.009459 -0.004606 0.000000 0.001130 0.000000
# 2 -0.009459 0.019274 -0.003932 0.000000 -0.001213 0.000000
# 3 -0.004606 -0.003932 0.016392 0.000000 -0.001478 0.000000
# 4 0.000000 0.000000 0.000000 0.047158 0.000000 0.003525
# 5 0.001130 -0.001213 -0.001478 0.000000 0.037640 0.000000
# 6 0.000000 0.000000 0.000000 0.003525 0.000000 0.033076
#
#
# Mechanical properties :
#
#
# Convention : Reuss Voigt Hill
#
# Bulk Modulus (GPa) = 63.19233 66.71088 64.95160
# Shear Modulus (GPa) = 23.70056 24.83484 24.26770
#
# Velocity S-wave (km/s) = 3.36811 3.44777 3.40817
# Velocity P-wave (km/s) = 6.73590 6.91233 6.82469
#
# Compressibility (1/GPa) = 0.01582471
#
# Stress axis : x y z
#
# Youngs Moduli (GPa) = 61.90201 51.88257 61.00696
#
# Poissons Ratio (x) = 0.49077 0.28102
# Poissons Ratio (y) = 0.58555 0.23990
# Poissons Ratio (z) = 0.28514 0.20402
#
# Static dielectric constant tensor:
#      x y z
#    x 4.379770 0.000000 0.260720 
#    y 0.000000 3.799140 0.000000 
#    z 0.260720 0.000000 3.810740 
# 
# 
# High freq. dielectric constant tensor:
#      x y z
#    x 1.829120 0.000000 0.007780 
#    y 0.000000 1.816260 0.000000 
#    z 0.007780 0.000000 1.811600 
# 
# From -- ./inp_files/105968.got.cif
#   From: 2010.06.25/outbox.cif.g09.slc.cpg/sg12_53_cif.got.tgz:105968.got - 2010.06.28 00:19:55.
