data_PCOD8093937
_publ_section_title
;
Structure prediction by ZEFSAII (Michael W. Deem and Ramdas Pophale) SiO2 
 PCOD8093937
Probable space group: C 2/M
;
_chemical_formula_sum "Si O2"
_cell_formula_units_Z 64
_cell_length_a 16.268830
_cell_length_b 8.918814
_cell_length_c 32.996551
_cell_angle_alpha 90.000000
_cell_angle_beta 41.999205
_cell_angle_gamma 90.000000
_cell_volume 3203.584455
_symmetry_space_group_name_H-M "C 2/M"
_symmetry_group_IT_number 12
_symmetry_cell_setting 'monoclinic'
loop_
_space_group_symop_operation_xyz
x,y,z
-x,y,-z
-x,-y,-z
x,-y,z
1/2+x,1/2+y,z
1/2-x,1/2+y,-z
1/2-x,1/2-y,-z
1/2+x,1/2-y,z
loop_
_atom_site_type_symbol
_atom_site_label
_atom_site_fract_x
_atom_site_fract_y
_atom_site_fract_z
Si Si1 0.739527 0.829174 0.623264
Si Si2 0.359850 0.323314 0.862798
Si Si3 0.544024 0.678010 0.862280
Si Si4 0.339058 0.674142 0.498488
Si Si5 0.469842 0.828202 0.749813
Si Si6 0.604113 0.677120 0.930255
Si Si7 0.699781 0.823106 0.260044
Si Si8 0.586459 0.824760 0.383213
O O1 0.785727 0.790151 0.561865
O O2 0.594154 0.806846 0.679137
O O3 0.796373 0.706713 0.632054
O O4 0.776573 0.000000 0.621429
O O5 0.339379 0.500000 0.869354
O O6 0.417734 0.273041 0.885514
O O7 0.461434 0.276956 0.792199
O O8 0.231329 0.244805 0.899974
O O9 0.548646 0.500000 0.862735
O O10 0.558571 0.740032 0.903035
O O11 0.660125 0.736933 0.793131
O O12 0.343389 0.500000 0.487746
O O13 0.250000 0.750000 0.500000
O O14 0.474443 0.738398 0.444385
O O15 0.361045 0.777218 0.759982
O O16 0.452919 0.000000 0.769941
O O17 0.623865 0.500000 0.920781
O O18 0.500000 0.724036 0.000000
O O19 0.621729 0.756934 0.326178
O O20 0.698573 0.000000 0.266525
O O21 0.554849 0.000000 0.393172
#
# Coordination Sequence:
#
# PCOD8093937 Si02
#       8
#     8   8   8   8   8   8   8   8
#     4  10  22  38  56  81 113 150 191 239 295 349
#     4  11  22  36  58  90 124 156 191 243 305 352
#     4   9  18  35  59  85 118 157 194 236 293 351
#     4  11  23  40  59  79 108 147 191 240 297 356
#     4  10  19  36  61  83 111 153 198 241 283 343
#     4  10  21  40  65  88 114 158 208 240 276 350
#     4   9  17  33  58  82 110 152 195 234 285 348
#     4  11  22  36  57  84 112 149 193 236 291 358
#
# _framework density 19.977622
#
# number of rings (size 3 to 8) (size 9 to 14) (size 15 to 20)
#    0.000    1.875    1.250    3.000    0.000    6.750 
#    0.000    3.750    0.000    0.000    0.000    0.000 
#    0.000    0.000    0.000    0.000    0.000    0.000 
#
# Total GULP energy -396700.278431 kJ/mol
# GULP energy per Si atom -12396.883701 kJ/mol
# Density = 1.993215 g / cm^3
# Si number density = 19.977622 Si / 1000 Ang^3
#
#
#
# Elastic Constant Matrix: (Units=GPa)
#
#
# Indices 1 2 3 4 5 6 
#
# 1 137.0084 28.9455 58.8321 0.0008 3.2303 0.0030
# 2 28.9455 36.0136 29.2255 0.0044 7.1493 0.0069
# 3 58.8321 29.2255 138.4414 0.0005 3.7178 0.0017
# 4 0.0008 0.0044 0.0005 24.6954 0.0002 -3.2246
# 5 3.2303 7.1493 3.7178 0.0002 25.3763 0.0009
# 6 0.0030 0.0069 0.0017 -3.2246 0.0009 33.5725
#
#
#
# Elastic Compliance Matrix: (Units=1/GPa)
#
#
# Indices 1 2 3 4 5 6 
#
# 1 0.009736 -0.005554 -0.002986 0.000001 0.000763 0.000000
# 2 -0.005554 0.038577 -0.005532 -0.000007 -0.009351 -0.000008
# 3 -0.002986 -0.005532 0.009646 0.000001 0.000526 0.000001
# 4 0.000001 -0.000007 0.000001 0.041008 0.000001 0.003939
# 5 0.000763 -0.009351 0.000526 0.000001 0.041867 0.000001
# 6 0.000000 -0.000008 0.000001 0.003939 0.000001 0.030165
#
#
# Mechanical properties :
#
#
# Convention : Reuss Voigt Hill
#
# Bulk Modulus (GPa) = 33.53980 60.60773 47.07376
# Shear Modulus (GPa) = 23.91415 29.69285 26.80350
#
# Velocity S-wave (km/s) = 3.46359 3.85945 3.66686
# Velocity P-wave (km/s) = 5.72891 7.08972 6.44533
#
# Compressibility (1/GPa) = 0.02981533
#
# Stress axis : x y z
#
# Youngs Moduli (GPa) = 102.70931 25.92201 103.67199
#
# Poissons Ratio (x) = 0.14397 0.30951
# Poissons Ratio (y) = 0.57045 0.57356
# Poissons Ratio (z) = 0.30664 0.14341
#
# Static dielectric constant tensor:
#      x y z
#    x 3.787260 -0.000010 0.117240 
#    y -0.000010 3.373520 0.000000 
#    z 0.117240 0.000000 3.705490 
# 
# 
# High freq. dielectric constant tensor:
#      x y z
#    x 1.792630 0.000000 -0.000370 
#    y 0.000000 1.748370 0.000000 
#    z -0.000370 0.000000 1.789960 
# 
# From -- ./inp_files/375365.got.cif
#   From: 2010.06.25/outbox.cif.g09.slc.cpg/sg12_188_cif.got.tgz:375365.got - 2010.06.28 00:19:55.
