data_PCOD8093316
_publ_section_title
;
Structure prediction by ZEFSAII (Michael W. Deem and Ramdas Pophale) SiO2 
 PCOD8093316
Probable space group: C 2/M
;
_chemical_formula_sum "Si O2"
_cell_formula_units_Z 56
_cell_length_a 26.781738
_cell_length_b 12.838956
_cell_length_c 12.218696
_cell_angle_alpha 90.000000
_cell_angle_beta 141.153316
_cell_angle_gamma 90.000000
_cell_volume 2635.275982
_symmetry_space_group_name_H-M "C 2/M"
_symmetry_group_IT_number 12
_symmetry_cell_setting 'monoclinic'
loop_
_space_group_symop_operation_xyz
x,y,z
-x,y,-z
-x,-y,-z
x,-y,z
1/2+x,1/2+y,z
1/2-x,1/2+y,-z
1/2-x,1/2-y,-z
1/2+x,1/2-y,z
loop_
_atom_site_type_symbol
_atom_site_label
_atom_site_fract_x
_atom_site_fract_y
_atom_site_fract_z
Si Si1 0.839604 0.738013 0.117865
Si Si2 0.136168 0.618012 0.060126
Si Si3 0.572589 0.621922 0.878820
Si Si4 0.629649 0.121506 0.619177
Si Si5 0.676934 0.875499 0.363538
Si Si6 0.467213 0.806663 0.743395
Si Si7 0.778039 0.877107 0.732075
O O1 0.885940 0.845694 0.166379
O O2 0.887133 0.681324 0.296141
O O3 0.750000 0.750000 0.000000
O O4 0.836255 0.672085 0.002127
O O5 0.161099 0.500000 0.090448
O O6 0.184560 0.661807 0.250120
O O7 0.041909 0.629576 0.918064
O O8 0.552938 0.500000 0.844949
O O9 0.491707 0.685591 0.763749
O O10 0.633862 0.658481 0.080519
O O11 0.556511 0.142952 0.413131
O O12 0.710836 0.164839 0.701557
O O13 0.635146 0.000000 0.655668
O O14 0.603017 0.813821 0.289512
O O15 0.756548 0.846212 0.569203
O O16 0.659802 0.000000 0.341414
O O17 0.775083 0.000000 0.738291
#
# Coordination Sequence:
#
# PCOD8093316 Si02
#       7
#     8   8   8   8   8   8   8
#     4  11  22  36  57  84 118 151 198 240 289 342
#     4  10  20  33  55  89 122 149 182 237 303 351
#     4  10  21  37  56  82 115 155 200 238 282 341
#     4  10  19  35  61  88 114 147 188 241 295 345
#     4   9  17  33  60  90 120 146 180 237 302 354
#     4  10  20  34  57  89 116 149 191 232 290 354
#     4   8  15  31  57  83 109 149 191 230 281 342
#
# _framework density 21.250146000000001
#
# number of rings (size 3 to 8) (size 9 to 14) (size 15 to 20)
#    0.000    2.286    1.429    3.000    0.000    4.000 
#    0.000    7.857    3.143    6.857    0.000    0.000 
#    0.000    0.000    0.000    0.000    0.000    0.000 
#
# Total GULP energy -347065.085172 kJ/mol
# GULP energy per Si atom -12395.181613 kJ/mol
# Density = 2.120178 g / cm^3
# Si number density = 21.250146 Si / 1000 Ang^3
#
#
#
# Elastic Constant Matrix: (Units=GPa)
#
#
# Indices 1 2 3 4 5 6 
#
# 1 63.0101 1.5760 32.2526 0.0000 -23.2352 0.0000
# 2 1.5760 45.3789 21.7508 0.0000 -16.5531 0.0000
# 3 32.2526 21.7508 107.4943 0.0000 -28.7466 0.0000
# 4 0.0000 0.0000 0.0000 38.0930 0.0000 -4.0091
# 5 -23.2352 -16.5531 -28.7466 0.0000 40.4352 0.0000
# 6 0.0000 0.0000 0.0000 -4.0091 0.0000 8.5323
#
#
#
# Elastic Compliance Matrix: (Units=1/GPa)
#
#
# Indices 1 2 3 4 5 6 
#
# 1 0.022582 0.005872 -0.004755 0.000000 0.012000 0.000000
# 2 0.005872 0.028224 -0.004298 0.000000 0.011873 0.000000
# 3 -0.004755 -0.004298 0.012839 0.000000 0.004636 0.000000
# 4 0.000000 0.000000 0.000000 0.027617 0.000000 0.012977
# 5 0.012000 0.011873 0.004636 0.000000 0.039783 0.000000
# 6 0.000000 0.000000 0.000000 0.012977 0.000000 0.123300
#
#
# Mechanical properties :
#
#
# Convention : Reuss Voigt Hill
#
# Bulk Modulus (GPa) = 17.45676 36.33801 26.89738
# Shear Modulus (GPa) = 17.86991 28.09902 22.98446
#
# Velocity S-wave (km/s) = 2.90303 3.64029 3.29236
# Velocity P-wave (km/s) = 4.41242 5.89967 5.20940
#
# Compressibility (1/GPa) = 0.05728439
#
# Stress axis : x y z
#
# Youngs Moduli (GPa) = 44.28224 35.43132 77.88908
#
# Poissons Ratio (x) = -0.20805 0.37034
# Poissons Ratio (y) = -0.26003 0.33473
# Poissons Ratio (z) = 0.21055 0.15227
#
# Static dielectric constant tensor:
#      x y z
#    x 3.693710 0.000000 -0.208870 
#    y 0.000000 3.963440 0.000000 
#    z -0.208870 0.000000 4.329750 
# 
# 
# High freq. dielectric constant tensor:
#      x y z
#    x 1.812250 0.000000 -0.014100 
#    y 0.000000 1.837300 0.000000 
#    z -0.014100 0.000000 1.845000 
# 
# From -- ./inp_files/189226.got.cif
#   From: 2010.06.25/outbox.cif.g09.slc.cpg/sg12_95_cif.got.tgz:189226.got - 2010.06.28 00:19:55.
