data_PCOD8093591
_publ_section_title
;
Structure prediction by ZEFSAII (Michael W. Deem and Ramdas Pophale) SiO2 
 PCOD8093591
Probable space group: C 2/M
;
_chemical_formula_sum "Si O2"
_cell_formula_units_Z 64
_cell_length_a 29.889523
_cell_length_b 8.843937
_cell_length_c 14.825972
_cell_angle_alpha 90.000000
_cell_angle_beta 60.852678
_cell_angle_gamma 90.000000
_cell_volume 3422.836809
_symmetry_space_group_name_H-M "C 2/M"
_symmetry_group_IT_number 12
_symmetry_cell_setting 'monoclinic'
loop_
_space_group_symop_operation_xyz
x,y,z
-x,y,-z
-x,-y,-z
x,-y,z
1/2+x,1/2+y,z
1/2-x,1/2+y,-z
1/2-x,1/2-y,-z
1/2+x,1/2-y,z
loop_
_atom_site_type_symbol
_atom_site_label
_atom_site_fract_x
_atom_site_fract_y
_atom_site_fract_z
Si Si1 0.604918 0.679307 0.728821
Si Si2 0.170400 0.820734 0.832523
Si Si3 0.712380 0.820673 0.296700
Si Si4 0.635893 0.321524 0.502763
Si Si5 0.994947 0.822612 0.900095
Si Si6 0.942214 0.674620 0.549560
Si Si7 0.136341 0.674032 0.222748
Si Si8 0.890190 0.320076 0.945910
O O1 0.605816 0.500000 0.730441
O O2 0.640009 0.741317 0.775548
O O3 0.628027 0.739406 0.612270
O O4 0.546431 0.733758 0.799432
O O5 0.229070 0.769963 0.764994
O O6 0.164780 0.000000 0.848435
O O7 0.147925 0.743319 0.942447
O O8 0.686937 0.753071 0.411767
O O9 0.682883 0.756034 0.236768
O O10 0.705807 0.000000 0.309030
O O11 0.642693 0.500000 0.494261
O O12 0.585626 0.276586 0.496768
O O13 0.948026 0.733232 0.903471
O O14 0.985047 0.000000 0.896637
O O15 0.000000 0.782458 0.000000
O O16 0.938936 0.500000 0.522046
O O17 0.916767 0.697339 0.672118
O O18 0.000000 0.732192 0.500000
O O19 0.149229 0.500000 0.195967
O O20 0.130237 0.746901 0.129782
O O21 0.889684 0.500000 0.947826
#
# Coordination Sequence:
#
# PCOD8093591 Si02
#       8
#     8   8   8   8   8   8   8   8
#     4   9  19  35  54  79 109 142 176 217 266 314
#     4  10  20  38  60  78 101 142 188 218 256 321
#     4   9  19  38  61  78 101 141 185 221 257 318
#     4  10  20  34  53  79 112 140 169 221 276 314
#     4  10  19  36  58  74 103 147 184 215 255 317
#     4   9  18  34  55  75 102 143 184 217 256 316
#     4   8  17  34  51  75 109 140 170 215 269 310
#     4  11  22  34  52  81 114 139 171 223 274 313
#
# _framework density 18.697941
#
# number of rings (size 3 to 8) (size 9 to 14) (size 15 to 20)
#    0.000    2.500    1.250    1.500    1.750    2.000 
#    0.000    6.875    0.000    0.000    0.000    0.000 
#    0.000    0.000    0.000    0.000    0.000    0.000 
#
# Total GULP energy -396761.605393 kJ/mol
# GULP energy per Si atom -12398.800169 kJ/mol
# Density = 1.865538 g / cm^3
# Si number density = 18.697941 Si / 1000 Ang^3
#
#
#
# Elastic Constant Matrix: (Units=GPa)
#
#
# Indices 1 2 3 4 5 6 
#
# 1 107.5060 28.3198 93.7093 0.0000 -21.1672 0.0000
# 2 28.3198 32.3633 36.8249 0.0000 -1.5685 0.0000
# 3 93.7093 36.8249 170.3932 0.0000 3.3748 0.0000
# 4 0.0000 0.0000 0.0000 28.0054 0.0000 -2.3861
# 5 -21.1672 -1.5685 3.3748 0.0000 36.4059 0.0000
# 6 0.0000 0.0000 0.0000 -2.3861 0.0000 20.8345
#
#
#
# Elastic Compliance Matrix: (Units=1/GPa)
#
#
# Indices 1 2 3 4 5 6 
#
# 1 0.025265 -0.006886 -0.012715 0.000000 0.015571 0.000000
# 2 -0.006886 0.043098 -0.005495 0.000000 -0.001637 0.000000
# 3 -0.012715 -0.005495 0.014226 0.000000 -0.008948 0.000000
# 4 0.000000 0.000000 0.000000 0.036059 0.000000 0.004130
# 5 0.015571 -0.001637 -0.008948 0.000000 0.037281 0.000000
# 6 0.000000 0.000000 0.000000 0.004130 0.000000 0.048470
#
#
# Mechanical properties :
#
#
# Convention : Reuss Voigt Hill
#
# Bulk Modulus (GPa) = 30.86641 69.77451 50.32046
# Shear Modulus (GPa) = 18.84030 27.14304 22.99167
#
# Velocity S-wave (km/s) = 3.17774 3.81420 3.51042
# Velocity P-wave (km/s) = 5.47793 7.53626 6.58798
#
# Compressibility (1/GPa) = 0.03239768
#
# Stress axis : x y z
#
# Youngs Moduli (GPa) = 39.58106 23.20311 70.29311
#
# Poissons Ratio (x) = 0.15977 0.89376
# Poissons Ratio (y) = 0.27255 0.38625
# Poissons Ratio (z) = 0.50326 0.12750
#
# Static dielectric constant tensor:
#      x y z
#    x 3.691800 0.000000 0.065110 
#    y 0.000000 3.124500 0.000000 
#    z 0.065110 0.000000 3.637090 
# 
# 
# High freq. dielectric constant tensor:
#      x y z
#    x 1.732960 0.000000 -0.000740 
#    y 0.000000 1.695880 0.000000 
#    z -0.000740 0.000000 1.736090 
# 
# From -- ./inp_files/249076.got.cif
#   From: 2010.06.25/outbox.cif.g09.slc.cpg/sg12_125_cif.got.tgz:249076.got - 2010.06.28 00:19:55.
