data_PCOD8093111
_publ_section_title
;
Structure prediction by ZEFSAII (Michael W. Deem and Ramdas Pophale) SiO2 
 PCOD8093111
Probable space group: C 2/M
;
_chemical_formula_sum "Si O2"
_cell_formula_units_Z 56
_cell_length_a 29.668874
_cell_length_b 9.273834
_cell_length_c 11.538823
_cell_angle_alpha 90.000000
_cell_angle_beta 64.420739
_cell_angle_gamma 90.000000
_cell_volume 2863.670665
_symmetry_space_group_name_H-M "C 2/M"
_symmetry_group_IT_number 12
_symmetry_cell_setting 'monoclinic'
loop_
_space_group_symop_operation_xyz
x,y,z
-x,y,-z
-x,-y,-z
x,-y,z
1/2+x,1/2+y,z
1/2-x,1/2+y,-z
1/2-x,1/2-y,-z
1/2+x,1/2-y,z
loop_
_atom_site_type_symbol
_atom_site_label
_atom_site_fract_x
_atom_site_fract_y
_atom_site_fract_z
Si Si1 0.009258 0.332649 0.358962
Si Si2 0.441837 0.165364 0.070659
Si Si3 0.892377 0.334013 0.881546
Si Si4 0.682464 0.334220 0.515025
Si Si5 0.734829 0.332004 0.691185
Si Si6 0.572970 0.667265 0.691773
Si Si7 0.793511 0.828976 0.020111
O O1 0.996164 0.500000 0.354717
O O2 0.066858 0.302288 0.263427
O O3 0.000000 0.282399 0.500000
O O4 0.973391 0.243724 0.316076
O O5 0.416741 0.267946 0.193077
O O6 0.432840 0.000000 0.116344
O O7 0.500000 0.200916 0.000000
O O8 0.417402 0.202732 0.975809
O O9 0.874501 0.500000 0.896241
O O10 0.845776 0.229358 0.912197
O O11 0.696847 0.500000 0.481720
O O12 0.698052 0.284922 0.627841
O O13 0.711691 0.245056 0.384898
O O14 0.623543 0.308291 0.562103
O O15 0.746138 0.500000 0.678007
O O16 0.710391 0.286182 0.840059
O O17 0.560381 0.500000 0.718997
O O18 0.790239 0.000000 0.003926
O O19 0.750000 0.750000 0.000000
#
# Coordination Sequence:
#
# PCOD8093111 Si02
#       7
#     8   8   8   8   8   8   8
#     4  10  22  41  61  80 111 155 198 238 283 344
#     4  10  19  35  59  86 119 153 190 237 285 343
#     4  10  21  39  62  88 117 150 192 242 292 342
#     4   9  19  35  56  84 117 147 180 230 289 342
#     4   9  19  37  58  81 111 147 189 234 281 339
#     4  11  22  35  55  86 121 152 188 236 289 347
#     4  11  24  41  61  85 116 153 196 242 290 345
#
# _framework density 19.555322
#
# number of rings (size 3 to 8) (size 9 to 14) (size 15 to 20)
#    0.000    2.000    1.429    1.714    0.000    6.286 
#    0.000    7.143    0.000    0.000    0.000    0.000 
#    0.000    0.000    0.000    0.000    0.000    0.000 
#
# Total GULP energy -347289.042374 kJ/mol
# GULP energy per Si atom -12403.180085 kJ/mol
# Density = 1.951081 g / cm^3
# Si number density = 19.555322 Si / 1000 Ang^3
#
#
#
# Elastic Constant Matrix: (Units=GPa)
#
#
# Indices 1 2 3 4 5 6 
#
# 1 92.9720 44.3533 37.4150 0.0000 -15.3472 0.0000
# 2 44.3533 72.5538 49.1752 0.0000 -8.3913 0.0000
# 3 37.4150 49.1752 117.5120 0.0000 -7.8438 0.0000
# 4 0.0000 0.0000 0.0000 30.1762 0.0000 -8.4236
# 5 -15.3472 -8.3913 -7.8438 0.0000 24.8608 0.0000
# 6 0.0000 0.0000 0.0000 -8.4236 0.0000 31.0781
#
#
#
# Elastic Compliance Matrix: (Units=1/GPa)
#
#
# Indices 1 2 3 4 5 6 
#
# 1 0.016395 -0.008374 -0.001255 0.000000 0.006898 0.000000
# 2 -0.008374 0.023922 -0.007304 0.000000 0.000601 0.000000
# 3 -0.001255 -0.007304 0.012003 0.000000 0.000546 0.000000
# 4 0.000000 0.000000 0.000000 0.035851 0.000000 0.009717
# 5 0.006898 0.000601 0.000546 0.000000 0.044858 0.000000
# 6 0.000000 0.000000 0.000000 0.009717 0.000000 0.034811
#
#
# Mechanical properties :
#
#
# Convention : Reuss Voigt Hill
#
# Bulk Modulus (GPa) = 54.19341 60.54720 57.37031
# Shear Modulus (GPa) = 24.05504 27.36263 25.70884
#
# Velocity S-wave (km/s) = 3.51109 3.74470 3.62977
# Velocity P-wave (km/s) = 6.64906 7.05169 6.85333
#
# Compressibility (1/GPa) = 0.01845243
#
# Stress axis : x y z
#
# Youngs Moduli (GPa) = 60.99585 41.80252 83.31504
#
# Poissons Ratio (x) = 0.35004 0.10459
# Poissons Ratio (y) = 0.51075 0.60857
# Poissons Ratio (z) = 0.07657 0.30534
#
# Static dielectric constant tensor:
#      x y z
#    x 3.574000 0.000000 -0.089470 
#    y 0.000000 3.497210 0.000000 
#    z -0.089470 0.000000 3.741690 
# 
# 
# High freq. dielectric constant tensor:
#      x y z
#    x 1.758590 0.000000 -0.008900 
#    y 0.000000 1.758550 0.000000 
#    z -0.008900 0.000000 1.765540 
# 
# From -- ./inp_files/186365.got.cif
#   From: 2010.06.25/outbox.cif.g09.slc.cpg/sg12_94_cif.got.tgz:186365.got - 2010.06.28 00:19:55.
