data_PCOD8093579
_publ_section_title
;
Structure prediction by ZEFSAII (Michael W. Deem and Ramdas Pophale) SiO2 
 PCOD8093579
Probable space group: C 2/M
;
_chemical_formula_sum "Si O2"
_cell_formula_units_Z 64
_cell_length_a 30.279854
_cell_length_b 19.715030
_cell_length_c 9.796875
_cell_angle_alpha 90.000000
_cell_angle_beta 36.371835
_cell_angle_gamma 90.000000
_cell_volume 3468.250316
_symmetry_space_group_name_H-M "C 2/M"
_symmetry_group_IT_number 12
_symmetry_cell_setting 'monoclinic'
loop_
_space_group_symop_operation_xyz
x,y,z
-x,y,-z
-x,-y,-z
x,-y,z
1/2+x,1/2+y,z
1/2-x,1/2+y,-z
1/2-x,1/2-y,-z
1/2+x,1/2-y,z
loop_
_atom_site_type_symbol
_atom_site_label
_atom_site_fract_x
_atom_site_fract_y
_atom_site_fract_z
Si Si1 0.797051 0.576339 0.720786
Si Si2 0.710573 0.077455 0.947014
Si Si3 0.201875 0.821040 0.775891
Si Si4 0.945886 0.764775 0.248136
Si Si5 0.788096 0.817150 0.567086
Si Si6 0.944152 0.625973 0.752138
Si Si7 0.541758 0.890069 0.768017
Si Si8 0.455825 0.718518 0.737899
O O1 0.764926 0.500000 0.788542
O O2 0.750467 0.625344 0.738862
O O3 0.883811 0.571635 0.462598
O O4 0.790626 0.603345 0.892625
O O5 0.765564 0.120401 0.717205
O O6 0.737233 0.000000 0.875588
O O7 0.630109 0.083278 0.079247
O O8 0.207048 0.839561 0.603078
O O9 0.230982 0.744904 0.727036
O O10 0.116122 0.825491 0.039904
O O11 0.867053 0.799033 0.431868
O O12 0.933057 0.685393 0.254097
O O13 0.981034 0.780176 0.305500
O O14 0.000000 0.795953 0.000000
O O15 0.927516 0.705793 0.773975
O O16 0.000000 0.598731 0.500000
O O17 0.978512 0.609984 0.811932
O O18 0.500000 0.925262 0.000000
O O19 0.500000 0.685978 0.500000
#
# Coordination Sequence:
#
# PCOD8093579 Si02
#       8
#     8   8   8   8   8   8   8   8
#     4  11  25  42  57  84 126 166 202 246 298 353
#     4  11  25  41  59  85 122 167 206 245 293 351
#     4  11  23  39  61  92 122 155 199 250 302 355
#     4  10  19  36  58  88 121 152 192 250 299 347
#     4  11  23  38  64  90 119 158 202 249 298 353
#     4  10  19  36  57  85 122 160 201 239 281 352
#     4  10  21  34  58  87 122 159 198 237 291 356
#     4  10  21  34  58  92 121 149 194 246 301 354
#
# _framework density 18.453109000000001
#
# number of rings (size 3 to 8) (size 9 to 14) (size 15 to 20)
#    0.000    1.500    5.000    0.000    3.500    2.000 
#    0.000    0.000    0.000    1.500    0.000    0.000 
#    0.000    0.000    0.000    0.000    0.000    0.000 
#
# Total GULP energy -396795.056786 kJ/mol
# GULP energy per Si atom -12399.845525 kJ/mol
# Density = 1.841111 g / cm^3
# Si number density = 18.453109 Si / 1000 Ang^3
#
#
#
# Elastic Constant Matrix: (Units=GPa)
#
#
# Indices 1 2 3 4 5 6 
#
# 1 88.4889 41.1294 55.3780 0.0000 5.0640 0.0000
# 2 41.1294 64.4478 41.3957 0.0000 6.5550 0.0000
# 3 55.3780 41.3957 143.0386 0.0000 14.0581 0.0000
# 4 0.0000 0.0000 0.0000 -1.8497 0.0000 -38.9151
# 5 5.0640 6.5550 14.0581 0.0000 35.4966 0.0000
# 6 0.0000 0.0000 0.0000 -38.9151 0.0000 -44.1384
#
#
#
# Elastic Compliance Matrix: (Units=1/GPa)
#
#
# Indices 1 2 3 4 5 6 
#
# 1 0.018193 -0.008744 -0.004595 0.000000 0.000839 0.000000
# 2 -0.008744 0.023328 -0.003189 0.000000 -0.001797 0.000000
# 3 -0.004595 -0.003189 0.009959 0.000000 -0.002699 0.000000
# 4 0.000000 0.000000 0.000000 0.030807 0.000000 -0.027161
# 5 0.000839 -0.001797 -0.002699 0.000000 0.029453 0.000000
# 6 0.000000 0.000000 0.000000 -0.027161 0.000000 0.001291
#
#
# Mechanical properties :
#
#
# Convention : Reuss Voigt Hill
#
# Bulk Modulus (GPa) = 54.28264 63.53128 58.90696
# Shear Modulus (GPa) = 32.84535 8.43986 20.64261
#
# Velocity S-wave (km/s) = 4.22351 2.14094 3.34825
# Velocity P-wave (km/s) = 7.29825 6.37297 6.85124
#
# Compressibility (1/GPa) = 0.01842209
#
# Stress axis : x y z
#
# Youngs Moduli (GPa) = 54.96642 42.86682 100.41646
#
# Poissons Ratio (x) = 0.37483 0.46145
# Poissons Ratio (y) = 0.48063 0.32025
# Poissons Ratio (z) = 0.25259 0.13671
#
# Static dielectric constant tensor:
#      x y z
#    x 3.405260 0.000000 0.163210 
#    y 0.000000 3.136290 0.000000 
#    z 0.163210 0.000000 3.539490 
# 
# 
# High freq. dielectric constant tensor:
#      x y z
#    x 1.726110 0.000000 0.008540 
#    y 0.000000 1.681880 0.000000 
#    z 0.008540 0.000000 1.728400 
# 
# From -- ./inp_files/99065.got.cif
#   From: 2010.06.25/outbox.cif.g09.slc.cpg/sg12_50_cif.got.tgz:99065.got - 2010.06.28 00:19:55.
