data_PCOD8093825
_publ_section_title
;
Structure prediction by ZEFSAII (Michael W. Deem and Ramdas Pophale) SiO2 
 PCOD8093825
Probable space group: C 2/M
;
_chemical_formula_sum "Si O2"
_cell_formula_units_Z 48
_cell_length_a 23.888028
_cell_length_b 22.817566
_cell_length_c 8.141441
_cell_angle_alpha 90.000000
_cell_angle_beta 32.274054
_cell_angle_gamma 90.000000
_cell_volume 2369.558118
_symmetry_space_group_name_H-M "C 2/M"
_symmetry_group_IT_number 12
_symmetry_cell_setting 'monoclinic'
loop_
_space_group_symop_operation_xyz
x,y,z
-x,y,-z
-x,-y,-z
x,-y,z
1/2+x,1/2+y,z
1/2-x,1/2+y,-z
1/2-x,1/2-y,-z
1/2+x,1/2-y,z
loop_
_atom_site_type_symbol
_atom_site_label
_atom_site_fract_x
_atom_site_fract_y
_atom_site_fract_z
Si Si1 0.403094 0.858863 0.640102
Si Si2 0.798558 0.128297 0.254917
Si Si3 0.489712 0.566904 0.220002
Si Si4 0.201118 0.856339 0.366405
Si Si5 0.291430 0.229082 0.721566
Si Si6 0.409173 0.067725 0.340099
O O1 0.500000 0.833909 0.500000
O O2 0.386460 0.814468 0.527869
O O3 0.432565 0.919542 0.475353
O O4 0.305195 0.865605 0.002948
O O5 0.778814 0.124807 0.498041
O O6 0.792106 0.193566 0.187274
O O7 0.707878 0.089271 0.404095
O O8 0.911812 0.098977 0.936852
O O9 0.478503 0.500000 0.314797
O O10 0.386410 0.605623 0.512409
O O11 0.500000 0.565671 0.000000
O O12 0.168008 0.787906 0.466577
O O13 0.250000 0.250000 0.000000
O O14 0.409816 0.000000 0.304385
O O15 0.500000 0.096685 0.000000
#
# Coordination Sequence:
#
# PCOD8093825 Si02
#       6
#     8   8   8   8   8   8
#     4  10  21  37  55  79 111 145 184 234 287 336
#     4  10  19  36  60  83 111 149 191 232 280 339
#     4   9  19  35  56  84 116 149 187 233 284 339
#     4  10  20  35  57  85 113 145 188 234 283 337
#     4   9  20  36  54  81 114 147 185 232 284 337
#     4  10  21  37  56  80 110 145 186 231 283 342
#
# _framework density 20.256941000000001
#
# number of rings (size 3 to 8) (size 9 to 14) (size 15 to 20)
#    0.000    2.333    0.000    2.000    0.000    4.333 
#    0.000   18.333    0.000   10.000    0.000    0.000 
#    0.000    0.000    0.000    0.000    0.000    0.000 
#
# Total GULP energy -297361.617731 kJ/mol
# GULP energy per Si atom -12390.067405 kJ/mol
# Density = 2.021084 g / cm^3
# Si number density = 20.256941 Si / 1000 Ang^3
#
#
#
# Elastic Constant Matrix: (Units=GPa)
#
#
# Indices 1 2 3 4 5 6 
#
# 1 96.3161 38.5375 38.6438 0.0000 -16.3748 0.0000
# 2 38.5375 124.2175 46.4504 0.0000 -17.8043 0.0000
# 3 38.6438 46.4504 111.3834 0.0001 -17.9471 0.0000
# 4 0.0000 0.0000 0.0001 28.1661 0.0000 -1.1947
# 5 -16.3748 -17.8043 -17.9471 0.0000 37.1171 0.0000
# 6 0.0000 0.0000 0.0000 -1.1947 0.0000 21.2407
#
#
#
# Elastic Compliance Matrix: (Units=1/GPa)
#
#
# Indices 1 2 3 4 5 6 
#
# 1 0.013121 -0.002497 -0.003005 0.000000 0.003138 0.000000
# 2 -0.002497 0.010305 -0.003050 0.000000 0.002367 0.000000
# 3 -0.003005 -0.003050 0.011759 0.000000 0.002897 0.000000
# 4 0.000000 0.000000 0.000000 0.035589 0.000000 0.002002
# 5 0.003138 0.002367 0.002897 0.000000 0.030862 0.000000
# 6 0.000000 0.000000 0.000000 0.002002 0.000000 0.047192
#
#
# Mechanical properties :
#
#
# Convention : Reuss Voigt Hill
#
# Bulk Modulus (GPa) = 55.30763 64.35339 59.83051
# Shear Modulus (GPa) = 29.07678 31.19047 30.13362
#
# Velocity S-wave (km/s) = 3.79278 3.92821 3.86109
# Velocity P-wave (km/s) = 6.82221 7.23961 7.03401
#
# Compressibility (1/GPa) = 0.01808069
#
# Stress axis : x y z
#
# Youngs Moduli (GPa) = 76.21489 97.04258 85.03899
#
# Poissons Ratio (x) = 0.24233 0.25556
# Poissons Ratio (y) = 0.19032 0.25934
# Poissons Ratio (z) = 0.22905 0.29595
#
# Static dielectric constant tensor:
#      x y z
#    x 3.848320 0.000000 -0.020910 
#    y 0.000000 4.378170 0.000000 
#    z -0.020910 0.000000 3.648410 
# 
# 
# High freq. dielectric constant tensor:
#      x y z
#    x 1.798300 0.000000 -0.002440 
#    y 0.000000 1.796230 0.000000 
#    z -0.002440 0.000000 1.776640 
# 
# From -- ./inp_files/99755.got.cif
#   From: 2010.06.25/outbox.cif.g09.slc.cpg/sg12_50_cif.got.tgz:99755.got - 2010.06.28 00:19:55.
