data_PCOD8093638
_publ_section_title
;
Structure prediction by ZEFSAII (Michael W. Deem and Ramdas Pophale) SiO2 
 PCOD8093638
Probable space group: C 2/M
;
_chemical_formula_sum "Si O2"
_cell_formula_units_Z 48
_cell_length_a 32.573312
_cell_length_b 16.417989
_cell_length_c 9.611520
_cell_angle_alpha 90.000000
_cell_angle_beta 30.422794
_cell_angle_gamma 90.000000
_cell_volume 2602.841984
_symmetry_space_group_name_H-M "C 2/M"
_symmetry_group_IT_number 12
_symmetry_cell_setting 'monoclinic'
loop_
_space_group_symop_operation_xyz
x,y,z
-x,y,-z
-x,-y,-z
x,-y,z
1/2+x,1/2+y,z
1/2-x,1/2+y,-z
1/2-x,1/2-y,-z
1/2+x,1/2-y,z
loop_
_atom_site_type_symbol
_atom_site_label
_atom_site_fract_x
_atom_site_fract_y
_atom_site_fract_z
Si Si1 0.031082 0.000000 0.754956
Si Si2 0.569247 0.228947 0.024262
Si Si3 0.961577 0.409424 0.263503
Si Si4 0.415530 0.328637 0.466100
Si Si5 0.669839 0.204683 0.457531
Si Si6 0.078662 0.000000 0.173616
Si Si7 0.642587 0.326838 0.059642
O O1 0.088445 0.923942 0.553405
O O2 0.949713 0.000000 0.901971
O O3 0.000000 0.000000 0.000000
O O4 0.520632 0.143789 0.191036
O O5 0.503068 0.294036 0.162223
O O6 0.611429 0.260096 0.040962
O O7 0.637295 0.215960 0.708798
O O8 0.951345 0.500000 0.357222
O O9 0.874188 0.367122 0.500616
O O10 0.000000 0.413856 0.000000
O O11 0.343427 0.288061 0.589020
O O12 0.407348 0.311684 0.654010
O O13 0.763463 0.185153 0.187995
O O14 0.131673 0.919422 0.040959
O O15 0.000000 0.000000 0.500000
#
# Coordination Sequence:
#
# PCOD8093638 Si02
#       7
#     4   8   8   8   8   4   8
#     4  12  22  38  64  86 114 153 205 242 275 355
#     4  10  19  36  58  82 112 151 197 241 281 350
#     4   8  16  33  56  79 105 146 197 236 278 343
#     4  11  21  38  59  84 115 160 197 231 293 360
#     4  10  22  35  57  86 116 150 191 246 296 338
#     4  12  22  40  58  92 117 155 195 239 293 355
#     4  12  22  36  58  87 123 148 190 245 298 347
#
# _framework density 18.441381
#
# number of rings (size 3 to 8) (size 9 to 14) (size 15 to 20)
#    0.000    1.500    3.333    4.000    1.167    0.000 
#    0.000    0.000    1.833    8.000    0.000    0.000 
#    0.000    0.000    0.000    0.000    0.000    0.000 
#
# Total GULP energy -297608.494437 kJ/mol
# GULP energy per Si atom -12400.353935 kJ/mol
# Density = 1.839941 g / cm^3
# Si number density = 18.441381 Si / 1000 Ang^3
#
#
#
# Elastic Constant Matrix: (Units=GPa)
#
#
# Indices 1 2 3 4 5 6 
#
# 1 99.9151 51.6435 19.8743 0.0000 -5.3681 0.0000
# 2 51.6435 152.6063 26.3600 0.0000 -14.3088 0.0000
# 3 19.8743 26.3600 45.2420 0.0000 -5.7607 0.0000
# 4 0.0000 0.0000 0.0000 19.9646 0.0000 -4.3233
# 5 -5.3681 -14.3088 -5.7607 0.0000 38.0203 0.0000
# 6 0.0000 0.0000 0.0000 -4.3233 0.0000 29.6228
#
#
#
# Elastic Compliance Matrix: (Units=1/GPa)
#
#
# Indices 1 2 3 4 5 6 
#
# 1 0.012581 -0.003682 -0.003397 0.000000 -0.000124 0.000000
# 2 -0.003682 0.008539 -0.003074 0.000000 0.002228 0.000000
# 3 -0.003397 -0.003074 0.025673 0.000000 0.002254 0.000000
# 4 0.000000 0.000000 0.000000 0.051723 0.000000 0.007549
# 5 -0.000124 0.002228 0.002254 0.000000 0.027464 0.000000
# 6 0.000000 0.000000 0.000000 0.007549 0.000000 0.034859
#
#
# Mechanical properties :
#
#
# Convention : Reuss Voigt Hill
#
# Bulk Modulus (GPa) = 37.75449 54.83544 46.29496
# Shear Modulus (GPa) = 26.31925 30.84725 28.58325
#
# Velocity S-wave (km/s) = 3.78191 4.09433 3.94121
# Velocity P-wave (km/s) = 6.29187 7.22156 6.77268
#
# Compressibility (1/GPa) = 0.02648692
#
# Stress axis : x y z
#
# Youngs Moduli (GPa) = 79.48598 117.11250 38.95078
#
# Poissons Ratio (x) = 0.43125 0.13231
# Poissons Ratio (y) = 0.29270 0.11973
# Poissons Ratio (z) = 0.27001 0.35998
#
# Static dielectric constant tensor:
#      x y z
#    x 3.488740 0.000000 -0.101110 
#    y 0.000000 3.848230 0.000000 
#    z -0.101110 0.000000 3.423940 
# 
# 
# High freq. dielectric constant tensor:
#      x y z
#    x 1.711080 0.000000 -0.000420 
#    y 0.000000 1.724140 0.000000 
#    z -0.000420 0.000000 1.701970 
# 
# From -- ./inp_files/112757.got.cif
#   From: 2010.06.25/outbox.cif.g09.slc.cpg/sg12_57_cif.got.tgz:112757.got - 2010.06.28 00:19:55.
