data_PCOD8093978
_publ_section_title
;
Structure prediction by ZEFSAII (Michael W. Deem and Ramdas Pophale) SiO2 
 PCOD8093978
Probable space group: C 2/M
;
_chemical_formula_sum "Si O2"
_cell_formula_units_Z 64
_cell_length_a 19.583223
_cell_length_b 8.874531
_cell_length_c 30.832821
_cell_angle_alpha 90.000000
_cell_angle_beta 142.058082
_cell_angle_gamma 90.000000
_cell_volume 3294.736840
_symmetry_space_group_name_H-M "C 2/M"
_symmetry_group_IT_number 12
_symmetry_cell_setting 'monoclinic'
loop_
_space_group_symop_operation_xyz
x,y,z
-x,y,-z
-x,-y,-z
x,-y,z
1/2+x,1/2+y,z
1/2-x,1/2+y,-z
1/2-x,1/2-y,-z
1/2+x,1/2-y,z
loop_
_atom_site_type_symbol
_atom_site_label
_atom_site_fract_x
_atom_site_fract_y
_atom_site_fract_z
Si Si1 0.830926 0.826684 0.153255
Si Si2 0.219983 0.821270 0.439403
Si Si3 0.637334 0.672860 0.930010
Si Si4 0.381680 0.678044 0.921130
Si Si5 0.417347 0.821342 0.849738
Si Si6 0.301610 0.174525 0.704481
Si Si7 0.624546 0.177573 0.561283
Si Si8 0.037407 0.323552 0.293452
O O1 0.881296 0.812446 0.130574
O O2 0.713589 0.740461 0.095002
O O3 0.915515 0.748900 0.229208
O O4 0.813529 0.000000 0.157946
O O5 0.250000 0.750000 0.500000
O O6 0.314657 0.771491 0.452510
O O7 0.101682 0.755267 0.365220
O O8 0.211055 0.000000 0.438953
O O9 0.639144 0.500000 0.946059
O O10 0.540056 0.755877 0.906670
O O11 0.750000 0.750000 0.000000
O O12 0.371560 0.500000 0.911493
O O13 0.361778 0.754605 0.864733
O O14 0.500000 0.726434 0.000000
O O15 0.341174 0.769682 0.771326
O O16 0.426129 0.000000 0.856924
O O17 0.189957 0.261856 0.635875
O O18 0.398998 0.210213 0.719351
O O19 0.271886 0.000000 0.689826
O O20 0.500000 0.244288 0.500000
O O21 0.621943 0.000000 0.563753
O O22 0.026348 0.500000 0.297557
#
# Coordination Sequence:
#
# PCOD8093978 Si02
#       8
#     8   8   8   8   8   8   8   8
#     4  11  23  39  60  87 117 152 194 241 294 351
#     4  10  20  36  58  85 118 154 194 238 288 345
#     4  11  23  37  59  89 118 149 192 240 290 346
#     4  11  25  43  61  83 115 157 199 241 296 357
#     4  11  22  39  61  86 118 152 194 242 293 350
#     4   9  19  35  58  87 116 150 188 235 289 340
#     4   9  19  36  58  84 114 150 192 236 281 335
#     4  10  19  36  61  87 117 152 193 240 292 347
#
# _framework density 19.424921000000001
#
# number of rings (size 3 to 8) (size 9 to 14) (size 15 to 20)
#    0.000    1.750    1.250    3.000    0.000    6.750 
#    2.250    0.000    0.000    0.000    0.000    0.000 
#    0.000    0.000    0.000    0.000    0.000    0.000 
#
# Total GULP energy -396962.814062 kJ/mol
# GULP energy per Si atom -12405.087939 kJ/mol
# Density = 1.938071 g / cm^3
# Si number density = 19.424921 Si / 1000 Ang^3
#
#
#
# Elastic Constant Matrix: (Units=GPa)
#
#
# Indices 1 2 3 4 5 6 
#
# 1 47.5746 22.2463 21.9415 0.0000 0.3533 -0.0002
# 2 22.2463 84.4744 47.3827 0.0000 -0.7886 -0.0004
# 3 21.9415 47.3827 121.6028 -0.0001 4.3529 0.0000
# 4 0.0000 0.0000 -0.0001 38.7828 0.0000 1.1492
# 5 0.3533 -0.7886 4.3529 0.0000 39.0068 0.0000
# 6 -0.0002 -0.0004 0.0000 1.1492 0.0000 31.0504
#
#
#
# Elastic Compliance Matrix: (Units=1/GPa)
#
#
# Indices 1 2 3 4 5 6 
#
# 1 0.024526 -0.005091 -0.002440 0.000000 -0.000053 0.000000
# 2 -0.005091 0.016242 -0.005445 0.000000 0.000982 0.000000
# 3 -0.002440 -0.005445 0.010832 0.000000 -0.001297 0.000000
# 4 0.000000 0.000000 0.000000 0.025813 0.000000 -0.000955
# 5 -0.000053 0.000982 -0.001297 0.000000 0.025802 0.000000
# 6 0.000000 0.000000 0.000000 -0.000955 0.000000 0.032241
#
#
# Mechanical properties :
#
#
# Convention : Reuss Voigt Hill
#
# Bulk Modulus (GPa) = 38.98963 48.53255 43.76109
# Shear Modulus (GPa) = 29.41928 32.57342 30.99635
#
# Velocity S-wave (km/s) = 3.89590 4.09943 3.99896
# Velocity P-wave (km/s) = 6.35239 6.88810 6.62566
#
# Compressibility (1/GPa) = 0.02564785
#
# Stress axis : x y z
#
# Youngs Moduli (GPa) = 40.77347 61.56840 92.31967
#
# Poissons Ratio (x) = 0.31343 0.22524
# Poissons Ratio (y) = 0.20757 0.50271
# Poissons Ratio (z) = 0.09948 0.33526
#
# Static dielectric constant tensor:
#      x y z
#    x 3.516060 0.000000 -0.005710 
#    y 0.000000 3.590540 0.000000 
#    z -0.005710 0.000000 3.683040 
# 
# 
# High freq. dielectric constant tensor:
#      x y z
#    x 1.743330 0.000000 -0.000490 
#    y 0.000000 1.765350 0.000000 
#    z -0.000490 0.000000 1.766600 
# 
# From -- ./inp_files/378428.got.cif
#   From: 2010.06.25/outbox.cif.g09.slc.cpg/sg12_190_cif.got.tgz:378428.got - 2010.06.28 00:19:55.
