data_PCOD8093021
_publ_section_title
;
Structure prediction by ZEFSAII (Michael W. Deem and Ramdas Pophale) SiO2 
 PCOD8093021
Probable space group: C 2/M
;
_chemical_formula_sum "Si O2"
_cell_formula_units_Z 40
_cell_length_a 13.328482
_cell_length_b 23.111882
_cell_length_c 10.284405
_cell_angle_alpha 90.000000
_cell_angle_beta 41.243419
_cell_angle_gamma 90.000000
_cell_volume 2088.582038
_symmetry_space_group_name_H-M "C 2/M"
_symmetry_group_IT_number 12
_symmetry_cell_setting 'monoclinic'
loop_
_space_group_symop_operation_xyz
x,y,z
-x,y,-z
-x,-y,-z
x,-y,z
1/2+x,1/2+y,z
1/2-x,1/2+y,-z
1/2-x,1/2-y,-z
1/2+x,1/2-y,z
loop_
_atom_site_type_symbol
_atom_site_label
_atom_site_fract_x
_atom_site_fract_y
_atom_site_fract_z
Si Si1 0.829146 0.622014 0.413753
Si Si2 0.325845 0.000000 0.525320
Si Si3 0.679729 0.675283 0.312374
Si Si4 0.686381 0.000000 0.172763
Si Si5 0.690015 0.123000 0.073172
Si Si6 0.680277 0.805861 0.331092
O O1 0.774230 0.557106 0.498944
O O2 0.756322 0.636932 0.347769
O O3 0.765444 0.664929 0.587291
O O4 0.010199 0.627324 0.225758
O O5 0.506106 0.000000 0.362710
O O6 0.248895 0.000000 0.743201
O O7 0.500000 0.674073 0.500000
O O8 0.743159 0.740652 0.262949
O O9 0.721897 0.649497 0.132911
O O10 0.741647 0.943526 0.040930
O O11 0.744462 0.158058 0.147137
O O12 0.500000 0.807356 0.500000
#
# Coordination Sequence:
#
# PCOD8093021 Si02
#       6
#     8   4   8   4   8   8
#     4  10  19  35  59  83 104 134 177 225 269 309
#     4   9  16  31  59  86 102 124 173 232 273 306
#     4  11  23  36  49  77 117 149 174 207 258 320
#     4   9  16  31  59  86 102 124 173 232 273 306
#     4  10  19  35  59  83 104 134 177 225 269 309
#     4   9  18  34  58  81 104 137 180 223 262 308
#
# _framework density 19.151748999999999
#
# number of rings (size 3 to 8) (size 9 to 14) (size 15 to 20)
#    0.000    2.200    2.000    1.800    0.000    0.800 
#    0.000    8.000    0.000    1.200    0.000    0.000 
#    0.000    0.000    0.000    0.000    0.000    0.000 
#
# Total GULP energy -248016.963912 kJ/mol
# GULP energy per Si atom -12400.848196 kJ/mol
# Density = 1.910816 g / cm^3
# Si number density = 19.151749 Si / 1000 Ang^3
#
#
#
# Elastic Constant Matrix: (Units=GPa)
#
#
# Indices 1 2 3 4 5 6 
#
# 1 24.1958 11.1518 20.9234 0.0000 5.1932 0.0000
# 2 11.1518 168.1475 68.5265 0.0000 9.6835 0.0000
# 3 20.9234 68.5265 124.1916 0.0000 27.2485 0.0000
# 4 0.0000 0.0000 0.0000 11.3793 0.0000 7.8333
# 5 5.1932 9.6835 27.2485 0.0000 20.9989 0.0000
# 6 0.0000 0.0000 0.0000 7.8333 0.0000 26.0321
#
#
#
# Elastic Compliance Matrix: (Units=1/GPa)
#
#
# Indices 1 2 3 4 5 6 
#
# 1 0.048435 0.000067 -0.007776 0.000000 -0.001919 0.000000
# 2 0.000067 0.007786 -0.004916 0.000000 0.002772 0.000000
# 3 -0.007776 -0.004916 0.015596 0.000000 -0.016047 0.000000
# 4 0.000000 0.000000 0.000000 0.110838 0.000000 -0.033352
# 5 -0.001919 0.002772 -0.016047 0.000000 0.067641 0.000000
# 6 0.000000 0.000000 0.000000 -0.033352 0.000000 0.048450
#
#
# Mechanical properties :
#
#
# Convention : Reuss Voigt Hill
#
# Bulk Modulus (GPa) = 21.47433 57.52647 39.50040
# Shear Modulus (GPa) = 14.72678 26.07761 20.40219
#
# Velocity S-wave (km/s) = 2.77601 3.69403 3.26742
# Velocity P-wave (km/s) = 4.63810 6.94960 5.90800
#
# Compressibility (1/GPa) = 0.04656724
#
# Stress axis : x y z
#
# Youngs Moduli (GPa) = 20.64623 128.42752 64.12098
#
# Poissons Ratio (x) = -0.00865 0.49863
# Poissons Ratio (y) = -0.00139 0.31521
# Poissons Ratio (z) = 0.16055 0.63134
#
# Static dielectric constant tensor:
#      x y z
#    x 3.155520 0.000000 0.238850 
#    y 0.000000 3.904390 0.000000 
#    z 0.238850 0.000000 3.387770 
# 
# 
# High freq. dielectric constant tensor:
#      x y z
#    x 1.716080 0.000000 0.027460 
#    y 0.000000 1.764480 0.000000 
#    z 0.027460 0.000000 1.736130 
# 
# From -- ./inp_files/50450.got.cif
#   From: 2010.06.25/outbox.cif.g09.slc.cpg/sg12_26_cif.got.tgz:50450.got - 2010.06.28 00:19:55.
