data_PCOD8093449
_publ_section_title
;
Structure prediction by ZEFSAII (Michael W. Deem and Ramdas Pophale) SiO2 
 PCOD8093449
Probable space group: C 2/M
;
_chemical_formula_sum "Si O2"
_cell_formula_units_Z 56
_cell_length_a 13.697091
_cell_length_b 26.373211
_cell_length_c 8.824773
_cell_angle_alpha 90.000000
_cell_angle_beta 71.062178
_cell_angle_gamma 90.000000
_cell_volume 3015.275193
_symmetry_space_group_name_H-M "C 2/M"
_symmetry_group_IT_number 12
_symmetry_cell_setting 'monoclinic'
loop_
_space_group_symop_operation_xyz
x,y,z
-x,y,-z
-x,-y,-z
x,-y,z
1/2+x,1/2+y,z
1/2-x,1/2+y,-z
1/2-x,1/2-y,-z
1/2+x,1/2-y,z
loop_
_atom_site_type_symbol
_atom_site_label
_atom_site_fract_x
_atom_site_fract_y
_atom_site_fract_z
Si Si1 0.789511 0.203270 0.886700
Si Si2 0.776418 0.441027 0.982583
Si Si3 0.806392 0.621753 0.253462
Si Si4 0.883850 0.256387 0.567248
Si Si5 0.998770 0.443830 0.177609
Si Si6 0.381439 0.626301 0.077995
Si Si7 0.292179 0.671673 0.418340
O O1 0.694712 0.174330 0.845794
O O2 0.871185 0.224052 0.725620
O O3 0.750000 0.250000 0.000000
O O4 0.850256 0.167675 0.970329
O O5 0.772264 0.500000 0.005470
O O6 0.761032 0.419873 0.161273
O O7 0.884525 0.424884 0.844968
O O8 0.685088 0.423912 0.918566
O O9 0.733429 0.631291 0.435373
O O10 0.917510 0.601172 0.259202
O O11 0.813651 0.306741 0.599931
O O12 0.858413 0.219798 0.439421
O O13 0.000000 0.276210 0.500000
O O14 0.973980 0.500000 0.264635
O O15 0.000000 0.452824 0.000000
O O16 0.360282 0.644086 0.258861
O O17 0.500000 0.611990 0.000000
#
# Coordination Sequence:
#
# PCOD8093449 Si02
#       7
#     8   8   8   8   8   8   8
#     4  10  19  36  52  75 109 145 181 216 252 314
#     4   9  19  37  58  79 108 140 176 222 267 321
#     4   9  18  32  55  79 108 140 172 212 268 318
#     4  10  20  36  54  73 109 149 177 216 268 312
#     4   8  14  30  55  81 105 134 171 213 264 320
#     4  11  22  37  57  78 104 141 185 226 264 312
#     4  10  21  35  52  79 109 137 179 223 265 311
#
# _framework density 18.572102000000001
#
# number of rings (size 3 to 8) (size 9 to 14) (size 15 to 20)
#    0.000    2.429    1.429    2.143    0.000    1.429 
#    5.143    1.429    0.000    2.571    0.000    0.000 
#    0.000    0.000    0.000    0.000    0.000    0.000 
#
# Total GULP energy -346945.314976 kJ/mol
# GULP energy per Si atom -12390.904106 kJ/mol
# Density = 1.852983 g / cm^3
# Si number density = 18.572102 Si / 1000 Ang^3
#
#
#
# Elastic Constant Matrix: (Units=GPa)
#
#
# Indices 1 2 3 4 5 6 
#
# 1 118.6455 36.7532 33.0121 0.0000 -20.9441 0.0000
# 2 36.7532 69.6865 32.1065 0.0000 -10.1303 0.0000
# 3 33.0121 32.1065 90.7460 0.0000 -3.3589 0.0000
# 4 0.0000 0.0000 0.0000 21.3828 0.0000 -2.5541
# 5 -20.9441 -10.1303 -3.3589 0.0000 22.7313 0.0000
# 6 0.0000 0.0000 0.0000 -2.5541 0.0000 1.5273
#
#
#
# Elastic Compliance Matrix: (Units=1/GPa)
#
#
# Indices 1 2 3 4 5 6 
#
# 1 0.011907 -0.003754 -0.002674 0.000000 0.008903 0.000000
# 2 -0.003754 0.019435 -0.005347 0.000000 0.004413 0.000000
# 3 -0.002674 -0.005347 0.013780 0.000000 -0.002811 0.000000
# 4 0.000000 0.000000 0.000000 0.058439 0.000000 0.097723
# 5 0.008903 0.004413 -0.002811 0.000000 0.053746 0.000000
# 6 0.000000 0.000000 0.000000 0.097723 0.000000 0.818150
#
#
# Mechanical properties :
#
#
# Convention : Reuss Voigt Hill
#
# Bulk Modulus (GPa) = 46.35578 53.64683 50.00131
# Shear Modulus (GPa) = 4.96920 20.94202 12.95561
#
# Velocity S-wave (km/s) = 1.63751 3.36163 2.64405
# Velocity P-wave (km/s) = 5.34690 6.63444 6.02516
#
# Compressibility (1/GPa) = 0.02157228
#
# Stress axis : x y z
#
# Youngs Moduli (GPa) = 83.98557 51.45415 72.56679
#
# Poissons Ratio (x) = 0.19314 0.19404
# Poissons Ratio (y) = 0.31525 0.38804
# Poissons Ratio (z) = 0.22457 0.27514
#
# Static dielectric constant tensor:
#      x y z
#    x 3.788220 0.000000 -0.004950 
#    y 0.000000 3.466450 0.000000 
#    z -0.004950 0.000000 3.288550 
# 
# 
# High freq. dielectric constant tensor:
#      x y z
#    x 1.712770 0.000000 0.005590 
#    y 0.000000 1.716530 0.000000 
#    z 0.005590 0.000000 1.706470 
# 
# From -- ./inp_files/53200.got.cif
#   From: 2010.06.25/outbox.cif.g09.slc.cpg/sg12_27_cif.got.tgz:53200.got - 2010.06.28 00:19:55.
