data_PCOD8093119
_publ_section_title
;
Structure prediction by ZEFSAII (Michael W. Deem and Ramdas Pophale) SiO2 
 PCOD8093119
Probable space group: C 2/M
;
_chemical_formula_sum "Si O2"
_cell_formula_units_Z 56
_cell_length_a 13.242969
_cell_length_b 12.951586
_cell_length_c 18.002421
_cell_angle_alpha 90.000000
_cell_angle_beta 61.030483
_cell_angle_gamma 90.000000
_cell_volume 2701.385008
_symmetry_space_group_name_H-M "C 2/M"
_symmetry_group_IT_number 12
_symmetry_cell_setting 'monoclinic'
loop_
_space_group_symop_operation_xyz
x,y,z
-x,y,-z
-x,-y,-z
x,-y,z
1/2+x,1/2+y,z
1/2-x,1/2+y,-z
1/2-x,1/2-y,-z
1/2+x,1/2-y,z
loop_
_atom_site_type_symbol
_atom_site_label
_atom_site_fract_x
_atom_site_fract_y
_atom_site_fract_z
Si Si1 0.757261 0.616585 0.548892
Si Si2 0.502965 0.382749 0.899085
Si Si3 0.366470 0.316323 0.548771
Si Si4 0.732690 0.115378 0.021228
Si Si5 0.179765 0.263935 0.903891
Si Si6 0.311389 0.376634 0.731322
Si Si7 0.045201 0.121157 0.718670
O O1 0.796450 0.500000 0.554732
O O2 0.707753 0.617364 0.483198
O O3 0.862705 0.695335 0.525631
O O4 0.658826 0.662710 0.638117
O O5 0.541622 0.500000 0.905016
O O6 0.365387 0.375801 0.947307
O O7 0.566064 0.306598 0.934069
O O8 0.549876 0.348303 0.802526
O O9 0.500000 0.352600 0.500000
O O10 0.305322 0.339260 0.648883
O O11 0.654769 0.154156 0.979572
O O12 0.694520 0.000000 0.055072
O O13 0.719023 0.187352 0.099398
O O14 0.213292 0.321590 0.816067
O O15 0.295920 0.500000 0.743184
O O16 0.431873 0.333725 0.720021
O O17 0.039556 0.000000 0.709418
#
# Coordination Sequence:
#
# PCOD8093119 Si02
#       7
#     8   8   8   8   8   8   8
#     4  10  21  37  57  87 120 152 188 231 278 333
#     4  10  19  35  59  87 114 146 189 236 279 329
#     4  11  22  36  60  90 115 149 190 233 282 334
#     4  10  21  38  58  84 114 145 188 237 280 333
#     4  11  21  33  58  87 110 147 187 231 287 335
#     4  11  21  36  58  85 114 147 187 239 285 329
#     4   9  17  32  56  81 110 146 188 231 271 321
#
# _framework density 20.730105999999999
#
# number of rings (size 3 to 8) (size 9 to 14) (size 15 to 20)
#    0.000    1.714    2.857    2.571    0.000    2.000 
#    0.000    0.714    0.000   18.000    0.000    0.000 
#    0.000    0.000    0.000    0.000    0.000    0.000 
#
# Total GULP energy -347040.085513 kJ/mol
# GULP energy per Si atom -12394.288768 kJ/mol
# Density = 2.068292 g / cm^3
# Si number density = 20.730106 Si / 1000 Ang^3
#
#
#
# Elastic Constant Matrix: (Units=GPa)
#
#
# Indices 1 2 3 4 5 6 
#
# 1 65.8621 22.3059 20.1881 0.0000 15.7329 0.0000
# 2 22.3059 117.4208 21.4732 0.0000 11.1526 0.0000
# 3 20.1881 21.4732 102.8297 0.0000 29.7185 0.0000
# 4 0.0000 0.0000 0.0000 21.5953 0.0000 6.1143
# 5 15.7329 11.1526 29.7185 0.0000 25.3931 0.0000
# 6 0.0000 0.0000 0.0000 6.1143 0.0000 24.3884
#
#
#
# Elastic Compliance Matrix: (Units=1/GPa)
#
#
# Indices 1 2 3 4 5 6 
#
# 1 0.018518 -0.002521 -0.000171 0.000000 -0.010166 0.000000
# 2 -0.002521 0.009313 -0.001087 0.000000 -0.001257 0.000000
# 3 -0.000171 -0.001087 0.014834 0.000000 -0.016778 0.000000
# 4 0.000000 0.000000 0.000000 0.049845 0.000000 -0.012496
# 5 -0.010166 -0.001257 -0.016778 0.000000 0.065867 0.000000
# 6 0.000000 0.000000 0.000000 -0.012496 0.000000 0.044136
#
#
# Mechanical properties :
#
#
# Convention : Reuss Voigt Hill
#
# Bulk Modulus (GPa) = 28.48374 46.00524 37.24449
# Shear Modulus (GPa) = 22.54560 29.08504 25.81532
#
# Velocity S-wave (km/s) = 3.30142 3.74977 3.53272
# Velocity P-wave (km/s) = 5.32002 6.40222 5.88604
#
# Compressibility (1/GPa) = 0.03510775
#
# Stress axis : x y z
#
# Youngs Moduli (GPa) = 54.00213 107.37258 67.41167
#
# Poissons Ratio (x) = 0.27068 0.01154
# Poissons Ratio (y) = 0.13613 0.07326
# Poissons Ratio (z) = 0.00924 0.11669
#
# Static dielectric constant tensor:
#      x y z
#    x 3.576090 0.000000 0.169380 
#    y 0.000000 3.783440 0.000000 
#    z 0.169380 0.000000 3.003640 
# 
# 
# High freq. dielectric constant tensor:
#      x y z
#    x 1.796670 0.000000 0.027220 
#    y 0.000000 1.808530 0.000000 
#    z 0.027220 0.000000 1.808670 
# 
# From -- ./inp_files/263224.got.cif
#   From: 2010.06.25/outbox.cif.g09.slc.cpg/sg12_132_cif.got.tgz:263224.got - 2010.06.28 00:19:55.
