data_PCOD8093426
_publ_section_title
;
Structure prediction by ZEFSAII (Michael W. Deem and Ramdas Pophale) SiO2 
 PCOD8093426
Probable space group: C 2/M
;
_chemical_formula_sum "Si O2"
_cell_formula_units_Z 56
_cell_length_a 11.270148
_cell_length_b 18.759303
_cell_length_c 14.246324
_cell_angle_alpha 90.000000
_cell_angle_beta 58.616032
_cell_angle_gamma 90.000000
_cell_volume 2571.299468
_symmetry_space_group_name_H-M "C 2/M"
_symmetry_group_IT_number 12
_symmetry_cell_setting 'monoclinic'
loop_
_space_group_symop_operation_xyz
x,y,z
-x,y,-z
-x,-y,-z
x,-y,z
1/2+x,1/2+y,z
1/2-x,1/2+y,-z
1/2-x,1/2-y,-z
1/2+x,1/2-y,z
loop_
_atom_site_type_symbol
_atom_site_label
_atom_site_fract_x
_atom_site_fract_y
_atom_site_fract_z
Si Si1 0.530755 0.420662 0.597827
Si Si2 0.759883 0.675555 0.448405
Si Si3 0.024722 0.580316 0.888196
Si Si4 0.665079 0.728599 0.939590
Si Si5 0.781909 0.831757 0.740023
Si Si6 0.503955 0.080624 0.388012
Si Si7 0.727117 0.079678 0.149064
O O1 0.500000 0.424172 0.500000
O O2 0.543590 0.500000 0.634651
O O3 0.676245 0.380362 0.547600
O O4 0.417699 0.378925 0.708708
O O5 0.750000 0.750000 0.500000
O O6 0.692593 0.694866 0.375865
O O7 0.912582 0.641653 0.375969
O O8 0.073550 0.500000 0.883947
O O9 0.149528 0.618123 0.785271
O O10 0.888661 0.586311 0.882847
O O11 0.000000 0.616865 0.000000
O O12 0.755852 0.767565 0.822248
O O13 0.666267 0.643591 0.917500
O O14 0.500000 0.750306 0.000000
O O15 0.750000 0.750000 0.000000
O O16 0.500000 0.094403 0.500000
O O17 0.658205 0.089166 0.280548
O O18 0.450238 0.000000 0.386543
O O19 0.796475 0.000000 0.114182
#
# Coordination Sequence:
#
# PCOD8093426 Si02
#       7
#     8   8   8   8   8   8   8
#     4   9  20  37  58  90 127 161 201 256 322 394
#     4  11  24  36  61  92 130 171 214 269 327 400
#     4  10  19  35  64  96 122 159 218 279 332 395
#     4  12  28  47  71  99 138 176 227 291 347 404
#     4  11  22  39  64  89 127 170 215 266 338 398
#     4  10  22  40  65  93 129 174 224 273 325 403
#     4  10  22  42  68  95 128 176 224 271 334 406
#
# _framework density 21.778873000000001
#
# number of rings (size 3 to 8) (size 9 to 14) (size 15 to 20)
#    0.000    1.571    1.429    3.000    4.000    2.000 
#    0.000    0.714    0.000    0.000    0.000    0.000 
#    0.000    0.000    0.000    0.000    0.000    0.000 
#
# Total GULP energy -346956.205756 kJ/mol
# GULP energy per Si atom -12391.293063 kJ/mol
# Density = 2.172930 g / cm^3
# Si number density = 21.778873 Si / 1000 Ang^3
#
#
#
# Elastic Constant Matrix: (Units=GPa)
#
#
# Indices 1 2 3 4 5 6 
#
# 1 60.4592 28.6232 27.8902 0.0000 -0.1304 0.0000
# 2 28.6232 147.3630 53.1505 0.0000 -10.8149 0.0000
# 3 27.8902 53.1505 100.6193 0.0000 7.9427 0.0000
# 4 0.0000 0.0000 0.0000 39.8375 0.0000 -3.6678
# 5 -0.1304 -10.8149 7.9427 0.0000 34.0017 0.0000
# 6 0.0000 0.0000 0.0000 -3.6678 0.0000 26.9319
#
#
#
# Elastic Compliance Matrix: (Units=1/GPa)
#
#
# Indices 1 2 3 4 5 6 
#
# 1 0.019569 -0.002233 -0.004273 0.000000 0.000363 0.000000
# 2 -0.002233 0.009141 -0.004522 0.000000 0.003955 0.000000
# 3 -0.004273 -0.004522 0.013882 0.000000 -0.004697 0.000000
# 4 0.000000 0.000000 0.000000 0.025421 0.000000 0.003462
# 5 0.000363 0.003955 -0.004697 0.000000 0.031767 0.000000
# 6 0.000000 0.000000 0.000000 0.003462 0.000000 0.037602
#
#
# Mechanical properties :
#
#
# Convention : Reuss Voigt Hill
#
# Bulk Modulus (GPa) = 48.69474 58.64102 53.66788
# Shear Modulus (GPa) = 30.06896 33.40606 31.73751
#
# Velocity S-wave (km/s) = 3.71974 3.92072 3.82155
# Velocity P-wave (km/s) = 6.39186 6.89059 6.64590
#
# Compressibility (1/GPa) = 0.02053610
#
# Stress axis : x y z
#
# Youngs Moduli (GPa) = 51.10011 109.39879 72.03407
#
# Poissons Ratio (x) = 0.24430 0.30783
# Poissons Ratio (y) = 0.11411 0.32572
# Poissons Ratio (z) = 0.21837 0.49467
#
# Static dielectric constant tensor:
#      x y z
#    x 3.631790 0.000000 0.113460 
#    y 0.000000 4.169050 0.000000 
#    z 0.113460 0.000000 4.023470 
# 
# 
# High freq. dielectric constant tensor:
#      x y z
#    x 1.824930 0.000000 0.000020 
#    y 0.000000 1.872010 0.000000 
#    z 0.000020 0.000000 1.858560 
# 
# From -- ./inp_files/206587.got.cif
#   From: 2010.06.25/outbox.cif.g09.slc.cpg/sg12_104_cif.got.tgz:206587.got - 2010.06.28 00:19:55.
