data_PCOD8093578
_publ_section_title
;
Structure prediction by ZEFSAII (Michael W. Deem and Ramdas Pophale) SiO2 
 PCOD8093578
Probable space group: C 2/M
;
_chemical_formula_sum "Si O2"
_cell_formula_units_Z 56
_cell_length_a 15.020160
_cell_length_b 21.334979
_cell_length_c 17.223709
_cell_angle_alpha 90.000000
_cell_angle_beta 32.284181
_cell_angle_gamma 90.000000
_cell_volume 2948.026959
_symmetry_space_group_name_H-M "C 2/M"
_symmetry_group_IT_number 12
_symmetry_cell_setting 'monoclinic'
loop_
_space_group_symop_operation_xyz
x,y,z
-x,y,-z
-x,-y,-z
x,-y,z
1/2+x,1/2+y,z
1/2-x,1/2+y,-z
1/2-x,1/2-y,-z
1/2+x,1/2-y,z
loop_
_atom_site_type_symbol
_atom_site_label
_atom_site_fract_x
_atom_site_fract_y
_atom_site_fract_z
Si Si1 0.322101 0.120632 0.116988
Si Si2 0.976299 0.649990 0.605871
Si Si3 0.821437 0.926551 0.096083
Si Si4 0.026893 0.796205 0.391632
Si Si5 0.859177 0.000000 0.493998
Si Si6 0.226349 0.000000 0.265144
Si Si7 0.320375 0.376802 0.434562
Si Si8 0.868911 0.925955 0.883052
O O1 0.189305 0.170779 0.240338
O O2 0.329207 0.061485 0.169319
O O3 0.284720 0.097408 0.056948
O O4 0.500000 0.153487 0.000000
O O5 0.825328 0.611450 0.754250
O O6 0.936798 0.723103 0.641382
O O7 0.000000 0.628075 0.500000
O O8 0.149102 0.639756 0.521129
O O9 0.785929 0.000000 0.134900
O O10 0.822570 0.908119 0.004872
O O11 0.000000 0.907752 0.000000
O O12 0.000000 0.817396 0.500000
O O13 0.871772 0.819596 0.453708
O O14 0.783706 0.938546 0.511350
O O15 0.813033 0.000000 0.616610
O O16 0.058964 0.000000 0.335918
O O17 0.461895 0.390085 0.265826
O O18 0.898747 0.000000 0.852586
#
# Coordination Sequence:
#
# PCOD8093578 Si02
#       8
#     8   8   8   8   4   4   8   8
#     4  11  21  35  56  91 124 162 190 233 283 354
#     4  11  25  42  62  86 113 153 205 255 293 343
#     4  10  23  41  60  83 112 151 195 251 305 347
#     4  10  22  41  61  84 121 161 197 240 293 346
#     4  11  20  32  63  92 123 158 191 237 293 353
#     4  11  19  34  56  94 130 156 190 233 289 349
#     4  11  20  38  61  92 118 154 195 241 294 347
#     4  10  19  36  57  84 123 156 183 231 299 353
#
# _framework density 18.995756
#
# number of rings (size 3 to 8) (size 9 to 14) (size 15 to 20)
#    0.000    1.429    4.286    2.357    1.000    3.143 
#    0.000    2.857    0.000    0.000    0.000    0.000 
#    0.000    0.000    0.000    0.000    0.000    0.000 
#
# Total GULP energy -347233.913529 kJ/mol
# GULP energy per Si atom -12401.211197 kJ/mol
# Density = 1.895252 g / cm^3
# Si number density = 18.995756 Si / 1000 Ang^3
#
#
#
# Elastic Constant Matrix: (Units=GPa)
#
#
# Indices 1 2 3 4 5 6 
#
# 1 136.2205 41.7535 84.6006 0.0117 -0.8787 -0.0325
# 2 41.7535 70.7311 44.1476 -0.0174 10.0890 -0.0434
# 3 84.6006 44.1476 112.7712 0.0181 -0.9146 -0.0085
# 4 0.0117 -0.0174 0.0181 22.6247 -0.0119 5.2263
# 5 -0.8787 10.0890 -0.9146 -0.0119 39.2280 0.0003
# 6 -0.0325 -0.0434 -0.0085 5.2263 0.0003 30.5777
#
#
#
# Elastic Compliance Matrix: (Units=1/GPa)
#
#
# Indices 1 2 3 4 5 6 
#
# 1 0.014032 -0.002406 -0.009580 -0.000003 0.000710 0.000009
# 2 -0.002406 0.020150 -0.006127 0.000014 -0.005379 0.000022
# 3 -0.009580 -0.006127 0.018467 -0.000011 0.001792 -0.000012
# 4 -0.000003 0.000014 -0.000011 0.046016 0.000010 -0.007865
# 5 0.000710 -0.005379 0.001792 0.000010 0.026933 -0.000008
# 6 0.000009 0.000022 -0.000012 -0.007865 -0.000008 0.034048
#
#
# Mechanical properties :
#
#
# Convention : Reuss Voigt Hill
#
# Bulk Modulus (GPa) = 60.88369 73.41404 67.14887
# Shear Modulus (GPa) = 24.83283 28.43415 26.63349
#
# Velocity S-wave (km/s) = 3.61956 3.87314 3.74849
# Velocity P-wave (km/s) = 7.04195 7.66375 7.35942
#
# Compressibility (1/GPa) = 0.01642476
#
# Stress axis : x y z
#
# Youngs Moduli (GPa) = 71.26346 49.62853 54.14972
#
# Poissons Ratio (x) = 0.11938 0.51873
# Poissons Ratio (y) = 0.17143 0.33179
# Poissons Ratio (z) = 0.68268 0.30408
#
# Static dielectric constant tensor:
#      x y z
#    x 4.033450 -0.000340 -0.077990 
#    y -0.000340 2.703890 0.000550 
#    z -0.077990 0.000550 3.496030 
# 
# 
# High freq. dielectric constant tensor:
#      x y z
#    x 1.753350 0.000000 0.004620 
#    y 0.000000 1.734020 0.000010 
#    z 0.004620 0.000010 1.737670 
# 
# From -- ./inp_files/272376.got.cif
#   From: 2010.06.25/outbox.cif.g09.slc.cpg/sg12_137_cif.got.tgz:272376.got - 2010.06.28 00:19:55.
