data_PCOD8093143
_publ_section_title
;
Structure prediction by ZEFSAII (Michael W. Deem and Ramdas Pophale) SiO2 
 PCOD8093143
Probable space group: C 2/M
;
_chemical_formula_sum "Si O2"
_cell_formula_units_Z 48
_cell_length_a 19.695739
_cell_length_b 26.694457
_cell_length_c 9.261762
_cell_angle_alpha 90.000000
_cell_angle_beta 28.614664
_cell_angle_gamma 90.000000
_cell_volume 2332.098194
_symmetry_space_group_name_H-M "C 2/M"
_symmetry_group_IT_number 12
_symmetry_cell_setting 'monoclinic'
loop_
_space_group_symop_operation_xyz
x,y,z
-x,y,-z
-x,-y,-z
x,-y,z
1/2+x,1/2+y,z
1/2-x,1/2+y,-z
1/2-x,1/2-y,-z
1/2+x,1/2-y,z
loop_
_atom_site_type_symbol
_atom_site_label
_atom_site_fract_x
_atom_site_fract_y
_atom_site_fract_z
Si Si1 0.533260 0.257351 0.607088
Si Si2 0.820216 0.441437 0.975937
Si Si3 0.638336 0.942443 0.430132
Si Si4 0.212839 0.221458 0.716788
Si Si5 0.381412 0.611917 0.114308
Si Si6 0.422529 0.368538 0.496718
O O1 0.500000 0.247232 0.500000
O O2 0.644748 0.215537 0.452986
O O3 0.611305 0.311307 0.486279
O O4 0.398616 0.252353 0.965169
O O5 0.775023 0.500000 0.074830
O O6 0.824417 0.424494 0.801301
O O7 0.972058 0.432754 0.768306
O O8 0.713660 0.404305 0.256891
O O9 0.731704 0.916757 0.381480
O O10 0.674834 0.000000 0.373556
O O11 0.250000 0.250000 0.500000
O O12 0.153540 0.168465 0.774616
O O13 0.500000 0.588868 0.000000
O O14 0.454305 0.606741 0.825208
O O15 0.500000 0.364621 0.500000
#
# Coordination Sequence:
#
# PCOD8093143 Si02
#       6
#     8   8   8   8   8   8
#     4  10  22  38  59  88 122 153 204 266 307 349
#     4   9  18  35  60  90 121 155 199 242 293 360
#     4   9  19  37  60  89 123 156 193 245 298 352
#     4  11  22  41  61  85 120 167 206 246 306 376
#     4  11  23  39  58  87 121 156 201 247 297 360
#     4  10  19  35  59  89 119 154 199 248 298 351
#
# _framework density 20.582324
#
# number of rings (size 3 to 8) (size 9 to 14) (size 15 to 20)
#    0.000    2.000    1.667    4.000    0.000    2.667 
#    3.000    2.500    0.000    2.000    0.000    0.000 
#    0.000    0.000    0.000    0.000    0.000    0.000 
#
# Total GULP energy -297358.023260 kJ/mol
# GULP energy per Si atom -12389.917636 kJ/mol
# Density = 2.053548 g / cm^3
# Si number density = 20.582324 Si / 1000 Ang^3
#
#
#
# Elastic Constant Matrix: (Units=GPa)
#
#
# Indices 1 2 3 4 5 6 
#
# 1 105.6837 27.0577 41.5140 -0.0003 -18.4497 0.0000
# 2 27.0577 43.4779 40.4737 0.0007 -7.0670 0.0000
# 3 41.5140 40.4737 116.2710 -0.0027 -0.9588 0.0002
# 4 -0.0003 0.0007 -0.0027 42.8513 0.0014 -7.3661
# 5 -18.4497 -7.0670 -0.9588 0.0014 43.8346 0.0000
# 6 0.0000 0.0000 0.0002 -7.3661 0.0000 27.8365
#
#
#
# Elastic Compliance Matrix: (Units=1/GPa)
#
#
# Indices 1 2 3 4 5 6 
#
# 1 0.012504 -0.004333 -0.002919 0.000000 0.004500 0.000000
# 2 -0.004333 0.036769 -0.011220 -0.000001 0.003859 0.000000
# 3 -0.002919 -0.011220 0.013526 0.000001 -0.002742 0.000000
# 4 0.000000 -0.000001 0.000001 0.024449 -0.000001 0.006470
# 5 0.004500 0.003859 -0.002742 -0.000001 0.025269 0.000000
# 6 0.000000 0.000000 0.000000 0.006470 0.000000 0.037636
#
#
# Mechanical properties :
#
#
# Convention : Reuss Voigt Hill
#
# Bulk Modulus (GPa) = 38.67808 53.72484 46.20146
# Shear Modulus (GPa) = 25.54731 33.33029 29.43880
#
# Velocity S-wave (km/s) = 3.52693 4.02850 3.78603
# Velocity P-wave (km/s) = 5.95133 6.91357 6.45042
#
# Compressibility (1/GPa) = 0.02585444
#
# Stress axis : x y z
#
# Youngs Moduli (GPa) = 79.97580 27.19689 73.93130
#
# Poissons Ratio (x) = 0.11783 0.21582
# Poissons Ratio (y) = 0.34650 0.82954
# Poissons Ratio (z) = 0.23346 0.30516
#
# Static dielectric constant tensor:
#      x y z
#    x 3.709370 -0.000010 -0.105840 
#    y -0.000010 3.733330 0.000010 
#    z -0.105840 0.000010 3.810570 
# 
# 
# High freq. dielectric constant tensor:
#      x y z
#    x 1.807550 0.000000 -0.010240 
#    y 0.000000 1.784040 0.000000 
#    z -0.010240 0.000000 1.809900 
# 
# From -- ./inp_files/42150.got.cif
#   From: 2010.06.25/outbox.cif.g09.slc.cpg/sg12_22_cif.got.tgz:42150.got - 2010.06.28 00:19:55.
