data_PCOD8093982
_publ_section_title
;
Structure prediction by ZEFSAII (Michael W. Deem and Ramdas Pophale) SiO2 
 PCOD8093982
Probable space group: C 2/M
;
_chemical_formula_sum "Si O2"
_cell_formula_units_Z 60
_cell_length_a 24.205238
_cell_length_b 14.804949
_cell_length_c 10.628173
_cell_angle_alpha 90.000000
_cell_angle_beta 126.918911
_cell_angle_gamma 90.000000
_cell_volume 3044.990839
_symmetry_space_group_name_H-M "C 2/M"
_symmetry_group_IT_number 12
_symmetry_cell_setting 'monoclinic'
loop_
_space_group_symop_operation_xyz
x,y,z
-x,y,-z
-x,-y,-z
x,-y,z
1/2+x,1/2+y,z
1/2-x,1/2+y,-z
1/2-x,1/2-y,-z
1/2+x,1/2-y,z
loop_
_atom_site_type_symbol
_atom_site_label
_atom_site_fract_x
_atom_site_fract_y
_atom_site_fract_z
Si Si1 0.930742 0.783332 0.323370
Si Si2 0.403553 0.166620 0.692611
Si Si3 0.178728 0.760227 0.621845
Si Si4 0.020330 0.401278 0.673185
Si Si5 0.419671 0.395197 0.070091
Si Si6 0.724502 0.397130 0.257352
Si Si7 0.759981 0.600368 0.581972
Si Si8 0.000000 0.228516 0.000000
O O1 0.863379 0.793903 0.316548
O O2 0.930531 0.687282 0.245109
O O3 0.922954 0.867323 0.219689
O O4 0.000000 0.792887 0.500000
O O5 0.373699 0.246959 0.565660
O O6 0.454598 0.107349 0.675630
O O7 0.341072 0.106426 0.660249
O O8 0.440440 0.207298 0.865048
O O9 0.215126 0.666755 0.712542
O O10 0.237260 0.831754 0.660876
O O11 0.055007 0.500000 0.751357
O O12 0.000000 0.401433 0.500000
O O13 0.438789 0.500000 0.083007
O O14 0.476485 0.335558 0.079733
O O15 0.345800 0.373444 0.908937
O O16 0.747559 0.500000 0.263503
O O17 0.715769 0.379131 0.394971
O O18 0.744303 0.500000 0.609694
#
# Coordination Sequence:
#
# PCOD8093982 Si02
#       8
#     8   8   8   8   8   8   8   4
#     4  11  22  40  58  88 121 154 195 244 294 358
#     4  11  20  37  61  90 121 153 192 246 293 352
#     4  11  20  37  62  83 118 154 196 241 298 344
#     4  10  19  36  61  87 118 153 192 238 290 350
#     4  11  23  39  58  84 117 155 200 244 291 349
#     4   9  20  37  59  86 111 146 199 249 289 339
#     4  10  21  37  59  88 117 152 198 241 290 349
#     4  12  21  36  63  84 122 156 191 240 301 352
#
# _framework density 19.704492999999999
#
# number of rings (size 3 to 8) (size 9 to 14) (size 15 to 20)
#    0.000    1.467    4.000    3.800    0.000    2.400 
#    0.000    4.667    0.000    0.000    0.000    0.000 
#    0.000    0.000    0.000    0.000    0.000    0.000 
#
# Total GULP energy -371926.209419 kJ/mol
# GULP energy per Si atom -12397.540314 kJ/mol
# Density = 1.965964 g / cm^3
# Si number density = 19.704493 Si / 1000 Ang^3
#
#
#
# Elastic Constant Matrix: (Units=GPa)
#
#
# Indices 1 2 3 4 5 6 
#
# 1 121.0219 36.7502 21.3611 0.0000 -7.8238 0.0000
# 2 36.7502 86.9454 44.5269 0.0000 -5.7812 0.0000
# 3 21.3611 44.5269 78.2299 0.0000 6.2775 0.0000
# 4 0.0000 0.0000 0.0000 43.0206 0.0000 -23.8752
# 5 -7.8238 -5.7812 6.2775 0.0000 15.3087 0.0000
# 6 0.0000 0.0000 0.0000 -23.8752 0.0000 46.9561
#
#
#
# Elastic Compliance Matrix: (Units=1/GPa)
#
#
# Indices 1 2 3 4 5 6 
#
# 1 0.009722 -0.003241 -0.001148 0.000000 0.004216 0.000000
# 2 -0.003241 0.019037 -0.010748 0.000000 0.009940 0.000000
# 3 -0.001148 -0.010748 0.020253 0.000000 -0.012951 0.000000
# 4 0.000000 0.000000 0.000000 0.032382 0.000000 0.016465
# 5 0.004216 0.009940 -0.012951 0.000000 0.076541 0.000000
# 6 0.000000 0.000000 0.000000 0.016465 0.000000 0.029668
#
#
# Mechanical properties :
#
#
# Convention : Reuss Voigt Hill
#
# Bulk Modulus (GPa) = 53.36868 54.60817 53.98843
# Shear Modulus (GPa) = 22.30907 33.29434 27.80171
#
# Velocity S-wave (km/s) = 3.36844 4.11503 3.76031
# Velocity P-wave (km/s) = 6.50168 7.09590 6.80528
#
# Compressibility (1/GPa) = 0.01873758
#
# Stress axis : x y z
#
# Youngs Moduli (GPa) = 102.85536 52.53041 49.37534
#
# Poissons Ratio (x) = 0.17026 0.05670
# Poissons Ratio (y) = 0.33337 0.53068
# Poissons Ratio (z) = 0.11811 0.56459
#
# Static dielectric constant tensor:
#      x y z
#    x 3.570200 0.000000 -0.025610 
#    y 0.000000 3.831830 0.000000 
#    z -0.025610 0.000000 3.428360 
# 
# 
# High freq. dielectric constant tensor:
#      x y z
#    x 1.766840 0.000000 -0.001050 
#    y 0.000000 1.775590 0.000000 
#    z -0.001050 0.000000 1.744230 
# 
# From -- ./inp_files/176472.got.cif
#   From: 2010.06.25/outbox.cif.g09.slc.cpg/sg12_89_cif.got.tgz:176472.got - 2010.06.28 00:19:55.
