data_PCOD8093633
_publ_section_title
;
Structure prediction by ZEFSAII (Michael W. Deem and Ramdas Pophale) SiO2 
 PCOD8093633
Probable space group: C 2/M
;
_chemical_formula_sum "Si O2"
_cell_formula_units_Z 64
_cell_length_a 25.697139
_cell_length_b 9.025954
_cell_length_c 31.794452
_cell_angle_alpha 90.000000
_cell_angle_beta 153.519930
_cell_angle_gamma 90.000000
_cell_volume 3288.164573
_symmetry_space_group_name_H-M "C 2/M"
_symmetry_group_IT_number 12
_symmetry_cell_setting 'monoclinic'
loop_
_space_group_symop_operation_xyz
x,y,z
-x,y,-z
-x,-y,-z
x,-y,z
1/2+x,1/2+y,z
1/2-x,1/2+y,-z
1/2-x,1/2-y,-z
1/2+x,1/2-y,z
loop_
_atom_site_type_symbol
_atom_site_label
_atom_site_fract_x
_atom_site_fract_y
_atom_site_fract_z
Si Si1 0.938918 0.826896 0.412550
Si Si2 0.482897 0.166006 0.363417
Si Si3 0.210609 0.835196 0.149644
Si Si4 0.012724 0.326862 0.770535
Si Si5 0.474764 0.827110 0.123210
Si Si6 0.824918 0.326315 0.793972
Si Si7 0.230140 0.824069 0.070408
Si Si8 0.129181 0.824220 0.400835
O O1 0.007614 0.733940 0.427105
O O2 0.802791 0.780668 0.315409
O O3 0.000000 0.783723 0.500000
O O4 0.952488 0.000000 0.412061
O O5 0.346789 0.159789 0.256920
O O6 0.535507 0.275591 0.367406
O O7 0.536670 0.000000 0.399316
O O8 0.147039 0.739684 0.139584
O O9 0.192833 0.767485 0.090049
O O10 0.157486 0.000000 0.113374
O O11 0.996053 0.500000 0.747894
O O12 0.912910 0.233615 0.674976
O O13 0.995029 0.293907 0.806786
O O14 0.139469 0.271689 0.846708
O O15 0.580840 0.766470 0.171286
O O16 0.453687 0.000000 0.100476
O O17 0.356171 0.743635 0.026188
O O18 0.834926 0.500000 0.806069
O O19 0.223807 0.000000 0.063598
O O20 0.250000 0.750000 0.500000
O O21 0.142173 0.000000 0.409396
#
# Coordination Sequence:
#
# PCOD8093633 Si02
#       8
#     8   8   8   8   8   8   8   8
#     4   9  18  33  55  82 112 149 196 242 290 352
#     4  10  19  36  58  81 113 147 189 240 291 345
#     4   9  18  34  57  81 108 147 188 235 290 339
#     4  10  21  41  62  83 117 155 194 244 295 345
#     4  10  22  37  56  83 118 158 194 238 296 351
#     4   9  19  35  52  78 114 148 187 237 292 346
#     4  10  20  36  59  84 113 150 197 246 293 347
#     4  12  25  40  61  89 118 151 192 237 293 351
#
# _framework density 19.463744999999999
#
# number of rings (size 3 to 8) (size 9 to 14) (size 15 to 20)
#    0.000    2.125    1.250    1.875    0.000    4.250 
#    0.000    5.000    0.000    0.000    0.000    0.000 
#    0.000    0.000    0.000    0.000    0.000    0.000 
#
# Total GULP energy -396836.898804 kJ/mol
# GULP energy per Si atom -12401.153088 kJ/mol
# Density = 1.941944 g / cm^3
# Si number density = 19.463745 Si / 1000 Ang^3
#
#
#
# Elastic Constant Matrix: (Units=GPa)
#
#
# Indices 1 2 3 4 5 6 
#
# 1 127.3828 42.4395 41.0020 -0.0001 -8.7350 -0.0003
# 2 42.4395 71.6731 39.9866 0.0003 -7.5670 -0.0019
# 3 41.0020 39.9866 82.0680 0.0000 -11.9949 -0.0003
# 4 -0.0001 0.0003 0.0000 30.4845 0.0002 -4.7973
# 5 -8.7350 -7.5670 -11.9949 0.0002 26.9447 0.0001
# 6 -0.0003 -0.0019 -0.0003 -4.7973 0.0001 30.5139
#
#
#
# Elastic Compliance Matrix: (Units=1/GPa)
#
#
# Indices 1 2 3 4 5 6 
#
# 1 0.010302 -0.004407 -0.002880 0.000000 0.000820 0.000000
# 2 -0.004407 0.021089 -0.007933 0.000000 0.000962 0.000001
# 3 -0.002880 -0.007933 0.018212 0.000000 0.004946 0.000000
# 4 0.000000 0.000000 0.000000 0.033636 0.000000 0.005288
# 5 0.000820 0.000962 0.004946 0.000000 0.039851 0.000000
# 6 0.000000 0.000001 0.000000 0.005288 0.000000 0.033603
#
#
# Mechanical properties :
#
#
# Convention : Reuss Voigt Hill
#
# Bulk Modulus (GPa) = 52.18251 58.66444 55.42348
# Shear Modulus (GPa) = 25.83715 28.10166 26.96941
#
# Velocity S-wave (km/s) = 3.64737 3.80385 3.72643
# Velocity P-wave (km/s) = 6.67878 7.03550 6.85946
#
# Compressibility (1/GPa) = 0.01916351
#
# Stress axis : x y z
#
# Youngs Moduli (GPa) = 97.07136 47.41809 54.90873
#
# Poissons Ratio (x) = 0.20895 0.15813
# Poissons Ratio (y) = 0.42776 0.43560
# Poissons Ratio (z) = 0.27956 0.37617
#
# Static dielectric constant tensor:
#      x y z
#    x 4.640540 0.000630 0.271530 
#    y 0.000630 6.680790 0.000230 
#    z 0.271530 0.000230 3.615900 
# 
# 
# High freq. dielectric constant tensor:
#      x y z
#    x 1.768360 0.000000 -0.007770 
#    y 0.000000 1.748210 0.000000 
#    z -0.007770 0.000000 1.753330 
# 
# From -- ./inp_files/382470.got.cif
#   From: 2010.06.25/outbox.cif.g09.slc.cpg/sg12_192_cif.got.tgz:382470.got - 2010.06.28 00:19:55.
