data_PCOD8093236
_publ_section_title
;
Structure prediction by ZEFSAII (Michael W. Deem and Ramdas Pophale) SiO2 
 PCOD8093236
Probable space group: C 2/M
;
_chemical_formula_sum "Si O2"
_cell_formula_units_Z 40
_cell_length_a 19.059089
_cell_length_b 11.520911
_cell_length_c 12.090845
_cell_angle_alpha 90.000000
_cell_angle_beta 44.749538
_cell_angle_gamma 90.000000
_cell_volume 1869.062497
_symmetry_space_group_name_H-M "C 2/M"
_symmetry_group_IT_number 12
_symmetry_cell_setting 'monoclinic'
loop_
_space_group_symop_operation_xyz
x,y,z
-x,y,-z
-x,-y,-z
x,-y,z
1/2+x,1/2+y,z
1/2-x,1/2+y,-z
1/2-x,1/2-y,-z
1/2+x,1/2-y,z
loop_
_atom_site_type_symbol
_atom_site_label
_atom_site_fract_x
_atom_site_fract_y
_atom_site_fract_z
Si Si1 0.931092 0.776319 0.979410
Si Si2 0.891322 0.297178 0.584668
Si Si3 0.079775 0.627710 0.684567
Si Si4 0.279637 0.131929 0.282786
Si Si5 0.748037 0.370698 0.930883
O O1 0.996129 0.722616 0.807269
O O2 0.863534 0.674026 0.103941
O O3 0.858795 0.874929 0.011570
O O4 0.000000 0.829623 0.000000
O O5 0.900397 0.379182 0.467905
O O6 0.827059 0.187959 0.618836
O O7 0.838497 0.366974 0.742722
O O8 0.000000 0.253735 0.500000
O O9 0.043022 0.500000 0.764111
O O10 0.182419 0.656622 0.634824
O O11 0.260262 0.000000 0.279342
O O12 0.756762 0.500000 0.980715
O O13 0.750000 0.250000 0.000000
#
# Coordination Sequence:
#
# PCOD8093236 Si02
#       5
#     8   8   8   8   8
#     4   9  19  37  62  90 117 149 194 242 291 350
#     4  11  23  37  56  84 117 153 197 247 295 347
#     4  10  19  35  60  87 117 154 197 244 292 348
#     4   9  19  36  58  85 119 158 197 239 291 350
#     4  11  25  43  63  87 118 158 200 245 298 355
#
# _framework density 21.401105000000001
#
# number of rings (size 3 to 8) (size 9 to 14) (size 15 to 20)
#    0.000    2.000    0.000    3.000    0.000   10.400 
#    0.000    3.000    0.000    0.000    0.000    0.000 
#    0.000    0.000    0.000    0.000    0.000    0.000 
#
# Total GULP energy -247822.775114 kJ/mol
# GULP energy per Si atom -12391.138756 kJ/mol
# Density = 2.135240 g / cm^3
# Si number density = 21.401105 Si / 1000 Ang^3
#
#
#
# Elastic Constant Matrix: (Units=GPa)
#
#
# Indices 1 2 3 4 5 6 
#
# 1 125.7062 49.0342 41.3792 0.0000 -19.2538 0.0000
# 2 49.0342 110.0845 33.3576 0.0000 -4.3707 0.0000
# 3 41.3792 33.3576 95.0034 0.0000 4.8122 0.0000
# 4 0.0000 0.0000 0.0000 13.4890 0.0000 6.9046
# 5 -19.2538 -4.3707 4.8122 0.0000 42.1379 0.0000
# 6 0.0000 0.0000 0.0000 6.9046 0.0000 14.0023
#
#
#
# Elastic Compliance Matrix: (Units=1/GPa)
#
#
# Indices 1 2 3 4 5 6 
#
# 1 0.011537 -0.003718 -0.003990 0.000000 0.005341 0.000000
# 2 -0.003718 0.011455 -0.002391 0.000000 -0.000237 0.000000
# 3 -0.003990 -0.002391 0.013285 0.000000 -0.003588 0.000000
# 4 0.000000 0.000000 0.000000 0.099164 0.000000 -0.048898
# 5 0.005341 -0.000237 -0.003588 0.000000 0.026557 0.000000
# 6 0.000000 0.000000 0.000000 -0.048898 0.000000 0.095529
#
#
# Mechanical properties :
#
#
# Convention : Reuss Voigt Hill
#
# Bulk Modulus (GPa) = 62.19032 64.25956 63.22494
# Shear Modulus (GPa) = 17.66260 27.72738 22.69499
#
# Velocity S-wave (km/s) = 2.87594 3.60336 3.26000
# Velocity P-wave (km/s) = 6.33645 6.88503 6.61643
#
# Compressibility (1/GPa) = 0.01607967
#
# Stress axis : x y z
#
# Youngs Moduli (GPa) = 86.67949 87.29922 75.27241
#
# Poissons Ratio (x) = 0.32454 0.30035
# Poissons Ratio (y) = 0.32224 0.17996
# Poissons Ratio (z) = 0.34586 0.20871
#
# Static dielectric constant tensor:
#      x y z
#    x 4.328570 0.000000 -0.034450 
#    y 0.000000 3.617110 0.000000 
#    z -0.034450 0.000000 3.810700 
# 
# 
# High freq. dielectric constant tensor:
#      x y z
#    x 1.856030 0.000000 -0.003040 
#    y 0.000000 1.821310 0.000000 
#    z -0.003040 0.000000 1.832360 
# 
# From -- ./inp_files/165377.got.cif
#   From: 2010.06.25/outbox.cif.g09.slc.cpg/sg12_83_cif.got.tgz:165377.got - 2010.06.28 00:19:55.
