data_PCOD8093507
_publ_section_title
;
Structure prediction by ZEFSAII (Michael W. Deem and Ramdas Pophale) SiO2 
 PCOD8093507
Probable space group: C 2/M
;
_chemical_formula_sum "Si O2"
_cell_formula_units_Z 40
_cell_length_a 13.961773
_cell_length_b 31.758414
_cell_length_c 8.311673
_cell_angle_alpha 90.000000
_cell_angle_beta 24.986114
_cell_angle_gamma 90.000000
_cell_volume 1556.719255
_symmetry_space_group_name_H-M "C 2/M"
_symmetry_group_IT_number 12
_symmetry_cell_setting 'monoclinic'
loop_
_space_group_symop_operation_xyz
x,y,z
-x,y,-z
-x,-y,-z
x,-y,z
1/2+x,1/2+y,z
1/2-x,1/2+y,-z
1/2-x,1/2-y,-z
1/2+x,1/2-y,z
loop_
_atom_site_type_symbol
_atom_site_label
_atom_site_fract_x
_atom_site_fract_y
_atom_site_fract_z
Si Si1 0.153969 0.000000 0.915853
Si Si2 0.087106 0.500000 0.049374
Si Si3 0.258655 0.802001 0.636448
Si Si4 0.239764 0.163370 0.988234
Si Si5 0.274617 0.931036 0.947038
Si Si6 0.749664 0.794401 0.709332
O O1 0.101014 0.041450 0.102425
O O2 0.408248 0.000000 0.466885
O O3 0.000000 0.000000 0.000000
O O4 0.212782 0.455932 0.899594
O O5 0.000000 0.500000 0.000000
O O6 0.372337 0.804146 0.281475
O O7 0.267516 0.755498 0.698202
O O8 0.358599 0.833099 0.627658
O O9 0.000000 0.815741 0.000000
O O10 0.369528 0.187120 0.942357
O O11 0.999233 0.186127 0.331198
O O12 0.185226 0.115430 0.120241
O O13 0.500000 0.925711 0.500000
#
# Coordination Sequence:
#
# PCOD8093507 Si02
#       6
#     4   4   8   8   8   8
#     4   9  19  39  68  90 116 157 191 231 302 371
#     4   9  19  43  66  88 120 153 193 241 298 360
#     4   9  18  35  55  76 111 156 198 239 294 345
#     4  10  19  36  56  80 114 149 190 245 290 334
#     4   9  20  41  60  86 121 151 191 237 294 365
#     4   9  19  35  53  80 110 150 196 245 281 342
#
# _framework density 25.695062
#
# number of rings (size 3 to 8) (size 9 to 14) (size 15 to 20)
#    0.000    2.800    0.000    1.800    0.000    2.400 
#   28.800    1.000    0.000    0.000    0.000    0.000 
#    0.000    0.000    0.000    0.000    0.000    0.000 
#
# Total GULP energy -247855.561053 kJ/mol
# GULP energy per Si atom -12392.778053 kJ/mol
# Density = 2.563658 g / cm^3
# Si number density = 25.695062 Si / 1000 Ang^3
#
#
#
# Elastic Constant Matrix: (Units=GPa)
#
#
# Indices 1 2 3 4 5 6 
#
# 1 270.3352 119.6480 42.4285 0.0000 19.9215 0.0000
# 2 119.6480 182.8402 7.1860 0.0000 13.0063 0.0000
# 3 42.4285 7.1860 99.5764 0.0000 43.4296 0.0000
# 4 0.0000 0.0000 0.0000 -8.1907 0.0000 4.2094
# 5 19.9215 13.0063 43.4296 0.0000 43.8181 0.0000
# 6 0.0000 0.0000 0.0000 4.2094 0.0000 26.0072
#
#
#
# Elastic Compliance Matrix: (Units=1/GPa)
#
#
# Indices 1 2 3 4 5 6 
#
# 1 0.005659 -0.003680 -0.002642 0.000000 0.001138 0.000000
# 2 -0.003680 0.007999 0.002284 0.000000 -0.002965 0.000000
# 3 -0.002642 0.002284 0.018980 0.000000 -0.018288 0.000000
# 4 0.000000 0.000000 0.000000 -0.112714 0.000000 0.018243
# 5 0.001138 -0.002965 -0.018288 0.000000 0.041310 0.000000
# 6 0.000000 0.000000 0.000000 0.018243 0.000000 0.035498
#
#
# Mechanical properties :
#
#
# Convention : Reuss Voigt Hill
#
# Bulk Modulus (GPa) = 40.71567 99.03075 69.87321
# Shear Modulus (GPa) = 384.79364 37.89288 211.34326
#
# Velocity S-wave (km/s) = 12.25067 3.84437 9.07905
# Velocity P-wave (km/s) = 14.69644 7.63741 11.71144
#
# Compressibility (1/GPa) = 0.02456057
#
# Stress axis : x y z
#
# Youngs Moduli (GPa) = 176.72060 125.02224 52.68790
#
# Poissons Ratio (x) = 0.46009 0.13920
# Poissons Ratio (y) = 0.65034 -0.12033
# Poissons Ratio (z) = 0.46689 -0.28553
#
# Static dielectric constant tensor:
#      x y z
#    x 5.799100 0.000000 0.806440 
#    y 0.000000 4.546500 0.000000 
#    z 0.806440 0.000000 5.577160 
# 
# 
# High freq. dielectric constant tensor:
#      x y z
#    x 2.073760 0.000000 0.003360 
#    y 0.000000 1.990690 0.000000 
#    z 0.003360 0.000000 2.088470 
# 
# From -- ./inp_files/68468.got.cif
#   From: 2010.06.25/outbox.cif.g09.slc.cpg/sg12_35_cif.got.tgz:68468.got - 2010.06.28 00:19:55.
