data_PCOD8093076
_publ_section_title
;
Structure prediction by ZEFSAII (Michael W. Deem and Ramdas Pophale) SiO2 
 PCOD8093076
Probable space group: C 2/M
;
_chemical_formula_sum "Si O2"
_cell_formula_units_Z 52
_cell_length_a 25.448593
_cell_length_b 17.993367
_cell_length_c 11.140183
_cell_angle_alpha 90.000000
_cell_angle_beta 146.945907
_cell_angle_gamma 90.000000
_cell_volume 2782.326064
_symmetry_space_group_name_H-M "C 2/M"
_symmetry_group_IT_number 12
_symmetry_cell_setting 'monoclinic'
loop_
_space_group_symop_operation_xyz
x,y,z
-x,y,-z
-x,-y,-z
x,-y,z
1/2+x,1/2+y,z
1/2-x,1/2+y,-z
1/2-x,1/2-y,-z
1/2+x,1/2-y,z
loop_
_atom_site_type_symbol
_atom_site_label
_atom_site_fract_x
_atom_site_fract_y
_atom_site_fract_z
Si Si1 0.190443 0.582156 0.636388
Si Si2 0.611934 0.915154 0.218727
Si Si3 0.886105 0.735250 0.473955
Si Si4 0.913771 0.083678 0.127135
Si Si5 0.470875 0.293631 0.080433
Si Si6 0.500000 0.326051 0.500000
Si Si7 0.217898 0.283451 0.312255
O O1 0.153273 0.500000 0.607721
O O2 0.161531 0.594365 0.442857
O O3 0.142380 0.650604 0.616707
O O4 0.304142 0.586021 0.873252
O O5 0.673677 0.865618 0.244504
O O6 0.618181 0.000000 0.186081
O O7 0.500000 0.888626 0.000000
O O8 0.799802 0.783904 0.367277
O O9 0.965734 0.731738 0.731164
O O10 0.926821 0.774616 0.434274
O O11 0.982525 0.125047 0.162348
O O12 0.929372 0.123595 0.284627
O O13 0.951528 0.000000 0.209442
O O14 0.500000 0.298159 0.000000
O O15 0.361167 0.271919 0.891157
O O16 0.250000 0.250000 0.500000
#
# Coordination Sequence:
#
# PCOD8093076 Si02
#       7
#     8   8   8   8   8   4   8
#     4  10  19  35  59  85 113 150 188 234 295 344
#     4  10  20  34  55  88 128 160 186 229 291 356
#     4  11  22  38  58  87 114 153 198 243 287 348
#     4  10  21  39  59  80 112 153 193 239 291 342
#     4  11  20  33  56  89 120 146 189 235 290 351
#     4  10  25  42  59  82 108 154 206 246 295 340
#     4  12  19  33  58  86 120 154 191 236 291 350
#
# _framework density 18.689398000000001
#
# number of rings (size 3 to 8) (size 9 to 14) (size 15 to 20)
#    0.000    1.385    4.615    1.615    0.000    0.923 
#    0.000    4.231    0.000    0.000    0.000    0.000 
#    0.000    0.000    0.000    0.000    0.000    0.000 
#
# Total GULP energy -322264.017393 kJ/mol
# GULP energy per Si atom -12394.769900 kJ/mol
# Density = 1.864686 g / cm^3
# Si number density = 18.689398 Si / 1000 Ang^3
#
#
#
# Elastic Constant Matrix: (Units=GPa)
#
#
# Indices 1 2 3 4 5 6 
#
# 1 62.7396 7.6483 17.6436 0.0000 9.9714 0.0000
# 2 7.6483 104.5178 16.9076 0.0000 9.6764 0.0000
# 3 17.6436 16.9076 91.9615 0.0000 3.2755 0.0000
# 4 0.0000 0.0000 0.0000 30.5291 0.0000 -1.8439
# 5 9.9714 9.6764 3.2755 0.0000 27.5488 0.0000
# 6 0.0000 0.0000 0.0000 -1.8439 0.0000 41.4668
#
#
#
# Elastic Compliance Matrix: (Units=1/GPa)
#
#
# Indices 1 2 3 4 5 6 
#
# 1 0.017808 -0.000238 -0.003160 0.000000 -0.005986 0.000000
# 2 -0.000238 0.010165 -0.001706 0.000000 -0.003281 0.000000
# 3 -0.003160 -0.001706 0.011782 0.000000 0.000342 0.000000
# 4 0.000000 0.000000 0.000000 0.032844 0.000000 0.001461
# 5 -0.005986 -0.003281 0.000342 0.000000 0.039578 0.000000
# 6 0.000000 0.000000 0.000000 0.001461 0.000000 0.024181
#
#
# Mechanical properties :
#
#
# Convention : Reuss Voigt Hill
#
# Bulk Modulus (GPa) = 33.84423 38.17975 36.01199
# Shear Modulus (GPa) = 31.96649 34.37691 33.17170
#
# Velocity S-wave (km/s) = 4.14019 4.29345 4.21752
# Velocity P-wave (km/s) = 6.40336 6.71202 6.55951
#
# Compressibility (1/GPa) = 0.02954714
#
# Stress axis : x y z
#
# Youngs Moduli (GPa) = 56.15495 98.37692 84.87621
#
# Poissons Ratio (x) = 0.02339 0.26818
# Poissons Ratio (y) = 0.01335 0.14483
# Poissons Ratio (z) = 0.17743 0.16787
#
# Static dielectric constant tensor:
#      x y z
#    x 3.089800 0.000000 0.048200 
#    y 0.000000 3.913000 0.000000 
#    z 0.048200 0.000000 3.684300 
# 
# 
# High freq. dielectric constant tensor:
#      x y z
#    x 1.688520 0.000000 0.002290 
#    y 0.000000 1.740810 0.000000 
#    z 0.002290 0.000000 1.744620 
# 
# From -- ./inp_files/184367.got.cif
#   From: 2010.06.25/outbox.cif.g09.slc.cpg/sg12_93_cif.got.tgz:184367.got - 2010.06.28 00:19:55.
