data_PCOD8093080
_publ_section_title
;
Structure prediction by ZEFSAII (Michael W. Deem and Ramdas Pophale) SiO2 
 PCOD8093080
Probable space group: C 2/M
;
_chemical_formula_sum "Si O2"
_cell_formula_units_Z 48
_cell_length_a 29.074824
_cell_length_b 8.770242
_cell_length_c 16.343750
_cell_angle_alpha 90.000000
_cell_angle_beta 38.265775
_cell_angle_gamma 90.000000
_cell_volume 2581.003394
_symmetry_space_group_name_H-M "C 2/M"
_symmetry_group_IT_number 12
_symmetry_cell_setting 'monoclinic'
loop_
_space_group_symop_operation_xyz
x,y,z
-x,y,-z
-x,-y,-z
x,-y,z
1/2+x,1/2+y,z
1/2-x,1/2+y,-z
1/2-x,1/2-y,-z
1/2+x,1/2-y,z
loop_
_atom_site_type_symbol
_atom_site_label
_atom_site_fract_x
_atom_site_fract_y
_atom_site_fract_z
Si Si1 0.032474 0.321030 0.369212
Si Si2 0.669167 0.319748 0.614750
Si Si3 0.449098 0.178677 0.323536
Si Si4 0.087335 0.178151 0.048826
Si Si5 0.171075 0.176594 0.095579
Si Si6 0.087432 0.677515 0.882459
O O1 0.047367 0.500000 0.351589
O O2 0.111111 0.243282 0.242301
O O3 0.000000 0.259591 0.500000
O O4 0.972715 0.279249 0.382782
O O5 0.674477 0.500000 0.610872
O O6 0.750000 0.250000 0.500000
O O7 0.626409 0.267903 0.592009
O O8 0.625291 0.258017 0.753627
O O9 0.512572 0.229783 0.172101
O O10 0.435567 0.000000 0.330501
O O11 0.147684 0.209310 0.034880
O O12 0.068073 0.000000 0.068486
O O13 0.119977 0.243328 0.918740
O O14 0.177329 0.000000 0.105536
O O15 0.250000 0.250000 0.000000
O O16 0.108145 0.500000 0.853781
O O17 0.000000 0.705835 0.000000
#
# Coordination Sequence:
#
# PCOD8093080 Si02
#       6
#     8   8   8   8   8   8
#     4   9  19  37  61  86 113 150 190 233 283 340
#     4  12  25  41  60  83 117 154 192 235 288 340
#     4  10  19  35  59  85 114 150 191 235 286 340
#     4  10  20  35  58  87 114 149 194 236 283 338
#     4  10  21  37  58  85 117 152 189 236 287 338
#     4  11  22  37  61  89 116 147 190 236 282 339
#
# _framework density 18.597418000000001
#
# number of rings (size 3 to 8) (size 9 to 14) (size 15 to 20)
#    0.000    1.667    1.667    3.500    0.000    3.667 
#    3.000    0.000    0.000    0.000    0.000    0.000 
#    0.000    0.000    0.000    0.000    0.000    0.000 
#
# Total GULP energy -297693.832563 kJ/mol
# GULP energy per Si atom -12403.909690 kJ/mol
# Density = 1.855509 g / cm^3
# Si number density = 18.597418 Si / 1000 Ang^3
#
#
#
# Elastic Constant Matrix: (Units=GPa)
#
#
# Indices 1 2 3 4 5 6 
#
# 1 124.2838 58.7819 83.2027 -0.0057 -4.4122 0.0024
# 2 58.7819 104.3494 72.6654 -0.0097 -2.9358 0.0021
# 3 83.2027 72.6654 118.6909 -0.0044 -0.9418 0.0010
# 4 -0.0057 -0.0097 -0.0044 32.0851 0.0057 -2.0250
# 5 -4.4122 -2.9358 -0.9418 0.0057 35.0598 -0.0015
# 6 0.0024 0.0021 0.0010 -2.0250 -0.0015 34.8047
#
#
#
# Elastic Compliance Matrix: (Units=1/GPa)
#
#
# Indices 1 2 3 4 5 6 
#
# 1 0.015482 -0.001968 -0.009636 0.000001 0.001525 -0.000001
# 2 -0.001968 0.017000 -0.009020 0.000003 0.000933 0.000000
# 3 -0.009636 -0.009020 0.020691 -0.000001 -0.001412 0.000001
# 4 0.000001 0.000003 -0.000001 0.031282 -0.000005 0.001820
# 5 0.001525 0.000933 -0.001412 -0.000005 0.028755 0.000001
# 6 -0.000001 0.000000 0.000001 0.001820 0.000001 0.028838
#
#
# Mechanical properties :
#
#
# Convention : Reuss Voigt Hill
#
# Bulk Modulus (GPa) = 83.86502 86.29158 85.07830
# Shear Modulus (GPa) = 26.69932 29.23488 27.96710
#
# Velocity S-wave (km/s) = 3.79310 3.96913 3.88211
# Velocity P-wave (km/s) = 8.02349 8.21619 8.12041
#
# Compressibility (1/GPa) = 0.01192392
#
# Stress axis : x y z
#
# Youngs Moduli (GPa) = 64.59178 58.82420 48.32979
#
# Poissons Ratio (x) = 0.11579 0.46569
# Poissons Ratio (y) = 0.12714 0.43596
# Poissons Ratio (z) = 0.62238 0.53062
#
# Static dielectric constant tensor:
#      x y z
#    x 3.682860 -0.000010 0.082800 
#    y -0.000010 3.544330 0.000010 
#    z 0.082800 0.000010 3.448550 
# 
# 
# High freq. dielectric constant tensor:
#      x y z
#    x 1.730940 0.000000 0.007450 
#    y 0.000000 1.736530 0.000000 
#    z 0.007450 0.000000 1.708570 
# 
# From -- ./inp_files/244738.got.cif
#   From: 2010.06.25/outbox.cif.g09.slc.cpg/sg12_123_cif.got.tgz:244738.got - 2010.06.28 00:19:55.
