data_PCOD8093852
_publ_section_title
;
Structure prediction by ZEFSAII (Michael W. Deem and Ramdas Pophale) SiO2 
 PCOD8093852
Probable space group: C 2/M
;
_chemical_formula_sum "Si O2"
_cell_formula_units_Z 56
_cell_length_a 22.118960
_cell_length_b 9.311251
_cell_length_c 15.983469
_cell_angle_alpha 90.000000
_cell_angle_beta 126.246744
_cell_angle_gamma 90.000000
_cell_volume 2654.828161
_symmetry_space_group_name_H-M "C 2/M"
_symmetry_group_IT_number 12
_symmetry_cell_setting 'monoclinic'
loop_
_space_group_symop_operation_xyz
x,y,z
-x,y,-z
-x,-y,-z
x,-y,z
1/2+x,1/2+y,z
1/2-x,1/2+y,-z
1/2-x,1/2-y,-z
1/2+x,1/2-y,z
loop_
_atom_site_type_symbol
_atom_site_label
_atom_site_fract_x
_atom_site_fract_y
_atom_site_fract_z
Si Si1 0.547866 0.667533 0.956344
Si Si2 0.891576 0.339384 0.261961
Si Si3 0.838669 0.837699 0.356154
Si Si4 0.083246 0.158689 0.274525
Si Si5 0.470292 0.657346 0.587515
Si Si6 0.276676 0.169696 0.603460
Si Si7 0.325652 0.167584 0.031558
O O1 0.569950 0.500000 0.983134
O O2 0.496197 0.695475 0.832849
O O3 0.626483 0.755910 0.004954
O O4 0.500000 0.716687 0.000000
O O5 0.883158 0.500000 0.286944
O O6 0.830290 0.247163 0.262445
O O7 0.881396 0.325310 0.155369
O O8 0.972853 0.285981 0.355136
O O9 0.921774 0.819896 0.463898
O O10 0.778771 0.775800 0.370626
O O11 0.819028 0.000000 0.319006
O O12 0.082236 0.157662 0.374208
O O13 0.142143 0.280664 0.297492
O O14 0.108867 0.000000 0.264319
O O15 0.510774 0.500000 0.615881
O O16 0.250000 0.250000 0.500000
O O17 0.274942 0.000000 0.586654
O O18 0.307765 0.000000 0.993862
O O19 0.250000 0.250000 0.000000
#
# Coordination Sequence:
#
# PCOD8093852 Si02
#       7
#     8   8   8   8   8   8   8
#     4  10  22  42  69  98 127 161 206 259 318 382
#     4  11  24  39  58  89 120 151 200 253 301 353
#     4  10  22  38  56  84 121 162 205 241 290 360
#     4  10  20  37  61  88 120 159 197 239 297 358
#     4  10  19  36  60  84 116 160 201 235 287 359
#     4  11  22  37  57  84 119 159 204 249 296 354
#     4  11  25  44  67  94 126 164 210 261 317 381
#
# _framework density 21.093644000000001
#
# number of rings (size 3 to 8) (size 9 to 14) (size 15 to 20)
#    0.000    1.571    2.857    1.714    0.000    7.714 
#    0.000    4.286    0.000    0.000    0.000    0.000 
#    0.000    0.000    0.000    0.000    0.000    0.000 
#
# Total GULP energy -347037.071584 kJ/mol
# GULP energy per Si atom -12394.181128 kJ/mol
# Density = 2.104563 g / cm^3
# Si number density = 21.093644 Si / 1000 Ang^3
#
#
#
# Elastic Constant Matrix: (Units=GPa)
#
#
# Indices 1 2 3 4 5 6 
#
# 1 124.7989 62.3890 7.2927 0.0000 0.8561 0.0000
# 2 62.3890 101.5978 22.2454 0.0000 0.8896 0.0000
# 3 7.2927 22.2454 31.7293 0.0000 -3.2354 0.0000
# 4 0.0000 0.0000 0.0000 30.2906 0.0000 2.7692
# 5 0.8561 0.8896 -3.2354 0.0000 31.9908 0.0000
# 6 0.0000 0.0000 0.0000 2.7692 0.0000 40.7198
#
#
#
# Elastic Compliance Matrix: (Units=1/GPa)
#
#
# Indices 1 2 3 4 5 6 
#
# 1 0.011769 -0.007845 0.002814 0.000000 0.000188 0.000000
# 2 -0.007845 0.016900 -0.010177 0.000000 -0.001289 0.000000
# 3 0.002814 -0.010177 0.038422 0.000000 0.004094 0.000000
# 4 0.000000 0.000000 0.000000 0.033220 0.000000 -0.002259
# 5 0.000188 -0.001289 0.004094 0.000000 0.031704 0.000000
# 6 0.000000 0.000000 0.000000 -0.002259 0.000000 0.024712
#
#
# Mechanical properties :
#
#
# Convention : Reuss Voigt Hill
#
# Bulk Modulus (GPa) = 27.26591 49.10891 38.18741
# Shear Modulus (GPa) = 25.07947 31.68017 28.37982
#
# Velocity S-wave (km/s) = 3.45187 3.87962 3.67198
# Velocity P-wave (km/s) = 5.37042 6.58790 6.01007
#
# Compressibility (1/GPa) = 0.03667584
#
# Stress axis : x y z
#
# Youngs Moduli (GPa) = 84.96942 59.17286 26.02674
#
# Poissons Ratio (x) = 0.46420 -0.07324
# Poissons Ratio (y) = 0.66657 0.26487
# Poissons Ratio (z) = -0.23912 0.60218
#
# Static dielectric constant tensor:
#      x y z
#    x 4.054080 0.000000 -0.140860 
#    y 0.000000 3.915950 0.000000 
#    z -0.140860 0.000000 3.660800 
# 
# 
# High freq. dielectric constant tensor:
#      x y z
#    x 1.838810 0.000000 -0.008090 
#    y 0.000000 1.822510 0.000000 
#    z -0.008090 0.000000 1.812900 
# 
# From -- ./inp_files/288424.got.cif
#   From: 2010.06.25/outbox.cif.g09.slc.cpg/sg12_145_cif.got.tgz:288424.got - 2010.06.28 00:19:55.
