data_PCOD8093068
_publ_section_title
;
Structure prediction by ZEFSAII (Michael W. Deem and Ramdas Pophale) SiO2 
 PCOD8093068
Probable space group: C 2/M
;
_chemical_formula_sum "Si O2"
_cell_formula_units_Z 60
_cell_length_a 21.555700
_cell_length_b 26.613985
_cell_length_c 12.708419
_cell_angle_alpha 90.000000
_cell_angle_beta 26.621737
_cell_angle_gamma 90.000000
_cell_volume 3266.907533
_symmetry_space_group_name_H-M "C 2/M"
_symmetry_group_IT_number 12
_symmetry_cell_setting 'monoclinic'
loop_
_space_group_symop_operation_xyz
x,y,z
-x,y,-z
-x,-y,-z
x,-y,z
1/2+x,1/2+y,z
1/2-x,1/2+y,-z
1/2-x,1/2-y,-z
1/2+x,1/2-y,z
loop_
_atom_site_type_symbol
_atom_site_label
_atom_site_fract_x
_atom_site_fract_y
_atom_site_fract_z
Si Si1 0.300701 0.442805 0.523903
Si Si2 0.000000 0.867903 0.500000
Si Si3 0.150190 0.409244 0.322927
Si Si4 0.621541 0.942270 0.601059
Si Si5 0.765291 0.695692 0.109305
Si Si6 0.417498 0.443652 0.804814
Si Si7 0.344556 0.199065 0.751913
Si Si8 0.907962 0.624186 0.040196
O O1 0.257798 0.500000 0.617326
O O2 0.251896 0.429998 0.479452
O O3 0.466108 0.435429 0.281170
O O4 0.228087 0.406061 0.717849
O O5 0.878344 0.831588 0.646003
O O6 0.940000 0.902786 0.681640
O O7 0.162906 0.429098 0.420891
O O8 0.183183 0.349871 0.276449
O O9 0.000000 0.419970 0.500000
O O10 0.264711 0.438369 0.082810
O O11 0.578614 0.000000 0.674440
O O12 0.488416 0.911055 0.837254
O O13 0.755167 0.756068 0.135074
O O14 0.873108 0.675685 0.032260
O O15 0.817760 0.682966 0.912867
O O16 0.430892 0.500000 0.737607
O O17 0.500000 0.218525 0.500000
O O18 0.000000 0.639498 0.000000
#
# Coordination Sequence:
#
# PCOD8093068 Si02
#       8
#     8   4   8   8   8   8   8   8
#     4   9  19  36  57  81 110 150 194 228 271 335
#     4  12  21  38  58  88 112 144 183 238 286 340
#     4  11  23  39  55  81 115 150 190 233 281 335
#     4  10  21  36  57  82 112 153 192 227 273 336
#     4  11  21  37  61  86 108 147 187 234 288 335
#     4  11  23  37  56  83 117 150 182 232 285 335
#     4  10  21  37  60  82 109 145 191 236 276 336
#     4  10  19  35  59  84 117 144 183 234 285 329
#
# _framework density 18.365991999999999
#
# number of rings (size 3 to 8) (size 9 to 14) (size 15 to 20)
#    0.000    1.600    3.333    2.600    0.000    3.200 
#    0.000    2.000    2.933    2.400    0.000    0.000 
#    0.000    0.000    0.000    0.000    0.000    0.000 
#
# Total GULP energy -372010.564922 kJ/mol
# GULP energy per Si atom -12400.352164 kJ/mol
# Density = 1.832419 g / cm^3
# Si number density = 18.365992 Si / 1000 Ang^3
#
#
#
# Elastic Constant Matrix: (Units=GPa)
#
#
# Indices 1 2 3 4 5 6 
#
# 1 77.6978 38.8158 35.8325 0.0047 -0.8539 -0.0068
# 2 38.8158 76.1142 21.1993 -0.0033 -6.9522 0.0072
# 3 35.8325 21.1993 98.9132 -0.0103 -1.9634 0.0307
# 4 0.0047 -0.0033 -0.0103 29.3200 0.0018 -1.1563
# 5 -0.8539 -6.9522 -1.9634 0.0018 28.6227 -0.0119
# 6 -0.0068 0.0072 0.0307 -1.1563 -0.0119 26.8211
#
#
#
# Elastic Compliance Matrix: (Units=1/GPa)
#
#
# Indices 1 2 3 4 5 6 
#
# 1 0.019642 -0.008718 -0.005285 -0.000005 -0.001894 0.000012
# 2 -0.008718 0.018139 -0.000648 0.000003 0.004101 -0.000004
# 3 -0.005285 -0.000648 0.012174 0.000004 0.000520 -0.000015
# 4 -0.000005 0.000003 0.000004 0.034164 -0.000001 0.001473
# 5 -0.001894 0.004101 0.000520 -0.000001 0.035913 0.000014
# 6 0.000012 -0.000004 -0.000015 0.001473 0.000014 0.037348
#
#
# Mechanical properties :
#
#
# Convention : Reuss Voigt Hill
#
# Bulk Modulus (GPa) = 48.41830 49.38004 48.89917
# Shear Modulus (GPa) = 25.83111 27.41127 26.62119
#
# Velocity S-wave (km/s) = 3.75435 3.86748 3.81134
# Velocity P-wave (km/s) = 6.72412 6.84750 6.78609
#
# Compressibility (1/GPa) = 0.02065335
#
# Stress axis : x y z
#
# Youngs Moduli (GPa) = 50.91142 55.12960 82.14540
#
# Poissons Ratio (x) = 0.48061 0.43411
# Poissons Ratio (y) = 0.44384 0.05323
# Poissons Ratio (z) = 0.26905 0.03573
#
# Static dielectric constant tensor:
#      x y z
#    x 3.335130 -0.000020 -0.031350 
#    y -0.000020 3.417470 0.000040 
#    z -0.031350 0.000040 3.449990 
# 
# 
# High freq. dielectric constant tensor:
#      x y z
#    x 1.700800 0.000000 -0.001590 
#    y 0.000000 1.715920 0.000000 
#    z -0.001590 0.000000 1.717610 
# 
# From -- ./inp_files/170367.got.cif
#   From: 2010.06.25/outbox.cif.g09.slc.cpg/sg12_86_cif.got.tgz:170367.got - 2010.06.28 00:19:55.
