data_PCOD8093102
_publ_section_title
;
Structure prediction by ZEFSAII (Michael W. Deem and Ramdas Pophale) SiO2 
 PCOD8093102
Probable space group: C 2/M
;
_chemical_formula_sum "Si O2"
_cell_formula_units_Z 64
_cell_length_a 9.615797
_cell_length_b 16.824379
_cell_length_c 32.544392
_cell_angle_alpha 90.000000
_cell_angle_beta 38.037620
_cell_angle_gamma 90.000000
_cell_volume 3244.196900
_symmetry_space_group_name_H-M "C 2/M"
_symmetry_group_IT_number 12
_symmetry_cell_setting 'monoclinic'
loop_
_space_group_symop_operation_xyz
x,y,z
-x,y,-z
-x,-y,-z
x,-y,z
1/2+x,1/2+y,z
1/2-x,1/2+y,-z
1/2-x,1/2-y,-z
1/2+x,1/2-y,z
loop_
_atom_site_type_symbol
_atom_site_label
_atom_site_fract_x
_atom_site_fract_y
_atom_site_fract_z
Si Si1 0.209818 0.590638 0.339512
Si Si2 0.807297 0.331272 0.575978
Si Si3 0.780738 0.907547 0.574455
Si Si4 0.001114 0.770356 0.239834
Si Si5 0.367333 0.309419 0.626514
Si Si6 0.253600 0.590996 0.953830
Si Si7 0.724165 0.320897 0.974043
Si Si8 0.515399 0.731967 0.849658
O O1 0.239286 0.500000 0.318043
O O2 0.238762 0.595763 0.382173
O O3 0.407645 0.641672 0.271978
O O4 0.961214 0.626078 0.385374
O O5 0.601907 0.312191 0.594438
O O6 0.865556 0.256000 0.590786
O O7 0.000000 0.356805 0.500000
O O8 0.808123 0.891307 0.616763
O O9 0.000000 0.869709 0.500000
O O10 0.776770 0.000000 0.566452
O O11 0.216937 0.742419 0.215637
O O12 0.076038 0.766534 0.175253
O O13 0.813621 0.706147 0.295751
O O14 0.311339 0.500000 0.928579
O O15 0.432061 0.649592 0.890132
O O16 0.267405 0.599126 0.000540
O O17 0.000000 0.614347 0.000000
O O18 0.925786 0.310361 0.894402
O O19 0.500000 0.315157 0.000000
O O20 0.750000 0.250000 0.000000
#
# Coordination Sequence:
#
# PCOD8093102 Si02
#       8
#     8   8   8   8   8   8   8   8
#     4  10  22  39  55  78 113 148 187 236 288 338
#     4  11  21  34  57  81 105 142 187 241 295 344
#     4  10  20  36  59  83 109 144 186 237 297 352
#     4  11  22  36  55  79 110 152 193 228 271 328
#     4  11  21  36  53  79 114 144 187 237 283 335
#     4  10  21  38  61  91 122 148 182 232 284 326
#     4  10  19  35  59  86 115 146 185 233 280 322
#     4  11  20  36  59  83 111 150 195 226 265 330
#
# _framework density 19.727533999999999
#
# number of rings (size 3 to 8) (size 9 to 14) (size 15 to 20)
#    0.000    1.500    0.000    9.000    0.000    1.500 
#    0.000    1.250    0.000    3.000    0.000    0.000 
#    0.000    0.000    0.000    0.000    0.000    0.000 
#
# Total GULP energy -396640.951309 kJ/mol
# GULP energy per Si atom -12395.029728 kJ/mol
# Density = 1.968263 g / cm^3
# Si number density = 19.727534 Si / 1000 Ang^3
#
#
#
# Elastic Constant Matrix: (Units=GPa)
#
#
# Indices 1 2 3 4 5 6 
#
# 1 139.7482 30.2759 29.0149 -0.0002 -4.3504 -0.0014
# 2 30.2759 52.2613 31.1668 -0.0062 -9.7178 -0.0015
# 3 29.0149 31.1668 105.6237 -0.0256 3.3161 -0.0004
# 4 -0.0002 -0.0062 -0.0256 37.8161 -0.0024 6.1853
# 5 -4.3504 -9.7178 3.3161 -0.0024 45.8392 0.0024
# 6 -0.0014 -0.0015 -0.0004 6.1853 0.0024 27.4514
#
#
#
# Elastic Compliance Matrix: (Units=1/GPa)
#
#
# Indices 1 2 3 4 5 6 
#
# 1 0.008276 -0.004179 -0.001039 -0.000001 -0.000025 0.000000
# 2 -0.004179 0.026763 -0.006931 0.000000 0.005779 0.000001
# 3 -0.001039 -0.006931 0.011874 0.000007 -0.002427 -0.000002
# 4 -0.000001 0.000000 0.000007 0.027456 0.000001 -0.006186
# 5 -0.000025 0.005779 -0.002427 0.000001 0.023214 -0.000002
# 6 0.000000 0.000001 -0.000002 -0.006186 -0.000002 0.037822
#
#
# Mechanical properties :
#
#
# Convention : Reuss Voigt Hill
#
# Bulk Modulus (GPa) = 44.21800 53.17207 48.69503
# Shear Modulus (GPa) = 29.89674 36.03302 32.96488
#
# Velocity S-wave (km/s) = 3.89714 4.27843 4.09223
# Velocity P-wave (km/s) = 6.53554 7.17066 6.86046
#
# Compressibility (1/GPa) = 0.02261523
#
# Stress axis : x y z
#
# Youngs Moduli (GPa) = 120.82845 37.36440 84.21524
#
# Poissons Ratio (x) = 0.15616 0.08754
# Poissons Ratio (y) = 0.50499 0.58366
# Poissons Ratio (z) = 0.12560 0.25896
#
# Static dielectric constant tensor:
#      x y z
#    x 3.897390 0.000000 0.077970 
#    y 0.000000 3.547800 -0.000950 
#    z 0.077970 -0.000950 2.610300 
# 
# 
# High freq. dielectric constant tensor:
#      x y z
#    x 1.787160 0.000000 0.001000 
#    y 0.000000 1.747000 0.000000 
#    z 0.001000 0.000000 1.770780 
# 
# From -- ./inp_files/372934.got.cif
#   From: 2010.06.25/outbox.cif.g09.slc.cpg/sg12_187_cif.got.tgz:372934.got - 2010.06.28 00:19:55.
