data_PCOD8093619
_publ_section_title
;
Structure prediction by ZEFSAII (Michael W. Deem and Ramdas Pophale) SiO2 
 PCOD8093619
Probable space group: C 2/M
;
_chemical_formula_sum "Si O2"
_cell_formula_units_Z 64
_cell_length_a 19.862075
_cell_length_b 9.054426
_cell_length_c 23.411984
_cell_angle_alpha 90.000000
_cell_angle_beta 120.772781
_cell_angle_gamma 90.000000
_cell_volume 3617.591884
_symmetry_space_group_name_H-M "C 2/M"
_symmetry_group_IT_number 12
_symmetry_cell_setting 'monoclinic'
loop_
_space_group_symop_operation_xyz
x,y,z
-x,y,-z
-x,-y,-z
x,-y,z
1/2+x,1/2+y,z
1/2-x,1/2+y,-z
1/2-x,1/2-y,-z
1/2+x,1/2-y,z
loop_
_atom_site_type_symbol
_atom_site_label
_atom_site_fract_x
_atom_site_fract_y
_atom_site_fract_z
Si Si1 0.546909 0.667748 0.461974
Si Si2 0.270763 0.673563 0.950343
Si Si3 0.814960 0.666466 0.804799
Si Si4 0.740985 0.668790 0.661475
Si Si5 0.291179 0.825491 0.464883
Si Si6 0.821396 0.669357 0.197438
Si Si7 0.093297 0.172427 0.675087
Si Si8 0.413553 0.170331 0.950366
O O1 0.500000 0.672093 0.500000
O O2 0.576333 0.500000 0.463295
O O3 0.618510 0.779182 0.496848
O O4 0.489697 0.724074 0.386668
O O5 0.283996 0.500000 0.964754
O O6 0.250000 0.750000 0.000000
O O7 0.195786 0.704239 0.876536
O O8 0.350535 0.740020 0.959534
O O9 0.781605 0.500000 0.802382
O O10 0.817236 0.686675 0.736707
O O11 0.757298 0.789074 0.803662
O O12 0.896940 0.685365 0.874443
O O13 0.732230 0.500000 0.636268
O O14 0.751984 0.773134 0.611748
O O15 0.663318 0.717630 0.662497
O O16 0.250000 0.750000 0.500000
O O17 0.283834 0.000000 0.466892
O O18 0.840131 0.500000 0.215510
O O19 0.894620 0.756649 0.256785
O O20 0.093143 0.000000 0.683919
O O21 0.408713 0.000000 0.967752
O O22 0.500000 0.234568 0.000000
#
# Coordination Sequence:
#
# PCOD8093619 Si02
#       8
#     8   8   8   8   8   8   8   8
#     4  10  19  36  58  80 107 136 168 208 256 308
#     4  10  20  33  51  75 104 140 178 215 256 304
#     4   8  15  28  48  73 101 134 169 204 251 308
#     4   9  16  31  52  75 102 134 172 208 253 307
#     4  12  25  38  54  76 104 138 176 216 260 308
#     4   9  17  28  45  73 105 132 167 215 257 294
#     4   9  17  30  53  79 104 135 165 203 256 309
#     4   9  17  31  53  80 107 135 170 211 257 307
#
# _framework density 17.691324999999999
#
# number of rings (size 3 to 8) (size 9 to 14) (size 15 to 20)
#    0.000    2.500    1.250    2.625    0.000    4.500 
#    0.000    0.000    2.750    0.000    0.000    0.000 
#    0.000    0.000    0.000    0.000    0.000    0.000 
#
# Total GULP energy -396540.268229 kJ/mol
# GULP energy per Si atom -12391.883382 kJ/mol
# Density = 1.765106 g / cm^3
# Si number density = 17.691325 Si / 1000 Ang^3
#
#
#
# Elastic Constant Matrix: (Units=GPa)
#
#
# Indices 1 2 3 4 5 6 
#
# 1 52.5124 31.9187 50.3733 0.0000 -0.6911 0.0000
# 2 31.9187 77.4079 61.7520 0.0000 -8.5305 0.0000
# 3 50.3733 61.7520 170.5683 0.0000 6.0152 0.0000
# 4 0.0000 0.0000 0.0000 30.7376 0.0000 -2.1212
# 5 -0.6911 -8.5305 6.0152 0.0000 25.6133 0.0000
# 6 0.0000 0.0000 0.0000 -2.1212 0.0000 20.5178
#
#
#
# Elastic Compliance Matrix: (Units=1/GPa)
#
#
# Indices 1 2 3 4 5 6 
#
# 1 0.029211 -0.007307 -0.005973 0.000000 -0.000243 0.000000
# 2 -0.007307 0.021615 -0.005964 0.000000 0.008402 0.000000
# 3 -0.005973 -0.005964 0.009944 0.000000 -0.004483 0.000000
# 4 0.000000 0.000000 0.000000 0.032767 0.000000 0.003388
# 5 -0.000243 0.008402 -0.004483 0.000000 0.042887 0.000000
# 6 0.000000 0.000000 0.000000 0.003388 0.000000 0.049088
#
#
# Mechanical properties :
#
#
# Convention : Reuss Voigt Hill
#
# Bulk Modulus (GPa) = 44.87775 65.39738 55.13757
# Shear Modulus (GPa) = 21.60509 25.80339 23.70424
#
# Velocity S-wave (km/s) = 3.49839 3.82322 3.66441
# Velocity P-wave (km/s) = 6.46069 7.51900 7.00985
#
# Compressibility (1/GPa) = 0.02228276
#
# Stress axis : x y z
#
# Youngs Moduli (GPa) = 34.23392 46.26383 100.56409
#
# Poissons Ratio (x) = 0.33804 0.60065
# Poissons Ratio (y) = 0.25014 0.59975
# Poissons Ratio (z) = 0.20447 0.27591
#
# Static dielectric constant tensor:
#      x y z
#    x 2.792540 0.000000 0.107640 
#    y 0.000000 3.309670 0.000000 
#    z 0.107640 0.000000 3.867300 
# 
# 
# High freq. dielectric constant tensor:
#      x y z
#    x 1.626860 0.000000 0.009250 
#    y 0.000000 1.683280 0.000000 
#    z 0.009250 0.000000 1.711180 
# 
# From -- ./inp_files/320123.got.cif
#   From: 2010.06.25/outbox.cif.g09.slc.cpg/sg12_161_cif.got.tgz:320123.got - 2010.06.28 00:19:55.
