data_PCOD8093224
_publ_section_title
;
Structure prediction by ZEFSAII (Michael W. Deem and Ramdas Pophale) SiO2 
 PCOD8093224
Probable space group: C 2/M
;
_chemical_formula_sum "Si O2"
_cell_formula_units_Z 56
_cell_length_a 17.502281
_cell_length_b 18.209782
_cell_length_c 9.319149
_cell_angle_alpha 90.000000
_cell_angle_beta 74.442200
_cell_angle_gamma 90.000000
_cell_volume 2861.306835
_symmetry_space_group_name_H-M "C 2/M"
_symmetry_group_IT_number 12
_symmetry_cell_setting 'monoclinic'
loop_
_space_group_symop_operation_xyz
x,y,z
-x,y,-z
-x,-y,-z
x,-y,z
1/2+x,1/2+y,z
1/2-x,1/2+y,-z
1/2-x,1/2-y,-z
1/2+x,1/2-y,z
loop_
_atom_site_type_symbol
_atom_site_label
_atom_site_fract_x
_atom_site_fract_y
_atom_site_fract_z
Si Si1 0.928944 0.579303 0.433754
Si Si2 0.644276 0.412255 0.157754
Si Si3 0.738555 0.814727 0.713746
Si Si4 0.715357 0.840290 0.398055
Si Si5 0.947032 0.323846 0.164695
Si Si6 0.341640 0.582743 0.177714
Si Si7 0.011799 0.836393 0.825373
O O1 0.886241 0.500000 0.426440
O O2 0.876267 0.639497 0.541922
O O3 0.959965 0.609870 0.267077
O O4 0.000000 0.562687 0.500000
O O5 0.643990 0.500000 0.188244
O O6 0.709481 0.372396 0.222821
O O7 0.557004 0.377071 0.231364
O O8 0.665642 0.392300 0.983630
O O9 0.748145 0.835578 0.542873
O O10 0.772580 0.732036 0.706298
O O11 0.647735 0.815500 0.818578
O O12 0.756883 0.907300 0.294518
O O13 0.982364 0.249354 0.217125
O O14 0.000000 0.343363 0.000000
O O15 0.371296 0.500000 0.167203
O O16 0.402571 0.628130 0.247064
O O17 0.000000 0.848546 0.000000
#
# Coordination Sequence:
#
# PCOD8093224 Si02
#       7
#     8   8   8   8   8   8   8
#     4  10  23  40  58  83 115 154 200 248 297 351
#     4  10  22  37  59  92 124 156 196 251 305 354
#     4  10  22  39  59  88 121 152 199 246 301 358
#     4  10  21  39  59  84 115 160 198 241 301 363
#     4  10  21  39  62  88 116 157 199 246 299 354
#     4  10  19  35  60  86 118 158 199 243 296 362
#     4   9  18  36  57  87 121 156 196 239 297 356
#
# _framework density 19.571476000000001
#
# number of rings (size 3 to 8) (size 9 to 14) (size 15 to 20)
#    0.000    2.143    1.429    0.857    2.000    6.571 
#    0.000    2.143    0.000    1.714    0.000    0.000 
#    0.000    0.000    0.000    0.000    0.000    0.000 
#
# Total GULP energy -347015.205387 kJ/mol
# GULP energy per Si atom -12393.400192 kJ/mol
# Density = 1.952693 g / cm^3
# Si number density = 19.571476 Si / 1000 Ang^3
#
#
#
# Elastic Constant Matrix: (Units=GPa)
#
#
# Indices 1 2 3 4 5 6 
#
# 1 101.8014 63.0857 42.7928 0.0000 2.2385 0.0000
# 2 63.0857 119.1051 49.4970 0.0000 0.6580 0.0000
# 3 42.7928 49.4970 77.1979 0.0000 -16.4269 0.0000
# 4 0.0000 0.0000 0.0000 30.9581 0.0000 -0.5890
# 5 2.2385 0.6580 -16.4269 0.0000 18.3967 0.0000
# 6 0.0000 0.0000 0.0000 -0.5890 0.0000 36.0390
#
#
#
# Elastic Compliance Matrix: (Units=1/GPa)
#
#
# Indices 1 2 3 4 5 6 
#
# 1 0.016632 -0.005714 -0.007337 0.000000 -0.008371 0.000000
# 2 -0.005714 0.014627 -0.007623 0.000000 -0.006634 0.000000
# 3 -0.007337 -0.007623 0.027354 0.000000 0.025590 0.000000
# 4 0.000000 0.000000 0.000000 0.032312 0.000000 0.000528
# 5 -0.008371 -0.006634 0.025590 0.000000 0.078464 0.000000
# 6 0.000000 0.000000 0.000000 0.000528 0.000000 0.027756
#
#
# Mechanical properties :
#
#
# Convention : Reuss Voigt Hill
#
# Bulk Modulus (GPa) = 57.92071 67.65059 62.78565
# Shear Modulus (GPa) = 20.47099 26.59403 23.53251
#
# Velocity S-wave (km/s) = 3.23764 3.69021 3.47131
# Velocity P-wave (km/s) = 6.60569 7.26621 6.94381
#
# Compressibility (1/GPa) = 0.01726498
#
# Stress axis : x y z
#
# Youngs Moduli (GPa) = 60.12353 68.36722 36.55814
#
# Poissons Ratio (x) = 0.39066 0.26824
# Poissons Ratio (y) = 0.34355 0.27867
# Poissons Ratio (z) = 0.44115 0.52113
#
# Static dielectric constant tensor:
#      x y z
#    x 3.522530 0.000000 -0.188840 
#    y 0.000000 3.777440 0.000000 
#    z -0.188840 0.000000 3.435780 
# 
# 
# High freq. dielectric constant tensor:
#      x y z
#    x 1.755310 0.000000 -0.016070 
#    y 0.000000 1.775400 0.000000 
#    z -0.016070 0.000000 1.747430 
# 
# From -- ./inp_files/75907.got.cif
#   From: 2010.06.25/outbox.cif.g09.slc.cpg/sg12_38_cif.got.tgz:75907.got - 2010.06.28 00:19:55.
