data_PCOD8093327
_publ_section_title
;
Structure prediction by ZEFSAII (Michael W. Deem and Ramdas Pophale) SiO2 
 PCOD8093327
Probable space group: C 2/M
;
_chemical_formula_sum "Si O2"
_cell_formula_units_Z 56
_cell_length_a 20.999710
_cell_length_b 15.962259
_cell_length_c 9.485753
_cell_angle_alpha 90.000000
_cell_angle_beta 54.646657
_cell_angle_gamma 90.000000
_cell_volume 2593.321003
_symmetry_space_group_name_H-M "C 2/M"
_symmetry_group_IT_number 12
_symmetry_cell_setting 'monoclinic'
loop_
_space_group_symop_operation_xyz
x,y,z
-x,y,-z
-x,-y,-z
x,-y,z
1/2+x,1/2+y,z
1/2-x,1/2+y,-z
1/2-x,1/2-y,-z
1/2+x,1/2-y,z
loop_
_atom_site_type_symbol
_atom_site_label
_atom_site_fract_x
_atom_site_fract_y
_atom_site_fract_z
Si Si1 0.277386 0.900402 0.293651
Si Si2 0.149937 0.904068 0.962435
Si Si3 0.954349 0.403774 0.701374
Si Si4 0.060371 0.401082 0.806863
Si Si5 0.863118 0.099819 0.336425
Si Si6 0.510264 0.400185 0.327846
Si Si7 0.284198 0.842125 0.966780
O O1 0.355655 0.861722 0.263567
O O2 0.207452 0.864944 0.478317
O O3 0.279046 0.000000 0.292519
O O4 0.268295 0.872949 0.144552
O O5 0.142412 0.862557 0.815884
O O6 0.237165 0.896912 0.912164
O O7 0.126850 0.000000 0.972326
O O8 0.089418 0.864645 0.153890
O O9 0.931417 0.500000 0.770786
O O10 0.875685 0.348612 0.809420
O O11 0.000000 0.398918 0.500000
O O12 0.021227 0.365644 0.716122
O O13 0.070801 0.500000 0.782690
O O14 0.000000 0.372869 0.000000
O O15 0.941415 0.130416 0.313112
O O16 0.858619 0.000000 0.336272
O O17 0.500000 0.363223 0.500000
O O18 0.511984 0.500000 0.337055
O O19 0.250000 0.750000 0.000000
#
# Coordination Sequence:
#
# PCOD8093327 Si02
#       7
#     8   8   8   8   8   8   8
#     4  10  19  35  61  89 117 151 198 251 310 374
#     4  10  20  35  58  83 113 150 197 253 302 352
#     4  10  21  38  66  96 121 152 202 265 319 362
#     4   9  16  30  57  91 116 142 187 251 313 359
#     4   9  18  31  55  90 116 140 185 249 305 353
#     4   9  16  29  52  82 113 145 185 234 285 338
#     4  12  25  40  56  82 125 164 200 240 303 379
#
# _framework density 21.593931999999999
#
# number of rings (size 3 to 8) (size 9 to 14) (size 15 to 20)
#    0.000    2.143    1.429    2.571    2.000    4.000 
#    0.000    2.857    6.286    0.000    0.000    0.000 
#    0.000    0.000    0.000    0.000    0.000    0.000 
#
# Total GULP energy -347017.594485 kJ/mol
# GULP energy per Si atom -12393.485517 kJ/mol
# Density = 2.154478 g / cm^3
# Si number density = 21.593932 Si / 1000 Ang^3
#
#
#
# Elastic Constant Matrix: (Units=GPa)
#
#
# Indices 1 2 3 4 5 6 
#
# 1 196.7804 9.2501 67.1244 0.0000 15.5114 0.0000
# 2 9.2501 25.7225 8.9631 0.0000 -5.6540 0.0000
# 3 67.1244 8.9631 148.3574 0.0000 15.0874 0.0000
# 4 0.0000 0.0000 0.0000 7.7972 0.0000 -5.0341
# 5 15.5114 -5.6540 15.0874 0.0000 45.2695 0.0000
# 6 0.0000 0.0000 0.0000 -5.0341 0.0000 12.3276
#
#
#
# Elastic Compliance Matrix: (Units=1/GPa)
#
#
# Indices 1 2 3 4 5 6 
#
# 1 0.006137 -0.001648 -0.002528 0.000000 -0.001466 0.000000
# 2 -0.001648 0.041773 -0.002449 0.000000 0.006598 0.000000
# 3 -0.002528 -0.002449 0.008255 0.000000 -0.002191 0.000000
# 4 0.000000 0.000000 0.000000 0.174173 0.000000 0.071126
# 5 -0.001466 0.006598 -0.002191 0.000000 0.024147 0.000000
# 6 0.000000 0.000000 0.000000 0.071126 0.000000 0.110164
#
#
# Mechanical properties :
#
#
# Convention : Reuss Voigt Hill
#
# Bulk Modulus (GPa) = 23.30222 60.17062 41.73642
# Shear Modulus (GPa) = 12.74847 32.11371 22.43109
#
# Velocity S-wave (km/s) = 2.43239 3.86056 3.22649
# Velocity P-wave (km/s) = 4.32473 6.91354 5.76629
#
# Compressibility (1/GPa) = 0.04291437
#
# Stress axis : x y z
#
# Youngs Moduli (GPa) = 162.93971 23.93895 121.13759
#
# Poissons Ratio (x) = 0.03946 0.30625
# Poissons Ratio (y) = 0.26859 0.29666
# Poissons Ratio (z) = 0.41193 0.05863
#
# Static dielectric constant tensor:
#      x y z
#    x 4.873360 0.000000 0.149210 
#    y 0.000000 3.280980 0.000000 
#    z 0.149210 0.000000 4.170410 
# 
# 
# High freq. dielectric constant tensor:
#      x y z
#    x 1.869580 0.000000 0.004240 
#    y 0.000000 1.785830 0.000000 
#    z 0.004240 0.000000 1.861390 
# 
# From -- ./inp_files/77374.got.cif
#   From: 2010.06.25/outbox.cif.g09.slc.cpg/sg12_39_cif.got.tgz:77374.got - 2010.06.28 00:19:55.
