data_PCOD8093310
_publ_section_title
;
Structure prediction by ZEFSAII (Michael W. Deem and Ramdas Pophale) SiO2 
 PCOD8093310
Probable space group: C 2/M
;
_chemical_formula_sum "Si O2"
_cell_formula_units_Z 64
_cell_length_a 21.004040
_cell_length_b 8.905887
_cell_length_c 18.200420
_cell_angle_alpha 90.000000
_cell_angle_beta 103.443258
_cell_angle_gamma 90.000000
_cell_volume 3311.280525
_symmetry_space_group_name_H-M "C 2/M"
_symmetry_group_IT_number 12
_symmetry_cell_setting 'monoclinic'
loop_
_space_group_symop_operation_xyz
x,y,z
-x,y,-z
-x,-y,-z
x,-y,z
1/2+x,1/2+y,z
1/2-x,1/2+y,-z
1/2-x,1/2-y,-z
1/2+x,1/2-y,z
loop_
_atom_site_type_symbol
_atom_site_label
_atom_site_fract_x
_atom_site_fract_y
_atom_site_fract_z
Si Si1 0.883716 0.332232 0.638781
Si Si2 0.126243 0.677634 0.687635
Si Si3 0.154469 0.173751 0.143769
Si Si4 0.044579 0.331743 0.189180
Si Si5 0.682677 0.177434 0.999808
Si Si6 0.729443 0.323671 0.310160
Si Si7 0.002750 0.172554 0.414236
Si Si8 0.101143 0.322340 0.842002
O O1 0.870033 0.500000 0.604801
O O2 0.925698 0.339841 0.722839
O O3 0.813056 0.256398 0.637318
O O4 0.928006 0.243576 0.592171
O O5 0.115266 0.500000 0.680840
O O6 0.193737 0.722786 0.663557
O O7 0.062276 0.751864 0.635788
O O8 0.134693 0.730809 0.774818
O O9 0.081358 0.209758 0.149976
O O10 0.204518 0.221437 0.221886
O O11 0.162600 0.000000 0.125160
O O12 0.163226 0.275742 0.075615
O O13 0.046076 0.500000 0.154377
O O14 0.972691 0.264459 0.177177
O O15 0.634962 0.243187 0.923953
O O16 0.686931 0.000000 0.996516
O O17 0.750000 0.250000 0.000000
O O18 0.719847 0.500000 0.318973
O O19 0.000000 0.192102 0.500000
O O20 0.002694 0.000000 0.389522
O O21 0.103199 0.500000 0.845449
#
# Coordination Sequence:
#
# PCOD8093310 Si02
#       8
#     8   8   8   8   8   8   8   8
#     4  10  19  35  61  87 114 148 192 234 273 334
#     4  10  19  37  62  87 112 145 192 237 278 335
#     4  10  20  35  53  77 112 148 185 229 279 331
#     4   9  17  33  56  80 105 139 184 230 275 328
#     4  11  22  36  53  73 104 146 187 231 284 336
#     4   9  19  35  59  86 117 154 190 234 287 334
#     4  11  24  40  59  86 120 151 180 224 283 341
#     4   9  18  34  56  79 107 143 184 230 281 331
#
# _framework density 19.327870999999998
#
# number of rings (size 3 to 8) (size 9 to 14) (size 15 to 20)
#    0.000    2.125    1.250    2.250    0.000    5.000 
#    0.000    6.875    0.000    0.000    0.000    0.000 
#    0.000    0.000    0.000    0.000    0.000    0.000 
#
# Total GULP energy -396645.546466 kJ/mol
# GULP energy per Si atom -12395.173327 kJ/mol
# Density = 1.928388 g / cm^3
# Si number density = 19.327871 Si / 1000 Ang^3
#
#
#
# Elastic Constant Matrix: (Units=GPa)
#
#
# Indices 1 2 3 4 5 6 
#
# 1 120.5751 37.6208 38.0314 0.0000 -18.4057 0.0000
# 2 37.6208 74.0160 34.7246 0.0000 -9.0038 0.0000
# 3 38.0314 34.7246 63.9117 0.0000 -17.0669 0.0000
# 4 0.0000 0.0000 0.0000 26.7920 0.0000 -4.1984
# 5 -18.4057 -9.0038 -17.0669 0.0000 21.9231 0.0000
# 6 0.0000 0.0000 0.0000 -4.1984 0.0000 34.5787
#
#
#
# Elastic Compliance Matrix: (Units=1/GPa)
#
#
# Indices 1 2 3 4 5 6 
#
# 1 0.011270 -0.003492 -0.003365 0.000000 0.005408 0.000000
# 2 -0.003492 0.019216 -0.008885 0.000000 -0.001957 0.000000
# 3 -0.003365 -0.008885 0.026193 0.000000 0.013917 0.000000
# 4 0.000000 0.000000 0.000000 0.038048 0.000000 0.004620
# 5 0.005408 -0.001957 0.013917 0.000000 0.060185 0.000000
# 6 0.000000 0.000000 0.000000 0.004620 0.000000 0.029480
#
#
# Mechanical properties :
#
#
# Convention : Reuss Voigt Hill
#
# Bulk Modulus (GPa) = 39.69061 53.25074 46.47068
# Shear Modulus (GPa) = 22.29416 26.53382 24.41399
#
# Velocity S-wave (km/s) = 3.39996 3.70919 3.55794
# Velocity P-wave (km/s) = 5.99942 6.77902 6.40110
#
# Compressibility (1/GPa) = 0.02519487
#
# Stress axis : x y z
#
# Youngs Moduli (GPa) = 88.73140 52.04063 38.17863
#
# Poissons Ratio (x) = 0.18171 0.12847
# Poissons Ratio (y) = 0.30982 0.33922
# Poissons Ratio (z) = 0.29858 0.46238
#
# Static dielectric constant tensor:
#      x y z
#    x 3.759240 0.000000 0.007630 
#    y 0.000000 3.518620 0.000000 
#    z 0.007630 0.000000 3.362840 
# 
# 
# High freq. dielectric constant tensor:
#      x y z
#    x 1.765050 0.000000 -0.010870 
#    y 0.000000 1.740260 0.000000 
#    z -0.010870 0.000000 1.740430 
# 
# From -- ./inp_files/281297.got.cif
#   From: 2010.06.25/outbox.cif.g09.slc.cpg/sg12_141_cif.got.tgz:281297.got - 2010.06.28 00:19:55.
