data_PCOD8093959
_publ_section_title
;
Structure prediction by ZEFSAII (Michael W. Deem and Ramdas Pophale) SiO2 
 PCOD8093959
Probable space group: C 2/M
;
_chemical_formula_sum "Si O2"
_cell_formula_units_Z 56
_cell_length_a 10.864785
_cell_length_b 19.142928
_cell_length_c 13.886038
_cell_angle_alpha 90.000000
_cell_angle_beta 96.075674
_cell_angle_gamma 90.000000
_cell_volume 2871.848530
_symmetry_space_group_name_H-M "C 2/M"
_symmetry_group_IT_number 12
_symmetry_cell_setting 'monoclinic'
loop_
_space_group_symop_operation_xyz
x,y,z
-x,y,-z
-x,-y,-z
x,-y,z
1/2+x,1/2+y,z
1/2-x,1/2+y,-z
1/2-x,1/2-y,-z
1/2+x,1/2-y,z
loop_
_atom_site_type_symbol
_atom_site_label
_atom_site_fract_x
_atom_site_fract_y
_atom_site_fract_z
Si Si1 0.840253 0.810130 0.633114
Si Si2 0.220453 0.420005 0.151114
Si Si3 0.146925 0.310607 0.770302
Si Si4 0.796940 0.663244 0.561771
Si Si5 0.467602 0.078028 0.691700
Si Si6 0.402850 0.338636 0.291891
Si Si7 0.642929 0.808857 0.987033
O O1 0.781940 0.800435 0.734604
O O2 0.874005 0.734853 0.587802
O O3 0.744506 0.847021 0.551849
O O4 0.960576 0.858748 0.658788
O O5 0.238882 0.500000 0.118798
O O6 0.109741 0.413140 0.217129
O O7 0.348049 0.394289 0.211549
O O8 0.183761 0.372552 0.057973
O O9 0.079563 0.235644 0.760749
O O10 0.149374 0.337778 0.879450
O O11 0.080767 0.369212 0.701499
O O12 0.880830 0.596697 0.593755
O O13 0.677753 0.667780 0.619576
O O14 0.517800 0.000000 0.683058
O O15 0.500000 0.784297 0.000000
O O16 0.750000 0.750000 0.000000
#
# Coordination Sequence:
#
# PCOD8093959 Si02
#       7
#     8   8   8   8   8   8   8
#     4  10  20  34  58  86 119 154 197 246 293 355
#     4  10  22  40  62  88 115 156 202 246 295 353
#     4  11  22  35  58  87 118 153 198 240 302 356
#     4   9  19  34  56  88 115 155 199 241 293 348
#     4  10  20  38  59  84 120 153 196 246 293 347
#     4  10  19  36  61  85 120 152 196 250 290 355
#     4  12  25  39  65  94 123 158 203 254 303 358
#
# _framework density 19.499635000000001
#
# number of rings (size 3 to 8) (size 9 to 14) (size 15 to 20)
#    0.000    1.714    4.286    0.429    2.000    1.429 
#    0.000    2.857    0.000    6.429    0.000    0.000 
#    0.000    0.000    0.000    0.000    0.000    0.000 
#
# Total GULP energy -347072.184698 kJ/mol
# GULP energy per Si atom -12395.435168 kJ/mol
# Density = 1.945525 g / cm^3
# Si number density = 19.499635 Si / 1000 Ang^3
#
#
#
# Elastic Constant Matrix: (Units=GPa)
#
#
# Indices 1 2 3 4 5 6 
#
# 1 83.1872 30.8822 29.4801 0.0000 18.8597 0.0000
# 2 30.8822 111.1055 23.5637 0.0000 12.2542 0.0000
# 3 29.4801 23.5637 95.2289 0.0000 3.3043 0.0000
# 4 0.0000 0.0000 0.0000 27.6035 0.0000 3.8482
# 5 18.8597 12.2542 3.3043 0.0000 23.4221 0.0000
# 6 0.0000 0.0000 0.0000 3.8482 0.0000 24.6769
#
#
#
# Elastic Compliance Matrix: (Units=1/GPa)
#
#
# Indices 1 2 3 4 5 6 
#
# 1 0.017181 -0.002558 -0.004273 0.000000 -0.011894 0.000000
# 2 -0.002558 0.010415 -0.001676 0.000000 -0.003153 0.000000
# 3 -0.004273 -0.001676 0.012148 0.000000 0.002604 0.000000
# 4 0.000000 0.000000 0.000000 0.037032 0.000000 -0.005775
# 5 -0.011894 -0.003153 0.002604 0.000000 0.053554 0.000000
# 6 0.000000 0.000000 0.000000 -0.005775 0.000000 0.041424
#
#
# Mechanical properties :
#
#
# Convention : Reuss Voigt Hill
#
# Bulk Modulus (GPa) = 43.99329 50.81925 47.40627
# Shear Modulus (GPa) = 25.46535 28.84686 27.15610
#
# Velocity S-wave (km/s) = 3.61770 3.85041 3.73587
# Velocity P-wave (km/s) = 6.32933 6.77390 6.55539
#
# Compressibility (1/GPa) = 0.02273074
#
# Stress axis : x y z
#
# Youngs Moduli (GPa) = 58.20241 96.01994 82.31644
#
# Poissons Ratio (x) = 0.24557 0.35177
# Poissons Ratio (y) = 0.14885 0.13795
# Poissons Ratio (z) = 0.24872 0.16091
#
# Static dielectric constant tensor:
#      x y z
#    x 3.508630 0.000000 0.091760 
#    y 0.000000 3.398660 0.000000 
#    z 0.091760 0.000000 3.671880 
# 
# 
# High freq. dielectric constant tensor:
#      x y z
#    x 1.752720 0.000000 0.006040 
#    y 0.000000 1.731330 0.000000 
#    z 0.006040 0.000000 1.769440 
# 
# From -- ./inp_files/206227.got.cif
#   From: 2010.06.25/outbox.cif.g09.slc.cpg/sg12_104_cif.got.tgz:206227.got - 2010.06.28 00:19:55.
