data_PCOD8093112
_publ_section_title
;
Structure prediction by ZEFSAII (Michael W. Deem and Ramdas Pophale) SiO2 
 PCOD8093112
Probable space group: C 2/M
;
_chemical_formula_sum "Si O2"
_cell_formula_units_Z 64
_cell_length_a 15.163031
_cell_length_b 8.864741
_cell_length_c 24.106363
_cell_angle_alpha 90.000000
_cell_angle_beta 88.833784
_cell_angle_gamma 90.000000
_cell_volume 3239.617948
_symmetry_space_group_name_H-M "C 2/M"
_symmetry_group_IT_number 12
_symmetry_cell_setting 'monoclinic'
loop_
_space_group_symop_operation_xyz
x,y,z
-x,y,-z
-x,-y,-z
x,-y,z
1/2+x,1/2+y,z
1/2-x,1/2+y,-z
1/2-x,1/2-y,-z
1/2+x,1/2-y,z
loop_
_atom_site_type_symbol
_atom_site_label
_atom_site_fract_x
_atom_site_fract_y
_atom_site_fract_z
Si Si1 0.156464 0.178777 0.861984
Si Si2 0.761216 0.178238 0.559364
Si Si3 0.384434 0.324906 0.363940
Si Si4 0.488587 0.177200 0.063906
Si Si5 0.359045 0.671308 0.746383
Si Si6 0.643440 0.177143 0.141370
Si Si7 0.919066 0.825100 0.629935
Si Si8 0.650870 0.827404 0.747892
O O1 0.256988 0.233374 0.872834
O O2 0.120272 0.255452 0.806328
O O3 0.096467 0.233539 0.913330
O O4 0.151139 0.000000 0.855513
O O5 0.750000 0.250000 0.500000
O O6 0.682317 0.223792 0.600784
O O7 0.852899 0.240784 0.584315
O O8 0.761721 0.000000 0.552186
O O9 0.356174 0.500000 0.365986
O O10 0.480539 0.301391 0.390592
O O11 0.392052 0.269493 0.300699
O O12 0.577229 0.231874 0.094158
O O13 0.472057 0.000000 0.072528
O O14 0.500000 0.220526 0.000000
O O15 0.390248 0.500000 0.754231
O O16 0.391821 0.760539 0.799747
O O17 0.402012 0.747231 0.690971
O O18 0.255013 0.683582 0.740107
O O19 0.643193 0.000000 0.146141
O O20 0.894747 0.000000 0.637301
O O21 0.618061 0.000000 0.745404
#
# Coordination Sequence:
#
# PCOD8093112 Si02
#       8
#     8   8   8   8   8   8   8   8
#     4  10  21  37  57  84 116 149 191 243 290 340
#     4  11  23  44  65  85 117 158 199 242 287 342
#     4  11  22  37  60  91 119 153 196 240 289 342
#     4  10  22  40  59  81 114 155 196 236 288 352
#     4   9  17  34  58  83 113 153 191 229 283 349
#     4   9  20  37  55  82 115 149 188 239 289 336
#     4   9  20  38  59  84 118 156 193 231 286 350
#     4  10  19  35  59  86 119 155 191 235 290 349
#
# _framework density 19.755416
#
# number of rings (size 3 to 8) (size 9 to 14) (size 15 to 20)
#    0.000    2.125    1.250    1.500    1.750    2.750 
#    0.000    5.625    0.000    0.000    0.000    0.000 
#    0.000    0.000    0.000    0.000    0.000    0.000 
#
# Total GULP energy -396839.509691 kJ/mol
# GULP energy per Si atom -12401.234678 kJ/mol
# Density = 1.971045 g / cm^3
# Si number density = 19.755416 Si / 1000 Ang^3
#
#
#
# Elastic Constant Matrix: (Units=GPa)
#
#
# Indices 1 2 3 4 5 6 
#
# 1 89.0085 29.3147 49.9669 0.0000 18.8623 0.0000
# 2 29.3147 47.2558 26.5639 0.0000 6.3534 0.0000
# 3 49.9669 26.5639 126.3553 0.0000 23.5319 0.0000
# 4 0.0000 0.0000 0.0000 35.5729 0.0000 -4.2711
# 5 18.8623 6.3534 23.5319 0.0000 27.5897 0.0000
# 6 0.0000 0.0000 0.0000 -4.2711 0.0000 25.6212
#
#
#
# Elastic Compliance Matrix: (Units=1/GPa)
#
#
# Indices 1 2 3 4 5 6 
#
# 1 0.017445 -0.007648 -0.004039 0.000000 -0.006721 0.000000
# 2 -0.007648 0.027399 -0.003013 0.000000 0.001489 0.000000
# 3 -0.004039 -0.003013 0.011296 0.000000 -0.006179 0.000000
# 4 0.000000 0.000000 0.000000 0.028685 0.000000 0.004782
# 5 -0.006721 0.001489 -0.006179 0.000000 0.045767 0.000000
# 6 0.000000 0.000000 0.000000 0.004782 0.000000 0.039827
#
#
# Mechanical properties :
#
#
# Convention : Reuss Voigt Hill
#
# Bulk Modulus (GPa) = 37.39760 52.70115 45.04938
# Shear Modulus (GPa) = 23.95385 28.20837 26.08111
#
# Velocity S-wave (km/s) = 3.48590 3.78283 3.63740
# Velocity P-wave (km/s) = 5.93072 6.76864 6.36349
#
# Compressibility (1/GPa) = 0.02673969
#
# Stress axis : x y z
#
# Youngs Moduli (GPa) = 57.32149 36.49720 88.52897
#
# Poissons Ratio (x) = 0.27913 0.35760
# Poissons Ratio (y) = 0.43839 0.26675
# Poissons Ratio (z) = 0.23154 0.10997
#
# Static dielectric constant tensor:
#      x y z
#    x 3.719860 0.000000 0.086770 
#    y 0.000000 3.474260 0.000000 
#    z 0.086770 0.000000 3.794170 
# 
# 
# High freq. dielectric constant tensor:
#      x y z
#    x 1.776000 0.000000 0.002950 
#    y 0.000000 1.757490 0.000000 
#    z 0.002950 0.000000 1.769680 
# 
# From -- ./inp_files/338850.got.cif
#   From: 2010.06.25/outbox.cif.g09.slc.cpg/sg12_170_cif.got.tgz:338850.got - 2010.06.28 00:19:55.
