data_PCOD8093761
_publ_section_title
;
Structure prediction by ZEFSAII (Michael W. Deem and Ramdas Pophale) SiO2 
 PCOD8093761
Probable space group: C 2/M
;
_chemical_formula_sum "Si O2"
_cell_formula_units_Z 48
_cell_length_a 29.055432
_cell_length_b 15.387216
_cell_length_c 8.526064
_cell_angle_alpha 90.000000
_cell_angle_beta 37.402762
_cell_angle_gamma 90.000000
_cell_volume 2315.372492
_symmetry_space_group_name_H-M "C 2/M"
_symmetry_group_IT_number 12
_symmetry_cell_setting 'monoclinic'
loop_
_space_group_symop_operation_xyz
x,y,z
-x,y,-z
-x,-y,-z
x,-y,z
1/2+x,1/2+y,z
1/2-x,1/2+y,-z
1/2-x,1/2-y,-z
1/2+x,1/2-y,z
loop_
_atom_site_type_symbol
_atom_site_label
_atom_site_fract_x
_atom_site_fract_y
_atom_site_fract_z
Si Si1 0.076768 0.861681 0.848835
Si Si2 0.276232 0.899261 0.632963
Si Si3 0.186390 0.739720 0.999445
Si Si4 0.105182 0.707037 0.532591
Si Si5 0.259610 0.593908 0.621050
Si Si6 0.462309 0.743134 0.756058
O O1 0.091788 0.777766 0.701498
O O2 0.150312 0.921437 0.645815
O O3 0.061786 0.834847 0.067657
O O4 0.000000 0.910759 0.000000
O O5 0.359846 0.878085 0.477744
O O6 0.277788 0.878873 0.443261
O O7 0.256057 0.000000 0.721254
O O8 0.213762 0.836558 0.881430
O O9 0.168405 0.738250 0.233689
O O10 0.113372 0.708189 0.096132
O O11 0.247977 0.667092 0.784622
O O12 0.023413 0.690268 0.670911
O O13 0.227051 0.500000 0.763762
O O14 0.500000 0.699578 0.500000
#
# Coordination Sequence:
#
# PCOD8093761 Si02
#       6
#     8   8   8   8   8   8
#     4  10  19  36  59  84 118 155 196 245 298 354
#     4  11  22  36  58  87 120 156 197 243 299 356
#     4  11  20  39  61  87 120 158 200 250 296 354
#     4  10  21  36  59  91 116 158 198 241 302 353
#     4  11  23  37  59  88 119 161 202 247 301 354
#     4   9  19  35  62  86 114 157 201 239 297 357
#
# _framework density 20.731003999999999
#
# number of rings (size 3 to 8) (size 9 to 14) (size 15 to 20)
#    0.000    1.667    3.333    2.000    0.000    1.000 
#    0.000    0.833    0.000   20.500    0.000    0.000 
#    0.000    0.000    0.000    0.000    0.000    0.000 
#
# Total GULP energy -297376.902361 kJ/mol
# GULP energy per Si atom -12390.704265 kJ/mol
# Density = 2.068382 g / cm^3
# Si number density = 20.731004 Si / 1000 Ang^3
#
#
#
# Elastic Constant Matrix: (Units=GPa)
#
#
# Indices 1 2 3 4 5 6 
#
# 1 109.2207 35.3061 32.9041 0.0000 0.0960 0.0000
# 2 35.3061 101.7886 36.5553 0.0000 4.6979 0.0000
# 3 32.9041 36.5553 95.1610 0.0000 4.4206 0.0000
# 4 0.0000 0.0000 0.0000 8.0311 0.0000 -0.3009
# 5 0.0960 4.6979 4.4206 0.0000 37.5997 0.0000
# 6 0.0000 0.0000 0.0000 -0.3009 0.0000 14.2957
#
#
#
# Elastic Compliance Matrix: (Units=1/GPa)
#
#
# Indices 1 2 3 4 5 6 
#
# 1 0.010886 -0.002834 -0.002705 0.000000 0.000644 0.000000
# 2 -0.002834 0.012166 -0.003643 0.000000 -0.001085 0.000000
# 3 -0.002705 -0.003643 0.012892 0.000000 -0.001054 0.000000
# 4 0.000000 0.000000 0.000000 0.124615 0.000000 0.002623
# 5 0.000644 -0.001085 -0.001054 0.000000 0.026854 0.000000
# 6 0.000000 0.000000 0.000000 0.002623 0.000000 0.070006
#
#
# Mechanical properties :
#
#
# Convention : Reuss Voigt Hill
#
# Bulk Modulus (GPa) = 56.88523 57.30015 57.09269
# Shear Modulus (GPa) = 17.75290 25.41227 21.58258
#
# Velocity S-wave (km/s) = 2.92951 3.50495 3.23007
# Velocity P-wave (km/s) = 6.24035 6.63924 6.44288
#
# Compressibility (1/GPa) = 0.01757925
#
# Stress axis : x y z
#
# Youngs Moduli (GPa) = 91.85756 82.19837 77.56537
#
# Poissons Ratio (x) = 0.23296 0.20985
# Poissons Ratio (y) = 0.26034 0.28257
# Poissons Ratio (z) = 0.24852 0.29945
#
# Static dielectric constant tensor:
#      x y z
#    x 4.367710 0.000000 -0.239710 
#    y 0.000000 3.171450 0.000000 
#    z -0.239710 0.000000 4.007370 
# 
# 
# High freq. dielectric constant tensor:
#      x y z
#    x 1.843460 0.000000 -0.004340 
#    y 0.000000 1.758330 0.000000 
#    z -0.004340 0.000000 1.818220 
# 
# From -- ./inp_files/85973.got.cif
#   From: 2010.06.25/outbox.cif.g09.slc.cpg/sg12_43_cif.got.tgz:85973.got - 2010.06.28 00:19:55.
