data_PCOD8093757
_publ_section_title
;
Structure prediction by ZEFSAII (Michael W. Deem and Ramdas Pophale) SiO2 
 PCOD8093757
Probable space group: C 2/M
;
_chemical_formula_sum "Si O2"
_cell_formula_units_Z 56
_cell_length_a 9.416917
_cell_length_b 18.159740
_cell_length_c 23.174282
_cell_angle_alpha 90.000000
_cell_angle_beta 131.936488
_cell_angle_gamma 90.000000
_cell_volume 2948.024561
_symmetry_space_group_name_H-M "C 2/M"
_symmetry_group_IT_number 12
_symmetry_cell_setting 'monoclinic'
loop_
_space_group_symop_operation_xyz
x,y,z
-x,y,-z
-x,-y,-z
x,-y,z
1/2+x,1/2+y,z
1/2-x,1/2+y,-z
1/2-x,1/2-y,-z
1/2+x,1/2-y,z
loop_
_atom_site_type_symbol
_atom_site_label
_atom_site_fract_x
_atom_site_fract_y
_atom_site_fract_z
Si Si1 0.458987 0.796207 0.209831
Si Si2 0.906117 0.085006 0.161605
Si Si3 0.658312 0.915097 0.737562
Si Si4 0.141946 0.831924 0.740038
Si Si5 0.007447 0.087254 0.407494
Si Si6 0.211306 0.586243 0.422477
Si Si7 0.779763 0.713589 0.947094
O O1 0.387395 0.873505 0.215515
O O2 0.659742 0.803693 0.232359
O O3 0.474432 0.737373 0.266125
O O4 0.296388 0.769475 0.121797
O O5 0.811090 0.109731 0.196185
O O6 0.826954 0.134656 0.087593
O O7 0.131623 0.100698 0.228797
O O8 0.859992 0.000000 0.135960
O O9 0.509745 0.891161 0.646355
O O10 0.627842 0.000000 0.745020
O O11 0.006160 0.870200 0.656360
O O12 0.199277 0.115496 0.492996
O O13 0.828011 0.112499 0.397828
O O14 0.008575 0.000000 0.395132
O O15 0.242019 0.500000 0.434456
O O16 0.750000 0.750000 0.000000
O O17 0.000000 0.697123 0.000000
#
# Coordination Sequence:
#
# PCOD8093757 Si02
#       7
#     8   8   8   8   8   8   8
#     4  11  22  37  58  84 110 145 192 229 280 346
#     4  10  22  38  59  88 117 145 186 235 279 329
#     4  10  19  36  59  84 115 148 185 232 280 327
#     4  11  21  36  57  81 115 152 190 235 278 330
#     4   9  16  30  55  86 113 146 192 233 276 325
#     4   8  15  29  54  84 114 148 186 231 277 326
#     4  11  22  40  61  81 110 148 182 224 285 344
#
# _framework density 18.995771000000001
#
# number of rings (size 3 to 8) (size 9 to 14) (size 15 to 20)
#    0.000    2.000    1.429    5.571    0.000    0.857 
#    0.000    2.143    0.000    6.000    0.000    0.000 
#    0.000    0.000    0.000    0.000    0.000    0.000 
#
# Total GULP energy -347118.804259 kJ/mol
# GULP energy per Si atom -12397.100152 kJ/mol
# Density = 1.895254 g / cm^3
# Si number density = 18.995771 Si / 1000 Ang^3
#
#
#
# Elastic Constant Matrix: (Units=GPa)
#
#
# Indices 1 2 3 4 5 6 
#
# 1 98.1829 52.8898 51.9004 0.0000 5.7603 0.0000
# 2 52.8898 102.0793 69.1050 0.0000 -1.6395 0.0000
# 3 51.9004 69.1050 141.6758 0.0000 2.3977 0.0000
# 4 0.0000 0.0000 0.0000 35.2265 0.0000 -3.6800
# 5 5.7603 -1.6395 2.3977 0.0000 37.9198 0.0000
# 6 0.0000 0.0000 0.0000 -3.6800 0.0000 26.0360
#
#
#
# Elastic Compliance Matrix: (Units=1/GPa)
#
#
# Indices 1 2 3 4 5 6 
#
# 1 0.014905 -0.006109 -0.002440 0.000000 -0.002374 0.000000
# 2 -0.006109 0.017174 -0.006174 0.000000 0.002061 0.000000
# 3 -0.002440 -0.006174 0.010974 0.000000 -0.000590 0.000000
# 4 0.000000 0.000000 0.000000 0.028813 0.000000 0.004072
# 5 -0.002374 0.002061 -0.000590 0.000000 0.026859 0.000000
# 6 0.000000 0.000000 0.000000 0.004072 0.000000 0.038984
#
#
# Mechanical properties :
#
#
# Convention : Reuss Voigt Hill
#
# Bulk Modulus (GPa) = 73.49305 76.63646 75.06476
# Shear Modulus (GPa) = 29.12215 31.03931 30.08073
#
# Velocity S-wave (km/s) = 3.91971 4.04668 3.98370
# Velocity P-wave (km/s) = 7.69797 7.89086 7.79501
#
# Compressibility (1/GPa) = 0.01360673
#
# Stress axis : x y z
#
# Youngs Moduli (GPa) = 67.09135 58.22699 91.12560
#
# Poissons Ratio (x) = 0.35569 0.22238
# Poissons Ratio (y) = 0.40984 0.56262
# Poissons Ratio (z) = 0.16373 0.35950
#
# Static dielectric constant tensor:
#      x y z
#    x 3.427200 0.000000 0.056990 
#    y 0.000000 3.474910 0.000000 
#    z 0.056990 0.000000 3.675700 
# 
# 
# High freq. dielectric constant tensor:
#      x y z
#    x 1.729870 0.000000 0.005260 
#    y 0.000000 1.731140 0.000000 
#    z 0.005260 0.000000 1.743090 
# 
# From -- ./inp_files/301801.got.cif
#   From: 2010.06.25/outbox.cif.g09.slc.cpg/sg12_151_cif.got.tgz:301801.got - 2010.06.28 00:19:55.
