data_PCOD8093193
_publ_section_title
;
Structure prediction by ZEFSAII (Michael W. Deem and Ramdas Pophale) SiO2 
 PCOD8093193
Probable space group: C 2/M
;
_chemical_formula_sum "Si O2"
_cell_formula_units_Z 48
_cell_length_a 17.203452
_cell_length_b 14.369681
_cell_length_c 10.340862
_cell_angle_alpha 90.000000
_cell_angle_beta 101.370988
_cell_angle_gamma 90.000000
_cell_volume 2506.166872
_symmetry_space_group_name_H-M "C 2/M"
_symmetry_group_IT_number 12
_symmetry_cell_setting 'monoclinic'
loop_
_space_group_symop_operation_xyz
x,y,z
-x,y,-z
-x,-y,-z
x,-y,z
1/2+x,1/2+y,z
1/2-x,1/2+y,-z
1/2-x,1/2-y,-z
1/2+x,1/2-y,z
loop_
_atom_site_type_symbol
_atom_site_label
_atom_site_fract_x
_atom_site_fract_y
_atom_site_fract_z
Si Si1 0.363116 0.283115 0.781442
Si Si2 0.330884 0.697919 0.051300
Si Si3 0.505525 0.000000 0.705452
Si Si4 0.249367 0.896811 0.754414
Si Si5 0.980912 0.689216 0.142463
Si Si6 0.232606 0.144152 0.471348
Si Si7 0.134227 0.500000 0.525508
O O1 0.314979 0.184936 0.775023
O O2 0.452880 0.256872 0.772973
O O3 0.332579 0.357282 0.664665
O O4 0.361150 0.336418 0.919984
O O5 0.314161 0.616794 0.150371
O O6 0.394918 0.766347 0.136561
O O7 0.250000 0.750000 0.000000
O O8 0.519618 0.910331 0.794446
O O9 0.571921 0.000000 0.618582
O O10 0.415553 0.000000 0.623540
O O11 0.204123 0.898001 0.599705
O O12 0.287767 0.000000 0.786255
O O13 0.000000 0.674403 0.000000
O O14 0.250000 0.250000 0.500000
O O15 0.311369 0.091613 0.448928
#
# Coordination Sequence:
#
# PCOD8093193 Si02
#       7
#     8   8   4   8   8   8   4
#     4   9  20  37  60  82 118 156 194 235 298 351
#     4   9  20  38  56  84 114 147 198 237 289 352
#     4  11  23  34  56  92 128 145 185 240 308 357
#     4  10  19  35  60  85 113 150 198 243 285 350
#     4  10  21  39  60  85 120 155 191 242 296 361
#     4  10  20  36  60  78 116 160 196 232 288 348
#     4  11  24  38  54  92 127 153 193 243 291 368
#
# _framework density 19.152756
#
# number of rings (size 3 to 8) (size 9 to 14) (size 15 to 20)
#    0.000    2.167    0.833    2.250    8.167    0.000 
#   10.500    0.000    1.833    2.500    0.000    0.000 
#    0.000    0.000    0.000    0.000    0.000    0.000 
#
# Total GULP energy -297370.024484 kJ/mol
# GULP energy per Si atom -12390.417687 kJ/mol
# Density = 1.910916 g / cm^3
# Si number density = 19.152756 Si / 1000 Ang^3
#
#
#
# Elastic Constant Matrix: (Units=GPa)
#
#
# Indices 1 2 3 4 5 6 
#
# 1 108.5992 44.4119 43.6377 0.0000 18.9642 0.0000
# 2 44.4119 79.1372 34.1248 0.0000 5.9097 0.0000
# 3 43.6377 34.1248 106.7507 0.0000 9.0521 0.0000
# 4 0.0000 0.0000 0.0000 27.4711 0.0000 -2.7891
# 5 18.9642 5.9097 9.0521 0.0000 32.4310 0.0000
# 6 0.0000 0.0000 0.0000 -2.7891 0.0000 72.3901
#
#
#
# Elastic Compliance Matrix: (Units=1/GPa)
#
#
# Indices 1 2 3 4 5 6 
#
# 1 0.014081 -0.006012 -0.003307 0.000000 -0.006215 0.000000
# 2 -0.006012 0.017286 -0.003174 0.000000 0.001252 0.000000
# 3 -0.003307 -0.003174 0.011800 0.000000 -0.000781 0.000000
# 4 0.000000 0.000000 0.000000 0.036545 0.000000 0.001408
# 5 -0.006215 0.001252 -0.000781 0.000000 0.034459 0.000000
# 6 0.000000 0.000000 0.000000 0.001408 0.000000 0.013868
#
#
# Mechanical properties :
#
#
# Convention : Reuss Voigt Hill
#
# Bulk Modulus (GPa) = 55.00469 59.87065 57.43767
# Shear Modulus (GPa) = 31.42947 37.94594 34.68771
#
# Velocity S-wave (km/s) = 4.05531 4.45593 4.26033
# Velocity P-wave (km/s) = 7.12100 7.60270 7.36579
#
# Compressibility (1/GPa) = 0.01818027
#
# Stress axis : x y z
#
# Youngs Moduli (GPa) = 71.01726 57.85180 84.74243
#
# Poissons Ratio (x) = 0.34781 0.28026
# Poissons Ratio (y) = 0.42696 0.26898
# Poissons Ratio (z) = 0.23487 0.18363
#
# Static dielectric constant tensor:
#      x y z
#    x 3.595900 0.000000 0.003060 
#    y 0.000000 3.375400 0.000000 
#    z 0.003060 0.000000 4.550940 
# 
# 
# High freq. dielectric constant tensor:
#      x y z
#    x 1.729280 0.000000 -0.003670 
#    y 0.000000 1.723730 0.000000 
#    z -0.003670 0.000000 1.764430 
# 
# From -- ./inp_files/143133.got.cif
#   From: 2010.06.25/outbox.cif.g09.slc.cpg/sg12_72_cif.got.tgz:143133.got - 2010.06.28 00:19:55.
