data_PCOD8093714
_publ_section_title
;
Structure prediction by ZEFSAII (Michael W. Deem and Ramdas Pophale) SiO2 
 PCOD8093714
Probable space group: C 2/M
;
_chemical_formula_sum "Si O2"
_cell_formula_units_Z 64
_cell_length_a 20.907983
_cell_length_b 8.620683
_cell_length_c 24.370354
_cell_angle_alpha 90.000000
_cell_angle_beta 132.662552
_cell_angle_gamma 90.000000
_cell_volume 3230.087465
_symmetry_space_group_name_H-M "C 2/M"
_symmetry_group_IT_number 12
_symmetry_cell_setting 'monoclinic'
loop_
_space_group_symop_operation_xyz
x,y,z
-x,y,-z
-x,-y,-z
x,-y,z
1/2+x,1/2+y,z
1/2-x,1/2+y,-z
1/2-x,1/2-y,-z
1/2+x,1/2-y,z
loop_
_atom_site_type_symbol
_atom_site_label
_atom_site_fract_x
_atom_site_fract_y
_atom_site_fract_z
Si Si1 0.759471 0.319416 0.856502
Si Si2 0.813167 0.682306 0.694113
Si Si3 0.014621 0.180376 0.161664
Si Si4 0.600552 0.172307 0.817325
Si Si5 0.331352 0.814530 0.579506
Si Si6 0.924796 0.827809 0.999425
Si Si7 0.311198 0.184933 0.293706
Si Si8 0.486870 0.829005 0.350454
O O1 0.738383 0.500000 0.840688
O O2 0.696204 0.237819 0.863112
O O3 0.750278 0.247945 0.790478
O O4 0.855146 0.292191 0.935483
O O5 0.798531 0.500000 0.686653
O O6 0.896875 0.724210 0.778964
O O7 0.825930 0.743567 0.639365
O O8 0.727213 0.761294 0.670327
O O9 0.949487 0.208183 0.173557
O O10 0.965821 0.239809 0.079026
O O11 0.039383 0.000000 0.171736
O O12 0.549161 0.160395 0.731343
O O13 0.605888 0.000000 0.846972
O O14 0.250000 0.750000 0.500000
O O15 0.418486 0.745901 0.599779
O O16 0.333623 0.000000 0.579834
O O17 0.883893 0.000000 0.985553
O O18 0.000000 0.843679 0.000000
O O19 0.411233 0.250490 0.344210
O O20 0.312841 0.000000 0.290302
O O21 0.503303 0.000000 0.384237
#
# Coordination Sequence:
#
# PCOD8093714 Si02
#       8
#     8   8   8   8   8   8   8   8
#     4  11  22  36  56  84 115 148 194 244 292 348
#     4  11  22  38  60  87 121 153 191 242 295 350
#     4  11  22  35  57  86 113 146 196 246 291 346
#     4  10  19  36  59  81 111 152 191 237 294 345
#     4  10  21  39  61  88 118 153 192 234 289 347
#     4  10  22  39  55  74 108 152 193 239 295 352
#     4  10  20  36  61  87 115 155 198 240 291 346
#     4   8  16  35  59  82 112 152 192 230 281 343
#
# _framework density 19.813704999999999
#
# number of rings (size 3 to 8) (size 9 to 14) (size 15 to 20)
#    0.000    1.875    1.250    4.125    0.000    3.750 
#    0.000    1.875    0.000    3.750    0.000    0.000 
#    0.000    0.000    0.000    0.000    0.000    0.000 
#
# Total GULP energy -396693.224647 kJ/mol
# GULP energy per Si atom -12396.663270 kJ/mol
# Density = 1.976861 g / cm^3
# Si number density = 19.813705 Si / 1000 Ang^3
#
#
#
# Elastic Constant Matrix: (Units=GPa)
#
#
# Indices 1 2 3 4 5 6 
#
# 1 134.0750 19.1470 54.8437 0.0000 12.9249 0.0000
# 2 19.1470 58.3575 26.8820 0.0000 4.3402 0.0000
# 3 54.8437 26.8820 80.5000 0.0000 23.8096 0.0000
# 4 0.0000 0.0000 0.0000 30.8232 0.0000 3.1384
# 5 12.9249 4.3402 23.8096 0.0000 24.8450 0.0000
# 6 0.0000 0.0000 0.0000 3.1384 0.0000 31.1029
#
#
#
# Elastic Compliance Matrix: (Units=1/GPa)
#
#
# Indices 1 2 3 4 5 6 
#
# 1 0.010406 -0.000035 -0.007645 0.000000 0.001920 0.000000
# 2 -0.000035 0.020556 -0.008072 0.000000 0.004163 0.000000
# 3 -0.007645 -0.008072 0.026143 0.000000 -0.019666 0.000000
# 4 0.000000 0.000000 0.000000 0.032780 0.000000 -0.003308
# 5 0.001920 0.004163 -0.019666 0.000000 0.057371 0.000000
# 6 0.000000 0.000000 0.000000 -0.003308 0.000000 0.032485
#
#
# Mechanical properties :
#
#
# Convention : Reuss Voigt Hill
#
# Bulk Modulus (GPa) = 39.06147 52.74197 45.90172
# Shear Modulus (GPa) = 22.75018 28.82488 25.78753
#
# Velocity S-wave (km/s) = 3.39219 3.81832 3.61154
# Velocity P-wave (km/s) = 5.92451 6.79088 6.37244
#
# Compressibility (1/GPa) = 0.02560067
#
# Stress axis : x y z
#
# Youngs Moduli (GPa) = 96.09973 48.64796 38.25071
#
# Poissons Ratio (x) = 0.00171 0.29244
# Poissons Ratio (y) = 0.00337 0.30875
# Poissons Ratio (z) = 0.73472 0.39267
#
# Static dielectric constant tensor:
#      x y z
#    x 4.061860 0.000000 0.145450 
#    y 0.000000 3.529780 0.000000 
#    z 0.145450 0.000000 3.331650 
# 
# 
# High freq. dielectric constant tensor:
#      x y z
#    x 1.790510 0.000000 0.008740 
#    y 0.000000 1.759060 0.000000 
#    z 0.008740 0.000000 1.750290 
# 
# From -- ./inp_files/346229.got.cif
#   From: 2010.06.25/outbox.cif.g09.slc.cpg/sg12_174_cif.got.tgz:346229.got - 2010.06.28 00:19:55.
