data_PCOD8093595
_publ_section_title
;
Structure prediction by ZEFSAII (Michael W. Deem and Ramdas Pophale) SiO2 
 PCOD8093595
Probable space group: C 2/M
;
_chemical_formula_sum "Si O2"
_cell_formula_units_Z 64
_cell_length_a 14.573471
_cell_length_b 9.132253
_cell_length_c 26.767001
_cell_angle_alpha 90.000000
_cell_angle_beta 106.224076
_cell_angle_gamma 90.000000
_cell_volume 3420.516293
_symmetry_space_group_name_H-M "C 2/M"
_symmetry_group_IT_number 12
_symmetry_cell_setting 'monoclinic'
loop_
_space_group_symop_operation_xyz
x,y,z
-x,y,-z
-x,-y,-z
x,-y,z
1/2+x,1/2+y,z
1/2-x,1/2+y,-z
1/2-x,1/2-y,-z
1/2+x,1/2-y,z
loop_
_atom_site_type_symbol
_atom_site_label
_atom_site_fract_x
_atom_site_fract_y
_atom_site_fract_z
Si Si1 0.652107 0.671026 0.499546
Si Si2 0.042291 0.828314 0.582024
Si Si3 0.772186 0.673232 0.875139
Si Si4 0.434930 0.827457 0.311991
Si Si5 0.741740 0.667397 0.228610
Si Si6 0.052327 0.173206 0.058546
Si Si7 0.441178 0.327035 0.138200
Si Si8 0.449883 0.331888 0.748318
O O1 0.672350 0.500000 0.498948
O O2 0.750000 0.750000 0.500000
O O3 0.566155 0.715406 0.449146
O O4 0.617311 0.712899 0.549881
O O5 0.073981 0.736849 0.634426
O O6 0.047331 0.000000 0.594547
O O7 0.785076 0.500000 0.877333
O O8 0.788710 0.730863 0.821785
O O9 0.845925 0.746563 0.924648
O O10 0.668331 0.722681 0.878414
O O11 0.341534 0.780549 0.266688
O O12 0.525992 0.760946 0.297237
O O13 0.446051 0.000000 0.317811
O O14 0.746198 0.500000 0.210064
O O15 0.662961 0.682858 0.259937
O O16 0.990082 0.233508 0.095489
O O17 0.068848 0.000000 0.063700
O O18 0.000000 0.219685 0.000000
O O19 0.451849 0.500000 0.140422
O O20 0.493656 0.265064 0.195388
O O21 0.479837 0.500000 0.743516
#
# Coordination Sequence:
#
# PCOD8093595 Si02
#       8
#     8   8   8   8   8   8   8   8
#     4   9  19  37  62  87 112 149 195 235 277 333
#     4   9  20  39  58  80 116 158 190 222 279 345
#     4  11  21  34  56  82 109 138 177 227 276 327
#     4  11  23  36  54  86 119 143 186 242 278 317
#     4  10  21  37  56  78 108 146 187 224 269 331
#     4  10  21  39  60  80 107 145 185 224 272 335
#     4   9  18  34  56  80 106 141 180 217 271 336
#     4  10  19  36  58  76 106 150 185 220 274 338
#
# _framework density 18.710626999999999
#
# number of rings (size 3 to 8) (size 9 to 14) (size 15 to 20)
#    0.000    2.125    2.500    1.500    0.000    3.750 
#    0.000    6.250    0.000    0.000    0.000    0.000 
#    0.000    0.000    0.000    0.000    0.000    0.000 
#
# Total GULP energy -396859.606056 kJ/mol
# GULP energy per Si atom -12401.862689 kJ/mol
# Density = 1.866804 g / cm^3
# Si number density = 18.710627 Si / 1000 Ang^3
#
#
#
# Elastic Constant Matrix: (Units=GPa)
#
#
# Indices 1 2 3 4 5 6 
#
# 1 100.6322 29.0143 19.3660 0.0000 -2.4175 0.0000
# 2 29.0143 53.2376 31.3334 0.0000 0.0668 0.0000
# 3 19.3660 31.3334 79.7821 0.0000 -7.9138 0.0000
# 4 0.0000 0.0000 0.0000 30.2714 0.0000 3.1199
# 5 -2.4175 0.0668 -7.9138 0.0000 25.7874 0.0000
# 6 0.0000 0.0000 0.0000 3.1199 0.0000 30.5438
#
#
#
# Elastic Compliance Matrix: (Units=1/GPa)
#
#
# Indices 1 2 3 4 5 6 
#
# 1 0.011828 -0.006266 -0.000308 0.000000 0.001031 0.000000
# 2 -0.006266 0.027994 -0.009838 0.000000 -0.003679 0.000000
# 3 -0.000308 -0.009838 0.016989 0.000000 0.005211 0.000000
# 4 0.000000 0.000000 0.000000 0.033386 0.000000 -0.003410
# 5 0.001031 -0.003679 0.005211 0.000000 0.040484 0.000000
# 6 0.000000 0.000000 0.000000 -0.003410 0.000000 0.033088
#
#
# Mechanical properties :
#
#
# Convention : Reuss Voigt Hill
#
# Bulk Modulus (GPa) = 41.68973 43.67549 42.68261
# Shear Modulus (GPa) = 24.43925 27.58307 26.01116
#
# Velocity S-wave (km/s) = 3.61802 3.84369 3.73256
# Velocity P-wave (km/s) = 6.30738 6.56444 6.43719
#
# Compressibility (1/GPa) = 0.02398672
#
# Stress axis : x y z
#
# Youngs Moduli (GPa) = 84.54611 35.72234 58.85997
#
# Poissons Ratio (x) = 0.22385 0.01812
# Poissons Ratio (y) = 0.52979 0.57907
# Poissons Ratio (z) = 0.02603 0.35144
#
# Static dielectric constant tensor:
#      x y z
#    x 3.560630 0.000000 0.013180 
#    y 0.000000 3.230160 0.000000 
#    z 0.013180 0.000000 3.402220 
# 
# 
# High freq. dielectric constant tensor:
#      x y z
#    x 1.737340 0.000000 0.000150 
#    y 0.000000 1.710040 0.000000 
#    z 0.000150 0.000000 1.723100 
# 
# From -- ./inp_files/359982.got.cif
#   From: 2010.06.25/outbox.cif.g09.slc.cpg/sg12_180_cif.got.tgz:359982.got - 2010.06.28 00:19:55.
