data_PCOD8093181
_publ_section_title
;
Structure prediction by ZEFSAII (Michael W. Deem and Ramdas Pophale) SiO2 
 PCOD8093181
Probable space group: C 2/M
;
_chemical_formula_sum "Si O2"
_cell_formula_units_Z 64
_cell_length_a 15.467679
_cell_length_b 8.504454
_cell_length_c 28.613989
_cell_angle_alpha 90.000000
_cell_angle_beta 123.153143
_cell_angle_gamma 90.000000
_cell_volume 3151.268093
_symmetry_space_group_name_H-M "C 2/M"
_symmetry_group_IT_number 12
_symmetry_cell_setting 'monoclinic'
loop_
_space_group_symop_operation_xyz
x,y,z
-x,y,-z
-x,-y,-z
x,-y,z
1/2+x,1/2+y,z
1/2-x,1/2+y,-z
1/2-x,1/2-y,-z
1/2+x,1/2-y,z
loop_
_atom_site_type_symbol
_atom_site_label
_atom_site_fract_x
_atom_site_fract_y
_atom_site_fract_z
Si Si1 0.557973 0.812926 0.062561
Si Si2 0.861562 0.816463 0.758198
Si Si3 0.065376 0.314916 0.562139
Si Si4 0.295290 0.313751 0.637621
Si Si5 0.515817 0.317465 0.367334
Si Si6 0.150660 0.681216 0.748290
Si Si7 0.960117 0.683717 0.129515
Si Si8 0.291199 0.684246 0.138385
O O1 0.499744 0.751153 0.091465
O O2 0.675334 0.750784 0.097664
O O3 0.557948 0.000000 0.061447
O O4 0.500000 0.744180 0.000000
O O5 0.839872 0.751113 0.699864
O O6 0.762213 0.782894 0.760218
O O7 0.954828 0.715491 0.805896
O O8 0.892010 0.000000 0.767294
O O9 0.073537 0.500000 0.558171
O O10 0.181043 0.241758 0.595341
O O11 0.000000 0.241126 0.500000
O O12 0.008572 0.281018 0.593861
O O13 0.286783 0.500000 0.639394
O O14 0.371382 0.264341 0.618076
O O15 0.515070 0.500000 0.380149
O O16 0.432892 0.287557 0.302413
O O17 0.119825 0.500000 0.732399
O O18 0.151847 0.725642 0.802854
O O19 0.935861 0.500000 0.119907
O O20 0.854978 0.776481 0.110410
O O21 0.291154 0.500000 0.149121
#
# Coordination Sequence:
#
# PCOD8093181 Si02
#       8
#     8   8   8   8   8   8   8   8
#     4   9  20  39  60  82 114 156 199 244 290 341
#     4  10  19  35  60  84 116 153 187 233 292 351
#     4  10  21  40  62  81 110 155 201 242 289 344
#     4   9  19  37  57  82 113 150 186 226 286 344
#     4  11  22  36  59  87 119 152 188 236 291 349
#     4  11  21  36  61  89 118 151 192 238 288 349
#     4  11  22  37  59  88 118 150 195 240 286 349
#     4  11  22  38  60  87 119 155 193 236 295 349
#
# _framework density 20.309284000000002
#
# number of rings (size 3 to 8) (size 9 to 14) (size 15 to 20)
#    0.000    1.750    2.500    2.250    0.000    2.750 
#    0.000    1.875    0.000    5.250    0.000    0.000 
#    0.000    0.000    0.000    0.000    0.000    0.000 
#
# Total GULP energy -396906.089882 kJ/mol
# GULP energy per Si atom -12403.315309 kJ/mol
# Density = 2.026306 g / cm^3
# Si number density = 20.309284 Si / 1000 Ang^3
#
#
#
# Elastic Constant Matrix: (Units=GPa)
#
#
# Indices 1 2 3 4 5 6 
#
# 1 149.5849 11.7239 61.3836 0.0000 -4.2242 0.0000
# 2 11.7239 21.9310 2.5305 0.0000 5.5092 0.0000
# 3 61.3836 2.5305 140.8724 0.0000 -9.9017 0.0000
# 4 0.0000 0.0000 0.0000 18.2991 0.0000 -4.7404
# 5 -4.2242 5.5092 -9.9017 0.0000 13.4850 0.0000
# 6 0.0000 0.0000 0.0000 -4.7404 0.0000 26.6753
#
#
#
# Elastic Compliance Matrix: (Units=1/GPa)
#
#
# Indices 1 2 3 4 5 6 
#
# 1 0.008543 -0.004670 -0.003497 0.000000 0.002016 0.000000
# 2 -0.004670 0.054215 -0.000631 0.000000 -0.024076 0.000000
# 3 -0.003497 -0.000631 0.009041 0.000000 0.005801 0.000000
# 4 0.000000 0.000000 0.000000 0.057285 0.000000 0.010180
# 5 0.002016 -0.024076 0.005801 0.000000 0.088884 0.000000
# 6 0.000000 0.000000 0.000000 0.010180 0.000000 0.039297
#
#
# Mechanical properties :
#
#
# Convention : Reuss Voigt Hill
#
# Bulk Modulus (GPa) = 18.44907 51.51824 34.98366
# Shear Modulus (GPa) = 17.06898 27.47523 22.27210
#
# Velocity S-wave (km/s) = 2.90220 3.68209 3.31516
# Velocity P-wave (km/s) = 4.50934 6.59537 5.64947
#
# Compressibility (1/GPa) = 0.05420326
#
# Stress axis : x y z
#
# Youngs Moduli (GPa) = 117.05295 18.44509 110.60119
#
# Poissons Ratio (x) = 0.08614 0.38677
# Poissons Ratio (y) = 0.54664 0.06981
# Poissons Ratio (z) = 0.40933 0.01164
#
# Static dielectric constant tensor:
#      x y z
#    x 3.927660 0.000000 0.070370 
#    y 0.000000 3.319570 0.000000 
#    z 0.070370 0.000000 3.805240 
# 
# 
# High freq. dielectric constant tensor:
#      x y z
#    x 1.811740 0.000000 0.001410 
#    y 0.000000 1.764400 0.000000 
#    z 0.001410 0.000000 1.789780 
# 
# From -- ./inp_files/375622.got.cif
#   From: 2010.06.25/outbox.cif.g09.slc.cpg/sg12_188_cif.got.tgz:375622.got - 2010.06.28 00:19:55.
