data_PCOD8093617
_publ_section_title
;
Structure prediction by ZEFSAII (Michael W. Deem and Ramdas Pophale) SiO2 
 PCOD8093617
Probable space group: C 2/M
;
_chemical_formula_sum "Si O2"
_cell_formula_units_Z 48
_cell_length_a 13.901123
_cell_length_b 13.075373
_cell_length_c 13.691868
_cell_angle_alpha 90.000000
_cell_angle_beta 87.147091
_cell_angle_gamma 90.000000
_cell_volume 2485.581906
_symmetry_space_group_name_H-M "C 2/M"
_symmetry_group_IT_number 12
_symmetry_cell_setting 'monoclinic'
loop_
_space_group_symop_operation_xyz
x,y,z
-x,y,-z
-x,-y,-z
x,-y,z
1/2+x,1/2+y,z
1/2-x,1/2+y,-z
1/2-x,1/2-y,-z
1/2+x,1/2-y,z
loop_
_atom_site_type_symbol
_atom_site_label
_atom_site_fract_x
_atom_site_fract_y
_atom_site_fract_z
Si Si1 0.541519 0.296165 0.098425
Si Si2 0.778927 0.884765 0.420706
Si Si3 0.958527 0.798330 0.301779
Si Si4 0.721543 0.616833 0.172666
Si Si5 0.158582 0.195800 0.381665
Si Si6 0.061453 0.382876 0.820726
O O1 0.490259 0.348970 0.195697
O O2 0.656094 0.316477 0.101333
O O3 0.516298 0.174011 0.104858
O O4 0.500000 0.342997 0.000000
O O5 0.866278 0.856457 0.345139
O O6 0.811924 0.877005 0.531069
O O7 0.688354 0.812342 0.403717
O O8 0.746216 0.000000 0.400490
O O9 0.936740 0.677294 0.283619
O O10 0.043705 0.808193 0.375943
O O11 0.686389 0.500000 0.170092
O O12 0.712594 0.658166 0.282677
O O13 0.832896 0.625917 0.135011
O O14 0.030565 0.500000 0.805690
#
# Coordination Sequence:
#
# PCOD8093617 Si02
#       6
#     8   8   8   8   8   8
#     4   9  20  36  57  83 111 141 184 235 270 326
#     4  11  22  36  58  83 111 146 186 228 271 321
#     4   9  20  36  54  81 110 143 180 232 268 326
#     4  10  19  36  58  79 110 150 181 219 276 329
#     4  10  20  37  55  82 114 142 185 225 268 324
#     4   9  19  36  57  79 108 147 182 223 277 327
#
# _framework density 19.311373
#
# number of rings (size 3 to 8) (size 9 to 14) (size 15 to 20)
#    1.000    1.333    1.667    1.000    0.000    6.000 
#    0.000    0.000    0.000    7.000    0.000    0.000 
#    0.000    0.000    0.000    0.000    0.000    0.000 
#
# Total GULP energy -297403.191724 kJ/mol
# GULP energy per Si atom -12391.799655 kJ/mol
# Density = 1.926742 g / cm^3
# Si number density = 19.311373 Si / 1000 Ang^3
#
#
#
# Elastic Constant Matrix: (Units=GPa)
#
#
# Indices 1 2 3 4 5 6 
#
# 1 37.9785 24.6127 16.7667 0.0000 13.4129 0.0000
# 2 24.6127 108.9135 20.6998 0.0000 7.0055 0.0000
# 3 16.7667 20.6998 84.1233 0.0000 13.8651 0.0000
# 4 0.0000 0.0000 0.0000 14.3311 0.0000 -1.7582
# 5 13.4129 7.0055 13.8651 0.0000 12.9229 0.0000
# 6 0.0000 0.0000 0.0000 -1.7582 0.0000 26.6801
#
#
#
# Elastic Compliance Matrix: (Units=1/GPa)
#
#
# Indices 1 2 3 4 5 6 
#
# 1 0.047180 -0.007766 -0.000140 0.000000 -0.044608 0.000000
# 2 -0.007766 0.011024 -0.001832 0.000000 0.004050 0.000000
# 3 -0.000140 -0.001832 0.014795 0.000000 -0.014734 0.000000
# 4 0.000000 0.000000 0.000000 0.070347 0.000000 0.004636
# 5 -0.044608 0.004050 -0.014734 0.000000 0.137295 0.000000
# 6 0.000000 0.000000 0.000000 0.004636 0.000000 0.037787
#
#
# Mechanical properties :
#
#
# Convention : Reuss Voigt Hill
#
# Bulk Modulus (GPa) = 18.68405 39.46376 29.07390
# Shear Modulus (GPa) = 14.05502 22.04923 18.05212
#
# Velocity S-wave (km/s) = 2.70072 3.38268 3.06075
# Velocity P-wave (km/s) = 4.40697 5.97801 5.25157
#
# Compressibility (1/GPa) = 0.05352159
#
# Stress axis : x y z
#
# Youngs Moduli (GPa) = 21.19549 90.70851 67.59196
#
# Poissons Ratio (x) = 0.70444 0.00948
# Poissons Ratio (y) = 0.16460 0.12386
# Poissons Ratio (z) = 0.00297 0.16621
#
# Static dielectric constant tensor:
#      x y z
#    x 3.457170 0.000000 0.107760 
#    y 0.000000 3.373780 0.000000 
#    z 0.107760 0.000000 3.391020 
# 
# 
# High freq. dielectric constant tensor:
#      x y z
#    x 1.749040 0.000000 0.007420 
#    y 0.000000 1.736110 0.000000 
#    z 0.007420 0.000000 1.739950 
# 
# From -- ./inp_files/213829.got.cif
#   From: 2010.06.25/outbox.cif.g09.slc.cpg/sg12_107_cif.got.tgz:213829.got - 2010.06.28 00:19:55.
