data_PCOD8093518
_publ_section_title
;
Structure prediction by ZEFSAII (Michael W. Deem and Ramdas Pophale) SiO2 
 PCOD8093518
Probable space group: C 2/M
;
_chemical_formula_sum "Si O2"
_cell_formula_units_Z 56
_cell_length_a 23.182797
_cell_length_b 17.203117
_cell_length_c 8.656856
_cell_angle_alpha 90.000000
_cell_angle_beta 52.659600
_cell_angle_gamma 90.000000
_cell_volume 2744.893013
_symmetry_space_group_name_H-M "C 2/M"
_symmetry_group_IT_number 12
_symmetry_cell_setting 'monoclinic'
loop_
_space_group_symop_operation_xyz
x,y,z
-x,y,-z
-x,-y,-z
x,-y,z
1/2+x,1/2+y,z
1/2-x,1/2+y,-z
1/2-x,1/2-y,-z
1/2+x,1/2-y,z
loop_
_atom_site_type_symbol
_atom_site_label
_atom_site_fract_x
_atom_site_fract_y
_atom_site_fract_z
Si Si1 0.048759 0.416810 0.567955
Si Si2 0.339337 0.308477 0.614308
Si Si3 0.343373 0.415526 0.886987
Si Si4 0.010056 0.745834 0.670867
Si Si5 0.707348 0.862101 0.298445
Si Si6 0.199601 0.908091 0.590014
Si Si7 0.933043 0.863186 0.002682
O O1 0.049914 0.500000 0.657906
O O2 0.015870 0.344295 0.716988
O O3 0.129207 0.394633 0.378769
O O4 0.000000 0.429810 0.500000
O O5 0.360509 0.346895 0.741928
O O6 0.414915 0.288300 0.407729
O O7 0.291045 0.231578 0.716913
O O8 0.294082 0.372503 0.591390
O O9 0.339574 0.500000 0.811812
O O10 0.409193 0.421858 0.904748
O O11 0.266183 0.398681 0.089800
O O12 0.000000 0.750718 0.500000
O O13 0.949886 0.783010 0.881809
O O14 0.725311 0.890743 0.443534
O O15 0.181548 0.000000 0.614701
O O16 0.137146 0.856914 0.774787
O O17 0.000000 0.892880 0.000000
#
# Coordination Sequence:
#
# PCOD8093518 Si02
#       7
#     8   8   8   8   8   8   8
#     4   9  18  34  62  88 109 142 186 240 295 342
#     4  11  21  38  58  86 113 157 195 238 285 340
#     4  11  23  38  58  87 120 152 193 241 285 335
#     4  10  19  36  56  84 119 149 195 241 279 341
#     4  10  21  38  62  83 115 151 193 234 287 353
#     4  11  23  38  58  86 119 153 194 237 284 341
#     4  11  21  37  57  82 119 159 196 229 280 338
#
# _framework density 20.401523999999998
#
# number of rings (size 3 to 8) (size 9 to 14) (size 15 to 20)
#    0.000    1.571    2.857    3.857    0.000    1.143 
#    0.000    0.714    0.000    0.429    0.000    0.000 
#    0.000    0.000    0.000    0.000    0.000    0.000 
#
# Total GULP energy -346876.088869 kJ/mol
# GULP energy per Si atom -12388.431745 kJ/mol
# Density = 2.035509 g / cm^3
# Si number density = 20.401524 Si / 1000 Ang^3
#
#
#
# Elastic Constant Matrix: (Units=GPa)
#
#
# Indices 1 2 3 4 5 6 
#
# 1 110.8769 43.2728 26.9599 0.0000 -0.2848 0.0000
# 2 43.2728 171.6581 40.5825 0.0000 -2.7778 0.0000
# 3 26.9599 40.5825 34.8472 0.0000 -0.5056 0.0000
# 4 0.0000 0.0000 0.0000 24.0715 0.0000 0.2407
# 5 -0.2848 -2.7778 -0.5056 0.0000 28.2724 0.0000
# 6 0.0000 0.0000 0.0000 0.2407 0.0000 30.5883
#
#
#
# Elastic Compliance Matrix: (Units=1/GPa)
#
#
# Indices 1 2 3 4 5 6 
#
# 1 0.011251 -0.001076 -0.007453 0.000000 -0.000126 0.000000
# 2 -0.001076 0.008153 -0.008653 0.000000 0.000635 0.000000
# 3 -0.007453 -0.008653 0.044538 0.000000 -0.000129 0.000000
# 4 0.000000 0.000000 0.000000 0.041546 0.000000 -0.000327
# 5 -0.000126 0.000635 -0.000129 0.000000 0.035429 0.000000
# 6 0.000000 0.000000 0.000000 -0.000327 0.000000 0.032695
#
#
# Mechanical properties :
#
#
# Convention : Reuss Voigt Hill
#
# Bulk Modulus (GPa) = 33.80922 59.89027 46.84975
# Shear Modulus (GPa) = 22.95326 30.35756 26.65541
#
# Velocity S-wave (km/s) = 3.35785 3.86165 3.61853
# Velocity P-wave (km/s) = 5.62507 7.02158 6.36176
#
# Compressibility (1/GPa) = 0.02957773
#
# Stress axis : x y z
#
# Youngs Moduli (GPa) = 88.88175 122.65798 22.45297
#
# Poissons Ratio (x) = 0.13202 0.16734
# Poissons Ratio (y) = 0.09566 0.19428
# Poissons Ratio (z) = 0.66242 1.06132
#
# Static dielectric constant tensor:
#      x y z
#    x 3.961600 0.000000 0.044100 
#    y 0.000000 3.982780 0.000000 
#    z 0.044100 0.000000 3.294550 
# 
# 
# High freq. dielectric constant tensor:
#      x y z
#    x 1.811250 0.000000 -0.000760 
#    y 0.000000 1.809020 0.000000 
#    z -0.000760 0.000000 1.754390 
# 
# From -- ./inp_files/87852.got.cif
#   From: 2010.06.25/outbox.cif.g09.slc.cpg/sg12_44_cif.got.tgz:87852.got - 2010.06.28 00:19:55.
