data_PCOD8093732
_publ_section_title
;
Structure prediction by ZEFSAII (Michael W. Deem and Ramdas Pophale) SiO2 
 PCOD8093732
Probable space group: C 2/M
;
_chemical_formula_sum "Si O2"
_cell_formula_units_Z 48
_cell_length_a 13.952686
_cell_length_b 27.565927
_cell_length_c 11.838305
_cell_angle_alpha 90.000000
_cell_angle_beta 152.666417
_cell_angle_gamma 90.000000
_cell_volume 2090.709823
_symmetry_space_group_name_H-M "C 2/M"
_symmetry_group_IT_number 12
_symmetry_cell_setting 'monoclinic'
loop_
_space_group_symop_operation_xyz
x,y,z
-x,y,-z
-x,-y,-z
x,-y,z
1/2+x,1/2+y,z
1/2-x,1/2+y,-z
1/2-x,1/2-y,-z
1/2+x,1/2-y,z
loop_
_atom_site_type_symbol
_atom_site_label
_atom_site_fract_x
_atom_site_fract_y
_atom_site_fract_z
Si Si1 0.364131 0.657121 0.552766
Si Si2 0.217647 0.698888 0.179841
Si Si3 0.864625 0.447372 0.008935
Si Si4 0.832164 0.945506 0.425479
Si Si5 0.906370 0.353082 0.160951
Si Si6 0.365625 0.690383 0.961135
O O1 0.383906 0.686704 0.454018
O O2 0.421761 0.599882 0.592971
O O3 0.501873 0.685900 0.786545
O O4 0.136472 0.662857 0.370253
O O5 0.256548 0.670456 0.102831
O O6 0.199665 0.755748 0.139706
O O7 0.000000 0.677623 0.000000
O O8 0.842037 0.500000 0.040834
O O9 0.661534 0.439768 0.708891
O O10 0.860991 0.410191 0.108396
O O11 0.082025 0.442181 0.172105
O O12 0.904516 0.000000 0.541569
O O13 0.849963 0.337003 0.230382
O O14 0.500000 0.666393 0.000000
#
# Coordination Sequence:
#
# PCOD8093732 Si02
#       6
#     8   8   8   8   8   8
#     4  10  20  38  61  82 115 148 176 236 288 326
#     4   9  19  36  57  82 109 139 186 231 281 334
#     4   8  13  25  52  87 116 138 172 227 283 339
#     4   8  13  26  54  88 115 140 171 220 290 346
#     4  10  19  36  59  82 114 148 181 224 286 338
#     4  11  25  39  53  80 113 150 200 232 262 328
#
# _framework density 22.95871
#
# number of rings (size 3 to 8) (size 9 to 14) (size 15 to 20)
#    0.000    2.667    1.667    1.500    0.000    7.333 
#    0.000    5.833    0.000    4.000    0.000    4.667 
#    0.000    0.000    0.000    0.000    0.000    0.000 
#
# Total GULP energy -297336.736232 kJ/mol
# GULP energy per Si atom -12389.030676 kJ/mol
# Density = 2.290645 g / cm^3
# Si number density = 22.958710 Si / 1000 Ang^3
#
#
#
# Elastic Constant Matrix: (Units=GPa)
#
#
# Indices 1 2 3 4 5 6 
#
# 1 151.7800 52.8776 4.6914 -0.0002 -6.0629 -0.0001
# 2 52.8776 143.1160 23.0921 0.0000 -14.5420 0.0000
# 3 4.6914 23.0921 63.6428 -0.0004 -6.8724 -0.0003
# 4 -0.0002 0.0000 -0.0004 9.1982 -0.0003 -1.7619
# 5 -6.0629 -14.5420 -6.8724 -0.0003 16.2241 -0.0002
# 6 -0.0001 0.0000 -0.0003 -1.7619 -0.0002 30.3748
#
#
#
# Elastic Compliance Matrix: (Units=1/GPa)
#
#
# Indices 1 2 3 4 5 6 
#
# 1 0.007580 -0.002833 0.000525 0.000000 0.000516 0.000000
# 2 -0.002833 0.009036 -0.002420 0.000000 0.006015 0.000000
# 3 0.000525 -0.002420 0.017122 0.000001 0.005280 0.000000
# 4 0.000000 0.000000 0.000001 0.109939 0.000003 0.006377
# 5 0.000516 0.006015 0.005280 0.000003 0.069457 0.000001
# 6 0.000000 0.000000 0.000000 0.006377 0.000001 0.033292
#
#
# Mechanical properties :
#
#
# Convention : Reuss Voigt Hill
#
# Bulk Modulus (GPa) = 41.18378 57.76235 49.47306
# Shear Modulus (GPa) = 18.94115 29.68461 24.31288
#
# Velocity S-wave (km/s) = 2.87541 3.59967 3.25773
# Velocity P-wave (km/s) = 5.38527 6.51849 5.97879
#
# Compressibility (1/GPa) = 0.02428140
#
# Stress axis : x y z
#
# Youngs Moduli (GPa) = 131.93030 110.67246 58.40352
#
# Poissons Ratio (x) = 0.31351 -0.03065
# Poissons Ratio (y) = 0.37373 0.14134
# Poissons Ratio (z) = -0.06924 0.26784
#
# Static dielectric constant tensor:
#      x y z
#    x 4.786610 0.000000 0.651020 
#    y 0.000000 4.162660 0.000000 
#    z 0.651020 0.000000 4.285100 
# 
# 
# High freq. dielectric constant tensor:
#      x y z
#    x 1.917670 0.000000 0.063080 
#    y 0.000000 1.899070 0.000000 
#    z 0.063080 0.000000 1.909410 
# 
# From -- ./inp_files/149840.got.cif
#   From: 2010.06.25/outbox.cif.g09.slc.cpg/sg12_75_cif.got.tgz:149840.got - 2010.06.28 00:19:55.
