data_PCOD8093873
_publ_section_title
;
Structure prediction by ZEFSAII (Michael W. Deem and Ramdas Pophale) SiO2 
 PCOD8093873
Probable space group: C 2/M
;
_chemical_formula_sum "Si O2"
_cell_formula_units_Z 64
_cell_length_a 26.219241
_cell_length_b 8.686550
_cell_length_c 14.169046
_cell_angle_alpha 90.000000
_cell_angle_beta 86.510006
_cell_angle_gamma 90.000000
_cell_volume 3221.082724
_symmetry_space_group_name_H-M "C 2/M"
_symmetry_group_IT_number 12
_symmetry_cell_setting 'monoclinic'
loop_
_space_group_symop_operation_xyz
x,y,z
-x,y,-z
-x,-y,-z
x,-y,z
1/2+x,1/2+y,z
1/2-x,1/2+y,-z
1/2-x,1/2-y,-z
1/2+x,1/2-y,z
loop_
_atom_site_type_symbol
_atom_site_label
_atom_site_fract_x
_atom_site_fract_y
_atom_site_fract_z
Si Si1 0.651290 0.182627 0.400777
Si Si2 0.886696 0.680765 0.912595
Si Si3 0.439109 0.817893 0.716888
Si Si4 0.949959 0.819566 0.061514
Si Si5 0.279292 0.678192 0.909521
Si Si6 0.949372 0.682645 0.266984
Si Si7 0.649211 0.183406 0.613636
Si Si8 0.250500 0.322673 0.705200
O O1 0.600923 0.252083 0.354283
O O2 0.652320 0.248047 0.506946
O O3 0.701932 0.229305 0.340113
O O4 0.648548 0.000000 0.402544
O O5 0.889731 0.500000 0.932873
O O6 0.924229 0.732718 0.824287
O O7 0.830388 0.726167 0.887036
O O8 0.900931 0.773450 0.005131
O O9 0.497080 0.759215 0.692438
O O10 0.436041 0.000000 0.709376
O O11 0.945104 0.734771 0.160488
O O12 0.951371 0.000000 0.079762
O O13 0.000000 0.761653 0.000000
O O14 0.291605 0.500000 0.928310
O O15 0.245718 0.696836 0.818537
O O16 0.250000 0.750000 0.000000
O O17 0.948088 0.500000 0.267943
O O18 0.902199 0.750308 0.332429
O O19 0.698472 0.243384 0.665550
O O20 0.647666 0.000000 0.615141
O O21 0.258570 0.500000 0.676218
#
# Coordination Sequence:
#
# PCOD8093873 Si02
#       8
#     8   8   8   8   8   8   8   8
#     4  10  19  36  60  86 112 145 191 241 287 340
#     4  11  21  37  59  84 114 150 195 240 286 348
#     4   9  18  32  56  87 113 143 191 237 282 340
#     4  11  23  37  55  83 116 150 191 237 285 340
#     4  11  24  39  57  85 120 155 194 239 293 347
#     4  10  20  37  58  83 115 153 191 235 292 349
#     4   9  20  36  58  85 114 147 188 239 292 339
#     4  10  21  38  57  83 115 150 191 235 285 345
#
# _framework density 19.869095999999999
#
# number of rings (size 3 to 8) (size 9 to 14) (size 15 to 20)
#    0.000    1.875    2.500    1.500    1.750    1.500 
#    0.000    4.375    0.000    0.000    0.000    1.750 
#    0.000    0.000    0.000    0.000    0.000    0.000 
#
# Total GULP energy -396823.103160 kJ/mol
# GULP energy per Si atom -12400.721974 kJ/mol
# Density = 1.982387 g / cm^3
# Si number density = 19.869096 Si / 1000 Ang^3
#
#
#
# Elastic Constant Matrix: (Units=GPa)
#
#
# Indices 1 2 3 4 5 6 
#
# 1 152.8078 14.7595 73.3472 0.0000 10.3511 0.0000
# 2 14.7595 12.4442 13.3884 0.0000 -2.7458 0.0000
# 3 73.3472 13.3884 134.1862 0.0000 5.3342 0.0000
# 4 0.0000 0.0000 0.0000 18.0504 0.0000 -1.4116
# 5 10.3511 -2.7458 5.3342 0.0000 38.2870 0.0000
# 6 0.0000 0.0000 0.0000 -1.4116 0.0000 25.8439
#
#
#
# Elastic Compliance Matrix: (Units=1/GPa)
#
#
# Indices 1 2 3 4 5 6 
#
# 1 0.009503 -0.007094 -0.004389 0.000000 -0.002466 0.000000
# 2 -0.007094 0.097664 -0.006256 0.000000 0.009794 0.000000
# 3 -0.004389 -0.006256 0.010504 0.000000 -0.000726 0.000000
# 4 0.000000 0.000000 0.000000 0.055638 0.000000 0.003039
# 5 -0.002466 0.009794 -0.000726 0.000000 0.027589 0.000000
# 6 0.000000 0.000000 0.000000 0.003039 0.000000 0.038860
#
#
# Mechanical properties :
#
#
# Convention : Reuss Voigt Hill
#
# Bulk Modulus (GPa) = 12.16633 55.82537 33.99585
# Shear Modulus (GPa) = 16.52168 29.63246 23.07707
#
# Velocity S-wave (km/s) = 2.88675 3.86603 3.41171
# Velocity P-wave (km/s) = 4.15303 6.93440 5.71548
#
# Compressibility (1/GPa) = 0.08219408
#
# Stress axis : x y z
#
# Youngs Moduli (GPa) = 105.23115 10.23921 95.19991
#
# Poissons Ratio (x) = 0.07263 0.41779
# Poissons Ratio (y) = 0.74647 0.59560
# Poissons Ratio (z) = 0.46181 0.06406
#
# Static dielectric constant tensor:
#      x y z
#    x 3.899390 0.000000 0.135730 
#    y 0.000000 3.303240 0.000000 
#    z 0.135730 0.000000 3.752990 
# 
# 
# High freq. dielectric constant tensor:
#      x y z
#    x 1.787120 0.000000 0.008470 
#    y 0.000000 1.742980 0.000000 
#    z 0.008470 0.000000 1.781720 
# 
# From -- ./inp_files/238658.got.cif
#   From: 2010.06.25/outbox.cif.g09.slc.cpg/sg12_120_cif.got.tgz:238658.got - 2010.06.28 00:19:55.
