data_PCOD8093527
_publ_section_title
;
Structure prediction by ZEFSAII (Michael W. Deem and Ramdas Pophale) SiO2 
 PCOD8093527
Probable space group: C 2/M
;
_chemical_formula_sum "Si O2"
_cell_formula_units_Z 48
_cell_length_a 20.161943
_cell_length_b 9.065266
_cell_length_c 20.145498
_cell_angle_alpha 90.000000
_cell_angle_beta 131.705022
_cell_angle_gamma 90.000000
_cell_volume 2748.952396
_symmetry_space_group_name_H-M "C 2/M"
_symmetry_group_IT_number 12
_symmetry_cell_setting 'monoclinic'
loop_
_space_group_symop_operation_xyz
x,y,z
-x,y,-z
-x,-y,-z
x,-y,z
1/2+x,1/2+y,z
1/2-x,1/2+y,-z
1/2-x,1/2-y,-z
1/2+x,1/2-y,z
loop_
_atom_site_type_symbol
_atom_site_label
_atom_site_fract_x
_atom_site_fract_y
_atom_site_fract_z
Si Si1 0.997775 0.331021 0.711887
Si Si2 0.369844 0.831430 0.094476
Si Si3 0.233801 0.668562 0.094088
Si Si4 0.333043 0.828320 0.263239
Si Si5 0.397119 0.169994 0.446999
Si Si6 0.341394 0.325319 0.542113
O O1 0.970012 0.500000 0.678147
O O2 0.029925 0.312494 0.810264
O O3 0.077522 0.282062 0.716057
O O4 0.914548 0.225399 0.644440
O O5 0.309009 0.715334 0.092101
O O6 0.338379 0.000000 0.089702
O O7 0.360311 0.804492 0.008101
O O8 0.246332 0.500000 0.121647
O O9 0.245665 0.755839 0.171140
O O10 0.340647 0.780730 0.344931
O O11 0.318961 0.000000 0.247793
O O12 0.500000 0.190893 0.500000
O O13 0.369765 0.276653 0.487772
O O14 0.377645 0.000000 0.453270
O O15 0.331149 0.500000 0.538073
O O16 0.250000 0.250000 0.500000
#
# Coordination Sequence:
#
# PCOD8093527 Si02
#       6
#     8   8   8   8   8   8
#     4   9  16  31  50  69  96 133 172 205 248 301
#     4   8  15  26  40  60  92 133 165 195 245 300
#     4   9  15  23  38  64  97 128 162 203 242 287
#     4   9  17  29  48  71  99 134 165 198 250 304
#     4  10  19  36  57  75 100 137 173 207 254 308
#     4  12  25  38  53  75 103 134 172 215 258 303
#
# _framework density 17.461196999999999
#
# number of rings (size 3 to 8) (size 9 to 14) (size 15 to 20)
#    0.000    2.500    1.667    3.000    0.000    4.333 
#    0.000    0.000    0.000    0.000    0.000    1.167 
#    0.000    9.333    0.000    0.000    0.000    0.000 
#
# Total GULP energy -297368.483541 kJ/mol
# GULP energy per Si atom -12390.353481 kJ/mol
# Density = 1.742146 g / cm^3
# Si number density = 17.461197 Si / 1000 Ang^3
#
#
#
# Elastic Constant Matrix: (Units=GPa)
#
#
# Indices 1 2 3 4 5 6 
#
# 1 35.3815 26.2520 34.9624 0.0000 4.9661 0.0000
# 2 26.2520 78.2856 60.6710 0.0000 4.6981 0.0000
# 3 34.9624 60.6710 180.5437 0.0000 -5.6756 0.0000
# 4 0.0000 0.0000 0.0000 33.4872 0.0000 -1.2359
# 5 4.9661 4.6981 -5.6756 0.0000 12.1254 0.0000
# 6 0.0000 0.0000 0.0000 -1.2359 0.0000 18.9883
#
#
#
# Elastic Compliance Matrix: (Units=1/GPa)
#
#
# Indices 1 2 3 4 5 6 
#
# 1 0.043029 -0.008844 -0.005894 0.000000 -0.016955 0.000000
# 2 -0.008844 0.020253 -0.005304 0.000000 -0.006708 0.000000
# 3 -0.005894 -0.005304 0.008731 0.000000 0.008556 0.000000
# 4 0.000000 0.000000 0.000000 0.029934 0.000000 0.001948
# 5 -0.016955 -0.006708 0.008556 0.000000 0.096020 0.000000
# 6 0.000000 0.000000 0.000000 0.001948 0.000000 0.052791
#
#
# Mechanical properties :
#
#
# Convention : Reuss Voigt Hill
#
# Bulk Modulus (GPa) = 31.31882 59.77573 45.54728
# Shear Modulus (GPa) = 16.58460 24.40854 20.49657
#
# Velocity S-wave (km/s) = 3.08522 3.74287 3.42984
# Velocity P-wave (km/s) = 5.53775 7.27919 6.46735
#
# Compressibility (1/GPa) = 0.03192968
#
# Stress axis : x y z
#
# Youngs Moduli (GPa) = 23.24010 49.37630 114.52837
#
# Poissons Ratio (x) = 0.43669 0.67498
# Poissons Ratio (y) = 0.20554 0.60746
# Poissons Ratio (z) = 0.13697 0.26189
#
# Static dielectric constant tensor:
#      x y z
#    x 2.628100 0.000000 -0.076970 
#    y 0.000000 3.256650 0.000000 
#    z -0.076970 0.000000 3.953200 
# 
# 
# High freq. dielectric constant tensor:
#      x y z
#    x 1.595740 0.000000 -0.011180 
#    y 0.000000 1.674580 0.000000 
#    z -0.011180 0.000000 1.708910 
# 
# From -- ./inp_files/319376.got.cif
#   From: 2010.06.25/outbox.cif.g09.slc.cpg/sg12_160_cif.got.tgz:319376.got - 2010.06.28 00:19:55.
