data_PCOD8093730
_publ_section_title
;
Structure prediction by ZEFSAII (Michael W. Deem and Ramdas Pophale) SiO2 
 PCOD8093730
Probable space group: C 2/M
;
_chemical_formula_sum "Si O2"
_cell_formula_units_Z 56
_cell_length_a 27.213776
_cell_length_b 9.272525
_cell_length_c 18.435304
_cell_angle_alpha 90.000000
_cell_angle_beta 143.704354
_cell_angle_gamma 90.000000
_cell_volume 2753.744010
_symmetry_space_group_name_H-M "C 2/M"
_symmetry_group_IT_number 12
_symmetry_cell_setting 'monoclinic'
loop_
_space_group_symop_operation_xyz
x,y,z
-x,y,-z
-x,-y,-z
x,-y,z
1/2+x,1/2+y,z
1/2-x,1/2+y,-z
1/2-x,1/2-y,-z
1/2+x,1/2-y,z
loop_
_atom_site_type_symbol
_atom_site_label
_atom_site_fract_x
_atom_site_fract_y
_atom_site_fract_z
Si Si1 0.335744 0.171907 0.126073
Si Si2 0.617501 0.337307 0.324922
Si Si3 0.773852 0.841658 0.674070
Si Si4 0.948749 0.667862 0.122817
Si Si5 0.373020 0.341204 0.498974
Si Si6 0.961286 0.169966 0.374982
Si Si7 0.924864 0.160423 0.959193
O O1 0.399493 0.202304 0.137227
O O2 0.378692 0.241507 0.250344
O O3 0.320681 0.000000 0.120450
O O4 0.250000 0.250000 0.000000
O O5 0.593242 0.500000 0.270506
O O6 0.687222 0.274080 0.353449
O O7 0.539304 0.234643 0.231186
O O8 0.651609 0.340471 0.446347
O O9 0.698003 0.755887 0.620746
O O10 0.842449 0.847166 0.816005
O O11 0.739373 0.000000 0.614203
O O12 0.956930 0.500000 0.118934
O O13 0.901735 0.738499 0.999096
O O14 0.366001 0.500000 0.455942
O O15 0.466262 0.286289 0.595688
O O16 0.000000 0.213096 0.500000
O O17 0.938963 0.000000 0.346214
O O18 0.950167 0.000000 0.016263
O O19 0.000000 0.225044 0.000000
#
# Coordination Sequence:
#
# PCOD8093730 Si02
#       7
#     8   8   8   8   8   8   8
#     4  11  25  44  67  95 125 161 208 262 318 380
#     4  10  19  36  59  82 113 157 200 236 288 354
#     4  10  21  35  55  84 118 157 201 245 286 346
#     4  11  23  37  59  90 118 150 196 251 300 348
#     4  10  21  36  58  86 118 157 195 239 299 358
#     4  10  22  42  68  95 125 162 204 258 321 379
#     4  10  20  37  58  81 117 163 204 241 292 359
#
# _framework density 20.33595
#
# number of rings (size 3 to 8) (size 9 to 14) (size 15 to 20)
#    0.000    1.714    2.857    1.286    0.000    5.714 
#    0.000    4.286    0.000    0.000    0.000    0.000 
#    0.000    0.000    0.000    0.000    0.000    0.000 
#
# Total GULP energy -346989.309471 kJ/mol
# GULP energy per Si atom -12392.475338 kJ/mol
# Density = 2.028966 g / cm^3
# Si number density = 20.335950 Si / 1000 Ang^3
#
#
#
# Elastic Constant Matrix: (Units=GPa)
#
#
# Indices 1 2 3 4 5 6 
#
# 1 59.0934 42.4303 30.8048 0.0000 -3.2171 0.0000
# 2 42.4303 93.0236 56.4325 0.0000 6.4420 0.0000
# 3 30.8048 56.4325 118.2344 0.0000 6.7176 0.0000
# 4 0.0000 0.0000 0.0000 45.8540 0.0000 6.4313
# 5 -3.2171 6.4420 6.7176 0.0000 34.2616 0.0000
# 6 0.0000 0.0000 0.0000 6.4313 0.0000 31.4512
#
#
#
# Elastic Compliance Matrix: (Units=1/GPa)
#
#
# Indices 1 2 3 4 5 6 
#
# 1 0.026145 -0.011209 -0.001740 0.000000 0.004904 0.000000
# 2 -0.011209 0.020008 -0.006427 0.000000 -0.003554 0.000000
# 3 -0.001740 -0.006427 0.012054 0.000000 -0.001318 0.000000
# 4 0.000000 0.000000 0.000000 0.022452 0.000000 -0.004591
# 5 0.004904 -0.003554 -0.001318 0.000000 0.030574 0.000000
# 6 0.000000 0.000000 0.000000 -0.004591 0.000000 0.032734
#
#
# Mechanical properties :
#
#
# Convention : Reuss Voigt Hill
#
# Bulk Modulus (GPa) = 51.40566 58.85407 55.12986
# Shear Modulus (GPa) = 26.42631 31.69231 29.05931
#
# Velocity S-wave (km/s) = 3.60875 3.95199 3.78426
# Velocity P-wave (km/s) = 6.53431 7.05890 6.80166
#
# Compressibility (1/GPa) = 0.01945311
#
# Stress axis : x y z
#
# Youngs Moduli (GPa) = 38.24830 49.98012 82.96135
#
# Poissons Ratio (x) = 0.56023 0.14438
# Poissons Ratio (y) = 0.42873 0.53322
# Poissons Ratio (z) = 0.06657 0.32124
#
# Static dielectric constant tensor:
#      x y z
#    x 3.887550 0.000000 -0.124330 
#    y 0.000000 4.009400 0.000000 
#    z -0.124330 0.000000 3.658920 
# 
# 
# High freq. dielectric constant tensor:
#      x y z
#    x 1.791380 0.000000 -0.001570 
#    y 0.000000 1.785890 0.000000 
#    z -0.001570 0.000000 1.799370 
# 
# From -- ./inp_files/329644.got.cif
#   From: 2010.06.25/outbox.cif.g09.slc.cpg/sg12_165_cif.got.tgz:329644.got - 2010.06.28 00:19:55.
