data_PCOD8093424
_publ_section_title
;
Structure prediction by ZEFSAII (Michael W. Deem and Ramdas Pophale) SiO2 
 PCOD8093424
Probable space group: C 2/M
;
_chemical_formula_sum "Si O2"
_cell_formula_units_Z 64
_cell_length_a 14.707886
_cell_length_b 17.521916
_cell_length_c 14.972122
_cell_angle_alpha 90.000000
_cell_angle_beta 124.232193
_cell_angle_gamma 90.000000
_cell_volume 3190.047074
_symmetry_space_group_name_H-M "C 2/M"
_symmetry_group_IT_number 12
_symmetry_cell_setting 'monoclinic'
loop_
_space_group_symop_operation_xyz
x,y,z
-x,y,-z
-x,-y,-z
x,-y,z
1/2+x,1/2+y,z
1/2-x,1/2+y,-z
1/2-x,1/2-y,-z
1/2+x,1/2-y,z
loop_
_atom_site_type_symbol
_atom_site_label
_atom_site_fract_x
_atom_site_fract_y
_atom_site_fract_z
Si Si1 0.298271 0.586126 0.580797
Si Si2 0.967372 0.587709 0.888526
Si Si3 0.092475 0.587758 0.781982
Si Si4 0.372399 0.416376 0.423045
Si Si5 0.313967 0.762484 0.127153
Si Si6 0.779012 0.685195 0.756804
Si Si7 0.436936 0.843031 0.555685
Si Si8 0.434026 0.274917 0.708942
O O1 0.308018 0.500000 0.625635
O O2 0.309043 0.584087 0.481048
O O3 0.178309 0.619914 0.537382
O O4 0.396175 0.637293 0.676513
O O5 0.992272 0.500000 0.910774
O O6 0.033959 0.617617 0.840196
O O7 0.840497 0.604258 0.801265
O O8 0.000000 0.628984 0.000000
O O9 0.134197 0.500000 0.808913
O O10 0.190347 0.649950 0.836148
O O11 0.009870 0.596463 0.652772
O O12 0.500000 0.402988 0.500000
O O13 0.351050 0.500000 0.366206
O O14 0.334986 0.340970 0.349357
O O15 0.241732 0.718165 0.158166
O O16 0.438592 0.729447 0.190419
O O17 0.250000 0.750000 0.000000
O O18 0.853006 0.741342 0.738971
O O19 0.500000 0.820024 0.500000
O O20 0.416926 0.768141 0.604866
#
# Coordination Sequence:
#
# PCOD8093424 Si02
#       8
#     8   8   8   8   8   8   8   8
#     4  11  23  40  60  92 132 169 206 250 306 374
#     4  10  19  35  64  95 120 151 198 266 333 373
#     4  10  21  41  61  92 131 159 204 264 310 370
#     4  10  21  38  61  92 129 167 202 248 310 375
#     4  11  25  43  64  94 123 163 210 261 324 376
#     4  12  22  38  66  86 124 165 205 257 309 369
#     4  11  23  39  66  93 127 168 214 262 308 368
#     4  11  25  42  61  95 122 162 218 258 308 374
#
# _framework density 20.062401000000001
#
# number of rings (size 3 to 8) (size 9 to 14) (size 15 to 20)
#    0.000    1.250    3.750    2.625    3.500    3.500 
#    0.000    1.875    0.000    0.000    0.000    1.750 
#    0.000    0.000    0.000    0.000    0.000    0.000 
#
# Total GULP energy -396555.518173 kJ/mol
# GULP energy per Si atom -12392.359943 kJ/mol
# Density = 2.001674 g / cm^3
# Si number density = 20.062401 Si / 1000 Ang^3
#
#
#
# Elastic Constant Matrix: (Units=GPa)
#
#
# Indices 1 2 3 4 5 6 
#
# 1 91.7768 17.9182 29.0154 0.0000 -15.8389 0.0000
# 2 17.9182 67.4099 37.9800 0.0000 15.5106 0.0000
# 3 29.0154 37.9800 95.5573 0.0000 -5.0578 0.0000
# 4 0.0000 0.0000 0.0000 23.6589 0.0000 -0.1359
# 5 -15.8389 15.5106 -5.0578 0.0000 32.3258 0.0000
# 6 0.0000 0.0000 0.0000 -0.1359 0.0000 19.7025
#
#
#
# Elastic Compliance Matrix: (Units=1/GPa)
#
#
# Indices 1 2 3 4 5 6 
#
# 1 0.013915 -0.004624 -0.001925 0.000000 0.008736 0.000000
# 2 -0.004624 0.024935 -0.009337 0.000000 -0.015691 0.000000
# 3 -0.001925 -0.009337 0.015072 0.000000 0.005895 0.000000
# 4 0.000000 0.000000 0.000000 0.042269 0.000000 0.000292
# 5 0.008736 -0.015691 0.005895 0.000000 0.043666 0.000000
# 6 0.000000 0.000000 0.000000 0.000292 0.000000 0.050757
#
#
# Mechanical properties :
#
#
# Convention : Reuss Voigt Hill
#
# Bulk Modulus (GPa) = 45.14643 47.17455 46.16049
# Shear Modulus (GPa) = 21.76090 26.45948 24.11019
#
# Velocity S-wave (km/s) = 3.29699 3.63555 3.47040
# Velocity P-wave (km/s) = 6.08649 6.41778 6.25433
#
# Compressibility (1/GPa) = 0.02215015
#
# Stress axis : x y z
#
# Youngs Moduli (GPa) = 71.86497 40.10482 66.34629
#
# Poissons Ratio (x) = 0.18545 0.12771
# Poissons Ratio (y) = 0.33232 0.61947
# Poissons Ratio (z) = 0.13833 0.37445
#
# Static dielectric constant tensor:
#      x y z
#    x 3.678120 0.000000 -0.171550 
#    y 0.000000 3.815050 0.000000 
#    z -0.171550 0.000000 3.784700 
# 
# 
# High freq. dielectric constant tensor:
#      x y z
#    x 1.786040 0.000000 -0.004190 
#    y 0.000000 1.787630 0.000000 
#    z -0.004190 0.000000 1.769700 
# 
# From -- ./inp_files/216825.got.cif
#   From: 2010.06.25/outbox.cif.g09.slc.cpg/sg12_109_cif.got.tgz:216825.got - 2010.06.28 00:19:55.
