data_PCOD8093771
_publ_section_title
;
Structure prediction by ZEFSAII (Michael W. Deem and Ramdas Pophale) SiO2 
 PCOD8093771
Probable space group: C 2/M
;
_chemical_formula_sum "Si O2"
_cell_formula_units_Z 48
_cell_length_a 34.084467
_cell_length_b 7.829396
_cell_length_c 8.861459
_cell_angle_alpha 90.000000
_cell_angle_beta 92.664211
_cell_angle_gamma 90.000000
_cell_volume 2362.219870
_symmetry_space_group_name_H-M "C 2/M"
_symmetry_group_IT_number 12
_symmetry_cell_setting 'monoclinic'
loop_
_space_group_symop_operation_xyz
x,y,z
-x,y,-z
-x,-y,-z
x,-y,z
1/2+x,1/2+y,z
1/2-x,1/2+y,-z
1/2-x,1/2-y,-z
1/2+x,1/2-y,z
loop_
_atom_site_type_symbol
_atom_site_label
_atom_site_fract_x
_atom_site_fract_y
_atom_site_fract_z
Si Si1 0.906081 0.696646 0.698657
Si Si2 0.679832 0.306947 0.809988
Si Si3 0.757864 0.805438 0.670641
Si Si4 0.398682 0.809342 0.347123
Si Si5 0.951750 0.000000 0.331009
Si Si6 0.961154 0.000000 0.689043
Si Si7 0.170685 0.692206 0.133096
O O1 0.919271 0.500000 0.730381
O O2 0.893574 0.723449 0.523561
O O3 0.868958 0.750899 0.791574
O O4 0.941055 0.826880 0.748656
O O5 0.678545 0.500000 0.748636
O O6 0.719536 0.217396 0.765300
O O7 0.643652 0.202755 0.736225
O O8 0.678475 0.311499 0.991136
O O9 0.750000 0.750000 0.500000
O O10 0.793442 0.695938 0.743465
O O11 0.771389 0.000000 0.677117
O O12 0.427933 0.670143 0.278923
O O13 0.415597 0.000000 0.320226
O O14 0.958932 0.000000 0.509349
O O15 0.993357 0.000000 0.251214
O O16 0.165967 0.500000 0.072810
#
# Coordination Sequence:
#
# PCOD8093771 Si02
#       7
#     8   8   8   8   4   4   8
#     4   9  20  35  58  86 115 154 196 241 295 353
#     4  12  24  39  59  85 117 155 198 243 295 351
#     4  12  25  41  61  86 116 154 196 244 296 345
#     4  10  19  36  59  85 117 154 197 244 294 353
#     4   9  18  34  53  93 117 157 189 247 297 359
#     4   9  18  32  59  83 127 149 195 241 301 353
#     4  11  23  40  59  84 117 153 197 244 293 349
#
# _framework density 20.319870000000002
#
# number of rings (size 3 to 8) (size 9 to 14) (size 15 to 20)
#    0.000    1.500    0.833    5.000    2.333    2.000 
#    0.000    3.333    0.000    2.000    0.000    3.500 
#    0.000    0.000    0.000    0.000    0.000    0.000 
#
# Total GULP energy -297685.954630 kJ/mol
# GULP energy per Si atom -12403.581443 kJ/mol
# Density = 2.027362 g / cm^3
# Si number density = 20.319870 Si / 1000 Ang^3
#
#
#
# Elastic Constant Matrix: (Units=GPa)
#
#
# Indices 1 2 3 4 5 6 
#
# 1 140.9389 54.5289 24.2166 0.0000 -30.5305 0.0000
# 2 54.5289 117.6631 24.3329 0.0000 -6.5394 0.0000
# 3 24.2166 24.3329 63.4359 0.0000 -21.1989 0.0000
# 4 0.0000 0.0000 0.0000 24.7376 0.0000 -1.4220
# 5 -30.5305 -6.5394 -21.1989 0.0000 11.6644 0.0000
# 6 0.0000 0.0000 0.0000 -1.4220 0.0000 32.7704
#
#
#
# Elastic Compliance Matrix: (Units=1/GPa)
#
#
# Indices 1 2 3 4 5 6 
#
# 1 -0.231074 0.113718 -0.346908 0.000000 -1.171531 0.000000
# 2 0.113718 -0.046685 0.166086 0.000000 0.573316 0.000000
# 3 -0.346908 0.166086 -0.478343 0.000000 -1.684225 0.000000
# 4 0.000000 0.000000 0.000000 0.040525 0.000000 0.001759
# 5 -1.171531 0.573316 -1.684225 0.000000 -5.720130 0.000000
# 6 0.000000 0.000000 0.000000 0.001759 0.000000 0.030592
#
#
# Mechanical properties :
#
#
# Convention : Reuss Voigt Hill
#
# Bulk Modulus (GPa) = -1.12320 58.68829 28.78255
# Shear Modulus (GPa) = -0.76130 28.43177 13.83523
#
# Velocity S-wave (km/s) = -0.61276 3.74466 2.61218
# Velocity P-wave (km/s) = 1.02693 6.90229 4.82633
#
# Compressibility (1/GPa) = -0.89031110
#
# Stress axis : x y z
#
# Youngs Moduli (GPa) = -4.32761 -21.42013 -2.09055
#
# Poissons Ratio (x) = 2.43585 -0.72523
# Poissons Ratio (y) = 0.49213 0.34721
# Poissons Ratio (z) = -1.50128 3.55758
#
# Static dielectric constant tensor:
#      x y z
#    x 3.741570 0.000000 -0.086210 
#    y 0.000000 3.904130 0.000000 
#    z -0.086210 0.000000 3.444660 
# 
# 
# High freq. dielectric constant tensor:
#      x y z
#    x 1.788600 0.000000 -0.004580 
#    y 0.000000 1.811590 0.000000 
#    z -0.004580 0.000000 1.774100 
# 
# From -- ./inp_files/108799.got.cif
#   From: 2010.06.25/outbox.cif.g09.slc.cpg/sg12_55_cif.got.tgz:108799.got - 2010.06.28 00:19:55.
