data_PCOD8093368
_publ_section_title
;
Structure prediction by ZEFSAII (Michael W. Deem and Ramdas Pophale) SiO2 
 PCOD8093368
Probable space group: C 2/M
;
_chemical_formula_sum "Si O2"
_cell_formula_units_Z 44
_cell_length_a 24.912269
_cell_length_b 11.434313
_cell_length_c 9.604107
_cell_angle_alpha 90.000000
_cell_angle_beta 53.736840
_cell_angle_gamma 90.000000
_cell_volume 2205.879239
_symmetry_space_group_name_H-M "C 2/M"
_symmetry_group_IT_number 12
_symmetry_cell_setting 'monoclinic'
loop_
_space_group_symop_operation_xyz
x,y,z
-x,y,-z
-x,-y,-z
x,-y,z
1/2+x,1/2+y,z
1/2-x,1/2+y,-z
1/2-x,1/2-y,-z
1/2+x,1/2-y,z
loop_
_atom_site_type_symbol
_atom_site_label
_atom_site_fract_x
_atom_site_fract_y
_atom_site_fract_z
Si Si1 0.931469 0.741920 0.052538
Si Si2 0.158292 0.740720 0.057956
Si Si3 0.177679 0.261181 0.546541
Si Si4 0.289605 0.364487 0.766731
Si Si5 0.521105 0.000000 0.133648
Si Si6 0.378347 0.000000 0.453798
Si Si7 0.608465 0.000000 0.248822
O O1 0.878161 0.764294 0.253806
O O2 0.901061 0.786974 0.951847
O O3 0.948210 0.606938 0.998799
O O4 0.000000 0.805002 0.000000
O O5 0.167241 0.840383 0.160621
O O6 0.148280 0.616640 0.148733
O O7 0.224751 0.719790 0.864594
O O8 0.250000 0.250000 0.500000
O O9 0.168426 0.168244 0.435400
O O10 0.168866 0.390189 0.499137
O O11 0.269403 0.500000 0.792275
O O12 0.441095 0.000000 0.253164
O O13 0.540236 0.000000 0.266457
O O14 0.407229 0.000000 0.564969
#
# Coordination Sequence:
#
# PCOD8093368 Si02
#       7
#     8   8   8   8   4   4   4
#     4  11  21  39  63  95 129 163 207 259 335 383
#     4  10  21  39  64  94 125 167 212 261 321 383
#     4  12  25  38  61  98 131 170 207 269 322 377
#     4  11  23  41  62  89 131 171 215 260 317 381
#     4  10  21  36  67  98 132 163 196 273 345 373
#     4  12  22  40  62 101 138 158 216 261 330 389
#     4  10  19  35  62 102 127 157 200 270 323 393
#
# _framework density 19.946695999999999
#
# number of rings (size 3 to 8) (size 9 to 14) (size 15 to 20)
#    0.000    1.091    6.364    1.091    1.273    0.000 
#    0.000    1.818    0.000    3.273    0.000    0.000 
#    0.000    0.000    0.000    0.000    0.000    0.000 
#
# Total GULP energy -272689.534896 kJ/mol
# GULP energy per Si atom -12394.978859 kJ/mol
# Density = 1.990130 g / cm^3
# Si number density = 19.946696 Si / 1000 Ang^3
#
#
#
# Elastic Constant Matrix: (Units=GPa)
#
#
# Indices 1 2 3 4 5 6 
#
# 1 163.0792 26.0759 61.5109 0.0000 6.9322 0.0000
# 2 26.0759 55.9182 26.0336 0.0000 4.4760 0.0000
# 3 61.5109 26.0336 131.1823 0.0000 5.5467 0.0000
# 4 0.0000 0.0000 0.0000 14.5677 0.0000 -4.4076
# 5 6.9322 4.4760 5.5467 0.0000 34.8391 0.0000
# 6 0.0000 0.0000 0.0000 -4.4076 0.0000 17.9026
#
#
#
# Elastic Compliance Matrix: (Units=1/GPa)
#
#
# Indices 1 2 3 4 5 6 
#
# 1 0.007686 -0.002050 -0.003165 0.000000 -0.000762 0.000000
# 2 -0.002050 0.020379 -0.003010 0.000000 -0.001731 0.000000
# 3 -0.003165 -0.003010 0.009727 0.000000 -0.000532 0.000000
# 4 0.000000 0.000000 0.000000 0.074170 0.000000 0.018260
# 5 -0.000762 -0.001731 -0.000532 0.000000 0.029162 0.000000
# 6 0.000000 0.000000 0.000000 0.018260 0.000000 0.060353
#
#
# Mechanical properties :
#
#
# Convention : Reuss Voigt Hill
#
# Bulk Modulus (GPa) = 46.85463 64.15783 55.50623
# Shear Modulus (GPa) = 22.21826 29.23251 25.72539
#
# Velocity S-wave (km/s) = 3.34111 3.83238 3.59514
# Velocity P-wave (km/s) = 6.19878 7.19842 6.71722
#
# Compressibility (1/GPa) = 0.02134261
#
# Stress axis : x y z
#
# Youngs Moduli (GPa) = 130.10903 49.07014 102.80836
#
# Poissons Ratio (x) = 0.10058 0.32538
# Poissons Ratio (y) = 0.26667 0.30946
# Poissons Ratio (z) = 0.41178 0.14770
#
# Static dielectric constant tensor:
#      x y z
#    x 4.102870 0.000000 0.174940 
#    y 0.000000 3.329700 0.000000 
#    z 0.174940 0.000000 3.675300 
# 
# 
# High freq. dielectric constant tensor:
#      x y z
#    x 1.794730 0.000000 0.018870 
#    y 0.000000 1.739230 0.000000 
#    z 0.018870 0.000000 1.787570 
# 
# From -- ./inp_files/103036.got.cif
#   From: 2010.06.25/outbox.cif.g09.slc.cpg/sg12_52_cif.got.tgz:103036.got - 2010.06.28 00:19:55.
