data_PCOD8093616
_publ_section_title
;
Structure prediction by ZEFSAII (Michael W. Deem and Ramdas Pophale) SiO2 
 PCOD8093616
Probable space group: C 2/M
;
_chemical_formula_sum "Si O2"
_cell_formula_units_Z 64
_cell_length_a 21.402023
_cell_length_b 17.051671
_cell_length_c 17.560641
_cell_angle_alpha 90.000000
_cell_angle_beta 149.958950
_cell_angle_gamma 90.000000
_cell_volume 3208.267917
_symmetry_space_group_name_H-M "C 2/M"
_symmetry_group_IT_number 12
_symmetry_cell_setting 'monoclinic'
loop_
_space_group_symop_operation_xyz
x,y,z
-x,y,-z
-x,-y,-z
x,-y,z
1/2+x,1/2+y,z
1/2-x,1/2+y,-z
1/2-x,1/2-y,-z
1/2+x,1/2-y,z
loop_
_atom_site_type_symbol
_atom_site_label
_atom_site_fract_x
_atom_site_fract_y
_atom_site_fract_z
Si Si1 0.793747 0.658292 0.368394
Si Si2 0.365622 0.409465 0.574516
Si Si3 0.893064 0.592523 0.625643
Si Si4 0.730614 0.410179 0.147628
Si Si5 0.058868 0.807326 0.488401
Si Si6 0.971136 0.150105 0.836834
Si Si7 0.331338 0.763501 0.178225
Si Si8 0.584409 0.796302 0.893493
O O1 0.886380 0.630206 0.534059
O O2 0.805780 0.605762 0.305360
O O3 0.821810 0.749215 0.375985
O O4 0.652603 0.644434 0.244807
O O5 0.363685 0.500000 0.551965
O O6 0.227164 0.380727 0.452354
O O7 0.412166 0.367306 0.547742
O O8 0.458028 0.393537 0.741893
O O9 0.901358 0.500000 0.625762
O O10 0.015850 0.622246 0.800721
O O11 0.752683 0.500000 0.146423
O O12 0.781817 0.352818 0.135568
O O13 0.582976 0.391621 0.000907
O O14 0.000000 0.852677 0.500000
O O15 0.944373 0.748540 0.353828
O O16 0.993133 0.242710 0.847318
O O17 0.383635 0.748435 0.149315
O O18 0.220024 0.699108 0.078299
#
# Coordination Sequence:
#
# PCOD8093616 Si02
#       8
#     8   8   8   8   8   8   8   8
#     4  11  21  35  56  86 115 153 187 221 271 340
#     4  10  21  37  59  85 109 141 192 244 285 325
#     4  10  20  35  58  87 115 145 184 234 286 327
#     4  11  23  37  54  83 122 153 182 225 275 332
#     4  12  22  39  59  80 114 150 188 230 279 335
#     4  10  20  36  60  82 110 148 192 232 278 324
#     4  10  21  37  55  81 109 152 191 223 269 335
#     4  10  19  36  58  79 110 146 192 237 271 323
#
# _framework density 19.948459
#
# number of rings (size 3 to 8) (size 9 to 14) (size 15 to 20)
#    0.000    1.500    3.750    1.875    0.000    4.750 
#    0.000    1.250    0.000    0.000    0.000    1.750 
#    0.000    0.000    0.000    0.000    0.000    0.000 
#
# Total GULP energy -396540.613658 kJ/mol
# GULP energy per Si atom -12391.894177 kJ/mol
# Density = 1.990306 g / cm^3
# Si number density = 19.948459 Si / 1000 Ang^3
#
#
#
# Elastic Constant Matrix: (Units=GPa)
#
#
# Indices 1 2 3 4 5 6 
#
# 1 84.1743 31.3695 12.3022 0.0002 -9.3912 0.0001
# 2 31.3695 68.2708 27.1491 -0.0002 -4.0471 -0.0002
# 3 12.3022 27.1491 69.1902 0.0002 1.5962 0.0001
# 4 0.0002 -0.0002 0.0002 22.9285 0.0001 -1.6901
# 5 -9.3912 -4.0471 1.5962 0.0001 19.7073 0.0001
# 6 0.0001 -0.0002 0.0001 -1.6901 0.0001 26.1304
#
#
#
# Elastic Compliance Matrix: (Units=1/GPa)
#
#
# Indices 1 2 3 4 5 6 
#
# 1 0.014964 -0.006420 -0.000276 0.000000 0.005835 0.000000
# 2 -0.006420 0.020451 -0.006922 0.000000 0.001701 0.000000
# 3 -0.000276 -0.006922 0.017286 0.000000 -0.002953 0.000000
# 4 0.000000 0.000000 0.000000 0.043823 0.000000 0.002834
# 5 0.005835 0.001701 -0.002953 0.000000 0.054112 0.000000
# 6 0.000000 0.000000 0.000000 0.002834 0.000000 0.038453
#
#
# Mechanical properties :
#
#
# Convention : Reuss Voigt Hill
#
# Bulk Modulus (GPa) = 39.27066 40.36412 39.81739
# Shear Modulus (GPa) = 22.24055 23.80752 23.02403
#
# Velocity S-wave (km/s) = 3.34264 3.45838 3.40100
# Velocity P-wave (km/s) = 5.88442 6.01875 5.95196
#
# Compressibility (1/GPa) = 0.02546430
#
# Stress axis : x y z
#
# Youngs Moduli (GPa) = 66.82682 48.89693 57.84896
#
# Poissons Ratio (x) = 0.31392 0.01597
# Poissons Ratio (y) = 0.42903 0.40046
# Poissons Ratio (z) = 0.01845 0.33849
#
# Static dielectric constant tensor:
#      x y z
#    x 3.653110 0.000000 0.074910 
#    y 0.000000 3.292580 0.000000 
#    z 0.074910 0.000000 3.929120 
# 
# 
# High freq. dielectric constant tensor:
#      x y z
#    x 1.780410 0.000000 0.010810 
#    y 0.000000 1.750050 0.000000 
#    z 0.010810 0.000000 1.783870 
# 
# From -- ./inp_files/285235.got.cif
#   From: 2010.06.25/outbox.cif.g09.slc.cpg/sg12_143_cif.got.tgz:285235.got - 2010.06.28 00:19:55.
