data_PCOD8093502
_publ_section_title
;
Structure prediction by ZEFSAII (Michael W. Deem and Ramdas Pophale) SiO2 
 PCOD8093502
Probable space group: C 2/M
;
_chemical_formula_sum "Si O2"
_cell_formula_units_Z 52
_cell_length_a 27.565622
_cell_length_b 13.694545
_cell_length_c 8.469783
_cell_angle_alpha 90.000000
_cell_angle_beta 116.847594
_cell_angle_gamma 90.000000
_cell_volume 2852.694408
_symmetry_space_group_name_H-M "C 2/M"
_symmetry_group_IT_number 12
_symmetry_cell_setting 'monoclinic'
loop_
_space_group_symop_operation_xyz
x,y,z
-x,y,-z
-x,-y,-z
x,-y,z
1/2+x,1/2+y,z
1/2-x,1/2+y,-z
1/2-x,1/2-y,-z
1/2+x,1/2-y,z
loop_
_atom_site_type_symbol
_atom_site_label
_atom_site_fract_x
_atom_site_fract_y
_atom_site_fract_z
Si Si1 0.000000 0.731055 0.000000
Si Si2 0.914138 0.106804 0.326123
Si Si3 0.513747 0.391473 0.265796
Si Si4 0.606976 0.113749 0.059983
Si Si5 0.254858 0.788128 0.253695
Si Si6 0.718483 0.111753 0.389700
Si Si7 0.335042 0.239488 0.097862
O O1 0.025766 0.803165 0.166800
O O2 0.050125 0.664444 0.019872
O O3 0.949413 0.128966 0.530349
O O4 0.867848 0.185653 0.251219
O O5 0.950841 0.112483 0.223428
O O6 0.887313 0.000000 0.298899
O O7 0.526284 0.500000 0.212561
O O8 0.654156 0.130636 0.261405
O O9 0.594710 0.000000 0.019899
O O10 0.627361 0.155294 0.921624
O O11 0.267751 0.867501 0.406833
O O12 0.256676 0.679407 0.334679
O O13 0.294783 0.807914 0.166095
O O14 0.194875 0.797997 0.088548
O O15 0.733570 0.000000 0.373456
#
# Coordination Sequence:
#
# PCOD8093502 Si02
#       7
#     4   8   8   8   8   8   8
#     4  12  20  34  60  80 104 146 184 228 260 320
#     4   9  18  34  53  77 109 138 167 212 273 331
#     4   9  19  34  54  80 108 138 172 212 273 332
#     4  10  22  37  54  78 109 147 187 227 272 312
#     4   9  20  34  58  82 104 139 188 216 265 329
#     4   9  19  38  56  77 112 143 172 225 278 320
#     4  10  19  36  56  80 108 143 178 228 266 317
#
# _framework density 18.228380999999999
#
# number of rings (size 3 to 8) (size 9 to 14) (size 15 to 20)
#    0.000    2.462    1.538    1.385    2.154    1.846 
#    0.000    3.077    0.000    0.923    0.000    0.000 
#    0.000    0.000    0.000    0.000    0.000    0.000 
#
# Total GULP energy -322214.866528 kJ/mol
# GULP energy per Si atom -12392.879482 kJ/mol
# Density = 1.818689 g / cm^3
# Si number density = 18.228381 Si / 1000 Ang^3
#
#
#
# Elastic Constant Matrix: (Units=GPa)
#
#
# Indices 1 2 3 4 5 6 
#
# 1 86.7056 46.5667 25.6602 0.0000 -8.7041 0.0000
# 2 46.5667 110.2419 35.0318 0.0000 -0.6757 0.0000
# 3 25.6602 35.0318 64.6601 0.0000 -8.6821 0.0000
# 4 0.0000 0.0000 0.0000 30.3848 0.0000 5.9243
# 5 -8.7041 -0.6757 -8.6821 0.0000 22.1877 0.0000
# 6 0.0000 0.0000 0.0000 5.9243 0.0000 11.9283
#
#
#
# Elastic Compliance Matrix: (Units=1/GPa)
#
#
# Indices 1 2 3 4 5 6 
#
# 1 0.015955 -0.005937 -0.002426 0.000000 0.005129 0.000000
# 2 -0.005937 0.013260 -0.005369 0.000000 -0.004026 0.000000
# 3 -0.002426 -0.005369 0.020251 0.000000 0.006809 0.000000
# 4 0.000000 0.000000 0.000000 0.036440 0.000000 -0.018098
# 5 0.005129 -0.004026 0.006809 0.000000 0.049624 0.000000
# 6 0.000000 0.000000 0.000000 -0.018098 0.000000 0.092823
#
#
# Mechanical properties :
#
#
# Convention : Reuss Voigt Hill
#
# Bulk Modulus (GPa) = 45.44998 52.90278 49.17638
# Shear Modulus (GPa) = 19.00053 23.19010 21.09531
#
# Velocity S-wave (km/s) = 3.23206 3.57066 3.40557
# Velocity P-wave (km/s) = 6.23827 6.78857 6.51923
#
# Compressibility (1/GPa) = 0.02200221
#
# Stress axis : x y z
#
# Youngs Moduli (GPa) = 62.67734 75.41458 49.37950
#
# Poissons Ratio (x) = 0.44773 0.11982
# Poissons Ratio (y) = 0.37211 0.26510
# Poissons Ratio (z) = 0.15208 0.40487
#
# Static dielectric constant tensor:
#      x y z
#    x 3.452190 0.000000 -0.013420 
#    y 0.000000 3.297820 0.000000 
#    z -0.013420 0.000000 3.437200 
# 
# 
# High freq. dielectric constant tensor:
#      x y z
#    x 1.694720 0.000000 0.001870 
#    y 0.000000 1.702010 0.000000 
#    z 0.001870 0.000000 1.710990 
# 
# From -- ./inp_files/103267.got.cif
#   From: 2010.06.25/outbox.cif.g09.slc.cpg/sg12_52_cif.got.tgz:103267.got - 2010.06.28 00:19:55.
