data_PCOD8093075
_publ_section_title
;
Structure prediction by ZEFSAII (Michael W. Deem and Ramdas Pophale) SiO2 
 PCOD8093075
Probable space group: C 2/M
;
_chemical_formula_sum "Si O2"
_cell_formula_units_Z 44
_cell_length_a 16.512794
_cell_length_b 23.065983
_cell_length_c 8.939820
_cell_angle_alpha 90.000000
_cell_angle_beta 135.933837
_cell_angle_gamma 90.000000
_cell_volume 2368.161434
_symmetry_space_group_name_H-M "C 2/M"
_symmetry_group_IT_number 12
_symmetry_cell_setting 'monoclinic'
loop_
_space_group_symop_operation_xyz
x,y,z
-x,y,-z
-x,-y,-z
x,-y,z
1/2+x,1/2+y,z
1/2-x,1/2+y,-z
1/2-x,1/2-y,-z
1/2+x,1/2-y,z
loop_
_atom_site_type_symbol
_atom_site_label
_atom_site_fract_x
_atom_site_fract_y
_atom_site_fract_z
Si Si1 0.678787 0.066471 0.444464
Si Si2 0.549134 0.436320 0.231373
Si Si3 0.038135 0.297321 0.773075
Si Si4 0.665571 0.158566 0.658851
Si Si5 0.930442 0.176913 0.058822
Si Si6 0.500000 0.870119 0.000000
O O1 0.813853 0.076821 0.583039
O O2 0.645580 0.094871 0.560485
O O3 0.648688 0.000000 0.424582
O O4 0.601048 0.091047 0.206361
O O5 0.524279 0.500000 0.274727
O O6 0.480098 0.381045 0.210409
O O7 0.500000 0.439594 0.000000
O O8 0.116128 0.333888 0.759700
O O9 0.069438 0.229639 0.823753
O O10 0.903050 0.297729 0.542891
O O11 0.060707 0.328642 0.959596
O O12 0.800366 0.170253 0.831253
O O13 0.000000 0.191666 0.000000
#
# Coordination Sequence:
#
# PCOD8093075 Si02
#       6
#     8   8   8   8   8   4
#     4  10  19  35  59  85 113 146 190 236 280 334
#     4   9  17  31  54  86 113 137 183 238 277 327
#     4  10  22  37  53  80 117 153 187 233 279 335
#     4  10  21  37  55  82 115 147 192 236 278 328
#     4  11  19  33  57  86 109 147 189 228 289 330
#     4  10  21  36  54  80 115 154 190 228 280 336
#
# _framework density 18.579815
#
# number of rings (size 3 to 8) (size 9 to 14) (size 15 to 20)
#    0.000    2.000    4.545    0.818    0.000    2.182 
#    0.000    8.182    0.000    0.000    0.000    5.091 
#    0.000    0.000    0.000    0.000    0.000    0.000 
#
# Total GULP energy -272577.560805 kJ/mol
# GULP energy per Si atom -12389.889128 kJ/mol
# Density = 1.853753 g / cm^3
# Si number density = 18.579815 Si / 1000 Ang^3
#
#
#
# Elastic Constant Matrix: (Units=GPa)
#
#
# Indices 1 2 3 4 5 6 
#
# 1 86.5193 52.1237 55.0907 0.0000 -0.2157 0.0000
# 2 52.1237 154.2955 69.1861 0.0000 -1.2374 0.0000
# 3 55.0907 69.1861 119.4632 0.0000 13.7687 0.0000
# 4 0.0000 0.0000 0.0000 28.0494 0.0000 -3.2406
# 5 -0.2157 -1.2374 13.7687 0.0000 32.8604 0.0000
# 6 0.0000 0.0000 0.0000 -3.2406 0.0000 18.1978
#
#
#
# Elastic Compliance Matrix: (Units=1/GPa)
#
#
# Indices 1 2 3 4 5 6 
#
# 1 0.017625 -0.002890 -0.006782 0.000000 0.002849 0.000000
# 2 -0.002890 0.009441 -0.004386 0.000000 0.002174 0.000000
# 3 -0.006782 -0.004386 0.014776 0.000000 -0.006401 0.000000
# 4 0.000000 0.000000 0.000000 0.036400 0.000000 0.006482
# 5 0.002849 0.002174 -0.006401 0.000000 0.033214 0.000000
# 6 0.000000 0.000000 0.000000 0.006482 0.000000 0.056106
#
#
# Mechanical properties :
#
#
# Convention : Reuss Voigt Hill
#
# Bulk Modulus (GPa) = 72.85302 79.23101 76.04201
# Shear Modulus (GPa) = 24.96819 28.08003 26.52411
#
# Velocity S-wave (km/s) = 3.66981 3.89179 3.78243
# Velocity P-wave (km/s) = 7.56655 7.93290 7.75189
#
# Compressibility (1/GPa) = 0.01372627
#
# Stress axis : x y z
#
# Youngs Moduli (GPa) = 56.73779 105.91707 67.67612
#
# Poissons Ratio (x) = 0.30609 0.45901
# Poissons Ratio (y) = 0.16397 0.29681
# Poissons Ratio (z) = 0.38482 0.46453
#
# Static dielectric constant tensor:
#      x y z
#    x 3.208870 0.000000 0.184400 
#    y 0.000000 3.994860 0.000000 
#    z 0.184400 0.000000 3.565400 
# 
# 
# High freq. dielectric constant tensor:
#      x y z
#    x 1.688120 0.000000 0.020960 
#    y 0.000000 1.733640 0.000000 
#    z 0.020960 0.000000 1.730750 
# 
# From -- ./inp_files/65570.got.cif
#   From: 2010.06.25/outbox.cif.g09.slc.cpg/sg12_33_cif.got.tgz:65570.got - 2010.06.28 00:19:55.
