data_PCOD8093678
_publ_section_title
;
Structure prediction by ZEFSAII (Michael W. Deem and Ramdas Pophale) SiO2 
 PCOD8093678
Probable space group: C 2/M
;
_chemical_formula_sum "Si O2"
_cell_formula_units_Z 44
_cell_length_a 10.899749
_cell_length_b 24.022211
_cell_length_c 8.801618
_cell_angle_alpha 90.000000
_cell_angle_beta 110.614714
_cell_angle_gamma 90.000000
_cell_volume 2157.016783
_symmetry_space_group_name_H-M "C 2/M"
_symmetry_group_IT_number 12
_symmetry_cell_setting 'monoclinic'
loop_
_space_group_symop_operation_xyz
x,y,z
-x,y,-z
-x,-y,-z
x,-y,z
1/2+x,1/2+y,z
1/2-x,1/2+y,-z
1/2-x,1/2-y,-z
1/2+x,1/2-y,z
loop_
_atom_site_type_symbol
_atom_site_label
_atom_site_fract_x
_atom_site_fract_y
_atom_site_fract_z
Si Si1 0.391323 0.839503 0.617717
Si Si2 0.156099 0.711079 0.699894
Si Si3 0.686100 0.666149 0.782105
Si Si4 0.764138 0.062345 0.597664
Si Si5 0.653166 0.632355 0.092348
Si Si6 0.000000 0.903963 0.500000
O O1 0.355052 0.787609 0.489236
O O2 0.547264 0.833903 0.714089
O O3 0.319256 0.833794 0.745013
O O4 0.349056 0.897310 0.517465
O O5 0.137557 0.770065 0.774571
O O6 0.300426 0.687674 0.799551
O O7 0.567072 0.634300 0.654034
O O8 0.719949 0.635458 0.954946
O O9 0.805548 0.079242 0.787954
O O10 0.890988 0.060506 0.541709
O O11 0.706960 0.000000 0.579647
O O12 0.500000 0.634522 0.000000
#
# Coordination Sequence:
#
# PCOD8093678 Si02
#       6
#     8   8   8   8   8   4
#     4   9  21  38  59  90 112 149 209 233 285 352
#     4  10  21  38  59  85 122 159 186 237 289 344
#     4  11  21  35  59  87 123 158 185 240 286 351
#     4  10  21  40  63  83 115 153 195 253 295 330
#     4  11  23  38  53  88 125 150 202 226 286 359
#     4  10  19  36  58  92 114 144 203 244 286 356
#
# _framework density 20.398543
#
# number of rings (size 3 to 8) (size 9 to 14) (size 15 to 20)
#    0.000    1.818    1.818    2.455    2.545    1.091 
#    0.000    8.182    0.000    0.000    0.000   14.000 
#    0.000    0.000    0.000    0.000    0.000    0.000 
#
# Total GULP energy -272622.314116 kJ/mol
# GULP energy per Si atom -12391.923369 kJ/mol
# Density = 2.035211 g / cm^3
# Si number density = 20.398543 Si / 1000 Ang^3
#
#
#
# Elastic Constant Matrix: (Units=GPa)
#
#
# Indices 1 2 3 4 5 6 
#
# 1 83.2312 38.7475 24.9716 0.0000 -14.2661 0.0000
# 2 38.7475 123.5001 41.7583 0.0000 6.3115 0.0000
# 3 24.9716 41.7583 94.7243 0.0000 -18.5762 0.0000
# 4 0.0000 0.0000 0.0000 7.5888 0.0000 -6.1600
# 5 -14.2661 6.3115 -18.5762 0.0000 37.8845 0.0000
# 6 0.0000 0.0000 0.0000 -6.1600 0.0000 18.0362
#
#
#
# Elastic Compliance Matrix: (Units=1/GPa)
#
#
# Indices 1 2 3 4 5 6 
#
# 1 0.015643 -0.005013 -0.000659 0.000000 0.006403 0.000000
# 2 -0.005013 0.011712 -0.005083 0.000000 -0.006331 0.000000
# 3 -0.000659 -0.005083 0.014482 0.000000 0.007700 0.000000
# 4 0.000000 0.000000 0.000000 0.182318 0.000000 0.062268
# 5 0.006403 -0.006331 0.007700 0.000000 0.033638 0.000000
# 6 0.000000 0.000000 0.000000 0.062268 0.000000 0.076711
#
#
# Mechanical properties :
#
#
# Convention : Reuss Voigt Hill
#
# Bulk Modulus (GPa) = 49.19321 56.93451 53.06386
# Shear Modulus (GPa) = 13.78216 25.76709 19.77462
#
# Velocity S-wave (km/s) = 2.60214 3.55798 3.11692
# Velocity P-wave (km/s) = 5.76164 6.69706 6.24689
#
# Compressibility (1/GPa) = 0.02032801
#
# Stress axis : x y z
#
# Youngs Moduli (GPa) = 63.92486 85.38084 69.05348
#
# Poissons Ratio (x) = 0.42798 0.04547
# Poissons Ratio (y) = 0.32043 0.35103
# Poissons Ratio (z) = 0.04210 0.43403
#
# Static dielectric constant tensor:
#      x y z
#    x 3.805580 0.000000 -0.088060 
#    y 0.000000 3.448780 0.000000 
#    z -0.088060 0.000000 3.934010 
# 
# 
# High freq. dielectric constant tensor:
#      x y z
#    x 1.801370 0.000000 -0.003290 
#    y 0.000000 1.768730 0.000000 
#    z -0.003290 0.000000 1.799660 
# 
# From -- ./inp_files/50883.got.cif
#   From: 2010.06.25/outbox.cif.g09.slc.cpg/sg12_26_cif.got.tgz:50883.got - 2010.06.28 00:19:55.
