data_PCOD8093892
_publ_section_title
;
Structure prediction by ZEFSAII (Michael W. Deem and Ramdas Pophale) SiO2 
 PCOD8093892
Probable space group: C 2/M
;
_chemical_formula_sum "Si O2"
_cell_formula_units_Z 60
_cell_length_a 12.492388
_cell_length_b 18.539249
_cell_length_c 24.919804
_cell_angle_alpha 90.000000
_cell_angle_beta 147.370727
_cell_angle_gamma 90.000000
_cell_volume 3111.952931
_symmetry_space_group_name_H-M "C 2/M"
_symmetry_group_IT_number 12
_symmetry_cell_setting 'monoclinic'
loop_
_space_group_symop_operation_xyz
x,y,z
-x,y,-z
-x,-y,-z
x,-y,z
1/2+x,1/2+y,z
1/2-x,1/2+y,-z
1/2-x,1/2-y,-z
1/2+x,1/2-y,z
loop_
_atom_site_type_symbol
_atom_site_label
_atom_site_fract_x
_atom_site_fract_y
_atom_site_fract_z
Si Si1 0.261113 0.419426 0.495456
Si Si2 0.890454 0.581638 0.821692
Si Si3 0.500000 0.366070 0.500000
Si Si4 0.546165 0.679326 0.217984
Si Si5 0.993162 0.843176 0.314776
Si Si6 0.896985 0.666919 0.721113
Si Si7 0.936823 0.319421 0.319100
Si Si8 0.178163 0.418049 0.034514
O O1 0.174935 0.500000 0.465045
O O2 0.392012 0.416878 0.497005
O O3 0.396006 0.401912 0.603139
O O4 0.086013 0.361301 0.421063
O O5 0.814105 0.500000 0.794257
O O6 0.735384 0.633293 0.786702
O O7 0.906426 0.599548 0.765264
O O8 0.100056 0.590588 0.940562
O O9 0.328982 0.318794 0.397150
O O10 0.595403 0.655315 0.299638
O O11 0.521665 0.765585 0.210365
O O12 0.719962 0.662158 0.249526
O O13 0.350615 0.640123 0.114374
O O14 0.996555 0.764838 0.344520
O O15 0.044753 0.650728 0.733947
O O16 0.256860 0.500000 0.077500
O O17 0.000000 0.401055 0.000000
#
# Coordination Sequence:
#
# PCOD8093892 Si02
#       8
#     8   8   4   8   8   8   8   8
#     4  11  22  35  56  88 120 163 208 247 298 360
#     4  11  21  39  64  92 119 149 207 266 299 341
#     4  10  19  36  60  86 125 158 204 256 295 344
#     4  11  22  40  63  85 124 164 198 247 310 368
#     4  11  21  37  62  89 118 160 209 248 301 354
#     4  10  22  38  62  93 122 162 206 246 303 357
#     4  10  23  40  56  87 130 162 196 248 309 369
#     4  10  22  39  62  91 119 156 204 258 306 351
#
# _framework density 19.280498000000001
#
# number of rings (size 3 to 8) (size 9 to 14) (size 15 to 20)
#    0.000    1.467    4.000    1.000    0.000    6.400 
#    0.000    1.333    0.000    1.600    0.000    0.000 
#    0.000    0.000    0.000    0.000    0.000    0.000 
#
# Total GULP energy -371949.093974 kJ/mol
# GULP energy per Si atom -12398.303132 kJ/mol
# Density = 1.923661 g / cm^3
# Si number density = 19.280498 Si / 1000 Ang^3
#
#
#
# Elastic Constant Matrix: (Units=GPa)
#
#
# Indices 1 2 3 4 5 6 
#
# 1 117.3572 25.9627 42.8256 0.0000 7.1694 0.0001
# 2 25.9627 112.9821 61.0672 0.0002 3.1286 0.0001
# 3 42.8256 61.0672 108.8259 -0.0006 1.9114 0.0001
# 4 0.0000 0.0002 -0.0006 28.8864 0.0005 1.1803
# 5 7.1694 3.1286 1.9114 0.0005 27.6345 0.0002
# 6 0.0001 0.0001 0.0001 1.1803 0.0002 22.1351
#
#
#
# Elastic Compliance Matrix: (Units=1/GPa)
#
#
# Indices 1 2 3 4 5 6 
#
# 1 0.010103 -0.000187 -0.003830 0.000000 -0.002335 0.000000
# 2 -0.000187 0.012732 -0.007055 0.000000 -0.000905 0.000000
# 3 -0.003830 -0.007055 0.014641 0.000000 0.000780 0.000000
# 4 0.000000 0.000000 0.000000 0.034694 -0.000001 -0.001850
# 5 -0.002335 -0.000905 0.000780 -0.000001 0.036841 0.000000
# 6 0.000000 0.000000 0.000000 -0.001850 0.000000 0.045276
#
#
# Mechanical properties :
#
#
# Convention : Reuss Voigt Hill
#
# Bulk Modulus (GPa) = 65.22064 66.54178 65.88121
# Shear Modulus (GPa) = 27.54191 29.68518 28.61355
#
# Velocity S-wave (km/s) = 3.78363 3.92809 3.85654
# Velocity P-wave (km/s) = 7.27932 7.42702 7.35354
#
# Compressibility (1/GPa) = 0.01533257
#
# Stress axis : x y z
#
# Youngs Moduli (GPa) = 98.98538 78.53996 68.29941
#
# Poissons Ratio (x) = 0.01468 0.26157
# Poissons Ratio (y) = 0.01850 0.48187
# Poissons Ratio (z) = 0.37908 0.55412
#
# Static dielectric constant tensor:
#      x y z
#    x 3.663900 0.000000 -0.117550 
#    y 0.000000 3.436050 0.000000 
#    z -0.117550 0.000000 3.458300 
# 
# 
# High freq. dielectric constant tensor:
#      x y z
#    x 1.753320 0.000000 -0.013840 
#    y 0.000000 1.745970 0.000000 
#    z -0.013840 0.000000 1.737330 
# 
# From -- ./inp_files/336874.got.cif
#   From: 2010.06.25/outbox.cif.g09.slc.cpg/sg12_169_cif.got.tgz:336874.got - 2010.06.28 00:19:55.
