data_PCOD8093079
_publ_section_title
;
Structure prediction by ZEFSAII (Michael W. Deem and Ramdas Pophale) SiO2 
 PCOD8093079
Probable space group: C 2/M
;
_chemical_formula_sum "Si O2"
_cell_formula_units_Z 48
_cell_length_a 18.429178
_cell_length_b 14.745902
_cell_length_c 8.569953
_cell_angle_alpha 90.000000
_cell_angle_beta 90.513703
_cell_angle_gamma 90.000000
_cell_volume 2328.832710
_symmetry_space_group_name_H-M "C 2/M"
_symmetry_group_IT_number 12
_symmetry_cell_setting 'monoclinic'
loop_
_space_group_symop_operation_xyz
x,y,z
-x,y,-z
-x,-y,-z
x,-y,z
1/2+x,1/2+y,z
1/2-x,1/2+y,-z
1/2-x,1/2-y,-z
1/2+x,1/2-y,z
loop_
_atom_site_type_symbol
_atom_site_label
_atom_site_fract_x
_atom_site_fract_y
_atom_site_fract_z
Si Si1 0.151865 0.396490 0.569954
Si Si2 0.078271 0.223160 0.067965
Si Si3 0.698283 0.605056 0.589050
Si Si4 0.718258 0.656483 0.938330
Si Si5 0.142466 0.400937 0.928466
Si Si6 0.578462 0.271836 0.433896
O O1 0.127915 0.500000 0.536675
O O2 0.235626 0.382287 0.528584
O O3 0.142017 0.369002 0.749448
O O4 0.101562 0.331775 0.465852
O O5 0.078180 0.210758 0.251378
O O6 0.135402 0.150341 0.997438
O O7 0.098283 0.327109 0.026329
O O8 0.000000 0.197805 0.000000
O O9 0.678176 0.500000 0.614601
O O10 0.720257 0.650596 0.752341
O O11 0.630462 0.656641 0.517194
O O12 0.750000 0.750000 0.000000
O O13 0.774212 0.584130 0.011655
O O14 0.105064 0.500000 0.945399
O O15 0.500000 0.290381 0.500000
#
# Coordination Sequence:
#
# PCOD8093079 Si02
#       6
#     8   8   8   8   8   8
#     4  10  21  38  62  92 122 155 198 246 298 356
#     4  11  23  39  58  83 115 153 196 241 296 354
#     4  11  23  40  63  90 121 158 201 247 295 350
#     4  10  19  35  59  85 114 148 190 237 286 341
#     4  10  20  36  59  87 119 152 190 238 291 351
#     4  12  24  40  62  85 119 160 200 249 300 357
#
# _framework density 20.611184999999999
#
# number of rings (size 3 to 8) (size 9 to 14) (size 15 to 20)
#    0.000    1.333    0.000    8.000    0.000    3.000 
#    0.000    0.833    0.000    3.500    0.000    0.000 
#    0.000    0.000    0.000    0.000    0.000    0.000 
#
# Total GULP energy -297603.834032 kJ/mol
# GULP energy per Si atom -12400.159751 kJ/mol
# Density = 2.056427 g / cm^3
# Si number density = 20.611185 Si / 1000 Ang^3
#
#
#
# Elastic Constant Matrix: (Units=GPa)
#
#
# Indices 1 2 3 4 5 6 
#
# 1 65.2079 -1.7582 21.2530 0.0000 8.0944 0.0000
# 2 -1.7582 68.9358 28.1631 0.0000 4.8832 0.0000
# 3 21.2530 28.1631 98.7983 0.0000 12.4151 0.0000
# 4 0.0000 0.0000 0.0000 21.8193 0.0000 -5.9553
# 5 8.0944 4.8832 12.4151 0.0000 39.4197 0.0000
# 6 0.0000 0.0000 0.0000 -5.9553 0.0000 18.5552
#
#
#
# Elastic Compliance Matrix: (Units=1/GPa)
#
#
# Indices 1 2 3 4 5 6 
#
# 1 0.017005 0.002238 -0.003980 0.000000 -0.002516 0.000000
# 2 0.002238 0.016726 -0.005134 0.000000 -0.000914 0.000000
# 3 -0.003980 -0.005134 0.012764 0.000000 -0.002567 0.000000
# 4 0.000000 0.000000 0.000000 0.050231 0.000000 0.016122
# 5 -0.002516 -0.000914 -0.002567 0.000000 0.026806 0.000000
# 6 0.000000 0.000000 0.000000 0.016122 0.000000 0.059067
#
#
# Mechanical properties :
#
#
# Convention : Reuss Voigt Hill
#
# Bulk Modulus (GPa) = 30.54157 36.47309 33.50733
# Shear Modulus (GPa) = 24.12357 28.31112 26.21735
#
# Velocity S-wave (km/s) = 3.42484 3.71021 3.57037
# Velocity P-wave (km/s) = 5.52173 6.00736 5.76966
#
# Compressibility (1/GPa) = 0.03274226
#
# Stress axis : x y z
#
# Youngs Moduli (GPa) = 58.80511 59.78841 78.34624
#
# Poissons Ratio (x) = -0.13380 0.31181
# Poissons Ratio (y) = -0.13160 0.40225
# Poissons Ratio (z) = 0.23404 0.30697
#
# Static dielectric constant tensor:
#      x y z
#    x 4.085950 0.000000 0.020410 
#    y 0.000000 3.729640 0.000000 
#    z 0.020410 0.000000 3.804150 
# 
# 
# High freq. dielectric constant tensor:
#      x y z
#    x 1.804600 0.000000 0.001460 
#    y 0.000000 1.803130 0.000000 
#    z 0.001460 0.000000 1.822970 
# 
# From -- ./inp_files/73615.got.cif
#   From: 2010.06.25/outbox.cif.g09.slc.cpg/sg12_37_cif.got.tgz:73615.got - 2010.06.28 00:19:55.
