data_PCOD8093083
_publ_section_title
;
Structure prediction by ZEFSAII (Michael W. Deem and Ramdas Pophale) SiO2 
 PCOD8093083
Probable space group: C 2/M
;
_chemical_formula_sum "Si O2"
_cell_formula_units_Z 48
_cell_length_a 20.412902
_cell_length_b 8.449964
_cell_length_c 19.333572
_cell_angle_alpha 90.000000
_cell_angle_beta 49.032580
_cell_angle_gamma 90.000000
_cell_volume 2518.060273
_symmetry_space_group_name_H-M "C 2/M"
_symmetry_group_IT_number 12
_symmetry_cell_setting 'monoclinic'
loop_
_space_group_symop_operation_xyz
x,y,z
-x,y,-z
-x,-y,-z
x,-y,z
1/2+x,1/2+y,z
1/2-x,1/2+y,-z
1/2-x,1/2-y,-z
1/2+x,1/2-y,z
loop_
_atom_site_type_symbol
_atom_site_label
_atom_site_fract_x
_atom_site_fract_y
_atom_site_fract_z
Si Si1 0.096577 0.187509 0.427804
Si Si2 0.254265 0.312448 0.574034
Si Si3 0.522388 0.815496 0.061330
Si Si4 0.790672 0.184772 0.041078
Si Si5 0.641245 0.683557 0.767831
Si Si6 0.224056 0.815181 0.222355
O O1 0.155720 0.242645 0.451709
O O2 0.141372 0.242272 0.324956
O O3 0.000000 0.262497 0.500000
O O4 0.090388 0.000000 0.432599
O O5 0.245113 0.500000 0.582424
O O6 0.250000 0.250000 0.500000
O O7 0.173562 0.235728 0.670029
O O8 0.461059 0.719982 0.156900
O O9 0.504643 0.000000 0.083227
O O10 0.500000 0.757214 0.000000
O O11 0.621232 0.778745 0.008525
O O12 0.725381 0.218365 0.150017
O O13 0.809404 0.000000 0.022038
O O14 0.750000 0.250000 0.000000
O O15 0.660448 0.500000 0.766768
O O16 0.688854 0.784539 0.794270
O O17 0.218746 0.000000 0.208596
#
# Coordination Sequence:
#
# PCOD8093083 Si02
#       6
#     8   8   8   8   8   8
#     4   8  16  33  58  84 108 143 188 234 281 337
#     4  10  20  36  58  83 117 151 188 239 296 346
#     4  11  22  38  63  89 117 149 192 244 293 344
#     4  12  25  41  60  84 119 157 196 238 293 350
#     4  11  21  35  59  88 116 151 197 237 286 351
#     4  10  19  35  59  85 115 151 192 240 293 343
#
# _framework density 19.062291999999999
#
# number of rings (size 3 to 8) (size 9 to 14) (size 15 to 20)
#    0.000    1.667    1.667    5.500    0.000    0.667 
#    3.000    0.000    0.000   17.000    0.000    0.000 
#    0.000    0.000    0.000    0.000    0.000    0.000 
#
# Total GULP energy -297657.623968 kJ/mol
# GULP energy per Si atom -12402.400999 kJ/mol
# Density = 1.901890 g / cm^3
# Si number density = 19.062292 Si / 1000 Ang^3
#
#
#
# Elastic Constant Matrix: (Units=GPa)
#
#
# Indices 1 2 3 4 5 6 
#
# 1 107.7243 14.2621 76.3186 0.0000 2.5125 0.0001
# 2 14.2621 64.0624 27.0112 -0.0001 0.4458 0.0002
# 3 76.3186 27.0112 155.0515 0.0000 1.8117 0.0002
# 4 0.0000 -0.0001 0.0000 31.7571 0.0000 5.4540
# 5 2.5125 0.4458 1.8117 0.0000 38.2080 0.0000
# 6 0.0001 0.0002 0.0002 5.4540 0.0000 22.6691
#
#
#
# Elastic Compliance Matrix: (Units=1/GPa)
#
#
# Indices 1 2 3 4 5 6 
#
# 1 0.014270 -0.000231 -0.006977 0.000000 -0.000605 0.000000
# 2 -0.000231 0.016851 -0.002821 0.000000 -0.000048 0.000000
# 3 -0.006977 -0.002821 0.010375 0.000000 0.000000 0.000000
# 4 0.000000 0.000000 0.000000 0.032846 0.000000 -0.007902
# 5 -0.000605 -0.000048 0.000000 0.000000 0.026213 0.000000
# 6 0.000000 0.000000 0.000000 -0.007902 0.000000 0.046014
#
#
# Mechanical properties :
#
#
# Convention : Reuss Voigt Hill
#
# Bulk Modulus (GPa) = 46.64562 62.44691 54.54626
# Shear Modulus (GPa) = 28.77294 32.47660 30.62477
#
# Velocity S-wave (km/s) = 3.88934 4.13208 4.01254
# Velocity P-wave (km/s) = 6.68524 7.45627 7.08126
#
# Compressibility (1/GPa) = 0.02143824
#
# Stress axis : x y z
#
# Youngs Moduli (GPa) = 70.07482 59.34322 96.38506
#
# Poissons Ratio (x) = 0.01371 0.67246
# Poissons Ratio (y) = 0.01619 0.27193
# Poissons Ratio (z) = 0.48890 0.16743
#
# Static dielectric constant tensor:
#      x y z
#    x 2.943950 0.000000 -0.171300 
#    y 0.000000 3.403380 0.000000 
#    z -0.171300 0.000000 3.795870 
# 
# 
# High freq. dielectric constant tensor:
#      x y z
#    x 1.721750 0.000000 -0.003780 
#    y 0.000000 1.739700 0.000000 
#    z -0.003780 0.000000 1.754380 
# 
# From -- ./inp_files/280801.got.cif
#   From: 2010.06.25/outbox.cif.g09.slc.cpg/sg12_141_cif.got.tgz:280801.got - 2010.06.28 00:19:55.
