data_PCOD8093214
_publ_section_title
;
Structure prediction by ZEFSAII (Michael W. Deem and Ramdas Pophale) SiO2 
 PCOD8093214
Probable space group: C 2/M
;
_chemical_formula_sum "Si O2"
_cell_formula_units_Z 64
_cell_length_a 30.207664
_cell_length_b 9.061676
_cell_length_c 17.719099
_cell_angle_alpha 90.000000
_cell_angle_beta 136.621370
_cell_angle_gamma 90.000000
_cell_volume 3331.255980
_symmetry_space_group_name_H-M "C 2/M"
_symmetry_group_IT_number 12
_symmetry_cell_setting 'monoclinic'
loop_
_space_group_symop_operation_xyz
x,y,z
-x,y,-z
-x,-y,-z
x,-y,z
1/2+x,1/2+y,z
1/2-x,1/2+y,-z
1/2-x,1/2-y,-z
1/2+x,1/2-y,z
loop_
_atom_site_type_symbol
_atom_site_label
_atom_site_fract_x
_atom_site_fract_y
_atom_site_fract_z
Si Si1 0.308904 0.172356 0.282519
Si Si2 0.908365 0.329188 0.109532
Si Si3 0.955881 0.176661 0.729800
Si Si4 0.808163 0.330750 0.111804
Si Si5 0.359876 0.325379 0.479139
Si Si6 0.746810 0.161870 0.571437
Si Si7 0.890881 0.160045 0.798519
Si Si8 0.840263 0.174931 0.889041
O O1 0.318673 0.229804 0.209234
O O2 0.364005 0.257786 0.399854
O O3 0.235470 0.206088 0.218182
O O4 0.323876 0.000000 0.309171
O O5 0.922983 0.500000 0.110121
O O6 0.874162 0.309550 0.147738
O O7 0.973382 0.236949 0.193966
O O8 0.861490 0.264111 0.988424
O O9 0.913624 0.230418 0.605555
O O10 0.927733 0.242608 0.774949
O O11 0.955129 0.000000 0.732114
O O12 0.786976 0.500000 0.090125
O O13 0.750000 0.250000 0.000000
O O14 0.359736 0.500000 0.474650
O O15 0.290973 0.263835 0.417884
O O16 0.750000 0.250000 0.500000
O O17 0.817774 0.133895 0.686965
O O18 0.713693 0.000000 0.520716
O O19 0.885796 0.235197 0.875513
O O20 0.924501 0.000000 0.849631
O O21 0.851530 0.000000 0.914574
#
# Coordination Sequence:
#
# PCOD8093214 Si02
#       8
#     8   8   8   8   8   8   8   8
#     4  10  20  36  60  90 119 149 186 233 298 360
#     4  11  24  40  58  85 117 148 191 245 292 340
#     4  10  22  41  59  77 112 162 204 233 274 346
#     4  10  21  38  62  90 117 146 186 237 294 355
#     4  11  22  36  57  87 119 153 196 245 292 339
#     4  11  19  32  53  82 116 152 195 242 288 340
#     4   9  18  34  55  81 113 151 195 234 273 334
#     4  10  19  35  60  86 114 152 191 230 287 353
#
# _framework density 19.211973
#
# number of rings (size 3 to 8) (size 9 to 14) (size 15 to 20)
#    0.000    1.750    3.750    1.125    0.000    3.000 
#    0.000    3.750    0.000    3.750    0.000    0.000 
#    0.000    0.000    0.000    0.000    0.000    0.000 
#
# Total GULP energy -396485.803576 kJ/mol
# GULP energy per Si atom -12390.181362 kJ/mol
# Density = 1.916825 g / cm^3
# Si number density = 19.211973 Si / 1000 Ang^3
#
#
#
# Elastic Constant Matrix: (Units=GPa)
#
#
# Indices 1 2 3 4 5 6 
#
# 1 97.6391 15.8626 32.2964 0.0000 -20.7271 0.0000
# 2 15.8626 32.0556 19.3977 0.0000 -9.9488 0.0000
# 3 32.2964 19.3977 63.2066 0.0000 -16.3867 0.0000
# 4 0.0000 0.0000 0.0000 28.1672 0.0000 -0.2361
# 5 -20.7271 -9.9488 -16.3867 0.0000 37.4680 0.0000
# 6 0.0000 0.0000 0.0000 -0.2361 0.0000 22.4967
#
#
#
# Elastic Compliance Matrix: (Units=1/GPa)
#
#
# Indices 1 2 3 4 5 6 
#
# 1 0.013180 -0.002141 -0.004889 0.000000 0.004584 0.000000
# 2 -0.002141 0.039758 -0.009788 0.000000 0.005092 0.000000
# 3 -0.004889 -0.009788 0.022499 0.000000 0.004537 0.000000
# 4 0.000000 0.000000 0.000000 0.035505 0.000000 0.000373
# 5 0.004584 0.005092 0.004537 0.000000 0.032562 0.000000
# 6 0.000000 0.000000 0.000000 0.000373 0.000000 0.044455
#
#
# Mechanical properties :
#
#
# Convention : Reuss Voigt Hill
#
# Bulk Modulus (GPa) = 23.92191 36.44609 30.18400
# Shear Modulus (GPa) = 21.22888 25.98266 23.60577
#
# Velocity S-wave (km/s) = 3.32773 3.68152 3.50909
# Velocity P-wave (km/s) = 5.21955 6.08959 5.67128
#
# Compressibility (1/GPa) = 0.04180268
#
# Stress axis : x y z
#
# Youngs Moduli (GPa) = 75.87291 25.15203 44.44619
#
# Poissons Ratio (x) = 0.05385 0.21730
# Poissons Ratio (y) = 0.16243 0.43502
# Poissons Ratio (z) = 0.37094 0.24618
#
# Static dielectric constant tensor:
#      x y z
#    x 3.755280 0.000000 -0.283180 
#    y 0.000000 3.372660 0.000000 
#    z -0.283180 0.000000 3.464860 
# 
# 
# High freq. dielectric constant tensor:
#      x y z
#    x 1.750220 0.000000 -0.022440 
#    y 0.000000 1.729090 0.000000 
#    z -0.022440 0.000000 1.744140 
# 
# From -- ./inp_files/295736.got.cif
#   From: 2010.06.25/outbox.cif.g09.slc.cpg/sg12_148_cif.got.tgz:295736.got - 2010.06.28 00:19:55.
