data_PCOD8093899
_publ_section_title
;
Structure prediction by ZEFSAII (Michael W. Deem and Ramdas Pophale) SiO2 
 PCOD8093899
Probable space group: C 2/M
;
_chemical_formula_sum "Si O2"
_cell_formula_units_Z 56
_cell_length_a 27.482448
_cell_length_b 15.958533
_cell_length_c 9.440584
_cell_angle_alpha 90.000000
_cell_angle_beta 141.685200
_cell_angle_gamma 90.000000
_cell_volume 2567.001547
_symmetry_space_group_name_H-M "C 2/M"
_symmetry_group_IT_number 12
_symmetry_cell_setting 'monoclinic'
loop_
_space_group_symop_operation_xyz
x,y,z
-x,y,-z
-x,-y,-z
x,-y,z
1/2+x,1/2+y,z
1/2-x,1/2+y,-z
1/2-x,1/2-y,-z
1/2+x,1/2-y,z
loop_
_atom_site_type_symbol
_atom_site_label
_atom_site_fract_x
_atom_site_fract_y
_atom_site_fract_z
Si Si1 0.494660 0.099793 0.826836
Si Si2 0.927319 0.906255 0.731772
Si Si3 0.296901 0.595247 0.845846
Si Si4 0.530312 0.599968 0.718870
Si Si5 0.347561 0.100208 0.310330
Si Si6 0.273520 0.340065 0.497341
Si Si7 0.643786 0.900523 0.992230
O O1 0.417358 0.133649 0.570532
O O2 0.494700 0.000000 0.831474
O O3 0.500000 0.135245 0.000000
O O4 0.568239 0.133211 0.904150
O O5 0.862574 0.842883 0.644114
O O6 0.963509 0.866264 0.672164
O O7 0.890542 0.000000 0.625053
O O8 0.000000 0.915245 0.000000
O O9 0.306853 0.500000 0.915475
O O10 0.233847 0.636292 0.809758
O O11 0.264967 0.598200 0.612069
O O12 0.382776 0.638976 0.054006
O O13 0.500000 0.630847 0.500000
O O14 0.534516 0.500000 0.744656
O O15 0.347851 0.000000 0.313581
O O16 0.357862 0.133180 0.173225
O O17 0.250000 0.250000 0.500000
O O18 0.220215 0.366594 0.244798
O O19 0.645668 0.000000 0.995954
#
# Coordination Sequence:
#
# PCOD8093899 Si02
#       7
#     8   8   8   8   8   8   8
#     4   9  16  29  52  83 115 147 186 234 285 338
#     4  10  19  37  65  91 116 155 205 257 307 358
#     4  10  19  36  60  87 118 151 191 245 306 368
#     4   9  18  31  58  96 122 142 185 254 319 367
#     4   9  18  31  55  89 119 146 187 248 302 348
#     4  12  25  39  55  83 122 161 203 248 302 365
#     4  10  20  35  58  84 112 153 204 252 296 355
#
# _framework density 21.815335999999999
#
# number of rings (size 3 to 8) (size 9 to 14) (size 15 to 20)
#    0.000    2.143    1.429    2.571    2.000    4.000 
#    0.000    2.857    0.000    0.000    0.000    0.000 
#    0.000    0.000    0.000    0.000    0.000    0.143 
#
# Total GULP energy -347099.086913 kJ/mol
# GULP energy per Si atom -12396.395961 kJ/mol
# Density = 2.176568 g / cm^3
# Si number density = 21.815336 Si / 1000 Ang^3
#
#
#
# Elastic Constant Matrix: (Units=GPa)
#
#
# Indices 1 2 3 4 5 6 
#
# 1 233.3881 26.1005 93.8507 0.0000 -2.7900 0.0000
# 2 26.1005 17.8173 16.8539 0.0000 9.6839 0.0000
# 3 93.8507 16.8539 154.9174 0.0000 -11.5095 0.0000
# 4 0.0000 0.0000 0.0000 6.7059 0.0000 4.1110
# 5 -2.7900 9.6839 -11.5095 0.0000 50.7696 0.0000
# 6 0.0000 0.0000 0.0000 4.1110 0.0000 23.0712
#
#
#
# Elastic Compliance Matrix: (Units=1/GPa)
#
#
# Indices 1 2 3 4 5 6 
#
# 1 0.006263 -0.006901 -0.002970 0.000000 0.000987 0.000000
# 2 -0.006901 0.081202 -0.005932 0.000000 -0.017213 0.000000
# 3 -0.002970 -0.005932 0.009125 0.000000 0.003037 0.000000
# 4 0.000000 0.000000 0.000000 0.167409 0.000000 -0.029830
# 5 0.000987 -0.017213 0.003037 0.000000 0.023723 0.000000
# 6 0.000000 0.000000 0.000000 -0.029830 0.000000 0.048659
#
#
# Mechanical properties :
#
#
# Convention : Reuss Voigt Hill
#
# Bulk Modulus (GPa) = 15.38863 75.52589 45.45726
# Shear Modulus (GPa) = 12.83212 34.06385 23.44798
#
# Velocity S-wave (km/s) = 2.42795 3.95582 3.28203
# Velocity P-wave (km/s) = 3.86384 7.45389 5.93674
#
# Compressibility (1/GPa) = 0.06498304
#
# Stress axis : x y z
#
# Youngs Moduli (GPa) = 159.68022 12.31502 109.58745
#
# Poissons Ratio (x) = 0.08499 0.32545
# Poissons Ratio (y) = 1.10202 0.65007
# Poissons Ratio (z) = 0.47421 0.07305
#
# Static dielectric constant tensor:
#      x y z
#    x 4.450050 0.000000 -0.548520 
#    y 0.000000 3.322200 0.000000 
#    z -0.548520 0.000000 4.635470 
# 
# 
# High freq. dielectric constant tensor:
#      x y z
#    x 1.880260 0.000000 0.000200 
#    y 0.000000 1.791990 0.000000 
#    z 0.000200 0.000000 1.864290 
# 
# From -- ./inp_files/105939.got.cif
#   From: 2010.06.25/outbox.cif.g09.slc.cpg/sg12_53_cif.got.tgz:105939.got - 2010.06.28 00:19:55.
