data_PCOD8093573
_publ_section_title
;
Structure prediction by ZEFSAII (Michael W. Deem and Ramdas Pophale) SiO2 
 PCOD8093573
Probable space group: C 2/M
;
_chemical_formula_sum "Si O2"
_cell_formula_units_Z 64
_cell_length_a 14.401982
_cell_length_b 27.899131
_cell_length_c 8.647304
_cell_angle_alpha 90.000000
_cell_angle_beta 80.600365
_cell_angle_gamma 90.000000
_cell_volume 3427.859254
_symmetry_space_group_name_H-M "C 2/M"
_symmetry_group_IT_number 12
_symmetry_cell_setting 'monoclinic'
loop_
_space_group_symop_operation_xyz
x,y,z
-x,y,-z
-x,-y,-z
x,-y,z
1/2+x,1/2+y,z
1/2-x,1/2+y,-z
1/2-x,1/2-y,-z
1/2+x,1/2-y,z
loop_
_atom_site_type_symbol
_atom_site_label
_atom_site_fract_x
_atom_site_fract_y
_atom_site_fract_z
Si Si1 0.389901 0.879301 0.539320
Si Si2 0.762128 0.799961 0.909220
Si Si3 0.233527 0.697951 0.568498
Si Si4 0.738371 0.554701 0.437018
Si Si5 0.274328 0.118824 0.857508
Si Si6 0.679566 0.554362 0.104941
Si Si7 0.869752 0.869199 0.369552
Si Si8 0.050927 0.143770 0.143112
O O1 0.500000 0.885971 0.500000
O O2 0.356667 0.826940 0.488856
O O3 0.335840 0.919473 0.454873
O O4 0.365669 0.886571 0.726527
O O5 0.713002 0.797930 0.755899
O O6 0.870568 0.815520 0.851601
O O7 0.750000 0.750000 0.000000
O O8 0.707498 0.839783 0.022575
O O9 0.250000 0.750000 0.500000
O O10 0.327884 0.667904 0.505802
O O11 0.742888 0.500000 0.489452
O O12 0.728533 0.560002 0.256848
O O13 0.649156 0.578282 0.550903
O O14 0.184537 0.134570 0.778953
O O15 0.254570 0.068871 0.951818
O O16 0.644981 0.500000 0.086668
O O17 0.592082 0.590304 0.116111
O O18 0.979153 0.857961 0.308582
O O19 0.000000 0.158369 0.000000
#
# Coordination Sequence:
#
# PCOD8093573 Si02
#       8
#     8   8   8   8   8   8   8   8
#     4  10  21  39  61  84 111 143 195 247 284 337
#     4  11  21  38  59  80 113 152 188 227 287 348
#     4  10  22  40  59  80 113 150 185 233 292 346
#     4   9  20  37  58  83 118 157 187 227 288 344
#     4   9  18  36  57  80 113 149 182 232 289 333
#     4  10  20  35  56  85 119 157 190 222 281 345
#     4  10  19  36  57  83 116 149 187 232 281 331
#     4  11  21  36  56  88 118 148 190 241 274 329
#
# _framework density 18.670544
#
# number of rings (size 3 to 8) (size 9 to 14) (size 15 to 20)
#    0.000    2.250    2.500    4.500    0.000    5.000 
#    4.500    3.750    0.000    1.500    0.000    0.000 
#    0.000    0.000    0.000    0.000    0.000    0.000 
#
# Total GULP energy -396705.630018 kJ/mol
# GULP energy per Si atom -12397.050938 kJ/mol
# Density = 1.862805 g / cm^3
# Si number density = 18.670544 Si / 1000 Ang^3
#
#
#
# Elastic Constant Matrix: (Units=GPa)
#
#
# Indices 1 2 3 4 5 6 
#
# 1 88.3823 21.0360 29.3476 0.0000 -28.8863 0.0000
# 2 21.0360 113.2502 29.4496 0.0000 -4.2955 0.0000
# 3 29.3476 29.4496 117.8072 0.0000 -8.6352 0.0000
# 4 0.0000 0.0000 0.0000 33.3801 0.0000 4.9843
# 5 -28.8863 -4.2955 -8.6352 0.0000 33.1495 0.0000
# 6 0.0000 0.0000 0.0000 4.9843 0.0000 15.4836
#
#
#
# Elastic Compliance Matrix: (Units=1/GPa)
#
#
# Indices 1 2 3 4 5 6 
#
# 1 0.017319 -0.001956 -0.002791 0.000000 0.014111 0.000000
# 2 -0.001956 0.009677 -0.002003 0.000000 -0.000972 0.000000
# 3 -0.002791 -0.002003 0.009672 0.000000 -0.000172 0.000000
# 4 0.000000 0.000000 0.000000 0.031471 0.000000 -0.010131
# 5 0.014111 -0.000972 -0.000172 0.000000 0.042292 0.000000
# 6 0.000000 0.000000 0.000000 -0.010131 0.000000 0.067845
#
#
# Mechanical properties :
#
#
# Convention : Reuss Voigt Hill
#
# Bulk Modulus (GPa) = 43.16375 53.23401 48.19888
# Shear Modulus (GPa) = 25.06283 32.37642 28.71963
#
# Velocity S-wave (km/s) = 3.66782 4.16876 3.92628
# Velocity P-wave (km/s) = 6.41139 7.19344 6.81365
#
# Compressibility (1/GPa) = 0.02316759
#
# Stress axis : x y z
#
# Youngs Moduli (GPa) = 57.74099 103.33417 103.39255
#
# Poissons Ratio (x) = 0.20211 0.28858
# Poissons Ratio (y) = 0.11294 0.20711
# Poissons Ratio (z) = 0.16116 0.20700
#
# Static dielectric constant tensor:
#      x y z
#    x 3.141910 0.000000 -0.026940 
#    y 0.000000 4.075040 0.000000 
#    z -0.026940 0.000000 3.750130 
# 
# 
# High freq. dielectric constant tensor:
#      x y z
#    x 1.690350 0.000000 0.001970 
#    y 0.000000 1.725110 0.000000 
#    z 0.001970 0.000000 1.749310 
# 
# From -- ./inp_files/66951.got.cif
#   From: 2010.06.25/outbox.cif.g09.slc.cpg/sg12_34_cif.got.tgz:66951.got - 2010.06.28 00:19:55.
