data_PCOD8093759
_publ_section_title
;
Structure prediction by ZEFSAII (Michael W. Deem and Ramdas Pophale) SiO2 
 PCOD8093759
Probable space group: C 2/M
;
_chemical_formula_sum "Si O2"
_cell_formula_units_Z 56
_cell_length_a 15.203234
_cell_length_b 8.792419
_cell_length_c 21.908251
_cell_angle_alpha 90.000000
_cell_angle_beta 79.267430
_cell_angle_gamma 90.000000
_cell_volume 2877.317315
_symmetry_space_group_name_H-M "C 2/M"
_symmetry_group_IT_number 12
_symmetry_cell_setting 'monoclinic'
loop_
_space_group_symop_operation_xyz
x,y,z
-x,y,-z
-x,-y,-z
x,-y,z
1/2+x,1/2+y,z
1/2-x,1/2+y,-z
1/2-x,1/2-y,-z
1/2+x,1/2-y,z
loop_
_atom_site_type_symbol
_atom_site_label
_atom_site_fract_x
_atom_site_fract_y
_atom_site_fract_z
Si Si1 0.189528 0.180417 0.708253
Si Si2 0.333277 0.319632 0.152455
Si Si3 0.297478 0.819802 0.935495
Si Si4 0.562552 0.825722 0.629308
Si Si5 0.984454 0.179074 0.931960
Si Si6 0.346557 0.320780 0.496007
Si Si7 0.131203 0.674089 0.381636
O O1 0.185365 0.244801 0.777563
O O2 0.106713 0.248950 0.682141
O O3 0.282864 0.234105 0.666491
O O4 0.181011 0.000000 0.708379
O O5 0.332904 0.500000 0.152959
O O6 0.255557 0.261122 0.117397
O O7 0.430032 0.262746 0.117058
O O8 0.399205 0.765989 0.916221
O O9 0.292994 0.000000 0.941855
O O10 0.250000 0.750000 0.000000
O O11 0.588287 0.741830 0.563954
O O12 0.455330 0.812558 0.650706
O O13 0.594021 0.000000 0.621040
O O14 0.968079 0.000000 0.927344
O O15 0.000000 0.223858 0.000000
O O16 0.340430 0.500000 0.490104
O O17 0.250000 0.250000 0.500000
O O18 0.384871 0.276861 0.556971
O O19 0.145973 0.500000 0.400885
#
# Coordination Sequence:
#
# PCOD8093759 Si02
#       7
#     8   8   8   8   8   8   8
#     4  10  21  40  62  82 112 160 204 237 287 353
#     4   9  20  38  59  83 116 157 196 238 294 353
#     4  11  21  36  59  88 118 151 194 240 292 351
#     4  11  23  39  60  88 121 155 195 245 296 344
#     4  10  19  36  59  84 117 154 190 236 294 348
#     4  12  23  37  61  90 119 152 195 246 297 348
#     4  10  22  39  60  86 119 156 195 240 293 347
#
# _framework density 19.462572000000002
#
# number of rings (size 3 to 8) (size 9 to 14) (size 15 to 20)
#    0.000    1.571    2.857    2.571    0.000    4.286 
#    0.000    3.571    0.000    0.000    0.000    0.000 
#    0.000    0.000    0.000    0.000    0.000    0.000 
#
# Total GULP energy -347297.695203 kJ/mol
# GULP energy per Si atom -12403.489114 kJ/mol
# Density = 1.941827 g / cm^3
# Si number density = 19.462572 Si / 1000 Ang^3
#
#
#
# Elastic Constant Matrix: (Units=GPa)
#
#
# Indices 1 2 3 4 5 6 
#
# 1 138.2441 30.1139 65.4537 0.0000 19.6530 0.0000
# 2 30.1139 57.7126 36.9238 0.0000 4.4671 0.0000
# 3 65.4537 36.9238 161.8017 0.0000 13.8240 0.0000
# 4 0.0000 0.0000 0.0000 21.7911 0.0000 6.2481
# 5 19.6530 4.4671 13.8240 0.0000 24.7577 0.0000
# 6 0.0000 0.0000 0.0000 6.2481 0.0000 32.1516
#
#
#
# Elastic Compliance Matrix: (Units=1/GPa)
#
#
# Indices 1 2 3 4 5 6 
#
# 1 0.010084 -0.002949 -0.002906 0.000000 -0.005850 0.000000
# 2 -0.002949 0.021182 -0.003690 0.000000 0.000580 0.000000
# 3 -0.002906 -0.003690 0.008342 0.000000 -0.001685 0.000000
# 4 0.000000 0.000000 0.000000 0.048598 0.000000 -0.009444
# 5 -0.005850 0.000580 -0.001685 0.000000 0.045871 0.000000
# 6 0.000000 0.000000 0.000000 -0.009444 0.000000 0.032938
#
#
# Mechanical properties :
#
#
# Convention : Reuss Voigt Hill
#
# Bulk Modulus (GPa) = 48.74198 69.19348 58.96773
# Shear Modulus (GPa) = 25.91391 30.75787 28.33589
#
# Velocity S-wave (km/s) = 3.65290 3.97969 3.81979
# Velocity P-wave (km/s) = 6.54903 7.53302 7.05820
#
# Compressibility (1/GPa) = 0.02051620
#
# Stress axis : x y z
#
# Youngs Moduli (GPa) = 99.17016 47.20916 119.87220
#
# Poissons Ratio (x) = 0.13924 0.34839
# Poissons Ratio (y) = 0.29249 0.44237
# Poissons Ratio (z) = 0.28822 0.17422
#
# Static dielectric constant tensor:
#      x y z
#    x 3.793210 0.000000 0.007140 
#    y 0.000000 3.461850 0.000000 
#    z 0.007140 0.000000 3.716500 
# 
# 
# High freq. dielectric constant tensor:
#      x y z
#    x 1.774370 0.000000 0.003250 
#    y 0.000000 1.743400 0.000000 
#    z 0.003250 0.000000 1.755420 
# 
# From -- ./inp_files/308927.got.cif
#   From: 2010.06.25/outbox.cif.g09.slc.cpg/sg12_155_cif.got.tgz:308927.got - 2010.06.28 00:19:55.
