data_PCOD8093901
_publ_section_title
;
Structure prediction by ZEFSAII (Michael W. Deem and Ramdas Pophale) SiO2 
 PCOD8093901
Probable space group: C 2/M
;
_chemical_formula_sum "Si O2"
_cell_formula_units_Z 44
_cell_length_a 18.129006
_cell_length_b 13.494963
_cell_length_c 16.711265
_cell_angle_alpha 90.000000
_cell_angle_beta 146.130873
_cell_angle_gamma 90.000000
_cell_volume 2278.464866
_symmetry_space_group_name_H-M "C 2/M"
_symmetry_group_IT_number 12
_symmetry_cell_setting 'monoclinic'
loop_
_space_group_symop_operation_xyz
x,y,z
-x,y,-z
-x,-y,-z
x,-y,z
1/2+x,1/2+y,z
1/2-x,1/2+y,-z
1/2-x,1/2-y,-z
1/2+x,1/2-y,z
loop_
_atom_site_type_symbol
_atom_site_label
_atom_site_fract_x
_atom_site_fract_y
_atom_site_fract_z
Si Si1 0.445509 0.000000 0.773931
Si Si2 0.349335 0.703952 0.335250
Si Si3 0.119144 0.684794 0.382974
Si Si4 0.209740 0.500000 0.215599
Si Si5 0.739720 0.000000 0.059167
Si Si6 0.355633 0.295599 0.154388
Si Si7 0.633563 0.892035 0.570160
O O1 0.374840 0.099060 0.678032
O O2 0.422967 0.000000 0.850013
O O3 0.600261 0.000000 0.885619
O O4 0.500000 0.699991 0.500000
O O5 0.289545 0.599841 0.309314
O O6 0.330675 0.727858 0.224994
O O7 0.280384 0.798984 0.317904
O O8 0.250000 0.750000 0.500000
O O9 0.096116 0.629188 0.445293
O O10 0.999807 0.760455 0.257187
O O11 0.182118 0.500000 0.097023
O O12 0.838653 0.087834 0.127384
O O13 0.250000 0.250000 0.000000
O O14 0.500000 0.898571 0.500000
O O15 0.706582 0.000000 0.641979
#
# Coordination Sequence:
#
# PCOD8093901 Si02
#       7
#     4   8   8   4   4   8   8
#     4  12  23  38  61  90 129 163 205 261 331 368
#     4  10  19  36  60  87 120 162 214 257 308 372
#     4  12  24  39  63  95 129 160 205 266 320 371
#     4  10  22  36  58  89 121 163 214 259 316 376
#     4  10  23  40  64  87 122 172 211 260 310 391
#     4  11  22  41  62  91 126 161 213 256 313 377
#     4  10  19  36  60  89 119 159 206 252 303 378
#
# _framework density 19.311247000000002
#
# number of rings (size 3 to 8) (size 9 to 14) (size 15 to 20)
#    0.000    1.273    6.364    1.636    0.000    0.727 
#    1.636    0.000    0.000    0.000    0.000    1.273 
#    0.000    0.000    0.000    0.000    0.000    0.000 
#
# Total GULP energy -272581.282845 kJ/mol
# GULP energy per Si atom -12390.058311 kJ/mol
# Density = 1.926729 g / cm^3
# Si number density = 19.311247 Si / 1000 Ang^3
#
#
#
# Elastic Constant Matrix: (Units=GPa)
#
#
# Indices 1 2 3 4 5 6 
#
# 1 77.2572 35.5270 29.7975 0.0000 -3.8980 0.0000
# 2 35.5270 193.3832 57.7799 0.0000 5.4759 0.0000
# 3 29.7975 57.7799 99.7090 0.0000 2.5113 0.0000
# 4 0.0000 0.0000 0.0000 31.0296 0.0000 -7.0359
# 5 -3.8980 5.4759 2.5113 0.0000 32.4081 0.0000
# 6 0.0000 0.0000 0.0000 -7.0359 0.0000 14.8925
#
#
#
# Elastic Compliance Matrix: (Units=1/GPa)
#
#
# Indices 1 2 3 4 5 6 
#
# 1 0.015277 -0.001805 -0.003580 0.000000 0.002420 0.000000
# 2 -0.001805 0.006487 -0.003193 0.000000 -0.001066 0.000000
# 3 -0.003580 -0.003193 0.012972 0.000000 -0.000896 0.000000
# 4 0.000000 0.000000 0.000000 0.036094 0.000000 0.017052
# 5 0.002420 -0.001066 -0.000896 0.000000 0.031397 0.000000
# 6 0.000000 0.000000 0.000000 0.017052 0.000000 0.075204
#
#
# Mechanical properties :
#
#
# Convention : Reuss Voigt Hill
#
# Bulk Modulus (GPa) = 56.88572 68.50645 62.69609
# Shear Modulus (GPa) = 24.94428 32.14907 28.54668
#
# Velocity S-wave (km/s) = 3.59792 4.08460 3.84896
# Velocity P-wave (km/s) = 6.83968 7.60245 7.23113
#
# Compressibility (1/GPa) = 0.01757910
#
# Stress axis : x y z
#
# Youngs Moduli (GPa) = 65.45813 154.15805 77.09050
#
# Poissons Ratio (x) = 0.27832 0.27600
# Poissons Ratio (y) = 0.11818 0.24612
# Poissons Ratio (z) = 0.23435 0.49217
#
# Static dielectric constant tensor:
#      x y z
#    x 3.338130 0.000000 -0.387870 
#    y 0.000000 3.607790 0.000000 
#    z -0.387870 0.000000 3.225130 
# 
# 
# High freq. dielectric constant tensor:
#      x y z
#    x 1.745260 0.000000 -0.021840 
#    y 0.000000 1.779690 0.000000 
#    z -0.021840 0.000000 1.725960 
# 
# From -- ./inp_files/277977.got.cif
#   From: 2010.06.25/outbox.cif.g09.slc.cpg/sg12_139_cif.got.tgz:277977.got - 2010.06.28 00:19:55.
