data_PCOD8093729
_publ_section_title
;
Structure prediction by ZEFSAII (Michael W. Deem and Ramdas Pophale) SiO2 
 PCOD8093729
Probable space group: C 2/M
;
_chemical_formula_sum "Si O2"
_cell_formula_units_Z 56
_cell_length_a 20.436334
_cell_length_b 9.037264
_cell_length_c 17.294303
_cell_angle_alpha 90.000000
_cell_angle_beta 71.190495
_cell_angle_gamma 90.000000
_cell_volume 3023.483419
_symmetry_space_group_name_H-M "C 2/M"
_symmetry_group_IT_number 12
_symmetry_cell_setting 'monoclinic'
loop_
_space_group_symop_operation_xyz
x,y,z
-x,y,-z
-x,-y,-z
x,-y,z
1/2+x,1/2+y,z
1/2-x,1/2+y,-z
1/2-x,1/2-y,-z
1/2+x,1/2-y,z
loop_
_atom_site_type_symbol
_atom_site_label
_atom_site_fract_x
_atom_site_fract_y
_atom_site_fract_z
Si Si1 0.659462 0.827378 0.599037
Si Si2 0.299408 0.172525 0.585889
Si Si3 0.672606 0.169695 0.832985
Si Si4 0.678526 0.171955 0.008406
Si Si5 0.326941 0.328531 0.724450
Si Si6 0.925335 0.173093 0.247969
Si Si7 0.416453 0.327461 0.835530
O O1 0.656974 0.795266 0.508426
O O2 0.727412 0.759133 0.612043
O O3 0.593155 0.753826 0.664355
O O4 0.660550 0.000000 0.617091
O O5 0.342975 0.232134 0.641907
O O6 0.283163 0.000000 0.600915
O O7 0.751963 0.210288 0.786779
O O8 0.623509 0.274831 0.802587
O O9 0.657476 0.000000 0.816120
O O10 0.656994 0.199756 0.928356
O O11 0.616697 0.234951 0.083024
O O12 0.688759 0.000000 0.021986
O O13 0.750000 0.250000 0.000000
O O14 0.333689 0.500000 0.699807
O O15 0.382999 0.281796 0.766671
O O16 0.003344 0.213706 0.196917
O O17 0.915530 0.000000 0.264566
O O18 0.403029 0.500000 0.856945
#
# Coordination Sequence:
#
# PCOD8093729 Si02
#       7
#     8   8   8   8   8   8   8
#     4  10  20  35  55  81 117 152 182 230 285 334
#     4  10  20  33  55  87 114 142 190 238 276 327
#     4  10  21  37  59  84 114 149 186 231 283 336
#     4  11  22  38  61  87 114 149 190 236 283 333
#     4  10  19  36  59  82 113 151 186 229 282 335
#     4  11  23  38  59  85 115 151 190 234 279 334
#     4  10  23  42  59  82 117 152 189 233 283 336
#
# _framework density 18.521682999999999
#
# number of rings (size 3 to 8) (size 9 to 14) (size 15 to 20)
#    0.000    1.714    2.857    1.714    0.000    5.143 
#    0.000    3.571    0.000    4.286    0.000    0.000 
#    0.000    0.000    0.000    0.000    0.000    0.000 
#
# Total GULP energy -347325.821741 kJ/mol
# GULP energy per Si atom -12404.493634 kJ/mol
# Density = 1.847953 g / cm^3
# Si number density = 18.521683 Si / 1000 Ang^3
#
#
#
# Elastic Constant Matrix: (Units=GPa)
#
#
# Indices 1 2 3 4 5 6 
#
# 1 82.2885 43.0735 35.8828 0.0000 -6.0830 0.0000
# 2 43.0735 94.5984 62.9616 0.0000 -8.1131 0.0000
# 3 35.8828 62.9616 119.1928 0.0000 -2.9849 0.0000
# 4 0.0000 0.0000 0.0000 37.7145 0.0000 0.8753
# 5 -6.0830 -8.1131 -2.9849 0.0000 25.8702 0.0000
# 6 0.0000 0.0000 0.0000 0.8753 0.0000 28.1585
#
#
#
# Elastic Compliance Matrix: (Units=1/GPa)
#
#
# Indices 1 2 3 4 5 6 
#
# 1 0.016200 -0.006190 -0.001565 0.000000 0.001687 0.000000
# 2 -0.006190 0.019120 -0.008146 0.000000 0.003601 0.000000
# 3 -0.001565 -0.008146 0.013129 0.000000 -0.001408 0.000000
# 4 0.000000 0.000000 0.000000 0.026534 0.000000 -0.000825
# 5 0.001687 0.003601 -0.001408 0.000000 0.040018 0.000000
# 6 0.000000 0.000000 0.000000 -0.000825 0.000000 0.035539
#
#
# Mechanical properties :
#
#
# Convention : Reuss Voigt Hill
#
# Bulk Modulus (GPa) = 60.07318 64.43506 62.25412
# Shear Modulus (GPa) = 26.61123 28.62608 27.61865
#
# Velocity S-wave (km/s) = 3.79457 3.93561 3.86573
# Velocity P-wave (km/s) = 7.19046 7.45094 7.32186
#
# Compressibility (1/GPa) = 0.01664636
#
# Stress axis : x y z
#
# Youngs Moduli (GPa) = 61.73004 52.30075 76.16861
#
# Poissons Ratio (x) = 0.32374 0.11920
# Poissons Ratio (y) = 0.38210 0.62049
# Poissons Ratio (z) = 0.09660 0.42606
#
# Static dielectric constant tensor:
#      x y z
#    x 3.247200 0.000000 0.041380 
#    y 0.000000 3.460940 0.000000 
#    z 0.041380 0.000000 3.621340 
# 
# 
# High freq. dielectric constant tensor:
#      x y z
#    x 1.699990 0.000000 0.007660 
#    y 0.000000 1.725950 0.000000 
#    z 0.007660 0.000000 1.733460 
# 
# From -- ./inp_files/275010.got.cif
#   From: 2010.06.25/outbox.cif.g09.slc.cpg/sg12_138_cif.got.tgz:275010.got - 2010.06.28 00:19:55.
