data_PCOD8093804
_publ_section_title
;
Structure prediction by ZEFSAII (Michael W. Deem and Ramdas Pophale) SiO2 
 PCOD8093804
Probable space group: C 2/M
;
_chemical_formula_sum "Si O2"
_cell_formula_units_Z 44
_cell_length_a 34.873144
_cell_length_b 10.415747
_cell_length_c 20.724267
_cell_angle_alpha 90.000000
_cell_angle_beta 161.506024
_cell_angle_gamma 90.000000
_cell_volume 2387.814906
_symmetry_space_group_name_H-M "C 2/M"
_symmetry_group_IT_number 12
_symmetry_cell_setting 'monoclinic'
loop_
_space_group_symop_operation_xyz
x,y,z
-x,y,-z
-x,-y,-z
x,-y,z
1/2+x,1/2+y,z
1/2-x,1/2+y,-z
1/2-x,1/2-y,-z
1/2+x,1/2-y,z
loop_
_atom_site_type_symbol
_atom_site_label
_atom_site_fract_x
_atom_site_fract_y
_atom_site_fract_z
Si Si1 0.316357 0.852279 0.561359
Si Si2 0.294377 0.500000 0.992187
Si Si3 0.919490 0.500000 0.250138
Si Si4 0.907234 0.646253 0.015027
Si Si5 0.691857 0.000000 0.690749
Si Si6 0.067963 0.754592 0.810677
Si Si7 0.207390 0.729132 0.620387
O O1 0.250000 0.750000 0.500000
O O2 0.458647 0.827418 0.797709
O O3 0.273095 0.828056 0.419339
O O4 0.283594 0.000000 0.527753
O O5 0.369513 0.371510 0.127577
O O6 0.172205 0.500000 0.837222
O O7 0.274174 0.500000 0.884170
O O8 0.900833 0.625382 0.177349
O O9 0.053268 0.500000 0.492981
O O10 0.898748 0.500000 0.025439
O O11 0.881907 0.736308 0.036633
O O12 0.810966 0.667830 0.803673
O O13 0.724310 0.879477 0.699808
O O14 0.925988 0.788748 0.586401
#
# Coordination Sequence:
#
# PCOD8093804 Si02
#       7
#     8   4   4   8   4   8   8
#     4  10  22  41  60  86 117 150 185 230 286 339
#     4  12  21  34  57  91 113 139 201 248 279 321
#     4  10  21  38  55  78 119 163 178 233 297 341
#     4  10  20  38  62  80 112 157 189 223 281 350
#     4  10  19  36  60  80 109 150 199 227 280 341
#     4  10  21  36  58  82 115 151 192 233 281 338
#     4  10  20  38  60  83 111 150 192 233 278 333
#
# _framework density 18.42689
#
# number of rings (size 3 to 8) (size 9 to 14) (size 15 to 20)
#    0.000    1.818    3.636    0.818    1.273    1.455 
#    6.545    2.727    0.000    1.091    0.000    0.000 
#    0.000    0.000    0.000    0.000    0.000    0.000 
#
# Total GULP energy -272759.384748 kJ/mol
# GULP energy per Si atom -12398.153852 kJ/mol
# Density = 1.838495 g / cm^3
# Si number density = 18.426890 Si / 1000 Ang^3
#
#
#
# Elastic Constant Matrix: (Units=GPa)
#
#
# Indices 1 2 3 4 5 6 
#
# 1 82.3680 36.7540 34.7620 0.0000 5.5855 0.0000
# 2 36.7540 106.1179 33.2688 0.0000 11.5403 0.0000
# 3 34.7620 33.2688 84.8448 0.0000 -11.2009 0.0000
# 4 0.0000 0.0000 0.0000 28.7493 0.0000 0.4720
# 5 5.5855 11.5403 -11.2009 0.0000 25.3867 0.0000
# 6 0.0000 0.0000 0.0000 0.4720 0.0000 41.7668
#
#
#
# Elastic Compliance Matrix: (Units=1/GPa)
#
#
# Indices 1 2 3 4 5 6 
#
# 1 0.016514 -0.003273 -0.006122 0.000000 -0.004847 0.000000
# 2 -0.003273 0.012776 -0.004609 0.000000 -0.007121 0.000000
# 3 -0.006122 -0.004609 0.017580 0.000000 0.011199 0.000000
# 4 0.000000 0.000000 0.000000 0.034790 0.000000 -0.000393
# 5 -0.004847 -0.007121 0.011199 0.000000 0.048635 0.000000
# 6 0.000000 0.000000 0.000000 -0.000393 0.000000 0.023947
#
#
# Mechanical properties :
#
#
# Convention : Reuss Voigt Hill
#
# Bulk Modulus (GPa) = 53.01722 53.65559 53.33641
# Shear Modulus (GPa) = 26.51983 30.41695 28.46839
#
# Velocity S-wave (km/s) = 3.79778 4.06727 3.93483
# Velocity P-wave (km/s) = 6.93289 7.15809 7.04639
#
# Compressibility (1/GPa) = 0.01886180
#
# Stress axis : x y z
#
# Youngs Moduli (GPa) = 60.55629 78.26879 56.88212
#
# Poissons Ratio (x) = 0.25618 0.34825
# Poissons Ratio (y) = 0.19820 0.26217
# Poissons Ratio (z) = 0.37074 0.36074
#
# Static dielectric constant tensor:
#      x y z
#    x 3.239130 0.000000 -0.039300 
#    y 0.000000 3.392250 0.000000 
#    z -0.039300 0.000000 3.424930 
# 
# 
# High freq. dielectric constant tensor:
#      x y z
#    x 1.705110 0.000000 -0.003570 
#    y 0.000000 1.720770 0.000000 
#    z -0.003570 0.000000 1.717490 
# 
# From -- ./inp_files/212004.got.cif
#   From: 2010.06.25/outbox.cif.g09.slc.cpg/sg12_107_cif.got.tgz:212004.got - 2010.06.28 00:19:55.
