data_PCOD8093099
_publ_section_title
;
Structure prediction by ZEFSAII (Michael W. Deem and Ramdas Pophale) SiO2 
 PCOD8093099
Probable space group: C 2/M
;
_chemical_formula_sum "Si O2"
_cell_formula_units_Z 56
_cell_length_a 34.789153
_cell_length_b 8.999503
_cell_length_c 20.987907
_cell_angle_alpha 90.000000
_cell_angle_beta 26.946056
_cell_angle_gamma 90.000000
_cell_volume 2977.658262
_symmetry_space_group_name_H-M "C 2/M"
_symmetry_group_IT_number 12
_symmetry_cell_setting 'monoclinic'
loop_
_space_group_symop_operation_xyz
x,y,z
-x,y,-z
-x,-y,-z
x,-y,z
1/2+x,1/2+y,z
1/2-x,1/2+y,-z
1/2-x,1/2-y,-z
1/2+x,1/2-y,z
loop_
_atom_site_type_symbol
_atom_site_label
_atom_site_fract_x
_atom_site_fract_y
_atom_site_fract_z
Si Si1 0.011704 0.170935 0.268708
Si Si2 0.856862 0.825580 0.587973
Si Si3 0.599565 0.834076 0.349020
Si Si4 0.339383 0.674426 0.863375
Si Si5 0.755338 0.676364 0.631049
Si Si6 0.911071 0.325942 0.314369
Si Si7 0.586384 0.825475 0.835021
O O1 0.945727 0.206795 0.422319
O O2 0.990043 0.261258 0.237212
O O3 0.104536 0.215848 0.157320
O O4 0.007143 0.000000 0.256201
O O5 0.857096 0.743230 0.654770
O O6 0.781443 0.755599 0.657926
O O7 0.840437 0.000000 0.622192
O O8 0.500000 0.847207 0.500000
O O9 0.615007 0.731171 0.266352
O O10 0.638793 0.000000 0.283382
O O11 0.328179 0.500000 0.874373
O O12 0.250000 0.750000 0.000000
O O13 0.755767 0.500000 0.639756
O O14 0.820834 0.725018 0.477962
O O15 0.661596 0.731596 0.754405
O O16 0.919953 0.500000 0.305447
O O17 0.920239 0.271702 0.228336
O O18 0.607758 0.000000 0.807722
O O19 0.500000 0.787686 0.000000
#
# Coordination Sequence:
#
# PCOD8093099 Si02
#       7
#     8   8   8   8   8   8   8
#     4   9  19  35  57  83 112 145 187 236 283 336
#     4  10  19  35  59  86 114 147 189 236 286 338
#     4  11  22  36  59  88 117 150 191 240 290 340
#     4  11  23  40  58  82 116 156 199 240 289 345
#     4  10  20  35  57  85 113 142 184 234 282 333
#     4   9  19  35  58  84 108 141 186 232 278 333
#     4  10  21  38  57  80 113 149 185 225 276 341
#
# _framework density 18.806725
#
# number of rings (size 3 to 8) (size 9 to 14) (size 15 to 20)
#    0.000    2.000    1.429    2.143    0.000    3.714 
#    2.571    0.000    0.000    0.000    0.000    0.000 
#    0.000    0.000    0.000    0.000    0.000    0.000 
#
# Total GULP energy -347230.381876 kJ/mol
# GULP energy per Si atom -12401.085067 kJ/mol
# Density = 1.876392 g / cm^3
# Si number density = 18.806725 Si / 1000 Ang^3
#
#
#
# Elastic Constant Matrix: (Units=GPa)
#
#
# Indices 1 2 3 4 5 6 
#
# 1 127.3350 64.6435 46.3789 0.0039 -14.2887 0.0015
# 2 64.6435 79.7449 41.3744 0.0017 -16.5667 -0.0013
# 3 46.3789 41.3744 82.6772 -0.0030 -17.1986 -0.0007
# 4 0.0039 0.0017 -0.0030 27.6030 0.0016 -6.4545
# 5 -14.2887 -16.5667 -17.1986 0.0016 26.9452 0.0005
# 6 0.0015 -0.0013 -0.0007 -6.4545 0.0005 35.7998
#
#
#
# Elastic Compliance Matrix: (Units=1/GPa)
#
#
# Indices 1 2 3 4 5 6 
#
# 1 0.013850 -0.009799 -0.002988 -0.000002 -0.000587 -0.000001
# 2 -0.009799 0.024686 -0.005512 -0.000001 0.006463 0.000001
# 3 -0.002988 -0.005512 0.017868 0.000002 0.006431 0.000001
# 4 -0.000002 -0.000001 0.000002 0.037823 -0.000002 0.006819
# 5 -0.000587 0.006463 0.006431 -0.000002 0.044879 -0.000001
# 6 -0.000001 0.000001 0.000001 0.006819 -0.000001 0.029163
#
#
# Mechanical properties :
#
#
# Convention : Reuss Voigt Hill
#
# Bulk Modulus (GPa) = 50.49151 66.06118 58.27634
# Shear Modulus (GPa) = 23.64407 27.22696 25.43552
#
# Velocity S-wave (km/s) = 3.54957 3.80903 3.68158
# Velocity P-wave (km/s) = 6.61098 7.38563 7.00902
#
# Compressibility (1/GPa) = 0.01980531
#
# Stress axis : x y z
#
# Youngs Moduli (GPa) = 72.19984 40.50833 55.96723
#
# Poissons Ratio (x) = 0.39696 0.16722
# Poissons Ratio (y) = 0.70751 0.30851
# Poissons Ratio (z) = 0.21572 0.22329
#
# Static dielectric constant tensor:
#      x y z
#    x 3.676550 0.000000 -0.023480 
#    y 0.000000 3.766180 0.000010 
#    z -0.023480 0.000010 3.305320 
# 
# 
# High freq. dielectric constant tensor:
#      x y z
#    x 1.742080 0.000000 -0.007980 
#    y 0.000000 1.737810 0.000000 
#    z -0.007980 0.000000 1.713430 
# 
# From -- ./inp_files/275110.got.cif
#   From: 2010.06.25/outbox.cif.g09.slc.cpg/sg12_138_cif.got.tgz:275110.got - 2010.06.28 00:19:55.
