data_PCOD8093282
_publ_section_title
;
Structure prediction by ZEFSAII (Michael W. Deem and Ramdas Pophale) SiO2 
 PCOD8093282
Probable space group: C 2/M
;
_chemical_formula_sum "Si O2"
_cell_formula_units_Z 40
_cell_length_a 9.652403
_cell_length_b 27.186085
_cell_length_c 11.940930
_cell_angle_alpha 90.000000
_cell_angle_beta 144.901516
_cell_angle_gamma 90.000000
_cell_volume 1801.672002
_symmetry_space_group_name_H-M "C 2/M"
_symmetry_group_IT_number 12
_symmetry_cell_setting 'monoclinic'
loop_
_space_group_symop_operation_xyz
x,y,z
-x,y,-z
-x,-y,-z
x,-y,z
1/2+x,1/2+y,z
1/2-x,1/2+y,-z
1/2-x,1/2-y,-z
1/2+x,1/2-y,z
loop_
_atom_site_type_symbol
_atom_site_label
_atom_site_fract_x
_atom_site_fract_y
_atom_site_fract_z
Si Si1 0.049156 0.888175 0.790501
Si Si2 0.199062 0.556020 0.870699
Si Si3 0.752638 0.055024 0.271687
Si Si4 0.201052 0.201154 0.036487
Si Si5 0.472567 0.861693 0.605110
O O1 0.244753 0.906272 0.828497
O O2 0.795463 0.883434 0.558245
O O3 0.061889 0.928486 0.901034
O O4 0.113135 0.835660 0.882813
O O5 0.220953 0.500000 0.844042
O O6 0.965913 0.567621 0.791492
O O7 0.162972 0.592787 0.741709
O O8 0.000000 0.058254 0.500000
O O9 0.720483 0.000000 0.200272
O O10 0.451431 0.180945 0.256683
O O11 0.250000 0.250000 0.000000
O O12 0.000000 0.208630 0.000000
O O13 0.500000 0.838881 0.500000
#
# Coordination Sequence:
#
# PCOD8093282 Si02
#       5
#     8   8   8   8   8
#     4  11  22  40  66  90 130 171 211 262 326 383
#     4  10  22  37  61  97 135 177 222 265 311 372
#     4  10  19  35  60  94 134 174 218 266 315 370
#     4  11  26  48  70  97 128 163 213 273 337 403
#     4  11  23  43  66  89 130 173 212 262 323 385
#
# _framework density 22.201599999999999
#
# number of rings (size 3 to 8) (size 9 to 14) (size 15 to 20)
#    0.000    1.400    4.000    1.200    0.000    6.800 
#    0.000    1.000    0.000    0.000    0.000    0.000 
#    0.000    0.000    0.000    0.000    0.000    0.000 
#
# Total GULP energy -247850.012625 kJ/mol
# GULP energy per Si atom -12392.500631 kJ/mol
# Density = 2.215107 g / cm^3
# Si number density = 22.201600 Si / 1000 Ang^3
#
#
#
# Elastic Constant Matrix: (Units=GPa)
#
#
# Indices 1 2 3 4 5 6 
#
# 1 63.1790 28.7568 23.5291 0.0000 1.7115 0.0000
# 2 28.7568 147.7597 47.5766 0.0000 -22.1006 0.0000
# 3 23.5291 47.5766 150.9900 0.0000 -4.8558 0.0000
# 4 0.0000 0.0000 0.0000 21.4152 0.0000 -11.3312
# 5 1.7115 -22.1006 -4.8558 0.0000 34.0526 0.0000
# 6 0.0000 0.0000 0.0000 -11.3312 0.0000 34.5738
#
#
#
# Elastic Compliance Matrix: (Units=1/GPa)
#
#
# Indices 1 2 3 4 5 6 
#
# 1 0.018183 -0.003453 -0.001856 0.000000 -0.003419 0.000000
# 2 -0.003453 0.008969 -0.002105 0.000000 0.005695 0.000000
# 3 -0.001856 -0.002105 0.007569 0.000000 -0.000194 0.000000
# 4 0.000000 0.000000 0.000000 0.056492 0.000000 0.018515
# 5 -0.003419 0.005695 -0.000194 0.000000 0.033206 0.000000
# 6 0.000000 0.000000 0.000000 0.018515 0.000000 0.034992
#
#
# Mechanical properties :
#
#
# Convention : Reuss Voigt Hill
#
# Bulk Modulus (GPa) = 50.26381 62.40598 56.33489
# Shear Modulus (GPa) = 27.64407 35.47940 31.56174
#
# Velocity S-wave (km/s) = 3.53248 4.00191 3.77450
# Velocity P-wave (km/s) = 6.27111 7.03729 6.66522
#
# Compressibility (1/GPa) = 0.01989503
#
# Stress axis : x y z
#
# Youngs Moduli (GPa) = 54.99554 111.49218 132.11500
#
# Poissons Ratio (x) = 0.38496 0.24515
# Poissons Ratio (y) = 0.18989 0.27810
# Poissons Ratio (z) = 0.10205 0.23469
#
# Static dielectric constant tensor:
#      x y z
#    x 3.958250 0.000000 0.023450 
#    y 0.000000 3.862060 0.000000 
#    z 0.023450 0.000000 4.408250 
# 
# 
# High freq. dielectric constant tensor:
#      x y z
#    x 1.871030 0.000000 -0.004520 
#    y 0.000000 1.854070 0.000000 
#    z -0.004520 0.000000 1.900580 
# 
# From -- ./inp_files/125490.got.cif
#   From: 2010.06.25/outbox.cif.g09.slc.cpg/sg12_63_cif.got.tgz:125490.got - 2010.06.28 00:19:55.
