data_PCOD8093958
_publ_section_title
;
Structure prediction by ZEFSAII (Michael W. Deem and Ramdas Pophale) SiO2 
 PCOD8093958
Probable space group: C 2/M
;
_chemical_formula_sum "Si O2"
_cell_formula_units_Z 44
_cell_length_a 12.488604
_cell_length_b 24.062305
_cell_length_c 9.049597
_cell_angle_alpha 90.000000
_cell_angle_beta 52.425908
_cell_angle_gamma 90.000000
_cell_volume 2155.338578
_symmetry_space_group_name_H-M "C 2/M"
_symmetry_group_IT_number 12
_symmetry_cell_setting 'monoclinic'
loop_
_space_group_symop_operation_xyz
x,y,z
-x,y,-z
-x,-y,-z
x,-y,z
1/2+x,1/2+y,z
1/2-x,1/2+y,-z
1/2-x,1/2-y,-z
1/2+x,1/2-y,z
loop_
_atom_site_type_symbol
_atom_site_label
_atom_site_fract_x
_atom_site_fract_y
_atom_site_fract_z
Si Si1 0.138864 0.908538 0.314804
Si Si2 0.249211 0.084755 0.921071
Si Si3 0.244778 0.500000 0.597954
Si Si4 0.542032 0.000000 0.136638
Si Si5 0.356512 0.701074 0.045270
Si Si6 0.632889 0.719210 0.298999
Si Si7 0.858454 0.000000 0.197332
O O1 0.166723 0.843582 0.320421
O O2 0.000000 0.928823 0.500000
O O3 0.250274 0.945328 0.303437
O O4 0.133671 0.922556 0.144466
O O5 0.382256 0.057386 0.882259
O O6 0.249841 0.149947 0.882132
O O7 0.217558 0.054752 0.794832
O O8 0.095892 0.500000 0.651375
O O9 0.358342 0.500000 0.374411
O O10 0.500000 0.000000 0.000000
O O11 0.269592 0.745192 0.215463
O O12 0.500000 0.685272 0.000000
O O13 0.397072 0.724526 0.850449
O O14 0.500000 0.740633 0.500000
O O15 0.000000 0.000000 0.000000
#
# Coordination Sequence:
#
# PCOD8093958 Si02
#       7
#     8   8   4   4   8   8   4
#     4  10  19  36  61  85 118 154 207 252 292 355
#     4  10  21  38  59  82 124 158 192 250 302 359
#     4  12  22  36  60  93 115 160 206 241 306 366
#     4  11  21  41  60  88 122 160 201 252 303 359
#     4  10  21  41  64  90 121 163 208 250 303 367
#     4   9  21  41  60  91 125 160 203 259 302 356
#     4  11  22  36  56  87 121 151 191 243 309 359
#
# _framework density 20.414425000000001
#
# number of rings (size 3 to 8) (size 9 to 14) (size 15 to 20)
#    0.000    1.818    1.818    2.455    0.000    5.091 
#   13.091    0.000    0.000    0.000    0.000    0.000 
#    0.000    0.000    0.000    0.000    0.000    0.000 
#
# Total GULP energy -272574.842259 kJ/mol
# GULP energy per Si atom -12389.765557 kJ/mol
# Density = 2.036796 g / cm^3
# Si number density = 20.414425 Si / 1000 Ang^3
#
#
#
# Elastic Constant Matrix: (Units=GPa)
#
#
# Indices 1 2 3 4 5 6 
#
# 1 91.2534 48.9634 16.2706 0.0000 -10.9671 0.0000
# 2 48.9634 106.8568 41.6562 0.0000 -10.7153 0.0000
# 3 16.2706 41.6562 97.2752 0.0000 -6.2390 0.0000
# 4 0.0000 0.0000 0.0000 30.4263 0.0000 -4.8005
# 5 -10.9671 -10.7153 -6.2390 0.0000 34.3709 0.0000
# 6 0.0000 0.0000 0.0000 -4.8005 0.0000 20.7523
#
#
#
# Elastic Compliance Matrix: (Units=1/GPa)
#
#
# Indices 1 2 3 4 5 6 
#
# 1 0.014795 -0.006733 0.000584 0.000000 0.002728 0.000000
# 2 -0.006733 0.014544 -0.005007 0.000000 0.001477 0.000000
# 3 0.000584 -0.005007 0.012383 0.000000 0.000873 0.000000
# 4 0.000000 0.000000 0.000000 0.034111 0.000000 0.007891
# 5 0.002728 0.001477 0.000873 0.000000 0.030584 0.000000
# 6 0.000000 0.000000 0.000000 0.007891 0.000000 0.050013
#
#
# Mechanical properties :
#
#
# Convention : Reuss Voigt Hill
#
# Bulk Modulus (GPa) = 51.52537 56.57399 54.04968
# Shear Modulus (GPa) = 26.99611 29.67624 28.33618
#
# Velocity S-wave (km/s) = 3.64043 3.81686 3.72969
# Velocity P-wave (km/s) = 6.55475 6.87005 6.71425
#
# Compressibility (1/GPa) = 0.01940792
#
# Stress axis : x y z
#
# Youngs Moduli (GPa) = 67.58978 68.75849 80.75817
#
# Poissons Ratio (x) = 0.46298 -0.04714
# Poissons Ratio (y) = 0.45511 0.40436
# Poissons Ratio (z) = -0.03945 0.34428
#
# Static dielectric constant tensor:
#      x y z
#    x 3.652250 0.000000 -0.033760 
#    y 0.000000 3.713370 0.000000 
#    z -0.033760 0.000000 3.890210 
# 
# 
# High freq. dielectric constant tensor:
#      x y z
#    x 1.776650 0.000000 -0.000650 
#    y 0.000000 1.798680 0.000000 
#    z -0.000650 0.000000 1.804460 
# 
# From -- ./inp_files/51229.got.cif
#   From: 2010.06.25/outbox.cif.g09.slc.cpg/sg12_26_cif.got.tgz:51229.got - 2010.06.28 00:19:55.
