data_PCOD8093450
_publ_section_title
;
Structure prediction by ZEFSAII (Michael W. Deem and Ramdas Pophale) SiO2 
 PCOD8093450
Probable space group: C 2/M
;
_chemical_formula_sum "Si O2"
_cell_formula_units_Z 32
_cell_length_a 28.992466
_cell_length_b 12.532251
_cell_length_c 5.233932
_cell_angle_alpha 90.000000
_cell_angle_beta 113.014907
_cell_angle_gamma 90.000000
_cell_volume 1750.331947
_symmetry_space_group_name_H-M "C 2/M"
_symmetry_group_IT_number 12
_symmetry_cell_setting 'monoclinic'
loop_
_space_group_symop_operation_xyz
x,y,z
-x,y,-z
-x,-y,-z
x,-y,z
1/2+x,1/2+y,z
1/2-x,1/2+y,-z
1/2-x,1/2-y,-z
1/2+x,1/2-y,z
loop_
_atom_site_type_symbol
_atom_site_label
_atom_site_fract_x
_atom_site_fract_y
_atom_site_fract_z
Si Si1 0.359406 0.701430 0.956690
Si Si2 0.031338 0.875977 0.818402
Si Si3 0.305322 0.322474 0.330793
Si Si4 0.300622 0.119627 0.035199
O O1 0.335863 0.650373 0.651247
O O2 0.342992 0.826216 0.945253
O O3 0.419014 0.695185 0.074408
O O4 0.337989 0.637274 0.157171
O O5 0.000000 0.846699 0.500000
O O6 0.046529 0.000000 0.854670
O O7 0.000000 0.844771 0.000000
O O8 0.252466 0.383211 0.228028
O O9 0.294886 0.194090 0.276841
O O10 0.317140 0.000000 0.144816
#
# Coordination Sequence:
#
# PCOD8093450 Si02
#       4
#     8   8   8   8
#     4  10  19  36  52  77 104 136 170 208 259 300
#     4  10  21  36  56  79 102 132 169 213 262 306
#     4   9  20  34  50  79 106 139 169 205 249 298
#     4   9  20  34  52  76 108 139 172 205 249 302
#
# _framework density 18.282246000000001
#
# number of rings (size 3 to 8) (size 9 to 14) (size 15 to 20)
#    1.500    1.000    0.000    2.250    0.000    3.000 
#    0.000    0.000    0.000    1.500    0.000    0.000 
#    0.000    0.000    0.000    0.000    0.000    0.000 
#
# Total GULP energy -198267.321620 kJ/mol
# GULP energy per Si atom -12391.707601 kJ/mol
# Density = 1.824064 g / cm^3
# Si number density = 18.282246 Si / 1000 Ang^3
#
#
#
# Elastic Constant Matrix: (Units=GPa)
#
#
# Indices 1 2 3 4 5 6 
#
# 1 143.0038 40.5949 57.8733 0.0000 11.6996 0.0000
# 2 40.5949 60.0116 17.9736 0.0000 3.9154 0.0000
# 3 57.8733 17.9736 126.4875 0.0000 -5.9059 0.0000
# 4 0.0000 0.0000 0.0000 1.9650 0.0000 3.8243
# 5 11.6996 3.9154 -5.9059 0.0000 35.5364 0.0000
# 6 0.0000 0.0000 0.0000 3.8243 0.0000 7.4214
#
#
#
# Elastic Compliance Matrix: (Units=1/GPa)
#
#
# Indices 1 2 3 4 5 6 
#
# 1 0.010599 -0.005677 -0.004209 0.000000 -0.003564 0.000000
# 2 -0.005677 0.020641 -0.000357 0.000000 -0.000465 0.000000
# 3 -0.004209 -0.000357 0.010027 0.000000 0.003092 0.000000
# 4 0.000000 0.000000 0.000000********** 0.000000 91.392373
# 5 -0.003564 -0.000465 0.003092 0.000000 0.029878 0.000000
# 6 0.000000 0.000000 0.000000 91.392373 0.000000-46.959926
#
#
# Mechanical properties :
#
#
# Convention : Reuss Voigt Hill
#
# Bulk Modulus (GPa) = 48.12263 62.48738 55.30500
# Shear Modulus (GPa) = -0.02230 23.18864 11.58317
#
# Velocity S-wave (km/s) = -0.11056 3.56528 2.51982
# Velocity P-wave (km/s) = 5.13448 7.15554 6.22755
#
# Compressibility (1/GPa) = 0.02078025
#
# Stress axis : x y z
#
# Youngs Moduli (GPa) = 94.34500 48.44764 99.73038
#
# Poissons Ratio (x) = 0.27502 0.41981
# Poissons Ratio (y) = 0.53557 0.03564
# Poissons Ratio (z) = 0.39714 0.01731
#
# Static dielectric constant tensor:
#      x y z
#    x 3.164890 0.000000 0.086270 
#    y 0.000000 2.970990 0.000000 
#    z 0.086270 0.000000 2.949480 
# 
# 
# High freq. dielectric constant tensor:
#      x y z
#    x 1.703720 0.000000 -0.005020 
#    y 0.000000 1.669040 0.000000 
#    z -0.005020 0.000000 1.710170 
# 
# From -- ./inp_files/23487.got.cif
#   From: 2010.06.25/outbox.cif.g09.slc.cpg/sg12_12_cif.got.tgz:23487.got - 2010.06.28 00:19:55.
