data_PCOD8093928
_publ_section_title
;
Structure prediction by ZEFSAII (Michael W. Deem and Ramdas Pophale) SiO2 
 PCOD8093928
Probable space group: C 2/M
;
_chemical_formula_sum "Si O2"
_cell_formula_units_Z 48
_cell_length_a 16.774579
_cell_length_b 15.156883
_cell_length_c 17.417329
_cell_angle_alpha 90.000000
_cell_angle_beta 150.342639
_cell_angle_gamma 90.000000
_cell_volume 2191.206953
_symmetry_space_group_name_H-M "C 2/M"
_symmetry_group_IT_number 12
_symmetry_cell_setting 'monoclinic'
loop_
_space_group_symop_operation_xyz
x,y,z
-x,y,-z
-x,-y,-z
x,-y,z
1/2+x,1/2+y,z
1/2-x,1/2+y,-z
1/2-x,1/2-y,-z
1/2+x,1/2-y,z
loop_
_atom_site_type_symbol
_atom_site_label
_atom_site_fract_x
_atom_site_fract_y
_atom_site_fract_z
Si Si1 0.109569 0.196696 0.979695
Si Si2 0.609699 0.851485 0.408749
Si Si3 0.178927 0.403036 0.735337
Si Si4 0.251425 0.231346 0.330789
Si Si5 0.855894 0.097657 0.491836
Si Si6 0.096836 0.188510 0.798362
O O1 0.119103 0.151906 0.903120
O O2 0.932317 0.231800 0.851958
O O3 0.162341 0.120312 0.082585
O O4 0.230645 0.279845 0.090040
O O5 0.477923 0.910291 0.341938
O O6 0.738762 0.812095 0.576873
O O7 0.706556 0.905775 0.426307
O O8 0.520368 0.772255 0.290997
O O9 0.204888 0.500000 0.719467
O O10 0.147038 0.328026 0.644359
O O11 0.324597 0.330704 0.397795
O O12 0.021211 0.118249 0.676210
O O13 0.871670 0.000000 0.468334
#
# Coordination Sequence:
#
# PCOD8093928 Si02
#       6
#     8   8   8   8   8   8
#     4  10  19  36  61  81 123 164 201 239 305 371
#     4  10  19  39  62  87 120 159 203 248 305 353
#     4  11  25  38  57  93 131 164 196 242 307 376
#     4  11  21  39  59  87 125 164 201 247 305 362
#     4  11  21  37  64  93 119 155 211 261 296 347
#     4   9  18  36  60  87 115 161 201 250 305 356
#
# _framework density 21.905736000000001
#
# number of rings (size 3 to 8) (size 9 to 14) (size 15 to 20)
#    0.000    1.667    3.333    2.500    0.000    4.000 
#    0.000    0.833    0.000   20.000    0.000    0.000 
#    0.000    0.000    0.000    0.000    0.000    0.000 
#
# Total GULP energy -297550.410094 kJ/mol
# GULP energy per Si atom -12397.933754 kJ/mol
# Density = 2.185588 g / cm^3
# Si number density = 21.905736 Si / 1000 Ang^3
#
#
#
# Elastic Constant Matrix: (Units=GPa)
#
#
# Indices 1 2 3 4 5 6 
#
# 1 63.2540 33.8675 18.9785 0.0040 0.4553 0.0027
# 2 33.8675 165.3027 45.6604 0.0046 -14.0800 0.0035
# 3 18.9785 45.6604 122.4833 0.0022 10.6158 0.0015
# 4 0.0040 0.0046 0.0022 19.0259 0.0041 -5.5334
# 5 0.4553 -14.0800 10.6158 0.0041 26.5671 0.0034
# 6 0.0027 0.0035 0.0015 -5.5334 0.0034 20.5393
#
#
#
# Elastic Compliance Matrix: (Units=1/GPa)
#
#
# Indices 1 2 3 4 5 6 
#
# 1 0.018087 -0.003462 -0.001373 -0.000003 -0.001596 -0.000002
# 2 -0.003462 0.008038 -0.002936 -0.000003 0.005492 -0.000002
# 3 -0.001373 -0.002936 0.009949 0.000001 -0.005508 0.000001
# 4 -0.000003 -0.000003 0.000001 0.057028 -0.000013 0.015364
# 5 -0.001596 0.005492 -0.005508 -0.000013 0.042780 -0.000011
# 6 -0.000002 -0.000002 0.000001 0.015364 -0.000011 0.052826
#
#
# Mechanical properties :
#
#
# Convention : Reuss Voigt Hill
#
# Bulk Modulus (GPa) = 48.70888 60.89476 54.80182
# Shear Modulus (GPa) = 23.68613 30.06202 26.87407
#
# Velocity S-wave (km/s) = 3.29184 3.70852 3.50638
# Velocity P-wave (km/s) = 6.06071 6.79679 6.43928
#
# Compressibility (1/GPa) = 0.02053014
#
# Stress axis : x y z
#
# Youngs Moduli (GPa) = 55.28959 124.41483 100.51204
#
# Poissons Ratio (x) = 0.43075 0.13805
# Poissons Ratio (y) = 0.19142 0.29509
# Poissons Ratio (z) = 0.07594 0.36527
#
# Static dielectric constant tensor:
#      x y z
#    x 3.795020 -0.000010 0.022270 
#    y -0.000010 3.583340 -0.000010 
#    z 0.022270 -0.000010 4.247900 
# 
# 
# High freq. dielectric constant tensor:
#      x y z
#    x 1.852290 0.000000 0.006750 
#    y 0.000000 1.821870 0.000000 
#    z 0.006750 0.000000 1.877920 
# 
# From -- ./inp_files/85664.got.cif
#   From: 2010.06.25/outbox.cif.g09.slc.cpg/sg12_43_cif.got.tgz:85664.got - 2010.06.28 00:19:55.
