data_PCOD8093324
_publ_section_title
;
Structure prediction by ZEFSAII (Michael W. Deem and Ramdas Pophale) SiO2 
 PCOD8093324
Probable space group: C 2/M
;
_chemical_formula_sum "Si O2"
_cell_formula_units_Z 56
_cell_length_a 16.993761
_cell_length_b 26.951875
_cell_length_c 12.476012
_cell_angle_alpha 90.000000
_cell_angle_beta 147.225152
_cell_angle_gamma 90.000000
_cell_volume 3093.311953
_symmetry_space_group_name_H-M "C 2/M"
_symmetry_group_IT_number 12
_symmetry_cell_setting 'monoclinic'
loop_
_space_group_symop_operation_xyz
x,y,z
-x,y,-z
-x,-y,-z
x,-y,z
1/2+x,1/2+y,z
1/2-x,1/2+y,-z
1/2-x,1/2-y,-z
1/2+x,1/2-y,z
loop_
_atom_site_type_symbol
_atom_site_label
_atom_site_fract_x
_atom_site_fract_y
_atom_site_fract_z
Si Si1 0.603153 0.556429 0.220284
Si Si2 0.636543 0.876021 0.492067
Si Si3 0.940704 0.862683 0.154227
Si Si4 0.152333 0.348772 0.920477
Si Si5 0.845929 0.713718 0.863152
Si Si6 0.289539 0.695366 0.504509
Si Si7 0.711201 0.813868 0.769930
O O1 0.613930 0.500000 0.272172
O O2 0.768028 0.574235 0.381517
O O3 0.533075 0.587848 0.237610
O O4 0.500000 0.561188 0.000000
O O5 0.480681 0.887411 0.255962
O O6 0.730371 0.841193 0.524825
O O7 0.612890 0.846243 0.576470
O O8 0.038739 0.816602 0.308728
O O9 0.812221 0.874528 0.095001
O O10 0.865188 0.843086 0.957977
O O11 0.139046 0.309402 0.806150
O O12 0.130852 0.321631 0.008352
O O13 0.778721 0.682316 0.688895
O O14 0.734572 0.758240 0.756353
O O15 0.000000 0.735308 0.000000
O O16 0.250000 0.750000 0.500000
#
# Coordination Sequence:
#
# PCOD8093324 Si02
#       7
#     8   8   8   8   8   8   8
#     4  10  19  35  61  89 111 141 184 230 287 353
#     4  11  20  36  55  80 113 152 182 226 283 334
#     4   9  22  36  52  80 112 150 180 232 279 330
#     4  10  23  37  50  79 114 153 192 224 280 326
#     4  12  22  34  52  78 113 156 196 235 254 321
#     4  11  21  33  54  78 109 154 195 228 274 322
#     4  10  21  32  54  74 118 150 189 221 276 323
#
# _framework density 18.103573000000001
#
# number of rings (size 3 to 8) (size 9 to 14) (size 15 to 20)
#    0.857    0.714    4.286    1.714    2.000    0.571 
#    2.571    0.714    0.000    2.571    0.000   16.000 
#    0.000    0.000    0.000    0.000    0.000    0.000 
#
# Total GULP energy -346865.697641 kJ/mol
# GULP energy per Si atom -12388.060630 kJ/mol
# Density = 1.806237 g / cm^3
# Si number density = 18.103573 Si / 1000 Ang^3
#
#
#
# Elastic Constant Matrix: (Units=GPa)
#
#
# Indices 1 2 3 4 5 6 
#
# 1 81.5400 24.9113 35.7135 0.0000 2.0944 0.0000
# 2 24.9113 82.2945 35.7704 0.0000 5.2191 0.0000
# 3 35.7135 35.7704 103.0000 0.0000 8.4022 0.0000
# 4 0.0000 0.0000 0.0000 15.0375 0.0000 0.6158
# 5 2.0944 5.2191 8.4022 0.0000 42.0201 0.0000
# 6 0.0000 0.0000 0.0000 0.6158 0.0000 12.5270
#
#
#
# Elastic Compliance Matrix: (Units=1/GPa)
#
#
# Indices 1 2 3 4 5 6 
#
# 1 0.014952 -0.002691 -0.004286 0.000000 0.000446 0.000000
# 2 -0.002691 0.014823 -0.004143 0.000000 -0.000878 0.000000
# 3 -0.004286 -0.004143 0.012783 0.000000 -0.001828 0.000000
# 4 0.000000 0.000000 0.000000 0.066634 0.000000 -0.003275
# 5 0.000446 -0.000878 -0.001828 0.000000 0.024250 0.000000
# 6 0.000000 0.000000 0.000000 -0.003275 0.000000 0.079989
#
#
# Mechanical properties :
#
#
# Convention : Reuss Voigt Hill
#
# Bulk Modulus (GPa) = 49.22045 51.06943 50.14494
# Shear Modulus (GPa) = 20.62333 25.27954 22.95144
#
# Velocity S-wave (km/s) = 3.37884 3.74088 3.56446
# Velocity P-wave (km/s) = 6.51685 6.85053 6.68577
#
# Compressibility (1/GPa) = 0.02031676
#
# Stress axis : x y z
#
# Youngs Moduli (GPa) = 66.88095 67.46434 78.23076
#
# Poissons Ratio (x) = 0.18157 0.33530
# Poissons Ratio (y) = 0.18000 0.32410
# Poissons Ratio (z) = 0.28665 0.27949
#
# Static dielectric constant tensor:
#      x y z
#    x 3.413250 0.000000 0.185450 
#    y 0.000000 3.071350 0.000000 
#    z 0.185450 0.000000 3.624430 
# 
# 
# High freq. dielectric constant tensor:
#      x y z
#    x 1.705060 0.000000 0.013190 
#    y 0.000000 1.645840 0.000000 
#    z 0.013190 0.000000 1.712600 
# 
# From -- ./inp_files/160346.got.cif
#   From: 2010.06.25/outbox.cif.g09.slc.cpg/sg12_81_cif.got.tgz:160346.got - 2010.06.28 00:19:55.
