data_PCOD8093819
_publ_section_title
;
Structure prediction by ZEFSAII (Michael W. Deem and Ramdas Pophale) SiO2 
 PCOD8093819
Probable space group: C 2/M
;
_chemical_formula_sum "Si O2"
_cell_formula_units_Z 56
_cell_length_a 24.046923
_cell_length_b 9.088703
_cell_length_c 17.293636
_cell_angle_alpha 90.000000
_cell_angle_beta 126.280160
_cell_angle_gamma 90.000000
_cell_volume 3046.874479
_symmetry_space_group_name_H-M "C 2/M"
_symmetry_group_IT_number 12
_symmetry_cell_setting 'monoclinic'
loop_
_space_group_symop_operation_xyz
x,y,z
-x,y,-z
-x,-y,-z
x,-y,z
1/2+x,1/2+y,z
1/2-x,1/2+y,-z
1/2-x,1/2-y,-z
1/2+x,1/2-y,z
loop_
_atom_site_type_symbol
_atom_site_label
_atom_site_fract_x
_atom_site_fract_y
_atom_site_fract_z
Si Si1 0.888329 0.832674 0.192200
Si Si2 0.339004 0.671692 0.834164
Si Si3 0.681284 0.172082 0.732416
Si Si4 0.454131 0.666657 0.659071
Si Si5 0.073083 0.827786 0.945004
Si Si6 0.074692 0.171048 0.536042
Si Si7 0.066216 0.325889 0.203530
O O1 0.836313 0.730449 0.196592
O O2 0.887350 0.785409 0.101476
O O3 0.964685 0.811210 0.289799
O O4 0.863519 0.000000 0.181469
O O5 0.349616 0.500000 0.824985
O O6 0.259650 0.713206 0.778840
O O7 0.367071 0.767068 0.786380
O O8 0.378581 0.717386 0.944727
O O9 0.634566 0.243086 0.628231
O O10 0.668407 0.000000 0.721293
O O11 0.441268 0.500000 0.677667
O O12 0.414507 0.697369 0.546589
O O13 0.426815 0.777560 0.701511
O O14 0.001703 0.740194 0.892767
O O15 0.054232 0.000000 0.929103
O O16 0.000000 0.231832 0.500000
O O17 0.080542 0.000000 0.563154
O O18 0.063126 0.500000 0.196563
#
# Coordination Sequence:
#
# PCOD8093819 Si02
#       7
#     8   8   8   8   8   8   8
#     4   9  17  33  55  80 108 142 183 222 266 324
#     4  10  22  40  56  74 108 153 191 219 263 328
#     4  11  23  35  52  82 116 145 178 226 276 319
#     4   9  18  35  59  82 107 143 182 219 265 325
#     4   9  19  37  60  79 103 147 191 222 262 324
#     4  10  19  36  60  83 107 142 185 220 261 327
#     4  11  22  35  56  86 113 136 177 234 279 314
#
# _framework density 18.379491999999999
#
# number of rings (size 3 to 8) (size 9 to 14) (size 15 to 20)
#    0.000    2.143    1.429    3.000    0.000    7.143 
#    0.000    0.714    0.000    0.000    0.000    0.000 
#    0.000    0.000    0.000    0.000    0.000    0.000 
#
# Total GULP energy -347286.796986 kJ/mol
# GULP energy per Si atom -12403.099892 kJ/mol
# Density = 1.833766 g / cm^3
# Si number density = 18.379492 Si / 1000 Ang^3
#
#
#
# Elastic Constant Matrix: (Units=GPa)
#
#
# Indices 1 2 3 4 5 6 
#
# 1 126.0408 69.9767 60.2675 0.0000 1.5023 0.0000
# 2 69.9767 86.2894 34.6669 0.0000 1.7890 0.0000
# 3 60.2675 34.6669 68.4913 0.0000 -3.7274 0.0000
# 4 0.0000 0.0000 0.0000 22.5058 0.0000 -0.8268
# 5 1.5023 1.7890 -3.7274 0.0000 17.2455 0.0000
# 6 0.0000 0.0000 0.0000 -0.8268 0.0000 31.9316
#
#
#
# Elastic Compliance Matrix: (Units=1/GPa)
#
#
# Indices 1 2 3 4 5 6 
#
# 1 0.020032 -0.011332 -0.012063 0.000000 -0.003177 0.000000
# 2 -0.011332 0.021128 -0.000797 0.000000 -0.001377 0.000000
# 3 -0.012063 -0.000797 0.025986 0.000000 0.006750 0.000000
# 4 0.000000 0.000000 0.000000 0.044475 0.000000 0.001152
# 5 -0.003177 -0.001377 0.006750 0.000000 0.059865 0.000000
# 6 0.000000 0.000000 0.000000 0.001152 0.000000 0.031347
#
#
# Mechanical properties :
#
#
# Convention : Reuss Voigt Hill
#
# Bulk Modulus (GPa) = 53.30547 67.84932 60.57739
# Shear Modulus (GPa) = 19.41963 22.06393 20.74178
#
# Velocity S-wave (km/s) = 3.25405 3.46853 3.36300
# Velocity P-wave (km/s) = 6.57146 7.28264 6.93617
#
# Compressibility (1/GPa) = 0.01875980
#
# Stress axis : x y z
#
# Youngs Moduli (GPa) = 49.92081 47.33119 38.48197
#
# Poissons Ratio (x) = 0.53638 0.46423
# Poissons Ratio (y) = 0.56572 0.03067
# Poissons Ratio (z) = 0.60222 0.03772
#
# Static dielectric constant tensor:
#      x y z
#    x 3.344910 0.000000 -0.149720 
#    y 0.000000 3.259730 0.000000 
#    z -0.149720 0.000000 3.376370 
# 
# 
# High freq. dielectric constant tensor:
#      x y z
#    x 1.709480 0.000000 -0.016960 
#    y 0.000000 1.704230 0.000000 
#    z -0.016960 0.000000 1.711240 
# 
# From -- ./inp_files/288191.got.cif
#   From: 2010.06.25/outbox.cif.g09.slc.cpg/sg12_145_cif.got.tgz:288191.got - 2010.06.28 00:19:55.
