data_PCOD8093682
_publ_section_title
;
Structure prediction by ZEFSAII (Michael W. Deem and Ramdas Pophale) SiO2 
 PCOD8093682
Probable space group: C 2/M
;
_chemical_formula_sum "Si O2"
_cell_formula_units_Z 44
_cell_length_a 29.896344
_cell_length_b 15.569366
_cell_length_c 5.125060
_cell_angle_alpha 90.000000
_cell_angle_beta 99.163170
_cell_angle_gamma 90.000000
_cell_volume 2355.104566
_symmetry_space_group_name_H-M "C 2/M"
_symmetry_group_IT_number 12
_symmetry_cell_setting 'monoclinic'
loop_
_space_group_symop_operation_xyz
x,y,z
-x,y,-z
-x,-y,-z
x,-y,z
1/2+x,1/2+y,z
1/2-x,1/2+y,-z
1/2-x,1/2-y,-z
1/2+x,1/2-y,z
loop_
_atom_site_type_symbol
_atom_site_label
_atom_site_fract_x
_atom_site_fract_y
_atom_site_fract_z
Si Si1 0.906367 0.845260 0.206404
Si Si2 0.704823 0.298518 0.390364
Si Si3 0.529109 0.500000 0.777230
Si Si4 0.605288 0.238973 0.298525
Si Si5 0.691453 0.403251 0.882761
Si Si6 0.530143 0.899560 0.278625
O O1 0.910036 0.807474 0.499707
O O2 0.861725 0.900763 0.114098
O O3 0.945349 0.911204 0.194581
O O4 0.910054 0.768649 0.001562
O O5 0.750000 0.250000 0.500000
O O6 0.660761 0.234342 0.356871
O O7 0.700168 0.373990 0.596170
O O8 0.713930 0.340053 0.115460
O O9 0.500000 0.500000 0.500000
O O10 0.500000 0.500000 0.000000
O O11 0.578816 0.149522 0.325697
O O12 0.709829 0.500000 0.934557
O O13 0.500000 0.873312 0.500000
O O14 0.542577 0.000000 0.294447
O O15 0.500000 0.875369 0.000000
#
# Coordination Sequence:
#
# PCOD8093682 Si02
#       6
#     8   8   4   8   8   8
#     4  10  21  36  52  77 107 144 186 219 261 331
#     4  10  21  36  57  85 115 142 182 238 284 338
#     4  12  24  34  48  76 116 146 176 230 272 298
#     4  10  21  36  59  79 106 150 180 225 286 328
#     4  10  19  36  59  77 105 148 190 221 265 338
#     4  10  21  37  57  80 107 141 187 236 280 335
#
# _framework density 18.682822000000002
#
# number of rings (size 3 to 8) (size 9 to 14) (size 15 to 20)
#    0.000    1.818    0.909    3.273    0.000    4.364 
#    0.000    1.818    0.000    2.182    0.000    0.000 
#    0.000    0.000    0.000    0.000    0.000    0.000 
#
# Total GULP energy -272711.913596 kJ/mol
# GULP energy per Si atom -12395.996073 kJ/mol
# Density = 1.864030 g / cm^3
# Si number density = 18.682822 Si / 1000 Ang^3
#
#
#
# Elastic Constant Matrix: (Units=GPa)
#
#
# Indices 1 2 3 4 5 6 
#
# 1 94.6677 50.0827 22.1628 0.0000 14.5622 0.0000
# 2 50.0827 80.9461 10.0230 0.0000 11.7216 0.0000
# 3 22.1628 10.0230 96.7699 0.0000 0.2040 0.0000
# 4 0.0000 0.0000 0.0000 5.3093 0.0000 -7.2637
# 5 14.5622 11.7216 0.2040 0.0000 26.8260 0.0000
# 6 0.0000 0.0000 0.0000 -7.2637 0.0000 12.8932
#
#
#
# Elastic Compliance Matrix: (Units=1/GPa)
#
#
# Indices 1 2 3 4 5 6 
#
# 1 0.017018 -0.009431 -0.002910 0.000000 -0.005095 0.000000
# 2 -0.009431 0.018595 0.000240 0.000000 -0.003007 0.000000
# 3 -0.002910 0.000240 0.010972 0.000000 0.001391 0.000000
# 4 0.000000 0.000000 0.000000 0.821551 0.000000 0.462839
# 5 -0.005095 -0.003007 0.001391 0.000000 0.041346 0.000000
# 6 0.000000 0.000000 0.000000 0.462839 0.000000 0.338311
#
#
# Mechanical properties :
#
#
# Convention : Reuss Voigt Hill
#
# Bulk Modulus (GPa) = 44.67564 48.54676 46.61120
# Shear Modulus (GPa) = 3.90791 21.68004 12.79398
#
# Velocity S-wave (km/s) = 1.44785 3.41020 2.61971
# Velocity P-wave (km/s) = 5.17297 6.44570 5.84408
#
# Compressibility (1/GPa) = 0.02238356
#
# Stress axis : x y z
#
# Youngs Moduli (GPa) = 58.76293 53.77879 91.13767
#
# Poissons Ratio (x) = 0.50718 0.26520
# Poissons Ratio (y) = 0.55419 -0.02190
# Poissons Ratio (z) = 0.17099 -0.01292
#
# Static dielectric constant tensor:
#      x y z
#    x 3.664610 0.000000 -0.240120 
#    y 0.000000 3.155880 0.000000 
#    z -0.240120 0.000000 3.927790 
# 
# 
# High freq. dielectric constant tensor:
#      x y z
#    x 1.717470 0.000000 -0.006660 
#    y 0.000000 1.712530 0.000000 
#    z -0.006660 0.000000 1.750290 
# 
# From -- ./inp_files/27896.got.cif
#   From: 2010.06.25/outbox.cif.g09.slc.cpg/sg12_14_cif.got.tgz:27896.got - 2010.06.28 00:19:55.
