data_PCOD8093108
_publ_section_title
;
Structure prediction by ZEFSAII (Michael W. Deem and Ramdas Pophale) SiO2 
 PCOD8093108
Probable space group: C 2/M
;
_chemical_formula_sum "Si O2"
_cell_formula_units_Z 56
_cell_length_a 29.735653
_cell_length_b 9.279541
_cell_length_c 11.532983
_cell_angle_alpha 90.000000
_cell_angle_beta 64.338593
_cell_angle_gamma 90.000000
_cell_volume 2868.456086
_symmetry_space_group_name_H-M "C 2/M"
_symmetry_group_IT_number 12
_symmetry_cell_setting 'monoclinic'
loop_
_space_group_symop_operation_xyz
x,y,z
-x,y,-z
-x,-y,-z
x,-y,z
1/2+x,1/2+y,z
1/2-x,1/2+y,-z
1/2-x,1/2-y,-z
1/2+x,1/2-y,z
loop_
_atom_site_type_symbol
_atom_site_label
_atom_site_fract_x
_atom_site_fract_y
_atom_site_fract_z
Si Si1 0.736042 0.332878 0.186028
Si Si2 0.709275 0.666660 0.472912
Si Si3 0.582505 0.836570 0.168332
Si Si4 0.516340 0.831752 0.854158
Si Si5 0.556394 0.164562 0.455624
Si Si6 0.096427 0.830718 0.626562
Si Si7 0.322206 0.331808 0.979051
O O1 0.751232 0.500000 0.163973
O O2 0.711482 0.288866 0.335252
O O3 0.696368 0.296231 0.129976
O O4 0.785814 0.239616 0.113603
O O5 0.721827 0.500000 0.472598
O O6 0.750000 0.750000 0.500000
O O7 0.654604 0.702712 0.583480
O O8 0.527536 0.792592 0.186609
O O9 0.585870 0.821225 0.302619
O O10 0.622888 0.733015 0.064616
O O11 0.594007 0.000000 0.116474
O O12 0.565389 0.743473 0.763920
O O13 0.529802 0.000000 0.835600
O O14 0.500000 0.782949 0.000000
O O15 0.500000 0.215588 0.500000
O O16 0.582119 0.268879 0.517729
O O17 0.557295 0.000000 0.501510
O O18 0.085578 0.000000 0.637966
O O19 0.324518 0.500000 0.002481
#
# Coordination Sequence:
#
# PCOD8093108 Si02
#       7
#     8   8   8   8   8   8   8
#     4   9  19  38  58  79 113 150 187 231 283 340
#     4  10  23  41  60  84 115 152 194 241 287 341
#     4  10  20  35  56  84 116 149 188 233 280 335
#     4  10  22  41  61  80 110 155 200 234 274 340
#     4  10  19  35  59  86 118 151 190 236 279 339
#     4  11  23  39  60  88 121 150 186 242 300 345
#     4  10  20  34  57  86 115 146 184 232 287 343
#
# _framework density 19.522694999999999
#
# number of rings (size 3 to 8) (size 9 to 14) (size 15 to 20)
#    0.000    2.000    1.429    1.714    0.000    6.286 
#    0.000    4.286    0.000    0.000    0.000    0.000 
#    0.000    0.000    0.000    0.000    0.000    0.000 
#
# Total GULP energy -347316.461301 kJ/mol
# GULP energy per Si atom -12404.159332 kJ/mol
# Density = 1.947826 g / cm^3
# Si number density = 19.522695 Si / 1000 Ang^3
#
#
#
# Elastic Constant Matrix: (Units=GPa)
#
#
# Indices 1 2 3 4 5 6 
#
# 1 100.9025 60.5825 51.3266 0.0000 -16.3007 0.0000
# 2 60.5825 87.9001 56.0092 0.0000 -15.7521 0.0000
# 3 51.3266 56.0092 118.3685 0.0000 -10.8502 0.0000
# 4 0.0000 0.0000 0.0000 32.8838 0.0000 -4.8876
# 5 -16.3007 -15.7521 -10.8502 0.0000 33.4475 0.0000
# 6 0.0000 0.0000 0.0000 -4.8876 0.0000 33.0768
#
#
#
# Elastic Compliance Matrix: (Units=1/GPa)
#
#
# Indices 1 2 3 4 5 6 
#
# 1 0.017773 -0.009973 -0.002705 0.000000 0.003088 0.000000
# 2 -0.009973 0.022860 -0.006133 0.000000 0.003916 0.000000
# 3 -0.002705 -0.006133 0.012510 0.000000 -0.000149 0.000000
# 4 0.000000 0.000000 0.000000 0.031093 0.000000 0.004594
# 5 0.003088 0.003916 -0.000149 0.000000 0.033198 0.000000
# 6 0.000000 0.000000 0.000000 0.004594 0.000000 0.030912
#
#
# Mechanical properties :
#
#
# Convention : Reuss Voigt Hill
#
# Bulk Modulus (GPa) = 64.43069 71.44530 67.93800
# Shear Modulus (GPa) = 26.15877 29.16514 27.66195
#
# Velocity S-wave (km/s) = 3.66446 3.86931 3.76827
# Velocity P-wave (km/s) = 7.13995 7.52579 7.33541
#
# Compressibility (1/GPa) = 0.01552055
#
# Stress axis : x y z
#
# Youngs Moduli (GPa) = 56.26562 43.74481 79.93849
#
# Poissons Ratio (x) = 0.43625 0.21622
# Poissons Ratio (y) = 0.56112 0.49030
# Poissons Ratio (z) = 0.15219 0.26831
#
# Static dielectric constant tensor:
#      x y z
#    x 3.488270 0.000000 -0.088920 
#    y 0.000000 3.475110 0.000000 
#    z -0.088920 0.000000 3.607520 
# 
# 
# High freq. dielectric constant tensor:
#      x y z
#    x 1.756590 0.000000 -0.009470 
#    y 0.000000 1.755470 0.000000 
#    z -0.009470 0.000000 1.765240 
# 
# From -- ./inp_files/186367.got.cif
#   From: 2010.06.25/outbox.cif.g09.slc.cpg/sg12_94_cif.got.tgz:186367.got - 2010.06.28 00:19:55.
