data_PCOD8093480
_publ_section_title
;
Structure prediction by ZEFSAII (Michael W. Deem and Ramdas Pophale) SiO2 
 PCOD8093480
Probable space group: C 2/M
;
_chemical_formula_sum "Si O2"
_cell_formula_units_Z 60
_cell_length_a 30.363216
_cell_length_b 13.474390
_cell_length_c 27.144759
_cell_angle_alpha 90.000000
_cell_angle_beta 162.897077
_cell_angle_gamma 90.000000
_cell_volume 3266.042108
_symmetry_space_group_name_H-M "C 2/M"
_symmetry_group_IT_number 12
_symmetry_cell_setting 'monoclinic'
loop_
_space_group_symop_operation_xyz
x,y,z
-x,y,-z
-x,-y,-z
x,-y,z
1/2+x,1/2+y,z
1/2-x,1/2+y,-z
1/2-x,1/2-y,-z
1/2+x,1/2-y,z
loop_
_atom_site_type_symbol
_atom_site_label
_atom_site_fract_x
_atom_site_fract_y
_atom_site_fract_z
Si Si1 0.261470 0.711977 0.731354
Si Si2 0.000000 0.832299 0.500000
Si Si3 0.133089 0.610106 0.506439
Si Si4 0.068862 0.888874 0.226462
Si Si5 0.117214 0.115746 0.880378
Si Si6 0.231871 0.889994 0.824524
Si Si7 0.368704 0.250421 0.196196
Si Si8 0.961315 0.250321 0.029943
O O1 0.214227 0.618886 0.646719
O O2 0.377357 0.776858 0.821532
O O3 0.110941 0.767552 0.585281
O O4 0.355724 0.683066 0.880882
O O5 0.906382 0.897506 0.361347
O O6 0.062477 0.500000 0.427672
O O7 0.253688 0.625726 0.591624
O O8 0.010696 0.694729 0.370323
O O9 0.028085 0.872354 0.240081
O O10 0.973807 0.812136 0.092987
O O11 0.022292 0.000000 0.160380
O O12 0.077956 0.171664 0.788007
O O13 0.153925 0.000000 0.909404
O O14 0.260066 0.166687 0.058467
O O15 0.207514 0.812707 0.842199
O O16 0.259939 0.000000 0.875922
O O17 0.379729 0.854550 0.953391
#
# Coordination Sequence:
#
# PCOD8093480 Si02
#       8
#     8   4   8   8   8   8   8   8
#     4   9  18  33  55  79 112 143 178 214 267 310
#     4  10  19  36  55  78 108 146 175 224 267 318
#     4  10  20  35  56  82 112 143 176 219 268 319
#     4   9  18  34  57  81 108 143 180 215 264 320
#     4  10  21  37  57  80 104 140 182 220 271 326
#     4  11  21  35  55  79 106 144 182 221 267 317
#     4  11  21  36  56  80 111 139 174 231 270 314
#     4   9  18  34  54  78 112 147 177 221 258 314
#
# _framework density 18.370858999999999
#
# number of rings (size 3 to 8) (size 9 to 14) (size 15 to 20)
#    0.000    2.133    2.667    1.000    0.000    1.067 
#    0.000    9.000    0.000    0.000    0.000    0.000 
#    0.000    0.000    0.000    0.000    0.000    0.000 
#
# Total GULP energy -371811.047410 kJ/mol
# GULP energy per Si atom -12393.701580 kJ/mol
# Density = 1.832905 g / cm^3
# Si number density = 18.370859 Si / 1000 Ang^3
#
#
#
# Elastic Constant Matrix: (Units=GPa)
#
#
# Indices 1 2 3 4 5 6 
#
# 1 97.9596 44.4197 32.3045 -0.0011 10.0896 -0.0001
# 2 44.4197 107.0398 39.7599 -0.0012 4.9960 -0.0001
# 3 32.3045 39.7599 67.1916 -0.0028 9.4031 -0.0008
# 4 -0.0011 -0.0012 -0.0028 18.0233 -0.0021 0.4389
# 5 10.0896 4.9960 9.4031 -0.0021 30.5841 -0.0007
# 6 -0.0001 -0.0001 -0.0008 0.4389 -0.0007 21.9785
#
#
#
# Elastic Compliance Matrix: (Units=1/GPa)
#
#
# Indices 1 2 3 4 5 6 
#
# 1 0.013580 -0.004133 -0.003711 0.000000 -0.002664 0.000000
# 2 -0.004133 0.013234 -0.005990 0.000000 0.001043 0.000000
# 3 -0.003711 -0.005990 0.020798 0.000002 -0.004192 0.000001
# 4 0.000000 0.000000 0.000002 0.055511 0.000003 -0.001109
# 5 -0.002664 0.001043 -0.004192 0.000003 0.034694 0.000001
# 6 0.000000 0.000000 0.000001 -0.001109 0.000001 0.045521
#
#
# Mechanical properties :
#
#
# Convention : Reuss Voigt Hill
#
# Bulk Modulus (GPa) = 50.13805 56.12880 53.13343
# Shear Modulus (GPa) = 22.97229 24.49763 23.73496
#
# Velocity S-wave (km/s) = 3.54004 3.65568 3.59833
# Velocity P-wave (km/s) = 6.63782 6.95975 6.80069
#
# Compressibility (1/GPa) = 0.01994493
#
# Stress axis : x y z
#
# Youngs Moduli (GPa) = 73.63506 75.56491 48.08173
#
# Poissons Ratio (x) = 0.31231 0.17842
# Poissons Ratio (y) = 0.30433 0.28800
# Poissons Ratio (z) = 0.27324 0.45262
#
# Static dielectric constant tensor:
#      x y z
#    x 3.569330 0.000000 0.084660 
#    y 0.000000 3.188260 0.000000 
#    z 0.084660 0.000000 3.302890 
# 
# 
# High freq. dielectric constant tensor:
#      x y z
#    x 1.726670 0.000000 0.008530 
#    y 0.000000 1.694860 0.000000 
#    z 0.008530 0.000000 1.704390 
# 
# From -- ./inp_files/352140.got.cif
#   From: 2010.06.25/outbox.cif.g09.slc.cpg/sg12_177_cif.got.tgz:352140.got - 2010.06.28 00:19:55.
