data_PCOD8093027
_publ_section_title
;
Structure prediction by ZEFSAII (Michael W. Deem and Ramdas Pophale) SiO2 
 PCOD8093027
Probable space group: C 2/M
;
_chemical_formula_sum "Si O2"
_cell_formula_units_Z 64
_cell_length_a 20.190138
_cell_length_b 8.892980
_cell_length_c 21.529208
_cell_angle_alpha 90.000000
_cell_angle_beta 62.196884
_cell_angle_gamma 90.000000
_cell_volume 3419.320403
_symmetry_space_group_name_H-M "C 2/M"
_symmetry_group_IT_number 12
_symmetry_cell_setting 'monoclinic'
loop_
_space_group_symop_operation_xyz
x,y,z
-x,y,-z
-x,-y,-z
x,-y,z
1/2+x,1/2+y,z
1/2-x,1/2+y,-z
1/2-x,1/2-y,-z
1/2+x,1/2-y,z
loop_
_atom_site_type_symbol
_atom_site_label
_atom_site_fract_x
_atom_site_fract_y
_atom_site_fract_z
Si Si1 0.105174 0.327308 0.200140
Si Si2 0.425924 0.177934 0.431955
Si Si3 0.326355 0.677780 0.944298
Si Si4 0.080719 0.171549 0.336928
Si Si5 0.164036 0.678622 0.648151
Si Si6 0.021572 0.822329 0.058365
Si Si7 0.949567 0.672322 0.202158
Si Si8 0.832759 0.828042 0.576940
O O1 0.131068 0.500000 0.187253
O O2 0.158943 0.232578 0.131891
O O3 0.113950 0.263816 0.265099
O O4 0.019397 0.309440 0.217722
O O5 0.505589 0.257055 0.396520
O O6 0.377305 0.237988 0.395300
O O7 0.384956 0.222038 0.513158
O O8 0.437967 0.000000 0.424048
O O9 0.318264 0.500000 0.948560
O O10 0.394986 0.731671 0.958652
O O11 0.250000 0.750000 0.000000
O O12 0.143232 0.180255 0.362368
O O13 0.065113 0.000000 0.323677
O O14 0.161347 0.500000 0.650562
O O15 0.121638 0.737164 0.728742
O O16 0.248730 0.737405 0.609977
O O17 0.960385 0.764604 0.134272
O O18 0.017440 0.000000 0.060282
O O19 0.000000 0.757650 0.000000
O O20 0.938173 0.500000 0.187720
O O21 0.837130 0.000000 0.550533
#
# Coordination Sequence:
#
# PCOD8093027 Si02
#       8
#     8   8   8   8   8   8   8   8
#     4  10  19  35  59  83 109 142 184 229 269 315
#     4  11  21  36  59  81 104 139 184 228 270 321
#     4  10  20  36  58  84 114 147 183 222 268 320
#     4  11  22  36  55  80 111 145 182 221 271 328
#     4   9  18  36  57  78 107 140 178 225 272 318
#     4   9  19  36  56  80 113 144 176 220 269 316
#     4   9  17  33  57  81 105 138 182 222 262 315
#     4  10  22  38  54  77 112 145 175 222 278 327
#
# _framework density 18.717171
#
# number of rings (size 3 to 8) (size 9 to 14) (size 15 to 20)
#    0.000    2.125    1.250    2.250    0.000    3.750 
#    2.250    1.250    0.000    0.000    0.000    0.000 
#    0.000    0.000    0.000    0.000    0.000    0.000 
#
# Total GULP energy -396878.134763 kJ/mol
# GULP energy per Si atom -12402.441711 kJ/mol
# Density = 1.867457 g / cm^3
# Si number density = 18.717171 Si / 1000 Ang^3
#
#
#
# Elastic Constant Matrix: (Units=GPa)
#
#
# Indices 1 2 3 4 5 6 
#
# 1 67.3471 20.7150 32.9718 0.0002 -1.3045 -0.0007
# 2 20.7150 48.9286 21.1258 0.0004 -0.1407 -0.0021
# 3 32.9718 21.1258 116.2482 0.0000 0.7400 0.0001
# 4 0.0002 0.0004 0.0000 33.9446 0.0001 3.7057
# 5 -1.3045 -0.1407 0.7400 0.0001 33.9067 0.0001
# 6 -0.0007 -0.0021 0.0001 3.7057 0.0001 17.5844
#
#
#
# Elastic Compliance Matrix: (Units=1/GPa)
#
#
# Indices 1 2 3 4 5 6 
#
# 1 0.018823 -0.006141 -0.004228 0.000000 0.000791 0.000000
# 2 -0.006141 0.024183 -0.002652 -0.000001 -0.000078 0.000003
# 3 -0.004228 -0.002652 0.010286 0.000000 -0.000398 -0.000001
# 4 0.000000 -0.000001 0.000000 0.030153 0.000000 -0.006354
# 5 0.000791 -0.000078 -0.000398 0.000000 0.029531 0.000000
# 6 0.000000 0.000003 -0.000001 -0.006354 0.000000 0.058208
#
#
# Mechanical properties :
#
#
# Convention : Reuss Voigt Hill
#
# Bulk Modulus (GPa) = 36.69896 42.46102 39.57999
# Shear Modulus (GPa) = 24.23542 27.60125 25.91833
#
# Velocity S-wave (km/s) = 3.60227 3.84428 3.72524
# Velocity P-wave (km/s) = 6.07877 6.51456 6.30044
#
# Compressibility (1/GPa) = 0.02724873
#
# Stress axis : x y z
#
# Youngs Moduli (GPa) = 53.12786 41.35137 97.22012
#
# Poissons Ratio (x) = 0.25395 0.41101
# Poissons Ratio (y) = 0.32627 0.25787
# Poissons Ratio (z) = 0.22461 0.10968
#
# Static dielectric constant tensor:
#      x y z
#    x 3.512420 0.000000 -0.040430 
#    y 0.000000 3.384330 0.000000 
#    z -0.040430 0.000000 3.656130 
# 
# 
# High freq. dielectric constant tensor:
#      x y z
#    x 1.717750 0.000000 -0.000070 
#    y 0.000000 1.718730 0.000000 
#    z -0.000070 0.000000 1.737320 
# 
# From -- ./inp_files/319772.got.cif
#   From: 2010.06.25/outbox.cif.g09.slc.cpg/sg12_160_cif.got.tgz:319772.got - 2010.06.28 00:19:55.
