data_PCOD8093067
_publ_section_title
;
Structure prediction by ZEFSAII (Michael W. Deem and Ramdas Pophale) SiO2 
 PCOD8093067
Probable space group: C 2/M
;
_chemical_formula_sum "Si O2"
_cell_formula_units_Z 64
_cell_length_a 15.470896
_cell_length_b 8.958643
_cell_length_c 25.081675
_cell_angle_alpha 90.000000
_cell_angle_beta 71.942696
_cell_angle_gamma 90.000000
_cell_volume 3305.058778
_symmetry_space_group_name_H-M "C 2/M"
_symmetry_group_IT_number 12
_symmetry_cell_setting 'monoclinic'
loop_
_space_group_symop_operation_xyz
x,y,z
-x,y,-z
-x,-y,-z
x,-y,z
1/2+x,1/2+y,z
1/2-x,1/2+y,-z
1/2-x,1/2-y,-z
1/2+x,1/2-y,z
loop_
_atom_site_type_symbol
_atom_site_label
_atom_site_fract_x
_atom_site_fract_y
_atom_site_fract_z
Si Si1 0.991250 0.176957 0.755993
Si Si2 0.943928 0.327203 0.361715
Si Si3 0.806187 0.322616 0.824050
Si Si4 0.383032 0.327719 0.175380
Si Si5 0.015523 0.829629 0.058000
Si Si6 0.809612 0.673458 0.943765
Si Si7 0.565782 0.174886 0.440038
Si Si8 0.254922 0.675007 0.556312
O O1 0.031973 0.222259 0.691872
O O2 0.055794 0.246848 0.790101
O O3 0.891781 0.243269 0.782085
O O4 0.983734 0.000000 0.761519
O O5 0.954956 0.500000 0.343752
O O6 0.840250 0.291270 0.396686
O O7 0.013983 0.286523 0.395411
O O8 0.820350 0.500000 0.818498
O O9 0.719777 0.266094 0.805958
O O10 0.785752 0.273038 0.888715
O O11 0.378375 0.500000 0.190745
O O12 0.423623 0.304595 0.108551
O O13 0.086020 0.713259 0.067976
O O14 0.050999 0.000000 0.057351
O O15 0.000000 0.789223 0.000000
O O16 0.792598 0.500000 0.953347
O O17 0.750000 0.750000 0.000000
O O18 0.500000 0.228909 0.500000
O O19 0.662049 0.260089 0.424494
O O20 0.586500 0.000000 0.441647
O O21 0.269960 0.500000 0.545603
O O22 0.250000 0.750000 0.500000
#
# Coordination Sequence:
#
# PCOD8093067 Si02
#       8
#     8   8   8   8   8   8   8   8
#     4  11  23  40  62  88 119 155 203 255 293 347
#     4  10  23  42  62  86 124 165 199 243 300 364
#     4  10  21  40  63  85 114 158 203 242 300 365
#     4   9  19  37  60  84 114 154 198 240 294 359
#     4  10  19  35  59  84 116 154 194 243 302 364
#     4  11  22  35  56  86 120 154 196 248 301 363
#     4  10  20  39  63  89 123 163 204 247 303 362
#     4  11  22  38  62  93 127 163 204 251 303 358
#
# _framework density 19.364253999999999
#
# number of rings (size 3 to 8) (size 9 to 14) (size 15 to 20)
#    0.000    1.750    2.500    1.875    0.000    5.500 
#    0.000    5.625    0.000    0.000    0.000    0.000 
#    0.000    0.000    0.000    0.000    0.000    0.000 
#
# Total GULP energy -396793.848378 kJ/mol
# GULP energy per Si atom -12399.807762 kJ/mol
# Density = 1.932018 g / cm^3
# Si number density = 19.364254 Si / 1000 Ang^3
#
#
#
# Elastic Constant Matrix: (Units=GPa)
#
#
# Indices 1 2 3 4 5 6 
#
# 1 163.7592 28.7847 59.7358 0.0000 -6.9154 0.0000
# 2 28.7847 28.1887 28.6007 0.0000 -7.6222 0.0000
# 3 59.7358 28.6007 108.1050 0.0000 0.1574 0.0000
# 4 0.0000 0.0000 0.0000 28.8238 0.0000 0.7523
# 5 -6.9154 -7.6222 0.1574 0.0000 29.2851 0.0000
# 6 0.0000 0.0000 0.0000 0.7523 0.0000 30.6263
#
#
#
# Elastic Compliance Matrix: (Units=1/GPa)
#
#
# Indices 1 2 3 4 5 6 
#
# 1 0.008170 -0.004892 -0.003221 0.000000 0.000673 0.000000
# 2 -0.004892 0.056646 -0.012303 0.000000 0.013654 0.000000
# 3 -0.003221 -0.012303 0.014291 0.000000 -0.004040 0.000000
# 4 0.000000 0.000000 0.000000 0.034716 0.000000 -0.000853
# 5 0.000673 0.013654 -0.004040 0.000000 0.037882 0.000000
# 6 0.000000 0.000000 0.000000 -0.000853 0.000000 0.032673
#
#
# Mechanical properties :
#
#
# Convention : Reuss Voigt Hill
#
# Bulk Modulus (GPa) = 26.12743 59.36613 42.74678
# Shear Modulus (GPa) = 21.01122 29.94247 25.47684
#
# Velocity S-wave (km/s) = 3.29759 3.93654 3.63114
# Velocity P-wave (km/s) = 5.29345 7.16840 6.30105
#
# Compressibility (1/GPa) = 0.03827396
#
# Stress axis : x y z
#
# Youngs Moduli (GPa) = 122.40039 17.65347 69.97436
#
# Poissons Ratio (x) = 0.08637 0.22539
# Poissons Ratio (y) = 0.59884 0.86089
# Poissons Ratio (z) = 0.39426 0.21719
#
# Static dielectric constant tensor:
#      x y z
#    x 3.856870 0.000000 0.185330 
#    y 0.000000 3.768250 0.000000 
#    z 0.185330 0.000000 3.378740 
# 
# 
# High freq. dielectric constant tensor:
#      x y z
#    x 1.770540 0.000000 -0.000070 
#    y 0.000000 1.737350 0.000000 
#    z -0.000070 0.000000 1.756190 
# 
# From -- ./inp_files/359709.got.cif
#   From: 2010.06.25/outbox.cif.g09.slc.cpg/sg12_180_cif.got.tgz:359709.got - 2010.06.28 00:19:55.
