data_PCOD8093390
_publ_section_title
;
Structure prediction by ZEFSAII (Michael W. Deem and Ramdas Pophale) SiO2 
 PCOD8093390
Probable space group: C 2/M
;
_chemical_formula_sum "Si O2"
_cell_formula_units_Z 48
_cell_length_a 9.349698
_cell_length_b 17.775499
_cell_length_c 14.730374
_cell_angle_alpha 90.000000
_cell_angle_beta 68.327463
_cell_angle_gamma 90.000000
_cell_volume 2275.064032
_symmetry_space_group_name_H-M "C 2/M"
_symmetry_group_IT_number 12
_symmetry_cell_setting 'monoclinic'
loop_
_space_group_symop_operation_xyz
x,y,z
-x,y,-z
-x,-y,-z
x,-y,z
1/2+x,1/2+y,z
1/2-x,1/2+y,-z
1/2-x,1/2-y,-z
1/2+x,1/2-y,z
loop_
_atom_site_type_symbol
_atom_site_label
_atom_site_fract_x
_atom_site_fract_y
_atom_site_fract_z
Si Si1 0.569200 0.297179 0.882835
Si Si2 0.360228 0.411619 0.601652
Si Si3 0.462389 0.089042 0.410660
Si Si4 0.181248 0.830018 0.208350
Si Si5 0.547685 0.914192 0.896311
Si Si6 0.823595 0.411174 0.797762
O O1 0.682022 0.231488 0.822391
O O2 0.437893 0.303092 0.838166
O O3 0.659303 0.375824 0.858225
O O4 0.500000 0.284315 0.000000
O O5 0.500000 0.400580 0.500000
O O6 0.350115 0.500000 0.634459
O O7 0.201475 0.384606 0.591322
O O8 0.392852 0.353178 0.677241
O O9 0.500000 0.125006 0.500000
O O10 0.606687 0.114203 0.315152
O O11 0.455029 0.000000 0.419563
O O12 0.269644 0.906813 0.160230
O O13 0.448090 0.878180 0.839246
O O14 0.499100 0.000000 0.913016
O O15 0.500000 0.871844 0.000000
O O16 0.801943 0.500000 0.807723
#
# Coordination Sequence:
#
# PCOD8093390 Si02
#       6
#     8   8   8   8   8   8
#     4  12  27  44  64  90 127 174 220 270 320 380
#     4  10  22  41  68 101 130 162 210 264 321 381
#     4   9  18  35  63  94 127 163 198 251 317 381
#     4  12  24  42  64  89 126 172 216 263 320 381
#     4  10  19  35  62  91 121 160 205 257 316 379
#     4  10  21  39  63  94 127 163 211 264 321 384
#
# _framework density 21.098306999999998
#
# number of rings (size 3 to 8) (size 9 to 14) (size 15 to 20)
#    0.000    1.500    1.667    3.500    2.333    1.667 
#    0.000    1.667    0.000    0.000    0.000    0.000 
#    0.000    0.000    0.000    0.000    0.000    0.000 
#
# Total GULP energy -297385.207951 kJ/mol
# GULP energy per Si atom -12391.050331 kJ/mol
# Density = 2.105029 g / cm^3
# Si number density = 21.098307 Si / 1000 Ang^3
#
#
#
# Elastic Constant Matrix: (Units=GPa)
#
#
# Indices 1 2 3 4 5 6 
#
# 1 135.9506 41.7480 55.6050 0.0000 12.9713 0.0000
# 2 41.7480 52.8368 52.4967 0.0000 0.3879 0.0000
# 3 55.6050 52.4967 159.8971 0.0000 12.3772 0.0000
# 4 0.0000 0.0000 0.0000 21.1117 0.0000 -18.0982
# 5 12.9713 0.3879 12.3772 0.0000 44.6653 0.0000
# 6 0.0000 0.0000 0.0000 -18.0982 0.0000 20.7341
#
#
#
# Elastic Compliance Matrix: (Units=1/GPa)
#
#
# Indices 1 2 3 4 5 6 
#
# 1 0.010176 -0.006984 -0.001044 0.000000 -0.002605 0.000000
# 2 -0.006984 0.033128 -0.008771 0.000000 0.004171 0.000000
# 3 -0.001044 -0.008771 0.009675 0.000000 -0.002302 0.000000
# 4 0.000000 0.000000 0.000000 0.188170 0.000000 0.164248
# 5 -0.002605 0.004171 -0.002302 0.000000 0.023747 0.000000
# 6 0.000000 0.000000 0.000000 0.164248 0.000000 0.191597
#
#
# Mechanical properties :
#
#
# Convention : Reuss Voigt Hill
#
# Bulk Modulus (GPa) = 51.59558 72.04266 61.81912
# Shear Modulus (GPa) = 10.06948 30.55786 20.31367
#
# Velocity S-wave (km/s) = 2.18701 3.80986 3.10629
# Velocity P-wave (km/s) = 5.55745 7.31940 6.49842
#
# Compressibility (1/GPa) = 0.01938150
#
# Stress axis : x y z
#
# Youngs Moduli (GPa) = 98.27227 30.18620 103.36096
#
# Poissons Ratio (x) = 0.21081 0.10793
# Poissons Ratio (y) = 0.68630 0.90654
# Poissons Ratio (z) = 0.10262 0.26475
#
# Static dielectric constant tensor:
#      x y z
#    x 4.022650 0.000000 0.141580 
#    y 0.000000 3.705160 0.000000 
#    z 0.141580 0.000000 4.234280 
# 
# 
# High freq. dielectric constant tensor:
#      x y z
#    x 1.828560 0.000000 0.000480 
#    y 0.000000 1.810940 0.000000 
#    z 0.000480 0.000000 1.841550 
# 
# From -- ./inp_files/196913.got.cif
#   From: 2010.06.25/outbox.cif.g09.slc.cpg/sg12_99_cif.got.tgz:196913.got - 2010.06.28 00:19:55.
