data_PCOD8093350
_publ_section_title
;
Structure prediction by ZEFSAII (Michael W. Deem and Ramdas Pophale) SiO2 
 PCOD8093350
Probable space group: C 2/M
;
_chemical_formula_sum "Si O2"
_cell_formula_units_Z 40
_cell_length_a 13.697459
_cell_length_b 13.599533
_cell_length_c 13.475957
_cell_angle_alpha 90.000000
_cell_angle_beta 58.416526
_cell_angle_gamma 90.000000
_cell_volume 2138.459554
_symmetry_space_group_name_H-M "C 2/M"
_symmetry_group_IT_number 12
_symmetry_cell_setting 'monoclinic'
loop_
_space_group_symop_operation_xyz
x,y,z
-x,y,-z
-x,-y,-z
x,-y,z
1/2+x,1/2+y,z
1/2-x,1/2+y,-z
1/2-x,1/2-y,-z
1/2+x,1/2-y,z
loop_
_atom_site_type_symbol
_atom_site_label
_atom_site_fract_x
_atom_site_fract_y
_atom_site_fract_z
Si Si1 0.116930 0.890718 0.995755
Si Si2 0.932770 0.885879 0.751284
Si Si3 0.857286 0.242493 0.369397
Si Si4 0.735835 0.225339 0.227376
Si Si5 0.480081 0.113486 0.620223
O O1 0.193433 0.803516 0.908573
O O2 0.175062 0.000000 0.959971
O O3 0.089018 0.861963 0.122675
O O4 0.000000 0.895919 0.000000
O O5 0.835959 0.825866 0.743503
O O6 0.061518 0.852164 0.651993
O O7 0.919961 0.000000 0.731085
O O8 0.750000 0.250000 0.500000
O O9 0.818931 0.238525 0.276286
O O10 0.936790 0.337442 0.343238
O O11 0.652195 0.132605 0.285781
O O12 0.500000 0.158038 0.500000
O O13 0.509646 0.000000 0.607503
#
# Coordination Sequence:
#
# PCOD8093350 Si02
#       5
#     8   8   8   8   8
#     4  10  19  35  61  91 112 144 195 241 285 338
#     4  10  23  39  59  86 117 152 193 235 287 345
#     4  11  22  37  56  83 115 149 191 235 281 335
#     4  11  21  37  61  82 118 150 189 235 291 333
#     4  10  21  36  55  80 109 147 191 232 279 334
#
# _framework density 18.705054000000001
#
# number of rings (size 3 to 8) (size 9 to 14) (size 15 to 20)
#    0.000    1.600    4.000    1.200    0.000    2.400 
#    0.000    1.000    0.000    0.600    0.000    0.000 
#    0.000    0.000    0.000    0.000    0.000    0.000 
#
# Total GULP energy -247954.808526 kJ/mol
# GULP energy per Si atom -12397.740426 kJ/mol
# Density = 1.866248 g / cm^3
# Si number density = 18.705054 Si / 1000 Ang^3
#
#
#
# Elastic Constant Matrix: (Units=GPa)
#
#
# Indices 1 2 3 4 5 6 
#
# 1 97.3452 43.1311 16.1793 0.0000 -4.2117 0.0000
# 2 43.1311 101.6397 31.3064 0.0000 -8.4898 0.0000
# 3 16.1793 31.3064 74.5020 0.0000 -19.8052 0.0000
# 4 0.0000 0.0000 0.0000 30.9298 0.0000 -0.1305
# 5 -4.2117 -8.4898 -19.8052 0.0000 26.4387 0.0000
# 6 0.0000 0.0000 0.0000 -0.1305 0.0000 14.1327
#
#
#
# Elastic Compliance Matrix: (Units=1/GPa)
#
#
# Indices 1 2 3 4 5 6 
#
# 1 0.012672 -0.005204 -0.000591 0.000000 -0.000095 0.000000
# 2 -0.005204 0.013438 -0.004483 0.000000 0.000128 0.000000
# 3 -0.000591 -0.004483 0.018763 0.000000 0.012522 0.000000
# 4 0.000000 0.000000 0.000000 0.032333 0.000000 0.000299
# 5 -0.000095 0.000128 0.012522 0.000000 0.047230 0.000000
# 6 0.000000 0.000000 0.000000 0.000299 0.000000 0.070761
#
#
# Mechanical properties :
#
#
# Convention : Reuss Voigt Hill
#
# Bulk Modulus (GPa) = 41.11838 50.52453 45.82146
# Shear Modulus (GPa) = 22.33567 26.49157 24.41362
#
# Velocity S-wave (km/s) = 3.45932 3.76743 3.61666
# Velocity P-wave (km/s) = 6.16329 6.78193 6.47999
#
# Compressibility (1/GPa) = 0.02432002
#
# Stress axis : x y z
#
# Youngs Moduli (GPa) = 78.91206 74.41430 53.29586
#
# Poissons Ratio (x) = 0.38722 0.03148
# Poissons Ratio (y) = 0.41062 0.23891
# Poissons Ratio (z) = 0.04660 0.33358
#
# Static dielectric constant tensor:
#      x y z
#    x 3.500370 0.000000 -0.040130 
#    y 0.000000 3.400490 0.000000 
#    z -0.040130 0.000000 3.411640 
# 
# 
# High freq. dielectric constant tensor:
#      x y z
#    x 1.732540 0.000000 -0.002730 
#    y 0.000000 1.720140 0.000000 
#    z -0.002730 0.000000 1.730070 
# 
# From -- ./inp_files/129569.got.cif
#   From: 2010.06.25/outbox.cif.g09.slc.cpg/sg12_65_cif.got.tgz:129569.got - 2010.06.28 00:19:55.
