data_PCOD8093583
_publ_section_title
;
Structure prediction by ZEFSAII (Michael W. Deem and Ramdas Pophale) SiO2 
 PCOD8093583
Probable space group: C 2/M
;
_chemical_formula_sum "Si O2"
_cell_formula_units_Z 52
_cell_length_a 9.506439
_cell_length_b 28.882174
_cell_length_c 12.096712
_cell_angle_alpha 90.000000
_cell_angle_beta 55.693607
_cell_angle_gamma 90.000000
_cell_volume 2743.555516
_symmetry_space_group_name_H-M "C 2/M"
_symmetry_group_IT_number 12
_symmetry_cell_setting 'monoclinic'
loop_
_space_group_symop_operation_xyz
x,y,z
-x,y,-z
-x,-y,-z
x,-y,z
1/2+x,1/2+y,z
1/2-x,1/2+y,-z
1/2-x,1/2-y,-z
1/2+x,1/2-y,z
loop_
_atom_site_type_symbol
_atom_site_label
_atom_site_fract_x
_atom_site_fract_y
_atom_site_fract_z
Si Si1 0.557505 0.446172 0.094047
Si Si2 0.736427 0.054052 0.378641
Si Si3 0.396436 0.212317 0.934636
Si Si4 0.500000 0.734978 0.500000
Si Si5 0.888585 0.391343 0.942043
Si Si6 0.361588 0.202878 0.364542
Si Si7 0.452497 0.097801 0.355566
O O1 0.593748 0.500000 0.067222
O O2 0.426243 0.435474 0.251700
O O3 0.500000 0.426657 0.000000
O O4 0.731395 0.422073 0.048060
O O5 0.615582 0.086071 0.357922
O O6 0.706849 0.068439 0.521118
O O7 0.691424 0.000000 0.381810
O O8 0.324108 0.160628 0.942089
O O9 0.527730 0.224679 0.781313
O O10 0.500000 0.214938 0.000000
O O11 0.250000 0.250000 0.000000
O O12 0.582811 0.766151 0.557839
O O13 0.666245 0.703224 0.403285
O O14 0.997374 0.414481 0.793300
O O15 0.000000 0.388296 0.000000
O O16 0.404613 0.151202 0.381988
#
# Coordination Sequence:
#
# PCOD8093583 Si02
#       7
#     8   8   8   4   8   8   8
#     4  10  20  37  59  88 115 146 195 241 287 349
#     4  10  20  36  62  89 115 148 194 248 290 336
#     4  10  21  39  57  84 115 150 196 239 283 339
#     4  10  20  38  56  80 114 152 188 232 284 338
#     4  10  22  39  57  84 121 157 189 236 296 354
#     4  10  21  37  58  83 115 150 193 235 286 341
#     4  10  19  36  57  86 115 147 196 236 287 346
#
# _framework density 18.953506999999998
#
# number of rings (size 3 to 8) (size 9 to 14) (size 15 to 20)
#    0.000    2.000    1.538    2.769    0.000    1.538 
#   16.615    0.000    0.000    1.846    0.000    0.000 
#    0.000    0.000    0.000    0.000    0.000    0.000 
#
# Total GULP energy -322114.935361 kJ/mol
# GULP energy per Si atom -12389.035975 kJ/mol
# Density = 1.891037 g / cm^3
# Si number density = 18.953507 Si / 1000 Ang^3
#
#
#
# Elastic Constant Matrix: (Units=GPa)
#
#
# Indices 1 2 3 4 5 6 
#
# 1 84.9972 46.3282 46.9462 0.0000 -16.3711 0.0000
# 2 46.3282 77.0728 50.9319 0.0000 -18.3117 0.0000
# 3 46.9462 50.9319 158.2970 0.0000 -18.6741 0.0000
# 4 0.0000 0.0000 0.0000 14.5141 0.0000 -5.0778
# 5 -16.3711 -18.3117 -18.6741 0.0000 31.9874 0.0000
# 6 0.0000 0.0000 0.0000 -5.0778 0.0000 23.8537
#
#
#
# Elastic Compliance Matrix: (Units=1/GPa)
#
#
# Indices 1 2 3 4 5 6 
#
# 1 0.018427 -0.008865 -0.002254 0.000000 0.003040 0.000000
# 2 -0.008865 0.022249 -0.003826 0.000000 0.005966 0.000000
# 3 -0.002254 -0.003826 0.008401 0.000000 0.001561 0.000000
# 4 0.000000 0.000000 0.000000 0.074442 0.000000 0.015847
# 5 0.003040 0.005966 0.001561 0.000000 0.037145 0.000000
# 6 0.000000 0.000000 0.000000 0.015847 0.000000 0.045296
#
#
# Mechanical properties :
#
#
# Convention : Reuss Voigt Hill
#
# Bulk Modulus (GPa) = 52.11573 67.64217 59.87895
# Shear Modulus (GPa) = 20.64021 25.81509 23.22765
#
# Velocity S-wave (km/s) = 3.30357 3.69456 3.50452
# Velocity P-wave (km/s) = 6.48905 7.34613 6.93085
#
# Compressibility (1/GPa) = 0.01918806
#
# Stress axis : x y z
#
# Youngs Moduli (GPa) = 54.26673 44.94581 119.03658
#
# Poissons Ratio (x) = 0.39843 0.26833
# Poissons Ratio (y) = 0.48106 0.45540
# Poissons Ratio (z) = 0.12233 0.17195
#
# Static dielectric constant tensor:
#      x y z
#    x 3.456750 0.000000 -0.262060 
#    y 0.000000 3.565380 0.000000 
#    z -0.262060 0.000000 4.771590 
# 
# 
# High freq. dielectric constant tensor:
#      x y z
#    x 1.716840 0.000000 -0.004290 
#    y 0.000000 1.736470 0.000000 
#    z -0.004290 0.000000 1.759590 
# 
# From -- ./inp_files/125122.got.cif
#   From: 2010.06.25/outbox.cif.g09.slc.cpg/sg12_63_cif.got.tgz:125122.got - 2010.06.28 00:19:55.
