data_PCOD8093066
_publ_section_title
;
Structure prediction by ZEFSAII (Michael W. Deem and Ramdas Pophale) SiO2 
 PCOD8093066
Probable space group: C 2/M
;
_chemical_formula_sum "Si O2"
_cell_formula_units_Z 48
_cell_length_a 23.241241
_cell_length_b 17.725757
_cell_length_c 17.047367
_cell_angle_alpha 90.000000
_cell_angle_beta 158.822800
_cell_angle_gamma 90.000000
_cell_volume 2537.076277
_symmetry_space_group_name_H-M "C 2/M"
_symmetry_group_IT_number 12
_symmetry_cell_setting 'monoclinic'
loop_
_space_group_symop_operation_xyz
x,y,z
-x,y,-z
-x,-y,-z
x,-y,z
1/2+x,1/2+y,z
1/2-x,1/2+y,-z
1/2-x,1/2-y,-z
1/2+x,1/2-y,z
loop_
_atom_site_type_symbol
_atom_site_label
_atom_site_fract_x
_atom_site_fract_y
_atom_site_fract_z
Si Si1 0.289700 0.165264 0.571911
Si Si2 0.629647 0.203279 0.010982
Si Si3 0.624065 0.915240 0.473588
Si Si4 0.388540 0.783131 0.432747
Si Si5 0.514621 0.682691 0.731094
Si Si6 0.737139 0.085150 0.034658
O O1 0.250000 0.250000 0.500000
O O2 0.465919 0.165171 0.835084
O O3 0.287091 0.112892 0.491779
O O4 0.150142 0.140321 0.453942
O O5 0.588173 0.265361 0.892473
O O6 0.725940 0.240176 0.204288
O O7 0.740192 0.137192 0.115834
O O8 0.668438 0.862652 0.603474
O O9 0.681962 0.000000 0.565303
O O10 0.435135 0.911558 0.223536
O O11 0.500000 0.797691 0.500000
O O12 0.487520 0.735761 0.621770
O O13 0.637165 0.616198 0.868417
O O14 0.783365 0.000000 0.117188
#
# Coordination Sequence:
#
# PCOD8093066 Si02
#       6
#     8   8   8   8   8   8
#     4   9  18  37  60  81 112 156 196 239 286 345
#     4  10  20  36  58  83 115 156 198 238 290 352
#     4  10  21  38  60  89 123 154 192 242 299 352
#     4  12  21  33  62  89 114 158 195 244 289 345
#     4  11  20  38  57  87 117 147 210 243 284 352
#     4  10  19  35  59  84 116 152 189 245 298 335
#
# _framework density 18.919415000000001
#
# number of rings (size 3 to 8) (size 9 to 14) (size 15 to 20)
#    0.000    1.667    6.667    1.500    0.000    1.667 
#    0.000    2.500    0.000    5.000    0.000    5.833 
#    0.000    0.000    0.000    0.000    0.000    0.000 
#
# Total GULP energy -297553.304101 kJ/mol
# GULP energy per Si atom -12398.054338 kJ/mol
# Density = 1.887635 g / cm^3
# Si number density = 18.919415 Si / 1000 Ang^3
#
#
#
# Elastic Constant Matrix: (Units=GPa)
#
#
# Indices 1 2 3 4 5 6 
#
# 1 81.4643 47.5441 21.2126 0.0000 23.3375 0.0000
# 2 47.5441 120.9782 31.4335 0.0000 11.6720 0.0000
# 3 21.2126 31.4335 44.6660 -0.0001 8.2528 -0.0001
# 4 0.0000 0.0000 -0.0001 20.6578 0.0000 -2.9897
# 5 23.3375 11.6720 8.2528 0.0000 43.2565 0.0000
# 6 0.0000 0.0000 -0.0001 -2.9897 0.0000 28.5788
#
#
#
# Elastic Compliance Matrix: (Units=1/GPa)
#
#
# Indices 1 2 3 4 5 6 
#
# 1 0.018782 -0.005726 -0.003424 0.000000 -0.007935 0.000000
# 2 -0.005726 0.011946 -0.005870 0.000000 0.000986 0.000000
# 3 -0.003424 -0.005870 0.028517 0.000000 -0.002009 0.000000
# 4 0.000000 0.000000 0.000000 0.049152 0.000000 0.005142
# 5 -0.007935 0.000986 -0.002009 0.000000 0.027516 0.000000
# 6 0.000000 0.000000 0.000000 0.005142 0.000000 0.035529
#
#
# Mechanical properties :
#
#
# Convention : Reuss Voigt Hill
#
# Bulk Modulus (GPa) = 34.24082 49.72099 41.98090
# Shear Modulus (GPa) = 23.67237 28.29320 25.98278
#
# Velocity S-wave (km/s) = 3.54110 3.87131 3.70988
# Velocity P-wave (km/s) = 5.90396 6.80589 6.37091
#
# Compressibility (1/GPa) = 0.02920491
#
# Stress axis : x y z
#
# Youngs Moduli (GPa) = 53.24304 83.70783 35.06716
#
# Poissons Ratio (x) = 0.47931 0.12007
# Poissons Ratio (y) = 0.30487 0.20584
# Poissons Ratio (z) = 0.18231 0.49136
#
# Static dielectric constant tensor:
#      x y z
#    x 2.738580 0.000000 -0.730840 
#    y 0.000000 3.655400 0.000000 
#    z -0.730840 0.000000 2.305800 
# 
# 
# High freq. dielectric constant tensor:
#      x y z
#    x 1.728310 0.000000 0.021300 
#    y 0.000000 1.724760 0.000000 
#    z 0.021300 0.000000 1.728590 
# 
# From -- ./inp_files/234239.got.cif
#   From: 2010.06.25/outbox.cif.g09.slc.cpg/sg12_118_cif.got.tgz:234239.got - 2010.06.28 00:19:55.
