data_PCOD8093060
_publ_section_title
;
Structure prediction by ZEFSAII (Michael W. Deem and Ramdas Pophale) SiO2 
 PCOD8093060
Probable space group: C 2/M
;
_chemical_formula_sum "Si O2"
_cell_formula_units_Z 64
_cell_length_a 14.263339
_cell_length_b 14.802313
_cell_length_c 23.062007
_cell_angle_alpha 90.000000
_cell_angle_beta 138.241620
_cell_angle_gamma 90.000000
_cell_volume 3242.769664
_symmetry_space_group_name_H-M "C 2/M"
_symmetry_group_IT_number 12
_symmetry_cell_setting 'monoclinic'
loop_
_space_group_symop_operation_xyz
x,y,z
-x,y,-z
-x,-y,-z
x,-y,z
1/2+x,1/2+y,z
1/2-x,1/2+y,-z
1/2-x,1/2-y,-z
1/2+x,1/2-y,z
loop_
_atom_site_type_symbol
_atom_site_label
_atom_site_fract_x
_atom_site_fract_y
_atom_site_fract_z
Si Si1 0.987127 0.901792 0.062299
Si Si2 0.303345 0.598049 0.365676
Si Si3 0.170534 0.103493 0.754918
Si Si4 0.662187 0.103201 0.925497
Si Si5 0.618145 0.756374 0.517133
Si Si6 0.045764 0.292727 0.087777
Si Si7 0.002880 0.398549 0.741282
Si Si8 0.431058 0.728955 0.637948
O O1 0.072767 0.811865 0.121533
O O2 0.039715 0.000000 0.112523
O O3 0.827911 0.884583 0.010023
O O4 0.000000 0.910999 0.000000
O O5 0.345618 0.500000 0.408908
O O6 0.355983 0.612445 0.325282
O O7 0.372403 0.664210 0.442864
O O8 0.135430 0.606865 0.282962
O O9 0.312397 0.151014 0.840826
O O10 0.033715 0.156251 0.716090
O O11 0.172152 0.000000 0.777442
O O12 0.580486 0.165786 0.932990
O O13 0.628513 0.128940 0.842881
O O14 0.614248 0.000000 0.914568
O O15 0.500000 0.813988 0.500000
O O16 0.561935 0.731802 0.428050
O O17 0.773824 0.799929 0.586313
O O18 0.000000 0.293372 0.000000
O O19 0.025663 0.500000 0.726077
O O20 0.983932 0.328703 0.680143
#
# Coordination Sequence:
#
# PCOD8093060 Si02
#       8
#     8   8   8   8   8   8   8   8
#     4   9  20  37  56  83 114 151 203 251 290 344
#     4   9  17  32  57  88 114 145 189 247 304 346
#     4  11  22  38  58  87 122 155 200 253 306 361
#     4  10  19  35  59  84 114 152 200 256 303 351
#     4  10  19  36  57  89 122 154 190 243 294 364
#     4  11  23  37  60  88 121 161 201 250 314 365
#     4   9  18  34  58  85 112 147 200 251 291 342
#     4  10  22  35  59  90 120 157 194 239 307 357
#
# _framework density 19.736215999999999
#
# number of rings (size 3 to 8) (size 9 to 14) (size 15 to 20)
#    0.000    2.125    2.500    0.750    3.500    1.750 
#    0.000    1.875    0.000    1.500    0.000    0.000 
#    0.000    0.000    0.000    0.000    0.000    0.000 
#
# Total GULP energy -396449.604519 kJ/mol
# GULP energy per Si atom -12389.050141 kJ/mol
# Density = 1.969130 g / cm^3
# Si number density = 19.736216 Si / 1000 Ang^3
#
#
#
# Elastic Constant Matrix: (Units=GPa)
#
#
# Indices 1 2 3 4 5 6 
#
# 1 86.6422 31.6256 24.6032 0.0000 16.6118 0.0000
# 2 31.6256 128.1409 43.0335 0.0000 11.5926 0.0000
# 3 24.6032 43.0335 57.8669 0.0000 7.9983 0.0000
# 4 0.0000 0.0000 0.0000 22.5701 0.0000 3.1731
# 5 16.6118 11.5926 7.9983 0.0000 30.4055 0.0000
# 6 0.0000 0.0000 0.0000 3.1731 0.0000 25.0831
#
#
#
# Elastic Compliance Matrix: (Units=1/GPa)
#
#
# Indices 1 2 3 4 5 6 
#
# 1 0.014492 -0.001644 -0.004080 0.000000 -0.006218 0.000000
# 2 -0.001644 0.010707 -0.007081 0.000000 -0.001321 0.000000
# 3 -0.004080 -0.007081 0.024491 0.000000 -0.001514 0.000000
# 4 0.000000 0.000000 0.000000 0.045109 0.000000 -0.005706
# 5 -0.006218 -0.001321 -0.001514 0.000000 0.037188 0.000000
# 6 0.000000 0.000000 0.000000 -0.005706 0.000000 0.040589
#
#
# Mechanical properties :
#
#
# Convention : Reuss Voigt Hill
#
# Bulk Modulus (GPa) = 41.52668 52.35273 46.93971
# Shear Modulus (GPa) = 24.24685 27.17092 25.70888
#
# Velocity S-wave (km/s) = 3.50886 3.71442 3.61310
# Velocity P-wave (km/s) = 6.12395 6.70669 6.42193
#
# Compressibility (1/GPa) = 0.02408090
#
# Stress axis : x y z
#
# Youngs Moduli (GPa) = 69.00135 93.39511 40.83212
#
# Poissons Ratio (x) = 0.15356 0.16658
# Poissons Ratio (y) = 0.11345 0.28913
# Poissons Ratio (z) = 0.28150 0.66131
#
# Static dielectric constant tensor:
#      x y z
#    x 3.842800 0.000000 0.350910 
#    y 0.000000 3.867240 0.000000 
#    z 0.350910 0.000000 3.515150 
# 
# 
# High freq. dielectric constant tensor:
#      x y z
#    x 1.766970 0.000000 0.019610 
#    y 0.000000 1.764520 0.000000 
#    z 0.019610 0.000000 1.758000 
# 
# From -- ./inp_files/340193.got.cif
#   From: 2010.06.25/outbox.cif.g09.slc.cpg/sg12_171_cif.got.tgz:340193.got - 2010.06.28 00:19:55.
