data_PCOD8093640
_publ_section_title
;
Structure prediction by ZEFSAII (Michael W. Deem and Ramdas Pophale) SiO2 
 PCOD8093640
Probable space group: C 2/M
;
_chemical_formula_sum "Si O2"
_cell_formula_units_Z 56
_cell_length_a 30.927732
_cell_length_b 8.859235
_cell_length_c 11.787250
_cell_angle_alpha 90.000000
_cell_angle_beta 116.938618
_cell_angle_gamma 90.000000
_cell_volume 2879.217186
_symmetry_space_group_name_H-M "C 2/M"
_symmetry_group_IT_number 12
_symmetry_cell_setting 'monoclinic'
loop_
_space_group_symop_operation_xyz
x,y,z
-x,y,-z
-x,-y,-z
x,-y,z
1/2+x,1/2+y,z
1/2-x,1/2+y,-z
1/2-x,1/2-y,-z
1/2+x,1/2-y,z
loop_
_atom_site_type_symbol
_atom_site_label
_atom_site_fract_x
_atom_site_fract_y
_atom_site_fract_z
Si Si1 0.088645 0.321750 0.293854
Si Si2 0.100271 0.822868 0.072992
Si Si3 0.185907 0.825009 0.007422
Si Si4 0.868835 0.822671 0.435399
Si Si5 0.206178 0.674783 0.800843
Si Si6 0.022433 0.326032 0.833789
Si Si7 0.550497 0.174039 0.613896
O O1 0.093502 0.500000 0.304391
O O2 0.110199 0.260905 0.202370
O O3 0.120054 0.253291 0.431913
O O4 0.032851 0.270557 0.242076
O O5 0.143188 0.774122 0.039851
O O6 0.099595 0.000000 0.094228
O O7 0.048767 0.772438 0.960505
O O8 0.236546 0.793170 0.131067
O O9 0.181624 0.000000 0.967532
O O10 0.181819 0.726300 0.889651
O O11 0.816229 0.767311 0.330538
O O12 0.907604 0.777681 0.385896
O O13 0.868599 0.000000 0.451836
O O14 0.193850 0.500000 0.769534
O O15 0.024364 0.500000 0.874304
O O16 0.049343 0.301390 0.746833
O O17 0.500000 0.226798 0.500000
O O18 0.560636 0.000000 0.593162
#
# Coordination Sequence:
#
# PCOD8093640 Si02
#       7
#     8   8   8   8   8   8   8
#     4  11  23  41  59  78 110 154 200 237 275 334
#     4  11  23  38  57  84 116 147 186 237 290 337
#     4   9  20  39  61  88 119 147 183 236 289 338
#     4  12  24  37  56  86 120 151 188 235 291 340
#     4  10  20  37  63  89 115 150 189 229 282 345
#     4  10  21  37  58  82 111 151 195 234 275 332
#     4  10  19  36  58  82 113 150 190 231 276 332
#
# _framework density 19.449731
#
# number of rings (size 3 to 8) (size 9 to 14) (size 15 to 20)
#    0.000    1.571    1.429    3.857    0.000    7.714 
#    0.000    0.714    0.000    0.000    0.000    0.000 
#    0.000    0.000    0.000    0.000    0.000    0.000 
#
# Total GULP energy -347381.708946 kJ/mol
# GULP energy per Si atom -12406.489605 kJ/mol
# Density = 1.940546 g / cm^3
# Si number density = 19.449731 Si / 1000 Ang^3
#
#
#
# Elastic Constant Matrix: (Units=GPa)
#
#
# Indices 1 2 3 4 5 6 
#
# 1 60.2793 36.1303 42.1736 0.0000 0.6307 0.0000
# 2 36.1303 90.7141 53.4327 0.0000 -0.3255 0.0000
# 3 42.1736 53.4327 131.9553 0.0000 4.5789 0.0000
# 4 0.0000 0.0000 0.0000 36.2539 0.0000 -3.2119
# 5 0.6307 -0.3255 4.5789 0.0000 25.7026 0.0000
# 6 0.0000 0.0000 0.0000 -3.2119 0.0000 27.5558
#
#
#
# Elastic Compliance Matrix: (Units=1/GPa)
#
#
# Indices 1 2 3 4 5 6 
#
# 1 0.024071 -0.006632 -0.005015 0.000000 0.000219 0.000000
# 2 -0.006632 0.016343 -0.004539 0.000000 0.001178 0.000000
# 3 -0.005015 -0.004539 0.011085 0.000000 -0.001909 0.000000
# 4 0.000000 0.000000 0.000000 0.027871 0.000000 0.003249
# 5 0.000219 0.001178 -0.001909 0.000000 0.039256 0.000000
# 6 0.000000 0.000000 0.000000 0.003249 0.000000 0.036669
#
#
# Mechanical properties :
#
#
# Convention : Reuss Voigt Hill
#
# Bulk Modulus (GPa) = 52.28320 60.71354 56.49837
# Shear Modulus (GPa) = 25.76728 27.98326 26.87527
#
# Velocity S-wave (km/s) = 3.64375 3.79720 3.72126
# Velocity P-wave (km/s) = 6.68147 7.10692 6.89748
#
# Compressibility (1/GPa) = 0.01912660
#
# Stress axis : x y z
#
# Youngs Moduli (GPa) = 41.54317 61.18824 90.20863
#
# Poissons Ratio (x) = 0.40583 0.45242
# Poissons Ratio (y) = 0.27553 0.40945
# Poissons Ratio (z) = 0.20835 0.27773
#
# Static dielectric constant tensor:
#      x y z
#    x 3.514770 0.000000 0.064820 
#    y 0.000000 3.508090 0.000000 
#    z 0.064820 0.000000 3.661360 
# 
# 
# High freq. dielectric constant tensor:
#      x y z
#    x 1.747790 0.000000 0.003650 
#    y 0.000000 1.758190 0.000000 
#    z 0.003650 0.000000 1.768070 
# 
# From -- ./inp_files/187772.got.cif
#   From: 2010.06.25/outbox.cif.g09.slc.cpg/sg12_94_cif.got.tgz:187772.got - 2010.06.28 00:19:55.
