data_PCOD8093915
_publ_section_title
;
Structure prediction by ZEFSAII (Michael W. Deem and Ramdas Pophale) SiO2 
 PCOD8093915
Probable space group: C 2/M
;
_chemical_formula_sum "Si O2"
_cell_formula_units_Z 56
_cell_length_a 19.731204
_cell_length_b 21.668007
_cell_length_c 10.023782
_cell_angle_alpha 90.000000
_cell_angle_beta 139.434558
_cell_angle_gamma 90.000000
_cell_volume 2786.946952
_symmetry_space_group_name_H-M "C 2/M"
_symmetry_group_IT_number 12
_symmetry_cell_setting 'monoclinic'
loop_
_space_group_symop_operation_xyz
x,y,z
-x,y,-z
-x,-y,-z
x,-y,z
1/2+x,1/2+y,z
1/2-x,1/2+y,-z
1/2-x,1/2-y,-z
1/2+x,1/2-y,z
loop_
_atom_site_type_symbol
_atom_site_label
_atom_site_fract_x
_atom_site_fract_y
_atom_site_fract_z
Si Si1 0.582889 0.780602 0.230992
Si Si2 0.452997 0.210068 0.295600
Si Si3 0.084159 0.500000 0.240610
Si Si4 0.222426 0.611569 0.366023
Si Si5 0.796094 0.611663 0.976750
Si Si6 0.559014 0.360441 0.214395
Si Si7 0.437715 0.000000 0.270216
Si Si8 0.425180 0.649546 0.272876
O O1 0.545311 0.790955 0.325643
O O2 0.687393 0.819518 0.357839
O O3 0.599819 0.707854 0.235119
O O4 0.500000 0.806420 0.000000
O O5 0.500000 0.178902 0.500000
O O6 0.353742 0.175750 0.088083
O O7 0.410402 0.277436 0.270679
O O8 0.152553 0.561439 0.335559
O O9 0.027193 0.500000 0.294922
O O10 0.000000 0.500000 0.000000
O O11 0.340672 0.600633 0.591043
O O12 0.216838 0.600912 0.199773
O O13 0.863723 0.558862 0.146396
O O14 0.684110 0.614134 0.880137
O O15 0.473813 0.362060 0.202245
O O16 0.500000 0.390701 0.000000
O O17 0.500000 0.000000 0.500000
O O18 0.500000 0.623045 0.500000
#
# Coordination Sequence:
#
# PCOD8093915 Si02
#       8
#     8   8   4   8   8   8   4   8
#     4  10  19  36  60  89 125 161 201 253 311 368
#     4  10  21  35  57  91 125 157 201 255 312 364
#     4  12  24  44  68  94 121 156 205 255 304 365
#     4  12  22  39  66  91 120 169 212 247 305 373
#     4  12  22  40  65  89 122 170 208 248 308 371
#     4  10  23  39  59  91 126 159 205 260 304 357
#     4  12  28  46  66  97 127 152 202 265 309 359
#     4  10  21  39  60  87 125 165 204 253 305 367
#
# _framework density 20.093674
#
# number of rings (size 3 to 8) (size 9 to 14) (size 15 to 20)
#    0.000    1.143    4.286    2.571    0.000    2.286 
#    0.000    1.429    0.000    0.000    0.000    0.000 
#    0.000    0.000    0.000    0.000    0.000    0.000 
#
# Total GULP energy -347269.631714 kJ/mol
# GULP energy per Si atom -12402.486847 kJ/mol
# Density = 2.004794 g / cm^3
# Si number density = 20.093674 Si / 1000 Ang^3
#
#
#
# Elastic Constant Matrix: (Units=GPa)
#
#
# Indices 1 2 3 4 5 6 
#
# 1 105.8603 41.5454 59.8566 0.0000 2.8618 0.0000
# 2 41.5454 62.2638 40.2446 0.0000 9.4302 0.0000
# 3 59.8566 40.2446 167.8378 0.0000 -5.0614 0.0000
# 4 0.0000 0.0000 0.0000 25.3734 0.0000 5.3725
# 5 2.8618 9.4302 -5.0614 0.0000 43.5149 0.0000
# 6 0.0000 0.0000 0.0000 5.3725 0.0000 23.9842
#
#
#
# Elastic Compliance Matrix: (Units=1/GPa)
#
#
# Indices 1 2 3 4 5 6 
#
# 1 0.014196 -0.007395 -0.003281 0.000000 0.000287 0.000000
# 2 -0.007395 0.023852 -0.003234 0.000000 -0.005059 0.000000
# 3 -0.003281 -0.003234 0.007959 0.000000 0.001843 0.000000
# 4 0.000000 0.000000 0.000000 0.041374 0.000000 -0.009268
# 5 0.000287 -0.005059 0.001843 0.000000 0.024272 0.000000
# 6 0.000000 0.000000 0.000000 -0.009268 0.000000 0.043770
#
#
# Mechanical properties :
#
#
# Convention : Reuss Voigt Hill
#
# Bulk Modulus (GPa) = 54.98662 68.80613 61.89638
# Shear Modulus (GPa) = 26.41216 31.52884 28.97050
#
# Velocity S-wave (km/s) = 3.62947 3.96548 3.80119
# Velocity P-wave (km/s) = 6.70736 7.43530 7.08069
#
# Compressibility (1/GPa) = 0.01818624
#
# Stress axis : x y z
#
# Youngs Moduli (GPa) = 70.44224 41.92525 125.63863
#
# Poissons Ratio (x) = 0.31005 0.41220
# Poissons Ratio (y) = 0.52093 0.40638
# Poissons Ratio (z) = 0.23111 0.13561
#
# Static dielectric constant tensor:
#      x y z
#    x 3.607630 0.000000 -0.067880 
#    y 0.000000 3.489250 0.000000 
#    z -0.067880 0.000000 3.796450 
# 
# 
# High freq. dielectric constant tensor:
#      x y z
#    x 1.791030 0.000000 -0.003810 
#    y 0.000000 1.761210 0.000000 
#    z -0.003810 0.000000 1.795880 
# 
# From -- ./inp_files/80134.got.cif
#   From: 2010.06.25/outbox.cif.g09.slc.cpg/sg12_41_cif.got.tgz:80134.got - 2010.06.28 00:19:55.
