data_PCOD8093768
_publ_section_title
;
Structure prediction by ZEFSAII (Michael W. Deem and Ramdas Pophale) SiO2 
 PCOD8093768
Probable space group: C 2/M
;
_chemical_formula_sum "Si O2"
_cell_formula_units_Z 56
_cell_length_a 19.133424
_cell_length_b 8.973414
_cell_length_c 27.604641
_cell_angle_alpha 90.000000
_cell_angle_beta 141.161706
_cell_angle_gamma 90.000000
_cell_volume 2972.256629
_symmetry_space_group_name_H-M "C 2/M"
_symmetry_group_IT_number 12
_symmetry_cell_setting 'monoclinic'
loop_
_space_group_symop_operation_xyz
x,y,z
-x,y,-z
-x,-y,-z
x,-y,z
1/2+x,1/2+y,z
1/2-x,1/2+y,-z
1/2-x,1/2-y,-z
1/2+x,1/2-y,z
loop_
_atom_site_type_symbol
_atom_site_label
_atom_site_fract_x
_atom_site_fract_y
_atom_site_fract_z
Si Si1 0.742702 0.675285 0.144211
Si Si2 0.826346 0.176150 0.000737
Si Si3 0.363845 0.175164 0.546879
Si Si4 0.921603 0.175530 0.860040
Si Si5 0.921655 0.175192 0.301666
Si Si6 0.379757 0.666115 0.458062
Si Si7 0.745655 0.672872 0.704332
O O1 0.764897 0.500000 0.161394
O O2 0.639645 0.724227 0.123154
O O3 0.853841 0.763662 0.219040
O O4 0.716469 0.722043 0.075370
O O5 0.952597 0.237369 0.073144
O O6 0.822123 0.000000 0.005530
O O7 0.750000 0.250000 0.000000
O O8 0.250000 0.250000 0.500000
O O9 0.460046 0.243264 0.632527
O O10 0.382935 0.210557 0.500986
O O11 0.359738 0.000000 0.552991
O O12 0.856730 0.238225 0.778362
O O13 0.923395 0.000000 0.856934
O O14 0.855638 0.216506 0.314952
O O15 0.941280 0.000000 0.306668
O O16 0.500000 0.658136 0.500000
O O17 0.350731 0.500000 0.462781
O O18 0.288811 0.714316 0.368868
O O19 0.773109 0.500000 0.724628
#
# Coordination Sequence:
#
# PCOD8093768 Si02
#       7
#     8   8   8   8   8   8   8
#     4   9  18  35  59  84 107 141 188 234 277 327
#     4  10  21  37  56  80 113 149 182 223 280 337
#     4  12  25  40  58  83 115 153 196 238 284 337
#     4   9  18  34  57  82 109 142 186 233 273 321
#     4  10  19  36  59  85 115 147 185 232 286 337
#     4  10  19  37  61  84 115 153 189 232 286 336
#     4   9  18  33  57  86 114 145 182 229 284 332
#
# _framework density 18.840903000000001
#
# number of rings (size 3 to 8) (size 9 to 14) (size 15 to 20)
#    0.000    2.143    1.429    2.143    0.000    4.286 
#    2.571    0.000    0.000    4.286    0.000    0.000 
#    0.000    0.000    0.000    0.000    0.000    0.000 
#
# Total GULP energy -347232.641465 kJ/mol
# GULP energy per Si atom -12401.165767 kJ/mol
# Density = 1.879802 g / cm^3
# Si number density = 18.840903 Si / 1000 Ang^3
#
#
#
# Elastic Constant Matrix: (Units=GPa)
#
#
# Indices 1 2 3 4 5 6 
#
# 1 81.4076 35.8161 71.9656 0.0000 9.4862 -0.0001
# 2 35.8161 73.7705 62.9182 0.0001 10.0732 -0.0004
# 3 71.9656 62.9182 173.1547 0.0000 12.9077 0.0000
# 4 0.0000 0.0001 0.0000 34.4866 0.0000 0.3823
# 5 9.4862 10.0732 12.9077 0.0000 29.0701 0.0000
# 6 -0.0001 -0.0004 0.0000 0.3823 0.0000 28.4901
#
#
#
# Elastic Compliance Matrix: (Units=1/GPa)
#
#
# Indices 1 2 3 4 5 6 
#
# 1 0.020278 -0.003609 -0.006946 0.000000 -0.002282 0.000000
# 2 -0.003609 0.020692 -0.005763 0.000000 -0.003433 0.000000
# 3 -0.006946 -0.005763 0.010796 0.000000 -0.000530 0.000000
# 4 0.000000 0.000000 0.000000 0.029001 0.000000 -0.000389
# 5 -0.002282 -0.003433 -0.000530 0.000000 0.036569 0.000000
# 6 0.000000 0.000000 0.000000 -0.000389 0.000000 0.035105
#
#
# Mechanical properties :
#
#
# Convention : Reuss Voigt Hill
#
# Bulk Modulus (GPa) = 52.27588 74.41472 63.34530
# Shear Modulus (GPa) = 26.11592 28.91823 27.51707
#
# Velocity S-wave (km/s) = 3.72711 3.92198 3.82579
# Velocity P-wave (km/s) = 6.80647 7.75186 7.29450
#
# Compressibility (1/GPa) = 0.01912928
#
# Stress axis : x y z
#
# Youngs Moduli (GPa) = 49.31334 48.32898 92.62978
#
# Poissons Ratio (x) = 0.17442 0.64345
# Poissons Ratio (y) = 0.17798 0.53379
# Poissons Ratio (z) = 0.34255 0.27850
#
# Static dielectric constant tensor:
#      x y z
#    x 3.311830 0.000000 0.087000 
#    y 0.000000 3.545710 0.000000 
#    z 0.087000 0.000000 3.658870 
# 
# 
# High freq. dielectric constant tensor:
#      x y z
#    x 1.713330 0.000000 0.001370 
#    y 0.000000 1.724950 0.000000 
#    z 0.001370 0.000000 1.748800 
# 
# From -- ./inp_files/363227.got.cif
#   From: 2010.06.25/outbox.cif.g09.slc.cpg/sg12_182_cif.got.tgz:363227.got - 2010.06.28 00:19:55.
