data_PCOD8093393
_publ_section_title
;
Structure prediction by ZEFSAII (Michael W. Deem and Ramdas Pophale) SiO2 
 PCOD8093393
Probable space group: C 2/M
;
_chemical_formula_sum "Si O2"
_cell_formula_units_Z 64
_cell_length_a 14.417699
_cell_length_b 17.396561
_cell_length_c 17.142354
_cell_angle_alpha 90.000000
_cell_angle_beta 133.188158
_cell_angle_gamma 90.000000
_cell_volume 3134.894498
_symmetry_space_group_name_H-M "C 2/M"
_symmetry_group_IT_number 12
_symmetry_cell_setting 'monoclinic'
loop_
_space_group_symop_operation_xyz
x,y,z
-x,y,-z
-x,-y,-z
x,-y,z
1/2+x,1/2+y,z
1/2-x,1/2+y,-z
1/2-x,1/2-y,-z
1/2+x,1/2-y,z
loop_
_atom_site_type_symbol
_atom_site_label
_atom_site_fract_x
_atom_site_fract_y
_atom_site_fract_z
Si Si1 0.463996 0.224078 0.848629
Si Si2 0.260344 0.089095 0.236223
Si Si3 0.473926 0.844857 0.570912
Si Si4 0.957015 0.213271 0.671592
Si Si5 0.239665 0.813878 0.831421
Si Si6 0.159498 0.590485 0.983516
Si Si7 0.669778 0.327281 0.039055
Si Si8 0.778341 0.084795 0.609054
O O1 0.449368 0.248792 0.751770
O O2 0.324858 0.212365 0.806995
O O3 0.535632 0.141901 0.894130
O O4 0.532599 0.292989 0.936030
O O5 0.401639 0.125021 0.312277
O O6 0.165769 0.128020 0.119519
O O7 0.202765 0.103471 0.288445
O O8 0.272644 0.000000 0.223573
O O9 0.500000 0.811855 0.500000
O O10 0.412268 0.776443 0.584361
O O11 0.369675 0.912120 0.501064
O O12 0.860416 0.143408 0.606578
O O13 0.093245 0.178512 0.723831
O O14 0.240351 0.747877 0.899629
O O15 0.293782 0.892294 0.901013
O O16 0.127605 0.500000 0.956430
O O17 0.274584 0.613946 0.992366
O O18 0.828937 0.000000 0.620054
#
# Coordination Sequence:
#
# PCOD8093393 Si02
#       8
#     8   8   8   8   8   8   8   8
#     4  11  23  39  63  87 124 166 208 256 297 355
#     4  10  19  35  62  93 124 159 201 251 314 374
#     4  10  21  39  65  96 119 154 204 262 312 369
#     4  12  22  41  65  93 120 159 212 250 307 374
#     4  11  22  38  60  83 118 163 207 255 298 351
#     4  11  21  36  57  84 123 169 209 249 296 350
#     4  11  18  37  57  91 122 160 203 251 301 355
#     4  10  23  40  60  90 127 159 195 257 324 373
#
# _framework density 20.41536
#
# number of rings (size 3 to 8) (size 9 to 14) (size 15 to 20)
#    0.000    1.250    3.750    4.125    1.750    3.000 
#    0.000    0.625    0.000    4.875    0.000    0.000 
#    0.000    0.000    0.000    0.000    0.000    0.000 
#
# Total GULP energy -396763.732293 kJ/mol
# GULP energy per Si atom -12398.866634 kJ/mol
# Density = 2.036889 g / cm^3
# Si number density = 20.415360 Si / 1000 Ang^3
#
#
#
# Elastic Constant Matrix: (Units=GPa)
#
#
# Indices 1 2 3 4 5 6 
#
# 1 98.5773 53.9470 36.0204 0.0000 8.7605 0.0000
# 2 53.9470 130.4856 32.8930 0.0000 -5.4311 0.0000
# 3 36.0204 32.8930 66.4469 0.0000 -8.9874 0.0000
# 4 0.0000 0.0000 0.0000 22.2749 0.0000 -1.1279
# 5 8.7605 -5.4311 -8.9874 0.0000 21.0868 0.0000
# 6 0.0000 0.0000 0.0000 -1.1279 0.0000 28.8514
#
#
#
# Elastic Compliance Matrix: (Units=1/GPa)
#
#
# Indices 1 2 3 4 5 6 
#
# 1 0.017289 -0.005572 -0.008255 0.000000 -0.012136 0.000000
# 2 -0.005572 0.010556 -0.001617 0.000000 0.004344 0.000000
# 3 -0.008255 -0.001617 0.022001 0.000000 0.012390 0.000000
# 4 0.000000 0.000000 0.000000 0.044983 0.000000 0.001758
# 5 -0.012136 0.004344 0.012390 0.000000 0.058865 0.000000
# 6 0.000000 0.000000 0.000000 0.001758 0.000000 0.034729
#
#
# Mechanical properties :
#
#
# Convention : Reuss Voigt Hill
#
# Bulk Modulus (GPa) = 52.75195 60.13674 56.44435
# Shear Modulus (GPa) = 22.16019 25.95258 24.05638
#
# Velocity S-wave (km/s) = 3.29822 3.56930 3.43643
# Velocity P-wave (km/s) = 6.35608 6.81961 6.59192
#
# Compressibility (1/GPa) = 0.01895665
#
# Stress axis : x y z
#
# Youngs Moduli (GPa) = 57.84186 94.73509 45.45186
#
# Poissons Ratio (x) = 0.52784 0.37522
# Poissons Ratio (y) = 0.32228 0.07351
# Poissons Ratio (z) = 0.47750 0.15322
#
# Static dielectric constant tensor:
#      x y z
#    x 3.673760 0.000000 -0.005960 
#    y 0.000000 3.664060 0.000000 
#    z -0.005960 0.000000 3.586660 
# 
# 
# High freq. dielectric constant tensor:
#      x y z
#    x 1.797570 0.000000 0.002640 
#    y 0.000000 1.790430 0.000000 
#    z 0.002640 0.000000 1.785920 
# 
# From -- ./inp_files/271767.got.cif
#   From: 2010.06.25/outbox.cif.g09.slc.cpg/sg12_136_cif.got.tgz:271767.got - 2010.06.28 00:19:55.
