data_PCOD8093658
_publ_section_title
;
Structure prediction by ZEFSAII (Michael W. Deem and Ramdas Pophale) SiO2 
 PCOD8093658
Probable space group: C 2/M
;
_chemical_formula_sum "Si O2"
_cell_formula_units_Z 56
_cell_length_a 18.402139
_cell_length_b 12.366365
_cell_length_c 13.969272
_cell_angle_alpha 90.000000
_cell_angle_beta 61.044195
_cell_angle_gamma 90.000000
_cell_volume 2781.563126
_symmetry_space_group_name_H-M "C 2/M"
_symmetry_group_IT_number 12
_symmetry_cell_setting 'monoclinic'
loop_
_space_group_symop_operation_xyz
x,y,z
-x,y,-z
-x,-y,-z
x,-y,z
1/2+x,1/2+y,z
1/2-x,1/2+y,-z
1/2-x,1/2-y,-z
1/2+x,1/2-y,z
loop_
_atom_site_type_symbol
_atom_site_label
_atom_site_fract_x
_atom_site_fract_y
_atom_site_fract_z
Si Si1 0.496212 0.619158 0.610287
Si Si2 0.125597 0.725160 0.600878
Si Si3 0.257482 0.869995 0.622624
Si Si4 0.145332 0.882887 0.166738
Si Si5 0.446395 0.307843 0.951910
Si Si6 0.424063 0.877889 0.180291
Si Si7 0.711699 0.754976 0.839854
O O1 0.500000 0.656607 0.500000
O O2 0.537244 0.500000 0.597599
O O3 0.541447 0.710937 0.640166
O O4 0.400081 0.615461 0.702018
O O5 0.186923 0.816543 0.602687
O O6 0.157092 0.667556 0.483319
O O7 0.102063 0.633787 0.692575
O O8 0.251067 0.825751 0.735535
O O9 0.249874 0.000000 0.628831
O O10 0.069483 0.863926 0.139468
O O11 0.217790 0.795248 0.131100
O O12 0.185450 0.000000 0.119039
O O13 0.498391 0.196929 0.901388
O O14 0.500000 0.372323 0.000000
O O15 0.352928 0.303884 0.050363
O O16 0.339353 0.852244 0.176626
O O17 0.452057 0.000000 0.142362
#
# Coordination Sequence:
#
# PCOD8093658 Si02
#       7
#     8   8   8   8   8   8   8
#     4  10  20  34  57  84 115 155 193 239 297 353
#     4  10  19  36  58  84 121 153 197 252 288 357
#     4  10  21  36  59  87 118 158 197 245 303 351
#     4  11  22  38  60  86 118 155 198 245 299 355
#     4  10  22  40  59  87 119 156 199 249 299 352
#     4  10  20  37  62  88 116 157 205 247 296 352
#     4  10  22  38  59  86 121 155 197 251 292 354
#
# _framework density 20.132563000000001
#
# number of rings (size 3 to 8) (size 9 to 14) (size 15 to 20)
#    0.000    1.857    1.429    2.571    0.000    4.000 
#    0.000    5.000    0.000    1.714    0.000    0.000 
#    0.000    0.000    0.000    0.000    0.000    0.000 
#
# Total GULP energy -346869.525100 kJ/mol
# GULP energy per Si atom -12388.197325 kJ/mol
# Density = 2.008674 g / cm^3
# Si number density = 20.132563 Si / 1000 Ang^3
#
#
#
# Elastic Constant Matrix: (Units=GPa)
#
#
# Indices 1 2 3 4 5 6 
#
# 1 92.2917 26.0379 20.1140 0.0000 4.9174 0.0000
# 2 26.0379 90.0730 13.6901 0.0000 6.1900 0.0000
# 3 20.1140 13.6901 102.5552 0.0000 -0.8723 0.0000
# 4 0.0000 0.0000 0.0000 7.1420 0.0000 -5.5661
# 5 4.9174 6.1900 -0.8723 0.0000 23.7938 0.0000
# 6 0.0000 0.0000 0.0000 -5.5661 0.0000 19.4385
#
#
#
# Elastic Compliance Matrix: (Units=1/GPa)
#
#
# Indices 1 2 3 4 5 6 
#
# 1 0.012245 -0.003112 -0.002001 0.000000 -0.001794 0.000000
# 2 -0.003112 0.012342 -0.001059 0.000000 -0.002606 0.000000
# 3 -0.002001 -0.001059 0.010294 0.000000 0.001067 0.000000
# 4 0.000000 0.000000 0.000000 0.180241 0.000000 0.051611
# 5 -0.001794 -0.002606 0.001067 0.000000 0.043116 0.000000
# 6 0.000000 0.000000 0.000000 0.051611 0.000000 0.066223
#
#
# Mechanical properties :
#
#
# Convention : Reuss Voigt Hill
#
# Bulk Modulus (GPa) = 44.37559 44.95600 44.66579
# Shear Modulus (GPa) = 14.52148 25.08004 19.80076
#
# Velocity S-wave (km/s) = 2.68860 3.53334 3.13951
# Velocity P-wave (km/s) = 5.63273 6.24696 5.94778
#
# Compressibility (1/GPa) = 0.02253491
#
# Stress axis : x y z
#
# Youngs Moduli (GPa) = 81.66563 81.02482 97.14529
#
# Poissons Ratio (x) = 0.25217 0.19443
# Poissons Ratio (y) = 0.25416 0.10290
# Poissons Ratio (z) = 0.16345 0.08583
#
# Static dielectric constant tensor:
#      x y z
#    x 3.651870 0.000000 0.100690 
#    y 0.000000 3.391990 0.000000 
#    z 0.100690 0.000000 3.930860 
# 
# 
# High freq. dielectric constant tensor:
#      x y z
#    x 1.771370 0.000000 0.002100 
#    y 0.000000 1.765860 0.000000 
#    z 0.002100 0.000000 1.810800 
# 
# From -- ./inp_files/223720.got.cif
#   From: 2010.06.25/outbox.cif.g09.slc.cpg/sg12_112_cif.got.tgz:223720.got - 2010.06.28 00:19:55.
