data_PCOD8093655
_publ_section_title
;
Structure prediction by ZEFSAII (Michael W. Deem and Ramdas Pophale) SiO2 
 PCOD8093655
Probable space group: C 2/M
;
_chemical_formula_sum "Si O2"
_cell_formula_units_Z 48
_cell_length_a 26.946237
_cell_length_b 13.740853
_cell_length_c 14.488499
_cell_angle_alpha 90.000000
_cell_angle_beta 152.860538
_cell_angle_gamma 90.000000
_cell_volume 2447.092800
_symmetry_space_group_name_H-M "C 2/M"
_symmetry_group_IT_number 12
_symmetry_cell_setting 'monoclinic'
loop_
_space_group_symop_operation_xyz
x,y,z
-x,y,-z
-x,-y,-z
x,-y,z
1/2+x,1/2+y,z
1/2-x,1/2+y,-z
1/2-x,1/2-y,-z
1/2+x,1/2-y,z
loop_
_atom_site_type_symbol
_atom_site_label
_atom_site_fract_x
_atom_site_fract_y
_atom_site_fract_z
Si Si1 0.128173 0.893098 0.722468
Si Si2 0.360186 0.217446 0.122122
Si Si3 0.609542 0.000000 0.560122
Si Si4 0.525236 0.111229 0.940114
Si Si5 0.912294 0.312538 0.577795
Si Si6 0.645541 0.000000 0.825491
Si Si7 0.254736 0.175626 0.770974
O O1 0.171842 0.796952 0.852130
O O2 0.173607 0.893999 0.693430
O O3 0.000000 0.886700 0.500000
O O4 0.159742 0.000000 0.821214
O O5 0.490975 0.217486 0.332758
O O6 0.313949 0.104403 0.063571
O O7 0.312520 0.246799 0.942836
O O8 0.644224 0.091904 0.556851
O O9 0.671897 0.000000 0.760617
O O10 0.481516 0.000000 0.364699
O O11 0.456399 0.174293 0.753983
O O12 0.487250 0.000000 0.868351
O O13 0.500000 0.152393 0.000000
O O14 0.653889 0.116416 0.133145
O O15 0.817108 0.233086 0.422669
#
# Coordination Sequence:
#
# PCOD8093655 Si02
#       7
#     8   8   4   8   8   4   8
#     4  11  22  36  52  77 123 167 197 232 282 356
#     4  10  21  36  53  83 117 160 204 244 287 343
#     4   9  16  28  51  80 108 152 186 238 294 325
#     4  10  22  41  64  89 113 143 194 257 315 362
#     4  10  19  36  58  84 117 146 195 251 293 357
#     4   9  18  28  54  78 114 153 199 251 282 324
#     4  11  22  36  59  85 115 155 196 244 294 352
#
# _framework density 19.615112
#
# number of rings (size 3 to 8) (size 9 to 14) (size 15 to 20)
#    0.000    1.833    2.500    2.000    7.000    0.667 
#    1.500    0.000    0.000    0.000    0.000    0.583 
#    0.000    0.000    0.000    0.000    0.000    0.000 
#
# Total GULP energy -297509.827381 kJ/mol
# GULP energy per Si atom -12396.242808 kJ/mol
# Density = 1.957047 g / cm^3
# Si number density = 19.615112 Si / 1000 Ang^3
#
#
#
# Elastic Constant Matrix: (Units=GPa)
#
#
# Indices 1 2 3 4 5 6 
#
# 1 117.9809 30.6890 36.8184 0.0000 -9.4289 0.0000
# 2 30.6890 99.1733 59.1484 0.0000 -10.6235 0.0000
# 3 36.8184 59.1484 89.9113 0.0000 -7.9156 0.0000
# 4 0.0000 0.0000 0.0000 41.1715 0.0000 0.3306
# 5 -9.4289 -10.6235 -7.9156 0.0000 26.7119 0.0000
# 6 0.0000 0.0000 0.0000 0.3306 0.0000 22.7348
#
#
#
# Elastic Compliance Matrix: (Units=1/GPa)
#
#
# Indices 1 2 3 4 5 6 
#
# 1 0.009903 -0.000867 -0.003293 0.000000 0.002175 0.000000
# 2 -0.000867 0.016987 -0.010526 0.000000 0.003330 0.000000
# 3 -0.003293 -0.010526 0.019431 0.000000 0.000409 0.000000
# 4 0.000000 0.000000 0.000000 0.024291 0.000000 -0.000353
# 5 0.002175 0.003330 0.000409 0.000000 0.039650 0.000000
# 6 0.000000 0.000000 0.000000 -0.000353 0.000000 0.043991
#
#
# Mechanical properties :
#
#
# Convention : Reuss Voigt Hill
#
# Bulk Modulus (GPa) = 59.00650 62.26413 60.63532
# Shear Modulus (GPa) = 26.41647 30.15093 28.28370
#
# Velocity S-wave (km/s) = 3.67378 3.92488 3.80140
# Velocity P-wave (km/s) = 6.93852 7.23543 7.08853
#
# Compressibility (1/GPa) = 0.01694728
#
# Stress axis : x y z
#
# Youngs Moduli (GPa) = 100.97849 58.87018 51.46312
#
# Poissons Ratio (x) = 0.05107 0.16948
# Poissons Ratio (y) = 0.08759 0.54171
# Poissons Ratio (z) = 0.33254 0.61968
#
# Static dielectric constant tensor:
#      x y z
#    x 3.380870 0.000000 0.086860 
#    y 0.000000 3.672290 0.000000 
#    z 0.086860 0.000000 3.808150 
# 
# 
# High freq. dielectric constant tensor:
#      x y z
#    x 1.731430 0.000000 0.011900 
#    y 0.000000 1.759630 0.000000 
#    z 0.011900 0.000000 1.789070 
# 
# From -- ./inp_files/246030.got.cif
#   From: 2010.06.25/outbox.cif.g09.slc.cpg/sg12_124_cif.got.tgz:246030.got - 2010.06.28 00:19:55.
