data_PCOD8093968
_publ_section_title
;
Structure prediction by ZEFSAII (Michael W. Deem and Ramdas Pophale) SiO2 
 PCOD8093968
Probable space group: C 2/M
;
_chemical_formula_sum "Si O2"
_cell_formula_units_Z 56
_cell_length_a 19.497013
_cell_length_b 8.699283
_cell_length_c 16.622215
_cell_angle_alpha 90.000000
_cell_angle_beta 107.332446
_cell_angle_gamma 90.000000
_cell_volume 2691.276619
_symmetry_space_group_name_H-M "C 2/M"
_symmetry_group_IT_number 12
_symmetry_cell_setting 'monoclinic'
loop_
_space_group_symop_operation_xyz
x,y,z
-x,y,-z
-x,-y,-z
x,-y,z
1/2+x,1/2+y,z
1/2-x,1/2+y,-z
1/2-x,1/2-y,-z
1/2+x,1/2-y,z
loop_
_atom_site_type_symbol
_atom_site_label
_atom_site_fract_x
_atom_site_fract_y
_atom_site_fract_z
Si Si1 0.374597 0.676701 0.065760
Si Si2 0.028394 0.176527 0.188255
Si Si3 0.172582 0.181278 0.490904
Si Si4 0.814939 0.322401 0.199940
Si Si5 0.653108 0.679153 0.120618
Si Si6 0.540597 0.179812 0.360964
Si Si7 0.098210 0.820150 0.628283
O O1 0.348833 0.500000 0.065768
O O2 0.459703 0.689447 0.107169
O O3 0.332952 0.781084 0.114894
O O4 0.355276 0.748197 0.971879
O O5 0.095280 0.248542 0.162451
O O6 0.015565 0.278164 0.262583
O O7 0.042097 0.000000 0.219386
O O8 0.250000 0.250000 0.500000
O O9 0.116156 0.238436 0.404904
O O10 0.145398 0.236012 0.569163
O O11 0.178863 0.000000 0.488037
O O12 0.833830 0.500000 0.223242
O O13 0.731091 0.288677 0.184805
O O14 0.859397 0.216124 0.275448
O O15 0.636047 0.500000 0.105935
O O16 0.478673 0.235530 0.400658
O O17 0.551233 0.000000 0.374184
O O18 0.082356 0.000000 0.618663
#
# Coordination Sequence:
#
# PCOD8093968 Si02
#       7
#     8   8   8   8   8   8   8
#     4  10  19  36  61  86 119 163 213 260 308 370
#     4  10  20  37  62  89 121 165 212 260 309 366
#     4  11  26  46  70  99 131 163 203 252 308 370
#     4  11  22  36  58  89 126 163 206 258 310 370
#     4   9  20  36  57  88 121 164 213 257 310 368
#     4  12  25  42  66  96 129 165 208 256 310 371
#     4  11  24  44  67  92 123 165 212 256 307 370
#
# _framework density 20.807967999999999
#
# number of rings (size 3 to 8) (size 9 to 14) (size 15 to 20)
#    0.000    1.429    1.429    3.857    2.000    5.714 
#    0.000    2.143    0.000    1.714    0.000    0.000 
#    0.000    0.000    0.000    0.000    0.000    0.000 
#
# Total GULP energy -347360.482654 kJ/mol
# GULP energy per Si atom -12405.731523 kJ/mol
# Density = 2.076061 g / cm^3
# Si number density = 20.807968 Si / 1000 Ang^3
#
#
#
# Elastic Constant Matrix: (Units=GPa)
#
#
# Indices 1 2 3 4 5 6 
#
# 1 126.7833 34.1518 19.8131 0.0000 -0.1277 0.0000
# 2 34.1518 60.5208 18.2997 0.0000 -0.1405 0.0000
# 3 19.8131 18.2997 73.3588 0.0000 0.7952 0.0000
# 4 0.0000 0.0000 0.0000 21.1321 0.0000 -0.0247
# 5 -0.1277 -0.1405 0.7952 0.0000 35.2894 0.0000
# 6 0.0000 0.0000 0.0000 -0.0247 0.0000 29.9017
#
#
#
# Elastic Compliance Matrix: (Units=1/GPa)
#
#
# Indices 1 2 3 4 5 6 
#
# 1 0.009418 -0.004916 -0.001318 0.000000 0.000044 0.000000
# 2 -0.004916 0.020438 -0.003772 0.000000 0.000149 0.000000
# 3 -0.001318 -0.003772 0.014932 0.000000 -0.000356 0.000000
# 4 0.000000 0.000000 0.000000 0.047321 0.000000 0.000039
# 5 0.000044 0.000149 -0.000356 0.000000 0.028346 0.000000
# 6 0.000000 0.000000 0.000000 0.000039 0.000000 0.033443
#
#
# Mechanical properties :
#
#
# Convention : Reuss Voigt Hill
#
# Bulk Modulus (GPa) = 40.36088 45.02133 42.69111
# Shear Modulus (GPa) = 27.44701 29.82452 28.63576
#
# Velocity S-wave (km/s) = 3.63583 3.79003 3.71373
# Velocity P-wave (km/s) = 6.08807 6.39031 6.24102
#
# Compressibility (1/GPa) = 0.02477646
#
# Stress axis : x y z
#
# Youngs Moduli (GPa) = 106.18384 48.92799 66.96840
#
# Poissons Ratio (x) = 0.24052 0.08825
# Poissons Ratio (y) = 0.52198 0.25263
# Poissons Ratio (z) = 0.13993 0.18457
#
# Static dielectric constant tensor:
#      x y z
#    x 3.967850 0.000000 -0.085160 
#    y 0.000000 3.559590 0.000000 
#    z -0.085160 0.000000 3.795990 
# 
# 
# High freq. dielectric constant tensor:
#      x y z
#    x 1.829950 0.000000 0.001550 
#    y 0.000000 1.795550 0.000000 
#    z 0.001550 0.000000 1.820940 
# 
# From -- ./inp_files/275586.got.cif
#   From: 2010.06.25/outbox.cif.g09.slc.cpg/sg12_138_cif.got.tgz:275586.got - 2010.06.28 00:19:55.
