data_PCOD8093668
_publ_section_title
;
Structure prediction by ZEFSAII (Michael W. Deem and Ramdas Pophale) SiO2 
 PCOD8093668
Probable space group: C 2/M
;
_chemical_formula_sum "Si O2"
_cell_formula_units_Z 56
_cell_length_a 20.720007
_cell_length_b 18.127128
_cell_length_c 11.616147
_cell_angle_alpha 90.000000
_cell_angle_beta 39.586710
_cell_angle_gamma 90.000000
_cell_volume 2780.274040
_symmetry_space_group_name_H-M "C 2/M"
_symmetry_group_IT_number 12
_symmetry_cell_setting 'monoclinic'
loop_
_space_group_symop_operation_xyz
x,y,z
-x,y,-z
-x,-y,-z
x,-y,z
1/2+x,1/2+y,z
1/2-x,1/2+y,-z
1/2-x,1/2-y,-z
1/2+x,1/2-y,z
loop_
_atom_site_type_symbol
_atom_site_label
_atom_site_fract_x
_atom_site_fract_y
_atom_site_fract_z
Si Si1 0.320212 0.086069 0.451742
Si Si2 0.555187 0.085254 0.122233
Si Si3 0.256279 0.306330 0.253559
Si Si4 0.772868 0.360074 0.269750
Si Si5 0.149253 0.207797 0.094539
Si Si6 0.911060 0.661173 0.703053
Si Si7 0.387998 0.584545 0.685826
O O1 0.437837 0.111199 0.290144
O O2 0.252276 0.132615 0.635718
O O3 0.273248 0.101381 0.392405
O O4 0.310283 0.000000 0.497354
O O5 0.606805 0.098080 0.176012
O O6 0.562720 0.000000 0.076651
O O7 0.616887 0.131643 0.941909
O O8 0.240093 0.225369 0.329449
O O9 0.182412 0.328913 0.252157
O O10 0.359451 0.301996 0.033480
O O11 0.687533 0.402020 0.315485
O O12 0.061436 0.262631 0.264594
O O13 0.146499 0.127823 0.154093
O O14 0.250000 0.250000 0.000000
O O15 0.000000 0.634251 0.500000
O O16 0.500000 0.611405 0.500000
O O17 0.386885 0.500000 0.723074
#
# Coordination Sequence:
#
# PCOD8093668 Si02
#       7
#     8   8   8   8   8   8   8
#     4  11  25  41  61  91 127 165 203 248 305 366
#     4  11  23  39  63  94 125 162 203 246 309 370
#     4  11  22  37  60  90 121 159 205 245 301 368
#     4  12  22  42  62  87 124 165 208 251 295 360
#     4  10  19  36  58  87 117 153 194 246 307 353
#     4  11  19  35  61  86 125 157 192 255 303 353
#     4  11  23  38  62  92 117 154 207 255 305 356
#
# _framework density 20.1419
#
# number of rings (size 3 to 8) (size 9 to 14) (size 15 to 20)
#    0.000    1.000    5.714    3.429    0.000    2.571 
#    0.000    0.000    0.000    0.000    0.000    3.000 
#    0.000    0.000    0.000    0.000    0.000    0.000 
#
# Total GULP energy -346969.796908 kJ/mol
# GULP energy per Si atom -12391.778461 kJ/mol
# Density = 2.009606 g / cm^3
# Si number density = 20.141900 Si / 1000 Ang^3
#
#
#
# Elastic Constant Matrix: (Units=GPa)
#
#
# Indices 1 2 3 4 5 6 
#
# 1 48.5993 13.7920 22.2612 0.0000 12.4670 0.0000
# 2 13.7920 89.0391 40.5661 0.0000 6.5108 0.0000
# 3 22.2612 40.5661 102.0734 0.0000 29.1412 0.0000
# 4 0.0000 0.0000 0.0000 36.5353 0.0000 11.1658
# 5 12.4670 6.5108 29.1412 0.0000 30.9179 0.0000
# 6 0.0000 0.0000 0.0000 11.1658 0.0000 24.6044
#
#
#
# Elastic Compliance Matrix: (Units=1/GPa)
#
#
# Indices 1 2 3 4 5 6 
#
# 1 0.024076 -0.002119 -0.002414 0.000000 -0.006986 0.000000
# 2 -0.002119 0.014118 -0.006217 0.000000 0.003741 0.000000
# 3 -0.002414 -0.006217 0.016613 0.000000 -0.013375 0.000000
# 4 0.000000 0.000000 0.000000 0.031778 0.000000 -0.014421
# 5 -0.006986 0.003741 -0.013375 0.000000 0.046980 0.000000
# 6 0.000000 0.000000 0.000000 -0.014421 0.000000 0.047188
#
#
# Mechanical properties :
#
#
# Convention : Reuss Voigt Hill
#
# Bulk Modulus (GPa) = 30.02330 43.66117 36.84223
# Shear Modulus (GPa) = 23.43532 29.28435 26.35984
#
# Velocity S-wave (km/s) = 3.41473 3.81714 3.62153
# Velocity P-wave (km/s) = 5.52136 6.41493 5.98484
#
# Compressibility (1/GPa) = 0.03330747
#
# Stress axis : x y z
#
# Youngs Moduli (GPa) = 41.53574 70.83183 60.19550
#
# Poissons Ratio (x) = 0.15006 0.14532
# Poissons Ratio (y) = 0.08800 0.37421
# Poissons Ratio (z) = 0.10027 0.44034
#
# Static dielectric constant tensor:
#      x y z
#    x 3.550550 0.000000 0.015810 
#    y 0.000000 3.809550 0.000000 
#    z 0.015810 0.000000 4.202970 
# 
# 
# High freq. dielectric constant tensor:
#      x y z
#    x 1.758650 0.000000 0.015170 
#    y 0.000000 1.790550 0.000000 
#    z 0.015170 0.000000 1.796600 
# 
# From -- ./inp_files/177059.got.cif
#   From: 2010.06.25/outbox.cif.g09.slc.cpg/sg12_89_cif.got.tgz:177059.got - 2010.06.28 00:19:55.
