data_PCOD8093698
_publ_section_title
;
Structure prediction by ZEFSAII (Michael W. Deem and Ramdas Pophale) SiO2 
 PCOD8093698
Probable space group: C 2/M
;
_chemical_formula_sum "Si O2"
_cell_formula_units_Z 56
_cell_length_a 25.562611
_cell_length_b 8.873677
_cell_length_c 14.663619
_cell_angle_alpha 90.000000
_cell_angle_beta 112.894936
_cell_angle_gamma 90.000000
_cell_volume 3064.172825
_symmetry_space_group_name_H-M "C 2/M"
_symmetry_group_IT_number 12
_symmetry_cell_setting 'monoclinic'
loop_
_space_group_symop_operation_xyz
x,y,z
-x,y,-z
-x,-y,-z
x,-y,z
1/2+x,1/2+y,z
1/2-x,1/2+y,-z
1/2-x,1/2-y,-z
1/2+x,1/2-y,z
loop_
_atom_site_type_symbol
_atom_site_label
_atom_site_fract_x
_atom_site_fract_y
_atom_site_fract_z
Si Si1 0.132511 0.170240 0.198788
Si Si2 0.158920 0.829467 0.020371
Si Si3 0.966661 0.179598 0.739501
Si Si4 0.363047 0.675689 0.317559
Si Si5 0.265010 0.822896 0.797052
Si Si6 0.449068 0.676139 0.525199
Si Si7 0.914595 0.677813 0.179231
O O1 0.116426 0.172708 0.079621
O O2 0.081230 0.238776 0.222858
O O3 0.190495 0.267800 0.251050
O O4 0.145449 0.000000 0.240074
O O5 0.218818 0.756903 0.095345
O O6 0.169408 0.000000 0.993038
O O7 0.134287 0.731734 0.922143
O O8 0.949221 0.242063 0.627584
O O9 0.026013 0.249965 0.810947
O O10 0.972231 0.000000 0.747414
O O11 0.369271 0.500000 0.296169
O O12 0.297842 0.727680 0.274670
O O13 0.389020 0.708851 0.435216
O O14 0.399158 0.770132 0.270067
O O15 0.269617 0.000000 0.812865
O O16 0.500000 0.748796 0.500000
O O17 0.460845 0.500000 0.542231
O O18 0.919553 0.500000 0.178774
#
# Coordination Sequence:
#
# PCOD8093698 Si02
#       7
#     8   8   8   8   8   8   8
#     4   8  18  35  56  78 105 144 182 219 263 315
#     4   9  19  37  56  76 106 143 184 219 261 321
#     4  10  19  36  59  80 107 142 184 224 260 316
#     4  10  20  36  57  81 108 144 183 218 264 319
#     4   9  18  34  56  79 109 141 177 224 267 311
#     4   9  16  31  58  83 104 138 182 222 257 310
#     4  12  24  34  51  83 112 141 177 222 277 321
#
# _framework density 18.275732999999999
#
# number of rings (size 3 to 8) (size 9 to 14) (size 15 to 20)
#    0.857    1.571    1.429    1.714    0.000    2.857 
#    0.000    5.000    0.000    0.000    0.000    0.000 
#    0.000    0.000    0.000    0.000    0.000    0.000 
#
# Total GULP energy -347024.011695 kJ/mol
# GULP energy per Si atom -12393.714703 kJ/mol
# Density = 1.823414 g / cm^3
# Si number density = 18.275733 Si / 1000 Ang^3
#
#
#
# Elastic Constant Matrix: (Units=GPa)
#
#
# Indices 1 2 3 4 5 6 
#
# 1 60.8322 25.1873 2.6243 0.0000 22.6107 0.0000
# 2 25.1873 63.8873 15.3472 0.0000 6.9260 0.0000
# 3 2.6243 15.3472 72.1153 0.0000 20.1943 0.0000
# 4 0.0000 0.0000 0.0000 17.6046 0.0000 3.0910
# 5 22.6107 6.9260 20.1943 0.0000 29.1056 0.0000
# 6 0.0000 0.0000 0.0000 3.0910 0.0000 25.9372
#
#
#
# Elastic Compliance Matrix: (Units=1/GPa)
#
#
# Indices 1 2 3 4 5 6 
#
# 1 0.031078 -0.011425 0.009060 0.000000 -0.027710 0.000000
# 2 -0.011425 0.020776 -0.006338 0.000000 0.008329 0.000000
# 3 0.009060 -0.006338 0.020397 0.000000 -0.019682 0.000000
# 4 0.000000 0.000000 0.000000 0.058017 0.000000 -0.006914
# 5 -0.027710 0.008329 -0.019682 0.000000 0.067558 0.000000
# 6 0.000000 0.000000 0.000000 -0.006914 0.000000 0.039379
#
#
# Mechanical properties :
#
#
# Convention : Reuss Voigt Hill
#
# Bulk Modulus (GPa) = 18.23287 31.46140 24.84714
# Shear Modulus (GPa) = 18.32221 24.77456 21.54838
#
# Velocity S-wave (km/s) = 3.16973 3.68584 3.43749
# Velocity P-wave (km/s) = 4.83678 5.94694 5.42036
#
# Compressibility (1/GPa) = 0.05484599
#
# Stress axis : x y z
#
# Youngs Moduli (GPa) = 32.17744 48.13176 49.02590
#
# Poissons Ratio (x) = 0.54989 -0.44417
# Poissons Ratio (y) = 0.36762 0.31073
# Poissons Ratio (z) = -0.29153 0.30506
#
# Static dielectric constant tensor:
#      x y z
#    x 3.399370 0.000000 0.017180 
#    y 0.000000 3.155590 0.000000 
#    z 0.017180 0.000000 3.344150 
# 
# 
# High freq. dielectric constant tensor:
#      x y z
#    x 1.700590 0.000000 0.005750 
#    y 0.000000 1.690650 0.000000 
#    z 0.005750 0.000000 1.700840 
# 
# From -- ./inp_files/244286.got.cif
#   From: 2010.06.25/outbox.cif.g09.slc.cpg/sg12_123_cif.got.tgz:244286.got - 2010.06.28 00:19:55.
