data_PCOD8093787
_publ_section_title
;
Structure prediction by ZEFSAII (Michael W. Deem and Ramdas Pophale) SiO2 
 PCOD8093787
Probable space group: C 2/M
;
_chemical_formula_sum "Si O2"
_cell_formula_units_Z 48
_cell_length_a 14.044227
_cell_length_b 18.367643
_cell_length_c 9.789236
_cell_angle_alpha 90.000000
_cell_angle_beta 72.245931
_cell_angle_gamma 90.000000
_cell_volume 2404.958941
_symmetry_space_group_name_H-M "C 2/M"
_symmetry_group_IT_number 12
_symmetry_cell_setting 'monoclinic'
loop_
_space_group_symop_operation_xyz
x,y,z
-x,y,-z
-x,-y,-z
x,-y,z
1/2+x,1/2+y,z
1/2-x,1/2+y,-z
1/2-x,1/2-y,-z
1/2+x,1/2-y,z
loop_
_atom_site_type_symbol
_atom_site_label
_atom_site_fract_x
_atom_site_fract_y
_atom_site_fract_z
Si Si1 0.889898 0.661781 0.298021
Si Si2 0.741424 0.914449 0.435942
Si Si3 0.586086 0.917441 0.270208
Si Si4 0.408145 0.672469 0.234605
Si Si5 0.159833 0.349072 0.981328
Si Si6 0.623901 0.688485 0.063307
O O1 0.793568 0.627204 0.412973
O O2 0.881662 0.748704 0.307710
O O3 0.893324 0.634920 0.139137
O O4 0.989238 0.633240 0.329605
O O5 0.667362 0.892707 0.345426
O O6 0.853007 0.887814 0.349825
O O7 0.744511 0.000000 0.462495
O O8 0.551745 0.000000 0.311448
O O9 0.635180 0.913059 0.097967
O O10 0.527254 0.657559 0.184644
O O11 0.370110 0.664237 0.096393
O O12 0.278478 0.341031 0.902322
O O13 0.116318 0.276030 0.070862
#
# Coordination Sequence:
#
# PCOD8093787 Si02
#       6
#     8   8   8   8   8   8
#     4  11  22  35  59  88 117 154 198 246 298 344
#     4  11  24  41  57  83 125 164 194 238 294 354
#     4  11  22  38  58  86 122 160 198 238 293 357
#     4  10  19  37  62  88 113 153 202 244 287 349
#     4  10  19  36  59  88 118 149 190 247 296 341
#     4   9  18  35  62  88 116 145 196 249 288 338
#
# _framework density 19.958760000000002
#
# number of rings (size 3 to 8) (size 9 to 14) (size 15 to 20)
#    0.000    1.667    3.333    2.000    0.000    3.333 
#    0.000    3.333    0.000    1.000    0.000    0.000 
#    0.000    0.000    0.000    0.000    0.000    0.000 
#
# Total GULP energy -297689.589194 kJ/mol
# GULP energy per Si atom -12403.732883 kJ/mol
# Density = 1.991333 g / cm^3
# Si number density = 19.958760 Si / 1000 Ang^3
#
#
#
# Elastic Constant Matrix: (Units=GPa)
#
#
# Indices 1 2 3 4 5 6 
#
# 1 78.6860 18.6697 12.3929 0.0000 -19.3101 0.0000
# 2 18.6697 57.5115 31.9334 0.0000 -13.3371 0.0000
# 3 12.3929 31.9334 68.0673 0.0000 -24.3067 0.0000
# 4 0.0000 0.0000 0.0000 21.5196 0.0000 -0.7701
# 5 -19.3101 -13.3371 -24.3067 0.0000 33.3735 0.0000
# 6 0.0000 0.0000 0.0000 -0.7701 0.0000 24.9040
#
#
#
# Elastic Compliance Matrix: (Units=1/GPa)
#
#
# Indices 1 2 3 4 5 6 
#
# 1 0.015568 -0.004294 0.002411 0.000000 0.009048 0.000000
# 2 -0.004294 0.024781 -0.011076 0.000000 -0.000648 0.000000
# 3 0.002411 -0.011076 0.024822 0.000000 0.015047 0.000000
# 4 0.000000 0.000000 0.000000 0.046521 0.000000 0.001439
# 5 0.009048 -0.000648 0.015047 0.000000 0.045899 0.000000
# 6 0.000000 0.000000 0.000000 0.001439 0.000000 0.040199
#
#
# Mechanical properties :
#
#
# Convention : Reuss Voigt Hill
#
# Bulk Modulus (GPa) = 25.47525 36.69519 31.08522
# Shear Modulus (GPa) = 21.11554 25.37733 23.24644
#
# Velocity S-wave (km/s) = 3.25616 3.56966 3.41651
# Velocity P-wave (km/s) = 5.18926 5.95108 5.58318
#
# Compressibility (1/GPa) = 0.03925378
#
# Stress axis : x y z
#
# Youngs Moduli (GPa) = 64.23295 40.35289 40.28736
#
# Poissons Ratio (x) = 0.17329 -0.09714
# Poissons Ratio (y) = 0.27585 0.44620
# Poissons Ratio (z) = -0.15488 0.44693
#
# Static dielectric constant tensor:
#      x y z
#    x 3.628620 0.000000 -0.063170 
#    y 0.000000 3.333900 0.000000 
#    z -0.063170 0.000000 3.531400 
# 
# 
# High freq. dielectric constant tensor:
#      x y z
#    x 1.781940 0.000000 -0.012520 
#    y 0.000000 1.753410 0.000000 
#    z -0.012520 0.000000 1.774240 
# 
# From -- ./inp_files/63323.got.cif
#   From: 2010.06.25/outbox.cif.g09.slc.cpg/sg12_32_cif.got.tgz:63323.got - 2010.06.28 00:19:55.
