data_PCOD8093189
_publ_section_title
;
Structure prediction by ZEFSAII (Michael W. Deem and Ramdas Pophale) SiO2 
 PCOD8093189
Probable space group: C 2/M
;
_chemical_formula_sum "Si O2"
_cell_formula_units_Z 64
_cell_length_a 26.566366
_cell_length_b 18.064012
_cell_length_c 15.285824
_cell_angle_alpha 90.000000
_cell_angle_beta 151.991515
_cell_angle_gamma 90.000000
_cell_volume 3444.811387
_symmetry_space_group_name_H-M "C 2/M"
_symmetry_group_IT_number 12
_symmetry_cell_setting 'monoclinic'
loop_
_space_group_symop_operation_xyz
x,y,z
-x,y,-z
-x,-y,-z
x,-y,z
1/2+x,1/2+y,z
1/2-x,1/2+y,-z
1/2-x,1/2-y,-z
1/2+x,1/2-y,z
loop_
_atom_site_type_symbol
_atom_site_label
_atom_site_fract_x
_atom_site_fract_y
_atom_site_fract_z
Si Si1 0.544236 0.087677 0.828265
Si Si2 0.941116 0.285188 0.275066
Si Si3 0.222482 0.819898 0.515567
Si Si4 0.473282 0.308455 0.157814
Si Si5 0.666777 0.214974 0.714218
Si Si6 0.797075 0.912998 0.844539
Si Si7 0.804301 0.586047 0.492521
Si Si8 0.336525 0.809391 0.873188
O O1 0.579485 0.132692 0.795971
O O2 0.424474 0.117745 0.666751
O O3 0.551737 0.000000 0.822798
O O4 0.622510 0.111143 0.028078
O O5 0.930085 0.222060 0.184433
O O6 0.852588 0.269145 0.213171
O O7 0.058246 0.281659 0.494509
O O8 0.250000 0.750000 0.500000
O O9 0.248828 0.890791 0.497544
O O10 0.295845 0.821078 0.713351
O O11 0.099337 0.819968 0.353961
O O12 0.418341 0.387583 0.052209
O O13 0.435823 0.248996 0.026679
O O14 0.715734 0.132487 0.780809
O O15 0.744513 0.277721 0.795478
O O16 0.769962 0.890150 0.702872
O O17 0.783488 0.000000 0.841360
O O18 0.817578 0.500000 0.516006
#
# Coordination Sequence:
#
# PCOD8093189 Si02
#       8
#     8   8   8   8   8   8   8   8
#     4  10  21  38  57  82 115 148 184 230 277 329
#     4  10  19  35  60  85 111 145 183 226 279 333
#     4  12  22  36  56  81 110 146 192 235 274 326
#     4  10  22  36  56  83 114 145 185 230 277 330
#     4  10  19  35  60  85 111 145 183 226 279 333
#     4  10  21  38  57  82 115 148 184 230 277 329
#     4  10  22  38  56  78 112 148 184 232 284 322
#     4  10  22  36  56  83 114 145 185 230 277 330
#
# _framework density 18.578665999999998
#
# number of rings (size 3 to 8) (size 9 to 14) (size 15 to 20)
#    0.000    1.750    2.500    3.000    0.000    9.500 
#    0.000    3.750    0.000    0.000    0.000    1.750 
#    0.000    0.000    0.000    0.000    0.000    0.000 
#
# Total GULP energy -396734.899238 kJ/mol
# GULP energy per Si atom -12397.965601 kJ/mol
# Density = 1.853638 g / cm^3
# Si number density = 18.578666 Si / 1000 Ang^3
#
#
#
# Elastic Constant Matrix: (Units=GPa)
#
#
# Indices 1 2 3 4 5 6 
#
# 1 107.0692 35.5944 38.2212 0.0000 -18.8755 0.0000
# 2 35.5944 73.2107 35.3886 0.0000 -8.4707 0.0000
# 3 38.2212 35.3886 84.6381 0.0000 -30.8631 0.0000
# 4 0.0000 0.0000 0.0000 28.7416 0.0000 -0.7555
# 5 -18.8755 -8.4707 -30.8631 0.0000 21.2875 0.0000
# 6 0.0000 0.0000 0.0000 -0.7555 0.0000 27.9720
#
#
#
# Elastic Compliance Matrix: (Units=1/GPa)
#
#
# Indices 1 2 3 4 5 6 
#
# 1 0.012664 -0.004889 -0.000614 0.000000 0.008393 0.000000
# 2 -0.004889 0.019601 -0.010023 0.000000 -0.011068 0.000000
# 3 -0.000614 -0.010023 0.031041 0.000000 0.040470 0.000000
# 4 0.000000 0.000000 0.000000 0.034818 0.000000 0.000940
# 5 0.008393 -0.011068 0.040470 0.000000 0.108689 0.000000
# 6 0.000000 0.000000 0.000000 0.000940 0.000000 0.035775
#
#
# Mechanical properties :
#
#
# Convention : Reuss Voigt Hill
#
# Bulk Modulus (GPa) = 31.00549 53.70293 42.35421
# Shear Modulus (GPa) = 17.58144 25.98115 21.78129
#
# Velocity S-wave (km/s) = 3.07958 3.74363 3.42772
# Velocity P-wave (km/s) = 5.41941 6.90325 6.20584
#
# Compressibility (1/GPa) = 0.03225235
#
# Stress axis : x y z
#
# Youngs Moduli (GPa) = 78.96400 51.01834 32.21591
#
# Poissons Ratio (x) = 0.24944 0.01978
# Poissons Ratio (y) = 0.38607 0.32291
# Poissons Ratio (z) = 0.04848 0.51137
#
# Static dielectric constant tensor:
#      x y z
#    x 2.293310 0.000000 -0.246580 
#    y 0.000000 2.694190 0.000000 
#    z -0.246580 0.000000 3.786740 
# 
# 
# High freq. dielectric constant tensor:
#      x y z
#    x 1.713990 0.000000 -0.005990 
#    y 0.000000 1.707770 0.000000 
#    z -0.005990 0.000000 1.740840 
# 
# From -- ./inp_files/241519.got.cif
#   From: 2010.06.25/outbox.cif.g09.slc.cpg/sg12_121_cif.got.tgz:241519.got - 2010.06.28 00:19:55.
