data_PCOD8093301
_publ_section_title
;
Structure prediction by ZEFSAII (Michael W. Deem and Ramdas Pophale) SiO2 
 PCOD8093301
Probable space group: C 2/M
;
_chemical_formula_sum "Si O2"
_cell_formula_units_Z 48
_cell_length_a 28.412787
_cell_length_b 9.394072
_cell_length_c 13.986976
_cell_angle_alpha 90.000000
_cell_angle_beta 140.655749
_cell_angle_gamma 90.000000
_cell_volume 2366.824032
_symmetry_space_group_name_H-M "C 2/M"
_symmetry_group_IT_number 12
_symmetry_cell_setting 'monoclinic'
loop_
_space_group_symop_operation_xyz
x,y,z
-x,y,-z
-x,-y,-z
x,-y,z
1/2+x,1/2+y,z
1/2-x,1/2+y,-z
1/2-x,1/2-y,-z
1/2+x,1/2-y,z
loop_
_atom_site_type_symbol
_atom_site_label
_atom_site_fract_x
_atom_site_fract_y
_atom_site_fract_z
Si Si1 0.474336 0.336629 0.355528
Si Si2 0.755458 0.656908 0.863955
Si Si3 0.825233 0.164786 0.637426
Si Si4 0.966637 0.835704 0.750596
Si Si5 0.626847 0.334820 0.070009
Si Si6 0.843567 0.344749 0.187414
O O1 0.500000 0.286156 0.500000
O O2 0.448448 0.500000 0.316969
O O3 0.534397 0.311769 0.365984
O O4 0.404850 0.238615 0.222203
O O5 0.737708 0.500000 0.791080
O O6 0.816060 0.736982 0.896830
O O7 0.681609 0.755087 0.757663
O O8 0.778230 0.631930 0.009281
O O9 0.750000 0.250000 0.500000
O O10 0.891186 0.231901 0.674862
O O11 0.854096 0.182846 0.789763
O O12 0.809237 0.000000 0.587873
O O13 0.963511 0.000000 0.773985
O O14 0.043273 0.777110 0.917728
O O15 0.634356 0.500000 0.048495
O O16 0.871840 0.500000 0.267146
#
# Coordination Sequence:
#
# PCOD8093301 Si02
#       6
#     8   8   8   8   8   8
#     4  10  20  34  55  83 113 149 190 232 284 341
#     4  10  20  33  54  82 112 145 184 232 283 334
#     4  10  22  39  59  85 114 149 191 235 292 349
#     4   9  18  36  60  82 110 148 192 240 281 334
#     4  10  19  35  61  86 109 146 197 244 286 337
#     4  10  20  34  52  78 113 151 188 227 276 334
#
# _framework density 20.280341
#
# number of rings (size 3 to 8) (size 9 to 14) (size 15 to 20)
#    0.000    2.167    1.667    1.500    0.000    5.667 
#    0.000    3.333    0.000    2.000    0.000    0.000 
#    0.000    0.000    0.000    0.000    0.000    0.000 
#
# Total GULP energy -297406.680597 kJ/mol
# GULP energy per Si atom -12391.945025 kJ/mol
# Density = 2.023418 g / cm^3
# Si number density = 20.280341 Si / 1000 Ang^3
#
#
#
# Elastic Constant Matrix: (Units=GPa)
#
#
# Indices 1 2 3 4 5 6 
#
# 1 152.7545 61.0119 41.8986 0.0000 20.1788 0.0000
# 2 61.0119 98.3226 17.0306 0.0000 11.5887 0.0000
# 3 41.8986 17.0306 59.0701 0.0000 -6.8024 0.0000
# 4 0.0000 0.0000 0.0000 22.3695 0.0000 4.8959
# 5 20.1788 11.5887 -6.8024 0.0000 33.2952 0.0000
# 6 0.0000 0.0000 0.0000 4.8959 0.0000 24.1582
#
#
#
# Elastic Compliance Matrix: (Units=1/GPa)
#
#
# Indices 1 2 3 4 5 6 
#
# 1 0.011506 -0.005049 -0.007483 0.000000 -0.006745 0.000000
# 2 -0.005049 0.013610 -0.000549 0.000000 -0.001789 0.000000
# 3 -0.007483 -0.000549 0.023492 0.000000 0.009525 0.000000
# 4 0.000000 0.000000 0.000000 0.046779 0.000000 -0.009480
# 5 -0.006745 -0.001789 0.009525 0.000000 0.036691 0.000000
# 6 0.000000 0.000000 0.000000 -0.009480 0.000000 0.043315
#
#
# Mechanical properties :
#
#
# Convention : Reuss Voigt Hill
#
# Bulk Modulus (GPa) = 44.54895 61.11437 52.83166
# Shear Modulus (GPa) = 23.91945 28.64499 26.28222
#
# Velocity S-wave (km/s) = 3.43802 3.76234 3.60383
# Velocity P-wave (km/s) = 6.14608 7.00527 6.58969
#
# Compressibility (1/GPa) = 0.02244722
#
# Stress axis : x y z
#
# Youngs Moduli (GPa) = 86.90751 73.47793 42.56857
#
# Poissons Ratio (x) = 0.37099 0.31852
# Poissons Ratio (y) = 0.43880 0.02335
# Poissons Ratio (z) = 0.65030 0.04030
#
# Static dielectric constant tensor:
#      x y z
#    x 3.786990 0.000000 0.074410 
#    y 0.000000 3.800720 0.000000 
#    z 0.074410 0.000000 3.554710 
# 
# 
# High freq. dielectric constant tensor:
#      x y z
#    x 1.801850 0.000000 0.005550 
#    y 0.000000 1.774830 0.000000 
#    z 0.005550 0.000000 1.772320 
# 
# From -- ./inp_files/244874.got.cif
#   From: 2010.06.25/outbox.cif.g09.slc.cpg/sg12_123_cif.got.tgz:244874.got - 2010.06.28 00:19:55.
