data_PCOD8093820
_publ_section_title
;
Structure prediction by ZEFSAII (Michael W. Deem and Ramdas Pophale) SiO2 
 PCOD8093820
Probable space group: C 2/M
;
_chemical_formula_sum "Si O2"
_cell_formula_units_Z 48
_cell_length_a 19.050815
_cell_length_b 18.170784
_cell_length_c 14.521372
_cell_angle_alpha 90.000000
_cell_angle_beta 148.080283
_cell_angle_gamma 90.000000
_cell_volume 2657.842275
_symmetry_space_group_name_H-M "C 2/M"
_symmetry_group_IT_number 12
_symmetry_cell_setting 'monoclinic'
loop_
_space_group_symop_operation_xyz
x,y,z
-x,y,-z
-x,-y,-z
x,-y,z
1/2+x,1/2+y,z
1/2-x,1/2+y,-z
1/2-x,1/2-y,-z
1/2+x,1/2-y,z
loop_
_atom_site_type_symbol
_atom_site_label
_atom_site_fract_x
_atom_site_fract_y
_atom_site_fract_z
Si Si1 0.538894 0.583303 0.781631
Si Si2 0.899099 0.161078 0.967031
Si Si3 0.122234 0.333466 0.072603
Si Si4 0.668057 0.083892 0.945011
Si Si5 0.370805 0.912868 0.303950
Si Si6 0.622720 0.414874 0.573373
O O1 0.535797 0.500000 0.817799
O O2 0.415783 0.597592 0.576540
O O3 0.534265 0.639681 0.861281
O O4 0.673140 0.593216 0.871670
O O5 0.868147 0.246810 0.929569
O O6 0.760683 0.119663 0.795996
O O7 0.000000 0.136789 0.000000
O O8 0.254374 0.362972 0.267944
O O9 0.098909 0.367878 0.946151
O O10 0.000000 0.356860 0.000000
O O11 0.618199 0.112069 0.790038
O O12 0.625077 0.000000 0.913296
O O13 0.500000 0.882329 0.500000
O O14 0.359394 0.000000 0.298597
O O15 0.500000 0.391218 0.500000
O O16 0.661052 0.500000 0.634874
#
# Coordination Sequence:
#
# PCOD8093820 Si02
#       6
#     8   8   8   8   8   8
#     4   9  18  35  61  85 103 137 189 236 271 316
#     4  10  22  39  54  79 114 151 184 220 272 328
#     4  11  23  37  51  81 119 151 178 217 277 332
#     4   9  17  34  58  79 106 143 182 226 272 323
#     4   9  19  37  59  83 108 138 184 234 274 320
#     4  10  19  36  60  83 108 139 186 236 271 322
#
# _framework density 18.059763
#
# number of rings (size 3 to 8) (size 9 to 14) (size 15 to 20)
#    0.000    2.333    1.667    2.000    0.000    6.000 
#    6.000    1.667    0.000    0.000    0.000    0.000 
#    0.000    0.000    0.000    0.000    0.000    0.000 
#
# Total GULP energy -297631.027213 kJ/mol
# GULP energy per Si atom -12401.292801 kJ/mol
# Density = 1.801866 g / cm^3
# Si number density = 18.059763 Si / 1000 Ang^3
#
#
#
# Elastic Constant Matrix: (Units=GPa)
#
#
# Indices 1 2 3 4 5 6 
#
# 1 128.8144 60.0300 68.7322 0.0001 5.9296 -0.0001
# 2 60.0300 69.5707 52.9939 0.0000 3.0029 0.0000
# 3 68.7322 52.9939 132.6405 0.0001 -6.4176 -0.0001
# 4 0.0001 0.0000 0.0001 -313.9226 0.0001 316.3134
# 5 5.9296 3.0029 -6.4176 0.0001 21.2964 -0.0001
# 6 -0.0001 0.0000 -0.0001 316.3134 -0.0001 -272.7225
#
#
#
# Elastic Compliance Matrix: (Units=1/GPa)
#
#
# Indices 1 2 3 4 5 6 
#
# 1 0.014329 -0.009196 -0.003938 0.000000 -0.003880 0.000000
# 2 -0.009196 0.027215 -0.006261 0.000000 -0.003163 0.000000
# 3 -0.003938 -0.006261 0.012357 0.000000 0.005703 0.000000
# 4 0.000000 0.000000 0.000000 0.018886 0.000000 0.021905
# 5 -0.003880 -0.003163 0.005703 0.000000 0.050201 0.000000
# 6 0.000000 0.000000 0.000000 0.021905 0.000000 0.021739
#
#
# Mechanical properties :
#
#
# Convention : Reuss Voigt Hill
#
# Bulk Modulus (GPa) = 66.18277 77.17087 71.67682
# Shear Modulus (GPa) = 26.51750 -103.11844 -38.30047
#
# Velocity S-wave (km/s) = 3.83602 -7.56455 -4.61017
# Velocity P-wave (km/s) = 7.50641 5.78558 3.38181
#
# Compressibility (1/GPa) = 0.01510967
#
# Stress axis : x y z
#
# Youngs Moduli (GPa) = 69.78933 36.74511 80.92375
#
# Poissons Ratio (x) = 0.33792 0.31872
# Poissons Ratio (y) = 0.64180 0.50664
# Poissons Ratio (z) = 0.27486 0.23005
#
# Static dielectric constant tensor:
#      x y z
#    x 3.320180 0.000000 -0.122230 
#    y 0.000000 3.205520 0.000000 
#    z -0.122230 0.000000 3.419390 
# 
# 
# High freq. dielectric constant tensor:
#      x y z
#    x 1.696460 0.000000 -0.013160 
#    y 0.000000 1.692290 0.000000 
#    z -0.013160 0.000000 1.698530 
# 
# From -- ./inp_files/226922.got.cif
#   From: 2010.06.25/outbox.cif.g09.slc.cpg/sg12_114_cif.got.tgz:226922.got - 2010.06.28 00:19:55.
