data_PCOD8093035
_publ_section_title
;
Structure prediction by ZEFSAII (Michael W. Deem and Ramdas Pophale) SiO2 
 PCOD8093035
Probable space group: C 2/M
;
_chemical_formula_sum "Si O2"
_cell_formula_units_Z 64
_cell_length_a 15.641176
_cell_length_b 9.105348
_cell_length_c 23.781889
_cell_angle_alpha 90.000000
_cell_angle_beta 80.323688
_cell_angle_gamma 90.000000
_cell_volume 3338.791027
_symmetry_space_group_name_H-M "C 2/M"
_symmetry_group_IT_number 12
_symmetry_cell_setting 'monoclinic'
loop_
_space_group_symop_operation_xyz
x,y,z
-x,y,-z
-x,-y,-z
x,-y,z
1/2+x,1/2+y,z
1/2-x,1/2+y,-z
1/2-x,1/2-y,-z
1/2+x,1/2-y,z
loop_
_atom_site_type_symbol
_atom_site_label
_atom_site_fract_x
_atom_site_fract_y
_atom_site_fract_z
Si Si1 0.915167 0.672895 0.676463
Si Si2 0.802540 0.167307 0.446609
Si Si3 0.438013 0.175034 0.256759
Si Si4 0.849241 0.172314 0.932801
Si Si5 0.321862 0.328107 0.063319
Si Si6 0.033220 0.826454 0.863732
Si Si7 0.976848 0.672398 0.440109
Si Si8 0.726939 0.668461 0.676701
O O1 0.917785 0.500000 0.681676
O O2 0.816016 0.725703 0.696348
O O3 0.979977 0.737321 0.716624
O O4 0.945813 0.716574 0.610396
O O5 0.750000 0.250000 0.500000
O O6 0.894910 0.240086 0.427234
O O7 0.754705 0.177163 0.392013
O O8 0.813009 0.000000 0.465027
O O9 0.442865 0.240733 0.194653
O O10 0.349810 0.226181 0.295898
O O11 0.437536 0.000000 0.253992
O O12 0.768489 0.249605 0.910683
O O13 0.938421 0.224408 0.894572
O O14 0.836603 0.000000 0.927702
O O15 0.852487 0.218898 0.997766
O O16 0.304844 0.500000 0.069119
O O17 0.396908 0.278475 0.097401
O O18 0.036385 0.000000 0.852572
O O19 0.955323 0.500000 0.441003
O O20 0.000000 0.724520 0.500000
O O21 0.705497 0.500000 0.696324
#
# Coordination Sequence:
#
# PCOD8093035 Si02
#       8
#     8   8   8   8   8   8   8   8
#     4   9  19  37  59  80 107 144 184 225 280 341
#     4  11  22  35  56  85 117 147 184 231 281 342
#     4  11  23  39  58  82 112 147 190 242 286 331
#     4   9  18  34  57  85 116 149 189 237 283 329
#     4   9  18  34  57  84 115 152 190 231 283 338
#     4  10  21  37  57  80 112 153 194 231 278 342
#     4  10  19  35  59  83 112 147 184 226 281 345
#     4  10  21  40  62  82 108 148 190 228 280 345
#
# _framework density 19.168614999999999
#
# number of rings (size 3 to 8) (size 9 to 14) (size 15 to 20)
#    0.000    2.125    1.250    1.875    0.000    6.250 
#    0.000    5.625    0.000    3.750    0.000    0.000 
#    0.000    0.000    0.000    0.000    0.000    0.000 
#
# Total GULP energy -396806.270817 kJ/mol
# GULP energy per Si atom -12400.195963 kJ/mol
# Density = 1.912499 g / cm^3
# Si number density = 19.168615 Si / 1000 Ang^3
#
#
#
# Elastic Constant Matrix: (Units=GPa)
#
#
# Indices 1 2 3 4 5 6 
#
# 1 138.8913 32.4665 41.2237 0.0000 0.6203 0.0000
# 2 32.4665 42.1324 27.9900 0.0000 -1.2090 0.0000
# 3 41.2237 27.9900 84.0098 0.0000 -5.6062 0.0000
# 4 0.0000 0.0000 0.0000 27.2882 0.0000 -0.9842
# 5 0.6203 -1.2090 -5.6062 0.0000 22.7889 0.0000
# 6 0.0000 0.0000 0.0000 -0.9842 0.0000 31.2021
#
#
#
# Elastic Compliance Matrix: (Units=1/GPa)
#
#
# Indices 1 2 3 4 5 6 
#
# 1 0.009297 -0.005283 -0.002885 0.000000 -0.001243 0.000000
# 2 -0.005283 0.033502 -0.008582 0.000000 -0.000190 0.000000
# 3 -0.002885 -0.008582 0.016423 0.000000 0.003663 0.000000
# 4 0.000000 0.000000 0.000000 0.036688 0.000000 0.001157
# 5 -0.001243 -0.000190 0.003663 0.000000 0.044806 0.000000
# 6 0.000000 0.000000 0.000000 0.001157 0.000000 0.032086
#
#
# Mechanical properties :
#
#
# Convention : Reuss Voigt Hill
#
# Bulk Modulus (GPa) = 38.87842 52.04374 45.46108
# Shear Modulus (GPa) = 23.26948 27.14606 25.20777
#
# Velocity S-wave (km/s) = 3.48794 3.76729 3.63030
# Velocity P-wave (km/s) = 6.04544 6.79211 6.42962
#
# Compressibility (1/GPa) = 0.02572121
#
# Stress axis : x y z
#
# Youngs Moduli (GPa) = 107.56703 29.84917 60.89136
#
# Poissons Ratio (x) = 0.15770 0.17565
# Poissons Ratio (y) = 0.56829 0.52258
# Poissons Ratio (z) = 0.31028 0.25617
#
# Static dielectric constant tensor:
#      x y z
#    x 8.035780 0.000000 -1.284750 
#    y 0.000000 3.439850 0.000000 
#    z -1.284750 0.000000 4.030960 
# 
# 
# High freq. dielectric constant tensor:
#      x y z
#    x 1.759730 0.000000 0.002590 
#    y 0.000000 1.727030 0.000000 
#    z 0.002590 0.000000 1.744830 
# 
# From -- ./inp_files/338709.got.cif
#   From: 2010.06.25/outbox.cif.g09.slc.cpg/sg12_170_cif.got.tgz:338709.got - 2010.06.28 00:19:55.
