data_PCOD8093028
_publ_section_title
;
Structure prediction by ZEFSAII (Michael W. Deem and Ramdas Pophale) SiO2 
 PCOD8093028
Probable space group: C 2/M
;
_chemical_formula_sum "Si O2"
_cell_formula_units_Z 64
_cell_length_a 29.201167
_cell_length_b 8.948744
_cell_length_c 12.846401
_cell_angle_alpha 90.000000
_cell_angle_beta 100.436565
_cell_angle_gamma 90.000000
_cell_volume 3301.404436
_symmetry_space_group_name_H-M "C 2/M"
_symmetry_group_IT_number 12
_symmetry_cell_setting 'monoclinic'
loop_
_space_group_symop_operation_xyz
x,y,z
-x,y,-z
-x,-y,-z
x,-y,z
1/2+x,1/2+y,z
1/2-x,1/2+y,-z
1/2-x,1/2-y,-z
1/2+x,1/2-y,z
loop_
_atom_site_type_symbol
_atom_site_label
_atom_site_fract_x
_atom_site_fract_y
_atom_site_fract_z
Si Si1 0.321148 0.330437 0.609936
Si Si2 0.146243 0.823638 0.002849
Si Si3 0.449910 0.323070 0.952244
Si Si4 0.208978 0.327878 0.202437
Si Si5 0.647480 0.822891 0.578388
Si Si6 0.546444 0.824012 0.468355
Si Si7 0.185052 0.828238 0.797348
Si Si8 0.072992 0.168594 0.282584
O O1 0.303251 0.500000 0.587916
O O2 0.289493 0.248165 0.682740
O O3 0.319452 0.249055 0.497022
O O4 0.372600 0.325614 0.675696
O O5 0.165046 0.769604 0.899050
O O6 0.153326 0.000000 0.020713
O O7 0.091420 0.778561 0.985012
O O8 0.173049 0.746962 0.108688
O O9 0.454472 0.500000 0.950887
O O10 0.435965 0.262279 0.833758
O O11 0.500000 0.250525 0.000000
O O12 0.194929 0.500000 0.211252
O O13 0.259741 0.309807 0.173801
O O14 0.594021 0.766599 0.542561
O O15 0.663785 0.772864 0.698227
O O16 0.651298 0.000000 0.569122
O O17 0.500000 0.753832 0.500000
O O18 0.544921 0.773207 0.348926
O O19 0.544676 0.000000 0.473730
O O20 0.170677 0.000000 0.771229
O O21 0.054057 0.000000 0.285721
#
# Coordination Sequence:
#
# PCOD8093028 Si02
#       8
#     8   8   8   8   8   8   8   8
#     4  10  19  35  59  83 109 144 186 232 278 332
#     4  10  20  38  59  80 111 151 191 231 280 331
#     4   9  17  31  53  82 111 139 177 227 278 325
#     4  11  22  36  57  85 112 144 190 235 283 339
#     4  10  21  37  57  82 113 149 187 230 283 335
#     4   9  19  35  54  77 107 145 181 220 274 332
#     4  10  23  39  56  81 114 151 189 233 282 336
#     4   9  17  31  52  79 105 136 181 228 270 317
#
# _framework density 19.385687999999998
#
# number of rings (size 3 to 8) (size 9 to 14) (size 15 to 20)
#    0.000    2.250    1.250    1.500    0.000    4.250 
#    0.000    1.250    0.000    1.500    0.000    0.000 
#    0.000    0.000    0.000    0.000    0.000    0.000 
#
# Total GULP energy -396769.838713 kJ/mol
# GULP energy per Si atom -12399.057460 kJ/mol
# Density = 1.934157 g / cm^3
# Si number density = 19.385688 Si / 1000 Ang^3
#
#
#
# Elastic Constant Matrix: (Units=GPa)
#
#
# Indices 1 2 3 4 5 6 
#
# 1 92.6236 27.2176 46.1420 0.0000 -19.2900 0.0000
# 2 27.2176 54.7480 32.8050 0.0000 -1.1693 0.0000
# 3 46.1420 32.8050 115.8366 0.0000 -13.9481 0.0000
# 4 0.0000 0.0000 0.0000 27.5518 0.0000 -5.4893
# 5 -19.2900 -1.1693 -13.9481 0.0000 30.5379 0.0000
# 6 0.0000 0.0000 0.0000 -5.4893 0.0000 18.9765
#
#
#
# Elastic Compliance Matrix: (Units=1/GPa)
#
#
# Indices 1 2 3 4 5 6 
#
# 1 0.016023 -0.005487 -0.003847 0.000000 0.008154 0.000000
# 2 -0.005487 0.024008 -0.005206 0.000000 -0.004925 0.000000
# 3 -0.003847 -0.005206 0.011982 0.000000 0.002843 0.000000
# 4 0.000000 0.000000 0.000000 0.038515 0.000000 0.011141
# 5 0.008154 -0.004925 0.002843 0.000000 0.039007 0.000000
# 6 0.000000 0.000000 0.000000 0.011141 0.000000 0.055920
#
#
# Mechanical properties :
#
#
# Convention : Reuss Voigt Hill
#
# Bulk Modulus (GPa) = 43.60530 52.83749 48.22140
# Shear Modulus (GPa) = 22.50437 25.88284 24.19361
#
# Velocity S-wave (km/s) = 3.41086 3.65794 3.53656
# Velocity P-wave (km/s) = 6.16882 6.71980 6.45020
#
# Compressibility (1/GPa) = 0.02293299
#
# Stress axis : x y z
#
# Youngs Moduli (GPa) = 62.40909 41.65345 83.45795
#
# Poissons Ratio (x) = 0.22854 0.32106
# Poissons Ratio (y) = 0.34241 0.43452
# Poissons Ratio (z) = 0.24009 0.21687
#
# Static dielectric constant tensor:
#      x y z
#    x 3.756010 0.000000 -0.155240 
#    y 0.000000 3.411440 0.000000 
#    z -0.155240 0.000000 3.619590 
# 
# 
# High freq. dielectric constant tensor:
#      x y z
#    x 1.756930 0.000000 -0.008690 
#    y 0.000000 1.737360 0.000000 
#    z -0.008690 0.000000 1.759430 
# 
# From -- ./inp_files/187596.got.cif
#   From: 2010.06.25/outbox.cif.g09.slc.cpg/sg12_94_cif.got.tgz:187596.got - 2010.06.28 00:19:55.
