data_PCOD8093258
_publ_section_title
;
Structure prediction by ZEFSAII (Michael W. Deem and Ramdas Pophale) SiO2 
 PCOD8093258
Probable space group: C 2/M
;
_chemical_formula_sum "Si O2"
_cell_formula_units_Z 64
_cell_length_a 20.494849
_cell_length_b 8.823256
_cell_length_c 24.442070
_cell_angle_alpha 90.000000
_cell_angle_beta 47.639701
_cell_angle_gamma 90.000000
_cell_volume 3265.956655
_symmetry_space_group_name_H-M "C 2/M"
_symmetry_group_IT_number 12
_symmetry_cell_setting 'monoclinic'
loop_
_space_group_symop_operation_xyz
x,y,z
-x,y,-z
-x,-y,-z
x,-y,z
1/2+x,1/2+y,z
1/2-x,1/2+y,-z
1/2-x,1/2-y,-z
1/2+x,1/2-y,z
loop_
_atom_site_type_symbol
_atom_site_label
_atom_site_fract_x
_atom_site_fract_y
_atom_site_fract_z
Si Si1 0.411672 0.330446 0.303965
Si Si2 0.172505 0.823855 0.200848
Si Si3 0.194854 0.324256 0.783054
Si Si4 0.331674 0.321560 0.923244
Si Si5 0.278131 0.169716 0.633797
Si Si6 0.488714 0.176692 0.158563
Si Si7 0.435003 0.333641 0.487522
Si Si8 0.503292 0.177256 0.346047
O O1 0.451596 0.500000 0.273073
O O2 0.308116 0.333544 0.354646
O O3 0.459511 0.214426 0.236398
O O4 0.430124 0.269452 0.353706
O O5 0.267660 0.796081 0.176776
O O6 0.174074 0.769834 0.137046
O O7 0.101184 0.727440 0.274099
O O8 0.146400 0.000000 0.219373
O O9 0.199734 0.500000 0.763747
O O10 0.256935 0.236148 0.705492
O O11 0.091544 0.272137 0.837014
O O12 0.325825 0.500000 0.931672
O O13 0.420608 0.266042 0.903797
O O14 0.250000 0.250000 0.000000
O O15 0.344050 0.270047 0.561858
O O16 0.315620 0.000000 0.621196
O O17 0.509176 0.000000 0.140985
O O18 0.500000 0.356034 0.500000
O O19 0.417887 0.500000 0.470311
O O20 0.482936 0.217135 0.419975
O O21 0.492689 0.000000 0.342339
#
# Coordination Sequence:
#
# PCOD8093258 Si02
#       8
#     8   8   8   8   8   8   8   8
#     4  10  20  36  57  82 113 150 189 232 285 345
#     4  10  21  39  61  86 117 153 194 236 286 347
#     4   9  19  36  60  87 116 155 196 236 284 346
#     4  11  23  39  62  88 119 156 193 237 289 345
#     4  10  21  36  56  83 114 148 191 241 291 339
#     4  10  19  35  60  89 119 150 192 237 283 342
#     4  11  24  40  56  75 107 152 194 236 292 352
#     4  12  24  36  57  85 113 147 191 243 292 338
#
# _framework density 19.596097
#
# number of rings (size 3 to 8) (size 9 to 14) (size 15 to 20)
#    0.000    1.625    1.250    3.750    0.000    7.500 
#    0.000    0.625    0.000    3.750    0.000    0.000 
#    0.000    0.000    0.000    0.000    0.000    0.000 
#
# Total GULP energy -396780.878349 kJ/mol
# GULP energy per Si atom -12399.402448 kJ/mol
# Density = 1.955150 g / cm^3
# Si number density = 19.596097 Si / 1000 Ang^3
#
#
#
# Elastic Constant Matrix: (Units=GPa)
#
#
# Indices 1 2 3 4 5 6 
#
# 1 109.9858 45.5600 49.4510 0.0000 -3.1008 0.0003
# 2 45.5600 81.9992 28.0719 0.0002 -11.6373 0.0005
# 3 49.4510 28.0719 88.8295 0.0000 -22.0817 -0.0002
# 4 0.0000 0.0002 0.0000 35.9333 0.0000 -4.4745
# 5 -3.1008 -11.6373 -22.0817 0.0000 25.2920 0.0000
# 6 0.0003 0.0005 -0.0002 -4.4745 0.0000 29.3291
#
#
#
# Elastic Compliance Matrix: (Units=1/GPa)
#
#
# Indices 1 2 3 4 5 6 
#
# 1 0.015652 -0.006974 -0.008723 0.000000 -0.008906 0.000000
# 2 -0.006974 0.016990 0.000312 0.000000 0.007235 0.000000
# 3 -0.008723 0.000312 0.020161 0.000000 0.016675 0.000000
# 4 0.000000 0.000000 0.000000 0.028368 0.000000 0.004328
# 5 -0.008906 0.007235 0.016675 0.000000 0.056334 0.000000
# 6 0.000000 0.000000 0.000000 0.004328 0.000000 0.034756
#
#
# Mechanical properties :
#
#
# Convention : Reuss Voigt Hill
#
# Bulk Modulus (GPa) = 45.39039 58.55337 51.97188
# Shear Modulus (GPa) = 23.76691 28.62633 26.19662
#
# Velocity S-wave (km/s) = 3.48636 3.82621 3.66023
# Velocity P-wave (km/s) = 6.27850 7.03312 6.66650
#
# Compressibility (1/GPa) = 0.02203109
#
# Stress axis : x y z
#
# Youngs Moduli (GPa) = 63.88936 58.85750 49.60164
#
# Poissons Ratio (x) = 0.41048 0.43270
# Poissons Ratio (y) = 0.44557 -0.01546
# Poissons Ratio (z) = 0.55733 -0.01834
#
# Static dielectric constant tensor:
#      x y z
#    x 3.670510 0.000000 -0.051530 
#    y 0.000000 3.752060 0.000000 
#    z -0.051530 0.000000 3.331490 
# 
# 
# High freq. dielectric constant tensor:
#      x y z
#    x 1.777740 0.000000 -0.008080 
#    y 0.000000 1.773400 0.000000 
#    z -0.008080 0.000000 1.737640 
# 
# From -- ./inp_files/345994.got.cif
#   From: 2010.06.25/outbox.cif.g09.slc.cpg/sg12_173_cif.got.tgz:345994.got - 2010.06.28 00:19:55.
