data_PCOD8093435
_publ_section_title
;
Structure prediction by ZEFSAII (Michael W. Deem and Ramdas Pophale) SiO2 
 PCOD8093435
Probable space group: C 2/M
;
_chemical_formula_sum "Si O2"
_cell_formula_units_Z 64
_cell_length_a 14.568874
_cell_length_b 28.744528
_cell_length_c 9.165615
_cell_angle_alpha 90.000000
_cell_angle_beta 53.811904
_cell_angle_gamma 90.000000
_cell_volume 3097.854245
_symmetry_space_group_name_H-M "C 2/M"
_symmetry_group_IT_number 12
_symmetry_cell_setting 'monoclinic'
loop_
_space_group_symop_operation_xyz
x,y,z
-x,y,-z
-x,-y,-z
x,-y,z
1/2+x,1/2+y,z
1/2-x,1/2+y,-z
1/2-x,1/2-y,-z
1/2+x,1/2-y,z
loop_
_atom_site_type_symbol
_atom_site_label
_atom_site_fract_x
_atom_site_fract_y
_atom_site_fract_z
Si Si1 0.402289 0.051523 0.475747
Si Si2 0.122967 0.730863 0.401472
Si Si3 0.248459 0.181450 0.304824
Si Si4 0.191303 0.677155 0.081130
Si Si5 0.936316 0.107434 0.418441
Si Si6 0.852446 0.948532 0.227401
Si Si7 0.936993 0.350626 0.325328
Si Si8 0.412426 0.366713 0.973818
O O1 0.500000 0.061433 0.500000
O O2 0.282554 0.051417 0.669804
O O3 0.403033 0.095020 0.364506
O O4 0.420820 0.000000 0.383669
O O5 0.205012 0.768056 0.404101
O O6 0.167294 0.723985 0.193898
O O7 0.109160 0.680717 0.495468
O O8 0.000000 0.754993 0.500000
O O9 0.162149 0.142182 0.438787
O O10 0.375108 0.171084 0.242751
O O11 0.254080 0.185350 0.126146
O O12 0.072640 0.649455 0.179830
O O13 0.284712 0.651656 0.094236
O O14 0.881014 0.069231 0.364582
O O15 0.000000 0.085275 0.500000
O O16 0.034519 0.134440 0.237048
O O17 0.902533 0.000000 0.165491
O O18 0.906528 0.918668 0.046563
O O19 0.500000 0.338469 0.000000
#
# Coordination Sequence:
#
# PCOD8093435 Si02
#       8
#     8   8   8   8   8   8   8   8
#     4  10  19  35  65  96 125 163 208 261 322 381
#     4  10  23  40  64  91 125 168 217 266 310 374
#     4  12  23  41  62  90 128 171 207 253 319 388
#     4  11  23  41  63  92 127 168 207 265 314 376
#     4  11  22  39  61  87 123 169 206 255 319 376
#     4  10  21  39  63  92 124 158 214 269 316 376
#     4  11  22  41  66  94 130 163 209 270 323 369
#     4  10  22  38  62  89 120 165 211 257 314 366
#
# _framework density 20.659459999999999
#
# number of rings (size 3 to 8) (size 9 to 14) (size 15 to 20)
#    0.000    1.375    2.500    4.125    1.750    2.500 
#    0.000    0.000    0.000    3.000    0.000    0.000 
#    0.000    0.000    0.000    0.000    0.000    0.000 
#
# Total GULP energy -396490.089764 kJ/mol
# GULP energy per Si atom -12390.315305 kJ/mol
# Density = 2.061244 g / cm^3
# Si number density = 20.659460 Si / 1000 Ang^3
#
#
#
# Elastic Constant Matrix: (Units=GPa)
#
#
# Indices 1 2 3 4 5 6 
#
# 1 142.2614 42.7033 44.5244 0.0000 -12.9457 0.0000
# 2 42.7033 103.3015 27.9259 0.0000 -10.8759 0.0000
# 3 44.5244 27.9259 102.5716 0.0000 -4.0939 0.0000
# 4 0.0000 0.0000 0.0000 11.7674 0.0000 -1.0415
# 5 -12.9457 -10.8759 -4.0939 0.0000 39.1612 0.0000
# 6 0.0000 0.0000 0.0000 -1.0415 0.0000 30.1655
#
#
#
# Elastic Compliance Matrix: (Units=1/GPa)
#
#
# Indices 1 2 3 4 5 6 
#
# 1 0.008972 -0.002673 -0.003091 0.000000 0.001900 0.000000
# 2 -0.002673 0.011520 -0.001891 0.000000 0.002118 0.000000
# 3 -0.003091 -0.001891 0.011593 0.000000 -0.000335 0.000000
# 4 0.000000 0.000000 0.000000 0.085241 0.000000 0.002943
# 5 0.001900 0.002118 -0.000335 0.000000 0.026717 0.000000
# 6 0.000000 0.000000 0.000000 0.002943 0.000000 0.033252
#
#
# Mechanical properties :
#
#
# Convention : Reuss Voigt Hill
#
# Bulk Modulus (GPa) = 59.61886 64.27130 61.94508
# Shear Modulus (GPa) = 25.22746 31.75088 28.48917
#
# Velocity S-wave (km/s) = 3.49823 3.92455 3.71750
# Velocity P-wave (km/s) = 6.72587 7.19121 6.96243
#
# Compressibility (1/GPa) = 0.01677322
#
# Stress axis : x y z
#
# Youngs Moduli (GPa) = 111.45675 86.80730 86.26209
#
# Poissons Ratio (x) = 0.23206 0.26663
# Poissons Ratio (y) = 0.29795 0.16316
# Poissons Ratio (z) = 0.34451 0.16419
#
# Static dielectric constant tensor:
#      x y z
#    x 4.082070 0.000000 -0.181610 
#    y 0.000000 3.678430 0.000000 
#    z -0.181610 0.000000 3.630710 
# 
# 
# High freq. dielectric constant tensor:
#      x y z
#    x 1.828850 0.000000 -0.021360 
#    y 0.000000 1.792290 0.000000 
#    z -0.021360 0.000000 1.803560 
# 
# From -- ./inp_files/68590.got.cif
#   From: 2010.06.25/outbox.cif.g09.slc.cpg/sg12_35_cif.got.tgz:68590.got - 2010.06.28 00:19:55.
