data_PCOD8093941
_publ_section_title
;
Structure prediction by ZEFSAII (Michael W. Deem and Ramdas Pophale) SiO2 
 PCOD8093941
Probable space group: C 2/M
;
_chemical_formula_sum "Si O2"
_cell_formula_units_Z 56
_cell_length_a 21.285098
_cell_length_b 16.926416
_cell_length_c 9.271024
_cell_angle_alpha 90.000000
_cell_angle_beta 120.285713
_cell_angle_gamma 90.000000
_cell_volume 2884.306705
_symmetry_space_group_name_H-M "C 2/M"
_symmetry_group_IT_number 12
_symmetry_cell_setting 'monoclinic'
loop_
_space_group_symop_operation_xyz
x,y,z
-x,y,-z
-x,-y,-z
x,-y,z
1/2+x,1/2+y,z
1/2-x,1/2+y,-z
1/2-x,1/2-y,-z
1/2+x,1/2-y,z
loop_
_atom_site_type_symbol
_atom_site_label
_atom_site_fract_x
_atom_site_fract_y
_atom_site_fract_z
Si Si1 0.978837 0.323019 0.810643
Si Si2 0.730120 0.136319 0.741800
Si Si3 0.342215 0.409032 0.094984
Si Si4 0.618662 0.164005 0.832211
Si Si5 0.825806 0.590587 0.623708
Si Si6 0.966117 0.807473 0.311678
Si Si7 0.758187 0.317288 0.801627
O O1 0.903212 0.366525 0.700800
O O2 0.044339 0.375142 0.811079
O O3 0.976375 0.236089 0.730312
O O4 0.000000 0.310454 0.000000
O O5 0.664145 0.109866 0.774285
O O6 0.716689 0.093657 0.576100
O O7 0.731114 0.230713 0.725048
O O8 0.805433 0.105437 0.896538
O O9 0.340080 0.500000 0.133845
O O10 0.426356 0.380657 0.186138
O O11 0.301512 0.361769 0.173590
O O12 0.595762 0.243011 0.719258
O O13 0.668003 0.192017 0.022737
O O14 0.838825 0.500000 0.684206
O O15 0.773727 0.632241 0.677577
O O16 0.000000 0.838383 0.500000
#
# Coordination Sequence:
#
# PCOD8093941 Si02
#       7
#     8   8   8   8   8   8   8
#     4  10  20  38  58  81 116 156 193 228 285 339
#     4  11  20  39  61  83 115 155 200 229 278 350
#     4  11  22  38  61  88 119 148 185 248 295 324
#     4   9  18  36  60  85 104 148 205 231 264 338
#     4  12  25  36  54  92 124 147 189 243 290 333
#     4  10  19  36  61  84 109 149 198 235 273 346
#     4  11  19  39  61  86 112 158 196 227 278 357
#
# _framework density 19.415412
#
# number of rings (size 3 to 8) (size 9 to 14) (size 15 to 20)
#    0.857    0.571    4.286    3.000    0.000    0.571 
#    0.000    2.143    0.000    0.429    0.000    0.000 
#    0.000    0.000    0.000    0.000    0.000    0.000 
#
# Total GULP energy -346962.819597 kJ/mol
# GULP energy per Si atom -12391.529271 kJ/mol
# Density = 1.937122 g / cm^3
# Si number density = 19.415412 Si / 1000 Ang^3
#
#
#
# Elastic Constant Matrix: (Units=GPa)
#
#
# Indices 1 2 3 4 5 6 
#
# 1 68.2077 26.6012 36.9770 0.0000 -11.4616 0.0000
# 2 26.6012 89.2089 16.3153 0.0000 7.2320 0.0000
# 3 36.9770 16.3153 120.9901 0.0000 -1.7337 0.0000
# 4 0.0000 0.0000 0.0000 15.3009 0.0000 3.4089
# 5 -11.4616 7.2320 -1.7337 0.0000 17.8581 0.0000
# 6 0.0000 0.0000 0.0000 3.4089 0.0000 11.7118
#
#
#
# Elastic Compliance Matrix: (Units=1/GPa)
#
#
# Indices 1 2 3 4 5 6 
#
# 1 0.023794 -0.007429 -0.006016 0.000000 0.017696 0.000000
# 2 -0.007429 0.014241 0.000199 0.000000 -0.010516 0.000000
# 3 -0.006016 0.000199 0.010034 0.000000 -0.002968 0.000000
# 4 0.000000 0.000000 0.000000 0.069887 0.000000 -0.020342
# 5 0.017696 -0.010516 -0.002968 0.000000 0.071325 0.000000
# 6 0.000000 0.000000 0.000000 -0.020342 0.000000 0.091305
#
#
# Mechanical properties :
#
#
# Convention : Reuss Voigt Hill
#
# Bulk Modulus (GPa) = 46.34627 48.68821 47.51724
# Shear Modulus (GPa) = 15.90980 22.20838 19.05909
#
# Velocity S-wave (km/s) = 2.86570 3.38576 3.13652
# Velocity P-wave (km/s) = 5.90528 6.35736 6.13548
#
# Compressibility (1/GPa) = 0.02157671
#
# Stress axis : x y z
#
# Youngs Moduli (GPa) = 42.02770 70.21961 99.65659
#
# Poissons Ratio (x) = 0.52168 0.59958
# Poissons Ratio (y) = 0.31224 -0.01988
# Poissons Ratio (z) = 0.25286 -0.01401
#
# Static dielectric constant tensor:
#      x y z
#    x 3.590490 0.000000 0.051010 
#    y 0.000000 3.286320 0.000000 
#    z 0.051010 0.000000 3.565910 
# 
# 
# High freq. dielectric constant tensor:
#      x y z
#    x 1.748350 0.000000 0.004000 
#    y 0.000000 1.727870 0.000000 
#    z 0.004000 0.000000 1.762590 
# 
# From -- ./inp_files/88065.got.cif
#   From: 2010.06.25/outbox.cif.g09.slc.cpg/sg12_45_cif.got.tgz:88065.got - 2010.06.28 00:19:55.
