data_PCOD8093543
_publ_section_title
;
Structure prediction by ZEFSAII (Michael W. Deem and Ramdas Pophale) SiO2 
 PCOD8093543
Probable space group: C 2/M
;
_chemical_formula_sum "Si O2"
_cell_formula_units_Z 36
_cell_length_a 20.388338
_cell_length_b 15.016565
_cell_length_c 16.954589
_cell_angle_alpha 90.000000
_cell_angle_beta 160.498738
_cell_angle_gamma 90.000000
_cell_volume 1732.853948
_symmetry_space_group_name_H-M "C 2/M"
_symmetry_group_IT_number 12
_symmetry_cell_setting 'monoclinic'
loop_
_space_group_symop_operation_xyz
x,y,z
-x,y,-z
-x,-y,-z
x,-y,z
1/2+x,1/2+y,z
1/2-x,1/2+y,-z
1/2-x,1/2-y,-z
1/2+x,1/2-y,z
loop_
_atom_site_type_symbol
_atom_site_label
_atom_site_fract_x
_atom_site_fract_y
_atom_site_fract_z
Si Si1 0.500000 0.644256 0.500000
Si Si2 0.497715 0.777973 0.362783
Si Si3 0.075824 0.597956 0.000307
Si Si4 0.352032 0.396195 0.761518
Si Si5 0.044570 0.768249 0.860820
O O1 0.567515 0.703426 0.502518
O O2 0.311531 0.585457 0.265717
O O3 0.630516 0.864942 0.530836
O O4 0.535373 0.740363 0.318073
O O5 0.269830 0.801209 0.117567
O O6 0.988999 0.500000 0.879238
O O7 0.012871 0.672752 0.866660
O O8 0.000000 0.627777 0.000000
O O9 0.349374 0.500000 0.739726
O O10 0.419878 0.344663 0.760646
O O11 0.500000 0.372671 0.000000
#
# Coordination Sequence:
#
# PCOD8093543 Si02
#       5
#     4   8   8   8   8
#     4  10  19  36  57  78 110 146 183 232 285 342
#     4  10  21  38  61  82 111 155 195 239 293 342
#     4  10  20  34  56  84 112 145 184 228 283 344
#     4  11  23  38  59  87 119 157 199 239 284 343
#     4  10  21  39  60  85 116 152 192 241 293 342
#
# _framework density 20.774978000000001
#
# number of rings (size 3 to 8) (size 9 to 14) (size 15 to 20)
#    0.000    1.778    0.000    5.667    0.000    1.778 
#    0.000   15.000    0.000    0.000    0.000    0.000 
#    0.000    0.000    0.000    0.000    0.000    0.000 
#
# Total GULP energy -223216.651420 kJ/mol
# GULP energy per Si atom -12400.925079 kJ/mol
# Density = 2.072769 g / cm^3
# Si number density = 20.774978 Si / 1000 Ang^3
#
#
#
# Elastic Constant Matrix: (Units=GPa)
#
#
# Indices 1 2 3 4 5 6 
#
# 1 129.8207 64.6053 24.8914 0.0007 -7.6680 0.0005
# 2 64.6053 126.4222 46.8829 -0.0004 -0.8802 0.0000
# 3 24.8914 46.8829 80.7234 0.0033 0.3513 0.0041
# 4 0.0007 -0.0004 0.0033 32.5420 0.0018 13.1511
# 5 -7.6680 -0.8802 0.3513 0.0018 32.3185 0.0019
# 6 0.0005 0.0000 0.0041 13.1511 0.0019 14.0259
#
#
#
# Elastic Compliance Matrix: (Units=1/GPa)
#
#
# Indices 1 2 3 4 5 6 
#
# 1 0.010507 -0.005286 -0.000180 0.000000 0.002351 0.000000
# 2 -0.005286 0.012745 -0.005768 0.000000 -0.000844 0.000002
# 3 -0.000180 -0.005768 0.015795 0.000000 -0.000371 -0.000005
# 4 0.000000 0.000000 0.000000 0.049477 0.000000 -0.046391
# 5 0.002351 -0.000844 -0.000371 0.000000 0.031481 -0.000004
# 6 0.000000 0.000002 -0.000005 -0.046391 -0.000004 0.114794
#
#
# Mechanical properties :
#
#
# Convention : Reuss Voigt Hill
#
# Bulk Modulus (GPa) = 60.32071 67.74727 64.03399
# Shear Modulus (GPa) = 19.02631 29.14973 24.08802
#
# Velocity S-wave (km/s) = 3.02955 3.74988 3.40880
# Velocity P-wave (km/s) = 6.42930 7.17145 6.81049
#
# Compressibility (1/GPa) = 0.01657806
#
# Stress axis : x y z
#
# Youngs Moduli (GPa) = 95.17447 78.46413 63.31055
#
# Poissons Ratio (x) = 0.41479 0.01139
# Poissons Ratio (y) = 0.50312 0.36519
# Poissons Ratio (z) = 0.01712 0.45260
#
# Static dielectric constant tensor:
#      x y z
#    x 3.853920 -0.000010 0.065710 
#    y -0.000010 3.538610 0.000000 
#    z 0.065710 0.000000 3.886050 
# 
# 
# High freq. dielectric constant tensor:
#      x y z
#    x 1.821200 0.000000 0.008620 
#    y 0.000000 1.800670 0.000000 
#    z 0.008620 0.000000 1.822250 
# 
# From -- ./inp_files/284341.got.cif
#   From: 2010.06.25/outbox.cif.g09.slc.cpg/sg12_143_cif.got.tgz:284341.got - 2010.06.28 00:19:55.
