data_PCOD8093513
_publ_section_title
;
Structure prediction by ZEFSAII (Michael W. Deem and Ramdas Pophale) SiO2 
 PCOD8093513
Probable space group: C 2/M
;
_chemical_formula_sum "Si O2"
_cell_formula_units_Z 48
_cell_length_a 20.803245
_cell_length_b 27.650053
_cell_length_c 9.979313
_cell_angle_alpha 90.000000
_cell_angle_beta 153.950919
_cell_angle_gamma 90.000000
_cell_volume 2520.760583
_symmetry_space_group_name_H-M "C 2/M"
_symmetry_group_IT_number 12
_symmetry_cell_setting 'monoclinic'
loop_
_space_group_symop_operation_xyz
x,y,z
-x,y,-z
-x,-y,-z
x,-y,z
1/2+x,1/2+y,z
1/2-x,1/2+y,-z
1/2-x,1/2-y,-z
1/2+x,1/2-y,z
loop_
_atom_site_type_symbol
_atom_site_label
_atom_site_fract_x
_atom_site_fract_y
_atom_site_fract_z
Si Si1 0.164586 0.675127 0.288932
Si Si2 0.872415 0.221833 0.869748
Si Si3 0.427934 0.336370 0.231692
Si Si4 0.684683 0.399245 0.611510
Si Si5 0.913374 0.000000 0.546232
Si Si6 0.286501 0.500000 0.011368
Si Si7 0.334656 0.101299 0.166886
O O1 0.169306 0.721545 0.198486
O O2 0.232049 0.690890 0.558563
O O3 0.260628 0.631897 0.410572
O O4 0.000000 0.656330 0.000000
O O5 0.922215 0.205188 0.109240
O O6 0.000000 0.214386 0.000000
O O7 0.500000 0.312679 0.500000
O O8 0.531456 0.380243 0.381760
O O9 0.268156 0.358513 0.957090
O O10 0.650833 0.453399 0.496806
O O11 0.806813 0.399604 0.955677
O O12 0.860497 0.000000 0.294516
O O13 0.089986 0.000000 0.873429
O O14 0.189125 0.548279 0.812391
O O15 0.500000 0.118020 0.500000
#
# Coordination Sequence:
#
# PCOD8093513 Si02
#       7
#     8   8   8   8   4   4   8
#     4  10  22  37  60  83 109 148 201 237 281 338
#     4  10  20  39  63  82 108 155 199 235 278 347
#     4  10  20  36  58  85 117 151 191 235 289 341
#     4  10  19  36  56  82 113 153 194 232 285 345
#     4   9  16  30  57  80 107 152 196 229 277 345
#     4   9  15  30  52  79 108 150 196 230 274 349
#     4  10  20  31  51  84 119 148 184 240 293 337
#
# _framework density 19.041872000000001
#
# number of rings (size 3 to 8) (size 9 to 14) (size 15 to 20)
#    0.000    2.167    3.333    0.250    2.333    0.000 
#    0.000    4.583    0.000    3.000    0.000    0.000 
#    0.000    0.000    0.000    0.000    0.000    0.000 
#
# Total GULP energy -297612.745985 kJ/mol
# GULP energy per Si atom -12400.531083 kJ/mol
# Density = 1.899853 g / cm^3
# Si number density = 19.041872 Si / 1000 Ang^3
#
#
#
# Elastic Constant Matrix: (Units=GPa)
#
#
# Indices 1 2 3 4 5 6 
#
# 1 77.9548 52.9852 38.4598 0.0000 2.8018 0.0000
# 2 52.9852 109.0410 34.4681 0.0000 -6.3001 0.0000
# 3 38.4598 34.4681 108.3747 0.0000 13.7234 0.0000
# 4 0.0000 0.0000 0.0000 19.4410 0.0000 0.0503
# 5 2.8018 -6.3001 13.7234 0.0000 32.8908 0.0000
# 6 0.0000 0.0000 0.0000 0.0503 0.0000 22.2340
#
#
#
# Elastic Compliance Matrix: (Units=1/GPa)
#
#
# Indices 1 2 3 4 5 6 
#
# 1 0.021193 -0.008987 -0.004451 0.000000 -0.001670 0.000000
# 2 -0.008987 0.014402 -0.001940 0.000000 0.004333 0.000000
# 3 -0.004451 -0.001940 0.012060 0.000000 -0.005024 0.000000
# 4 0.000000 0.000000 0.000000 0.051438 0.000000 -0.000116
# 5 -0.001670 0.004333 -0.005024 0.000000 0.033472 0.000000
# 6 0.000000 0.000000 0.000000 -0.000116 0.000000 0.044977
#
#
# Mechanical properties :
#
#
# Convention : Reuss Voigt Hill
#
# Bulk Modulus (GPa) = 59.17863 60.79963 59.98913
# Shear Modulus (GPa) = 23.37220 26.21030 24.79125
#
# Velocity S-wave (km/s) = 3.50724 3.71409 3.61215
# Velocity P-wave (km/s) = 6.89541 7.09869 6.99778
#
# Compressibility (1/GPa) = 0.01689799
#
# Stress axis : x y z
#
# Youngs Moduli (GPa) = 47.18648 69.43712 82.91935
#
# Poissons Ratio (x) = 0.62406 0.36907
# Poissons Ratio (y) = 0.42408 0.16083
# Poissons Ratio (z) = 0.21002 0.13468
#
# Static dielectric constant tensor:
#      x y z
#    x 3.174170 0.000000 0.077940 
#    y 0.000000 3.489980 0.000000 
#    z 0.077940 0.000000 3.546750 
# 
# 
# High freq. dielectric constant tensor:
#      x y z
#    x 1.708260 0.000000 0.016490 
#    y 0.000000 1.735770 0.000000 
#    z 0.016490 0.000000 1.742780 
# 
# From -- ./inp_files/80889.got.cif
#   From: 2010.06.25/outbox.cif.g09.slc.cpg/sg12_41_cif.got.tgz:80889.got - 2010.06.28 00:19:55.
