data_PCOD8093636
_publ_section_title
;
Structure prediction by ZEFSAII (Michael W. Deem and Ramdas Pophale) SiO2 
 PCOD8093636
Probable space group: C 2/M
;
_chemical_formula_sum "Si O2"
_cell_formula_units_Z 56
_cell_length_a 27.124594
_cell_length_b 8.878481
_cell_length_c 20.036179
_cell_angle_alpha 90.000000
_cell_angle_beta 144.937253
_cell_angle_gamma 90.000000
_cell_volume 2771.957560
_symmetry_space_group_name_H-M "C 2/M"
_symmetry_group_IT_number 12
_symmetry_cell_setting 'monoclinic'
loop_
_space_group_symop_operation_xyz
x,y,z
-x,y,-z
-x,-y,-z
x,-y,z
1/2+x,1/2+y,z
1/2-x,1/2+y,-z
1/2-x,1/2-y,-z
1/2+x,1/2-y,z
loop_
_atom_site_type_symbol
_atom_site_label
_atom_site_fract_x
_atom_site_fract_y
_atom_site_fract_z
Si Si1 0.041889 0.326001 0.617314
Si Si2 0.215502 0.177328 0.789048
Si Si3 0.747670 0.677115 0.309717
Si Si4 0.502971 0.322932 0.208610
Si Si5 0.445404 0.678820 0.877936
Si Si6 0.190009 0.821948 0.989526
Si Si7 0.096922 0.325127 0.427794
O O1 0.069952 0.500000 0.655415
O O2 0.123732 0.220257 0.718458
O O3 0.000000 0.294784 0.500000
O O4 0.973538 0.276634 0.596386
O O5 0.220490 0.232679 0.719045
O O6 0.229098 0.000000 0.808361
O O7 0.287935 0.259185 0.912971
O O8 0.753418 0.500000 0.299161
O O9 0.652894 0.730520 0.224036
O O10 0.809315 0.717580 0.440155
O O11 0.513266 0.500000 0.216798
O O12 0.516440 0.256903 0.148970
O O13 0.409323 0.277417 0.133200
O O14 0.578636 0.261678 0.339222
O O15 0.451619 0.500000 0.886106
O O16 0.500000 0.746953 0.000000
O O17 0.203397 0.000000 0.003364
O O18 0.250000 0.750000 0.000000
O O19 0.090735 0.500000 0.404991
#
# Coordination Sequence:
#
# PCOD8093636 Si02
#       7
#     8   8   8   8   8   8   8
#     4  10  19  36  58  81 114 157 202 238 282 345
#     4  12  24  36  56  88 121 153 194 244 298 347
#     4  10  20  38  61  84 113 153 200 240 284 348
#     4  10  22  39  60  87 116 150 192 244 296 347
#     4   9  18  36  63  88 109 144 197 247 292 345
#     4  11  23  40  61  85 117 155 197 242 294 354
#     4  10  21  36  57  85 117 155 193 234 289 352
#
# _framework density 20.20233
#
# number of rings (size 3 to 8) (size 9 to 14) (size 15 to 20)
#    0.000    1.714    1.429    3.429    0.000    7.714 
#    0.000    0.714    0.000    1.714    0.000    0.000 
#    0.000    0.000    0.000    0.000    0.000    0.000 
#
# Total GULP energy -347291.565866 kJ/mol
# GULP energy per Si atom -12403.270210 kJ/mol
# Density = 2.015635 g / cm^3
# Si number density = 20.202330 Si / 1000 Ang^3
#
#
#
# Elastic Constant Matrix: (Units=GPa)
#
#
# Indices 1 2 3 4 5 6 
#
# 1 118.0175 26.5568 70.4379 0.0000 -1.1952 0.0000
# 2 26.5568 55.6860 41.9041 0.0000 5.3249 0.0000
# 3 70.4379 41.9041 159.1847 0.0000 -0.1131 0.0000
# 4 0.0000 0.0000 0.0000 30.6091 0.0000 -8.1544
# 5 -1.1952 5.3249 -0.1131 0.0000 38.7438 0.0000
# 6 0.0000 0.0000 0.0000 -8.1544 0.0000 16.8841
#
#
#
# Elastic Compliance Matrix: (Units=1/GPa)
#
#
# Indices 1 2 3 4 5 6 
#
# 1 0.011724 -0.002182 -0.004613 0.000000 0.000648 0.000000
# 2 -0.002182 0.023177 -0.005138 0.000000 -0.003268 0.000000
# 3 -0.004613 -0.005138 0.009676 0.000000 0.000592 0.000000
# 4 0.000000 0.000000 0.000000 0.037494 0.000000 0.018108
# 5 0.000648 -0.003268 0.000592 0.000000 0.026281 0.000000
# 6 0.000000 0.000000 0.000000 0.018108 0.000000 0.067973
#
#
# Mechanical properties :
#
#
# Convention : Reuss Voigt Hill
#
# Bulk Modulus (GPa) = 48.28202 67.85398 58.06800
# Shear Modulus (GPa) = 24.14337 30.18002 27.16170
#
# Velocity S-wave (km/s) = 3.46074 3.86928 3.67070
# Velocity P-wave (km/s) = 6.31823 7.32270 6.83893
#
# Compressibility (1/GPa) = 0.02071164
#
# Stress axis : x y z
#
# Youngs Moduli (GPa) = 85.29452 43.14559 103.34642
#
# Poissons Ratio (x) = 0.09414 0.47673
# Poissons Ratio (y) = 0.18611 0.53100
# Poissons Ratio (z) = 0.39346 0.22169
#
# Static dielectric constant tensor:
#      x y z
#    x 3.827400 0.000000 0.056810 
#    y 0.000000 3.354640 0.000000 
#    z 0.056810 0.000000 3.913440 
# 
# 
# High freq. dielectric constant tensor:
#      x y z
#    x 1.791260 0.000000 -0.001910 
#    y 0.000000 1.760550 0.000000 
#    z -0.001910 0.000000 1.805840 
# 
# From -- ./inp_files/329668.got.cif
#   From: 2010.06.25/outbox.cif.g09.slc.cpg/sg12_165_cif.got.tgz:329668.got - 2010.06.28 00:19:55.
