data_PCOD8093960
_publ_section_title
;
Structure prediction by ZEFSAII (Michael W. Deem and Ramdas Pophale) SiO2 
 PCOD8093960
Probable space group: C 2/M
;
_chemical_formula_sum "Si O2"
_cell_formula_units_Z 64
_cell_length_a 16.988245
_cell_length_b 16.026998
_cell_length_c 22.731397
_cell_angle_alpha 90.000000
_cell_angle_beta 147.775050
_cell_angle_gamma 90.000000
_cell_volume 3300.299699
_symmetry_space_group_name_H-M "C 2/M"
_symmetry_group_IT_number 12
_symmetry_cell_setting 'monoclinic'
loop_
_space_group_symop_operation_xyz
x,y,z
-x,y,-z
-x,-y,-z
x,-y,z
1/2+x,1/2+y,z
1/2-x,1/2+y,-z
1/2-x,1/2-y,-z
1/2+x,1/2-y,z
loop_
_atom_site_type_symbol
_atom_site_label
_atom_site_fract_x
_atom_site_fract_y
_atom_site_fract_z
Si Si1 0.328094 0.244243 0.379035
Si Si2 0.901259 0.179828 0.187555
Si Si3 0.152569 0.902641 0.067363
Si Si4 0.644543 0.217512 0.734554
Si Si5 0.305621 0.592475 0.634868
Si Si6 0.932240 0.346485 0.741573
Si Si7 0.593130 0.092201 0.401206
Si Si8 0.780737 0.595018 0.022802
O O1 0.500000 0.264346 0.500000
O O2 0.286971 0.238521 0.284510
O O3 0.281661 0.157635 0.379721
O O4 0.227976 0.322602 0.334743
O O5 0.852997 0.197682 0.224639
O O6 0.019405 0.106145 0.256955
O O7 0.976173 0.264182 0.214085
O O8 0.762724 0.155611 0.058822
O O9 0.277395 0.857155 0.182139
O O10 0.177326 0.880959 0.014000
O O11 0.173524 0.000000 0.091016
O O12 0.000000 0.871274 0.000000
O O13 0.486905 0.174101 0.622917
O O14 0.277189 0.500000 0.643371
O O15 0.251725 0.598056 0.533224
O O16 0.894268 0.401346 0.660796
O O17 0.042857 0.397539 0.854063
O O18 0.523670 0.000000 0.371765
O O19 0.748637 0.500000 0.984433
#
# Coordination Sequence:
#
# PCOD8093960 Si02
#       8
#     8   8   8   8   8   8   8   8
#     4  11  24  38  56  87 123 157 192 243 303 351
#     4  10  22  36  59  85 118 157 199 242 283 346
#     4  10  22  35  54  87 125 157 188 239 301 358
#     4  11  22  36  57  83 120 155 194 240 294 353
#     4  10  22  37  58  88 122 159 196 235 294 354
#     4  10  22  36  62  85 116 157 202 242 287 352
#     4  10  19  36  61  86 113 152 200 242 285 347
#     4  11  21  39  62  85 115 156 203 243 290 350
#
# _framework density 19.392178999999999
#
# number of rings (size 3 to 8) (size 9 to 14) (size 15 to 20)
#    0.000    1.625    3.750    1.500    5.250    2.750 
#    0.000    0.000    0.000    5.250    0.000    0.000 
#    0.000    0.000    0.000    0.000    0.000    0.000 
#
# Total GULP energy -396552.363002 kJ/mol
# GULP energy per Si atom -12392.261344 kJ/mol
# Density = 1.934804 g / cm^3
# Si number density = 19.392179 Si / 1000 Ang^3
#
#
#
# Elastic Constant Matrix: (Units=GPa)
#
#
# Indices 1 2 3 4 5 6 
#
# 1 90.7015 41.8428 46.9333 -0.0013 -8.9099 -0.0006
# 2 41.8428 56.2044 28.9256 0.0008 -2.8843 0.0005
# 3 46.9333 28.9256 94.1954 0.0029 -4.9792 0.0018
# 4 -0.0013 0.0008 0.0029 29.6292 0.0015 -2.3564
# 5 -8.9099 -2.8843 -4.9792 0.0015 32.6285 0.0008
# 6 -0.0006 0.0005 0.0018 -2.3564 0.0008 23.6278
#
#
#
# Elastic Compliance Matrix: (Units=1/GPa)
#
#
# Indices 1 2 3 4 5 6 
#
# 1 0.019829 -0.011395 -0.006198 0.000002 0.003462 0.000001
# 2 -0.011395 0.027705 -0.002889 -0.000001 -0.001103 -0.000001
# 3 -0.006198 -0.002889 0.014606 -0.000002 0.000281 -0.000001
# 4 0.000002 -0.000001 -0.000002 0.034020 -0.000001 0.003393
# 5 0.003462 -0.001103 0.000281 -0.000001 0.031539 -0.000001
# 6 0.000001 -0.000001 -0.000001 0.003393 -0.000001 0.042661
#
#
# Mechanical properties :
#
#
# Convention : Reuss Voigt Hill
#
# Bulk Modulus (GPa) = 47.21847 52.94498 50.08173
# Shear Modulus (GPa) = 22.89557 25.40372 24.14964
#
# Velocity S-wave (km/s) = 3.43980 3.62332 3.53275
# Velocity P-wave (km/s) = 6.33864 6.69821 6.52091
#
# Compressibility (1/GPa) = 0.02117815
#
# Stress axis : x y z
#
# Youngs Moduli (GPa) = 50.43119 36.09402 68.46419
#
# Poissons Ratio (x) = 0.41129 0.42432
# Poissons Ratio (y) = 0.57466 0.19776
# Poissons Ratio (z) = 0.31256 0.10426
#
# Static dielectric constant tensor:
#      x y z
#    x 3.839150 0.000000 0.199770 
#    y 0.000000 3.599240 0.000000 
#    z 0.199770 0.000000 3.788560 
# 
# 
# High freq. dielectric constant tensor:
#      x y z
#    x 1.728240 0.000000 -0.011210 
#    y 0.000000 1.749190 0.000000 
#    z -0.011210 0.000000 1.767540 
# 
# From -- ./inp_files/183789.got.cif
#   From: 2010.06.25/outbox.cif.g09.slc.cpg/sg12_92_cif.got.tgz:183789.got - 2010.06.28 00:19:55.
