data_PCOD8093335
_publ_section_title
;
Structure prediction by ZEFSAII (Michael W. Deem and Ramdas Pophale) SiO2 
 PCOD8093335
Probable space group: C 2/M
;
_chemical_formula_sum "Si O2"
_cell_formula_units_Z 48
_cell_length_a 23.784972
_cell_length_b 12.076370
_cell_length_c 9.689473
_cell_angle_alpha 90.000000
_cell_angle_beta 118.589055
_cell_angle_gamma 90.000000
_cell_volume 2443.827394
_symmetry_space_group_name_H-M "C 2/M"
_symmetry_group_IT_number 12
_symmetry_cell_setting 'monoclinic'
loop_
_space_group_symop_operation_xyz
x,y,z
-x,y,-z
-x,-y,-z
x,-y,z
1/2+x,1/2+y,z
1/2-x,1/2+y,-z
1/2-x,1/2-y,-z
1/2+x,1/2-y,z
loop_
_atom_site_type_symbol
_atom_site_label
_atom_site_fract_x
_atom_site_fract_y
_atom_site_fract_z
Si Si1 0.500515 0.872408 0.344581
Si Si2 0.141210 0.625830 0.400918
Si Si3 0.328579 0.692091 0.369064
Si Si4 0.687272 0.125188 0.153405
Si Si5 0.941958 0.000000 0.232664
Si Si6 0.917307 0.000000 0.527315
Si Si7 0.613882 0.730759 0.858214
O O1 0.500000 0.825437 0.500000
O O2 0.567758 0.851165 0.351387
O O3 0.448313 0.806733 0.196190
O O4 0.480546 0.000000 0.321283
O O5 0.160981 0.500000 0.457566
O O6 0.185334 0.703502 0.548111
O O7 0.151310 0.652963 0.253048
O O8 0.263300 0.628818 0.261012
O O9 0.375978 0.609971 0.508240
O O10 0.359647 0.736482 0.265181
O O11 0.669867 0.000000 0.083355
O O12 0.667657 0.219559 0.021819
O O13 0.933059 0.000000 0.384939
O O14 0.906950 0.106230 0.124395
O O15 0.019202 0.000000 0.301264
#
# Coordination Sequence:
#
# PCOD8093335 Si02
#       7
#     8   8   8   8   4   4   8
#     4  10  19  35  61  90 115 145 198 251 292 351
#     4  10  22  38  61  90 118 154 199 245 302 355
#     4  11  20  39  61  86 116 160 206 245 288 355
#     4  11  24  41  57  85 126 163 197 240 303 364
#     4   9  20  34  57  91 119 149 203 251 297 349
#     4   9  18  34  63  87 113 154 202 255 289 335
#     4  11  22  37  61  89 120 157 196 250 304 350
#
# _framework density 19.641321000000001
#
# number of rings (size 3 to 8) (size 9 to 14) (size 15 to 20)
#    0.000    1.667    2.500    2.500    2.333    1.333 
#    1.500    3.333    0.000    2.000    0.000    0.000 
#    0.000    0.000    0.000    0.000    0.000    0.000 
#
# Total GULP energy -297648.790854 kJ/mol
# GULP energy per Si atom -12402.032952 kJ/mol
# Density = 1.959662 g / cm^3
# Si number density = 19.641321 Si / 1000 Ang^3
#
#
#
# Elastic Constant Matrix: (Units=GPa)
#
#
# Indices 1 2 3 4 5 6 
#
# 1 69.3851 29.0454 20.6989 0.0000 4.8371 0.0000
# 2 29.0454 122.2229 50.7835 0.0000 4.3209 0.0000
# 3 20.6989 50.7835 50.6956 0.0000 0.0268 0.0000
# 4 0.0000 0.0000 0.0000 34.9239 0.0000 11.8537
# 5 4.8371 4.3209 0.0268 0.0000 24.6908 0.0000
# 6 0.0000 0.0000 0.0000 11.8537 0.0000 24.4294
#
#
#
# Elastic Compliance Matrix: (Units=1/GPa)
#
#
# Indices 1 2 3 4 5 6 
#
# 1 0.016892 -0.001787 -0.005105 0.000000 -0.002991 0.000000
# 2 -0.001787 0.014353 -0.013646 0.000000 -0.002147 0.000000
# 3 -0.005105 -0.013646 0.035478 0.000000 0.003350 0.000000
# 4 0.000000 0.000000 0.000000 0.034279 0.000000 -0.016633
# 5 -0.002991 -0.002147 0.003350 0.000000 0.041459 0.000000
# 6 0.000000 0.000000 0.000000 -0.016633 0.000000 0.049005
#
#
# Mechanical properties :
#
#
# Convention : Reuss Voigt Hill
#
# Bulk Modulus (GPa) = 38.99360 49.26214 44.12787
# Shear Modulus (GPa) = 20.73902 26.26055 23.49978
#
# Velocity S-wave (km/s) = 3.25297 3.66048 3.46272
# Velocity P-wave (km/s) = 5.83138 6.55750 6.20507
#
# Compressibility (1/GPa) = 0.02564524
#
# Stress axis : x y z
#
# Youngs Moduli (GPa) = 59.19987 69.67403 28.18631
#
# Poissons Ratio (x) = 0.12454 0.14388
# Poissons Ratio (y) = 0.10582 0.38464
# Poissons Ratio (z) = 0.30220 0.95081
#
# Static dielectric constant tensor:
#      x y z
#    x 3.674420 0.000000 0.029110 
#    y 0.000000 3.790980 0.000000 
#    z 0.029110 0.000000 3.243390 
# 
# 
# High freq. dielectric constant tensor:
#      x y z
#    x 1.771550 0.000000 0.007600 
#    y 0.000000 1.780710 0.000000 
#    z 0.007600 0.000000 1.730640 
# 
# From -- ./inp_files/94936.got.cif
#   From: 2010.06.25/outbox.cif.g09.slc.cpg/sg12_48_cif.got.tgz:94936.got - 2010.06.28 00:19:55.
