data_PCOD8093436
_publ_section_title
;
Structure prediction by ZEFSAII (Michael W. Deem and Ramdas Pophale) SiO2 
 PCOD8093436
Probable space group: C 2/M
;
_chemical_formula_sum "Si O2"
_cell_formula_units_Z 48
_cell_length_a 15.370139
_cell_length_b 28.179939
_cell_length_c 5.823187
_cell_angle_alpha 90.000000
_cell_angle_beta 65.180563
_cell_angle_gamma 90.000000
_cell_volume 2289.232370
_symmetry_space_group_name_H-M "C 2/M"
_symmetry_group_IT_number 12
_symmetry_cell_setting 'monoclinic'
loop_
_space_group_symop_operation_xyz
x,y,z
-x,y,-z
-x,-y,-z
x,-y,z
1/2+x,1/2+y,z
1/2-x,1/2+y,-z
1/2-x,1/2-y,-z
1/2+x,1/2-y,z
loop_
_atom_site_type_symbol
_atom_site_label
_atom_site_fract_x
_atom_site_fract_y
_atom_site_fract_z
Si Si1 0.396098 0.907944 0.652066
Si Si2 0.107932 0.871302 0.948917
Si Si3 0.553727 0.279993 0.193459
Si Si4 0.401282 0.820654 0.969291
Si Si5 0.259922 0.124573 0.422986
Si Si6 0.222753 0.945791 0.087073
O O1 0.500000 0.931890 0.500000
O O2 0.409844 0.856445 0.749528
O O3 0.345187 0.900323 0.467247
O O4 0.333159 0.942496 0.881421
O O5 0.114315 0.829155 0.133459
O O6 0.152912 0.920525 0.983577
O O7 0.174071 0.852678 0.665952
O O8 0.000000 0.883307 0.000000
O O9 0.500000 0.277881 0.500000
O O10 0.616225 0.232161 0.111379
O O11 0.500000 0.284473 0.000000
O O12 0.500000 0.822483 0.000000
O O13 0.307528 0.833596 0.221249
O O14 0.211400 0.081965 0.336218
O O15 0.191380 0.000000 0.152855
#
# Coordination Sequence:
#
# PCOD8093436 Si02
#       6
#     8   8   8   8   8   8
#     4  10  19  37  64  93 133 173 212 260 325 393
#     4  10  24  44  68  89 128 173 221 279 336 383
#     4  10  23  39  67 101 136 177 224 273 324 396
#     4  10  19  35  65  97 136 174 215 255 320 392
#     4  10  22  39  62  96 130 174 214 275 320 401
#     4  10  24  42  63  94 125 164 222 282 340 402
#
# _framework density 20.967727
#
# number of rings (size 3 to 8) (size 9 to 14) (size 15 to 20)
#    0.000    2.000    1.667    0.500    7.000    4.000 
#    0.000    9.167    0.000    0.000    0.000    0.000 
#    0.000    0.000    0.000    0.000    0.000    0.000 
#
# Total GULP energy -297398.870380 kJ/mol
# GULP energy per Si atom -12391.619599 kJ/mol
# Density = 2.092000 g / cm^3
# Si number density = 20.967727 Si / 1000 Ang^3
#
#
#
# Elastic Constant Matrix: (Units=GPa)
#
#
# Indices 1 2 3 4 5 6 
#
# 1 86.4843 23.9770 42.0833 0.0000 -17.9094 0.0000
# 2 23.9770 153.8108 51.9365 0.0000 -10.1204 0.0000
# 3 42.0833 51.9365 143.7817 0.0000 -8.9598 0.0000
# 4 0.0000 0.0000 0.0000 6.9989 0.0000 -3.9712
# 5 -17.9094 -10.1204 -8.9598 0.0000 34.0572 0.0000
# 6 0.0000 0.0000 0.0000 -3.9712 0.0000 19.4156
#
#
#
# Elastic Compliance Matrix: (Units=1/GPa)
#
#
# Indices 1 2 3 4 5 6 
#
# 1 0.014936 -0.000630 -0.003727 0.000000 0.006686 0.000000
# 2 -0.000630 0.007510 -0.002450 0.000000 0.001256 0.000000
# 3 -0.003727 -0.002450 0.008910 0.000000 -0.000344 0.000000
# 4 0.000000 0.000000 0.000000 0.161638 0.000000 0.033061
# 5 0.006686 0.001256 -0.000344 0.000000 0.033161 0.000000
# 6 0.000000 0.000000 0.000000 0.033061 0.000000 0.058267
#
#
# Mechanical properties :
#
#
# Convention : Reuss Voigt Hill
#
# Bulk Modulus (GPa) = 56.36800 68.89670 62.63235
# Shear Modulus (GPa) = 16.45014 29.83302 23.14158
#
# Velocity S-wave (km/s) = 2.80401 3.77610 3.32577
# Velocity P-wave (km/s) = 6.11759 7.20706 6.68456
#
# Compressibility (1/GPa) = 0.01774056
#
# Stress axis : x y z
#
# Youngs Moduli (GPa) = 66.95329 133.16334 112.23973
#
# Poissons Ratio (x) = 0.08386 0.41836
# Poissons Ratio (y) = 0.04216 0.27499
# Poissons Ratio (z) = 0.24956 0.32625
#
# Static dielectric constant tensor:
#      x y z
#    x 3.848190 0.000000 -0.062800 
#    y 0.000000 3.758540 0.000000 
#    z -0.062800 0.000000 4.072320 
# 
# 
# High freq. dielectric constant tensor:
#      x y z
#    x 1.813060 0.000000 0.004620 
#    y 0.000000 1.809190 0.000000 
#    z 0.004620 0.000000 1.833230 
# 
# From -- ./inp_files/13048.got.cif
#   From: 2010.06.25/outbox.cif.g09.slc.cpg/sg12_7_cif.got.tgz:13048.got - 2010.06.28 00:19:55.
