data_PCOD8093487
_publ_section_title
;
Structure prediction by ZEFSAII (Michael W. Deem and Ramdas Pophale) SiO2 
 PCOD8093487
Probable space group: C 2/M
;
_chemical_formula_sum "Si O2"
_cell_formula_units_Z 40
_cell_length_a 21.432122
_cell_length_b 16.843905
_cell_length_c 14.107915
_cell_angle_alpha 90.000000
_cell_angle_beta 160.184241
_cell_angle_gamma 90.000000
_cell_volume 1726.498687
_symmetry_space_group_name_H-M "C 2/M"
_symmetry_group_IT_number 12
_symmetry_cell_setting 'monoclinic'
loop_
_space_group_symop_operation_xyz
x,y,z
-x,y,-z
-x,-y,-z
x,-y,z
1/2+x,1/2+y,z
1/2-x,1/2+y,-z
1/2-x,1/2-y,-z
1/2+x,1/2-y,z
loop_
_atom_site_type_symbol
_atom_site_label
_atom_site_fract_x
_atom_site_fract_y
_atom_site_fract_z
Si Si1 0.493854 0.408060 0.306087
Si Si2 0.204831 0.195049 0.847861
Si Si3 0.837693 0.164012 0.624306
Si Si4 0.448616 0.909351 0.650846
Si Si5 0.256046 0.657107 0.812823
O O1 0.531869 0.500000 0.380607
O O2 0.659447 0.370357 0.480074
O O3 0.470112 0.361483 0.372973
O O4 0.300551 0.394871 0.971673
O O5 0.380399 0.142495 0.069937
O O6 0.250000 0.250000 0.000000
O O7 0.165943 0.256253 0.705920
O O8 0.750000 0.250000 0.500000
O O9 0.723834 0.104101 0.526462
O O10 0.048906 0.169251 0.963448
O O11 0.390238 0.888406 0.460267
O O12 0.510388 0.000000 0.743523
#
# Coordination Sequence:
#
# PCOD8093487 Si02
#       5
#     8   8   8   8   8
#     4   9  18  32  52  79 113 147 188 242 288 333
#     4  10  20  38  53  79 122 161 194 228 293 354
#     4  10  19  36  55  81 123 159 191 230 300 359
#     4  12  22  35  62  95 119 148 195 250 296 342
#     4   9  21  34  55  83 123 153 191 238 292 353
#
# _framework density 23.168277
#
# number of rings (size 3 to 8) (size 9 to 14) (size 15 to 20)
#    1.200    0.800    2.000    2.400    0.000    4.000 
#    0.000    5.000    0.000    0.000    0.000   57.400 
#    0.000    0.000    0.000    0.000    0.000    0.000 
#
# Total GULP energy -247852.672213 kJ/mol
# GULP energy per Si atom -12392.633611 kJ/mol
# Density = 2.311555 g / cm^3
# Si number density = 23.168277 Si / 1000 Ang^3
#
#
#
# Elastic Constant Matrix: (Units=GPa)
#
#
# Indices 1 2 3 4 5 6 
#
# 1 83.8009 41.4902 6.6315 0.0000 25.7754 0.0000
# 2 41.4902 167.7583 24.9098 0.0000 25.6643 0.0000
# 3 6.6315 24.9098 62.6911 0.0000 19.3058 0.0000
# 4 0.0000 0.0000 0.0000 27.6876 0.0000 5.8890
# 5 25.7754 25.6643 19.3058 0.0000 30.5062 0.0000
# 6 0.0000 0.0000 0.0000 5.8890 0.0000 47.5067
#
#
#
# Elastic Compliance Matrix: (Units=1/GPa)
#
#
# Indices 1 2 3 4 5 6 
#
# 1 0.017550 -0.002604 0.003813 0.000000 -0.015051 0.000000
# 2 -0.002604 0.007298 -0.001753 0.000000 -0.002830 0.000000
# 3 0.003813 -0.001753 0.020845 0.000000 -0.014939 0.000000
# 4 0.000000 0.000000 0.000000 0.037095 0.000000 -0.004598
# 5 -0.015051 -0.002830 -0.014939 0.000000 0.057332 0.000000
# 6 0.000000 0.000000 0.000000 -0.004598 0.000000 0.021620
#
#
# Mechanical properties :
#
#
# Convention : Reuss Voigt Hill
#
# Bulk Modulus (GPa) = 22.41886 51.14592 36.78239
# Shear Modulus (GPa) = 28.13794 37.22135 32.67964
#
# Velocity S-wave (km/s) = 3.48875 4.01255 3.75978
# Velocity P-wave (km/s) = 5.09176 6.60236 5.89564
#
# Compressibility (1/GPa) = 0.04460531
#
# Stress axis : x y z
#
# Youngs Moduli (GPa) = 56.98038 137.01842 47.97370
#
# Poissons Ratio (x) = 0.35682 -0.18293
# Poissons Ratio (y) = 0.14839 0.08409
# Poissons Ratio (z) = -0.21728 0.24017
#
# Static dielectric constant tensor:
#      x y z
#    x 4.466400 0.000000 0.419170 
#    y 0.000000 4.391340 0.000000 
#    z 0.419170 0.000000 3.960890 
# 
# 
# High freq. dielectric constant tensor:
#      x y z
#    x 1.914850 0.000000 0.024770 
#    y 0.000000 1.920420 0.000000 
#    z 0.024770 0.000000 1.898960 
# 
# From -- ./inp_files/289947.got.cif
#   From: 2010.06.25/outbox.cif.g09.slc.cpg/sg12_145_cif.got.tgz:289947.got - 2010.06.28 00:19:55.
