data_PCOD8093293
_publ_section_title
;
Structure prediction by ZEFSAII (Michael W. Deem and Ramdas Pophale) SiO2 
 PCOD8093293
Probable space group: C 2/M
;
_chemical_formula_sum "Si O2"
_cell_formula_units_Z 64
_cell_length_a 17.895732
_cell_length_b 12.853679
_cell_length_c 12.701549
_cell_angle_alpha 90.000000
_cell_angle_beta 102.496947
_cell_angle_gamma 90.000000
_cell_volume 2852.464499
_symmetry_space_group_name_H-M "C 2/M"
_symmetry_group_IT_number 12
_symmetry_cell_setting 'monoclinic'
loop_
_space_group_symop_operation_xyz
x,y,z
-x,y,-z
-x,-y,-z
x,-y,z
1/2+x,1/2+y,z
1/2-x,1/2+y,-z
1/2-x,1/2-y,-z
1/2+x,1/2-y,z
loop_
_atom_site_type_symbol
_atom_site_label
_atom_site_fract_x
_atom_site_fract_y
_atom_site_fract_z
Si Si1 0.186314 0.118787 0.506726
Si Si2 0.208291 0.688296 0.635905
Si Si3 0.176051 0.883238 0.164432
Si Si4 0.494327 0.618930 0.839034
Si Si5 0.940926 0.381683 0.311456
Si Si6 0.874431 0.735994 0.098168
Si Si7 0.248201 0.117115 0.955332
Si Si8 0.028708 0.187913 0.393694
O O1 0.192450 0.188923 0.612993
O O2 0.261455 0.131461 0.459268
O O3 0.118077 0.163342 0.413125
O O4 0.172996 0.000000 0.536725
O O5 0.265714 0.685086 0.750757
O O6 0.128796 0.629366 0.629360
O O7 0.203880 0.881700 0.053366
O O8 0.089663 0.840924 0.152575
O O9 0.179032 0.000000 0.211562
O O10 0.507800 0.500000 0.878350
O O11 0.555988 0.690252 0.920276
O O12 0.509799 0.628711 0.717374
O O13 0.970151 0.500000 0.314623
O O14 0.908136 0.347732 0.188550
O O15 0.011414 0.310719 0.372710
O O16 0.832425 0.670381 0.991321
O O17 0.808629 0.810831 0.132353
O O18 0.256624 0.000000 0.913490
O O19 0.000000 0.147988 0.500000
#
# Coordination Sequence:
#
# PCOD8093293 Si02
#       8
#     8   8   8   8   8   8   8   8
#     4  11  23  39  59  83 118 157 193 241 289 334
#     4  11  21  38  60  86 113 150 202 239 282 336
#     4  10  19  35  61  84 110 148 190 244 288 329
#     4  10  21  36  56  82 115 152 191 234 285 336
#     4  11  22  39  61  84 113 151 193 240 288 335
#     4  10  21  35  55  86 116 142 179 230 289 348
#     4  10  20  36  60  87 113 142 184 236 293 342
#     4  11  22  38  51  86 116 154 193 231 286 345
#
# _framework density 22.436737000000001
#
# number of rings (size 3 to 8) (size 9 to 14) (size 15 to 20)
#    0.000    1.500    3.750    2.250    0.000    1.750 
#    0.000    3.125    0.000    0.000    0.000   15.750 
#    0.000    0.000    0.000    0.000    0.000    0.000 
#
# Total GULP energy -396636.546344 kJ/mol
# GULP energy per Si atom -12394.892073 kJ/mol
# Density = 2.238567 g / cm^3
# Si number density = 22.436737 Si / 1000 Ang^3
#
#
#
# Elastic Constant Matrix: (Units=GPa)
#
#
# Indices 1 2 3 4 5 6 
#
# 1 72.4114 45.4227 9.6899 0.0000 22.9381 0.0000
# 2 45.4227 153.4335 9.4397 0.0000 22.8534 0.0000
# 3 9.6899 9.4397 45.3479 0.0000 7.0494 0.0000
# 4 0.0000 0.0000 0.0000 20.6067 0.0000 7.9112
# 5 22.9381 22.8534 7.0494 0.0000 28.2360 0.0000
# 6 0.0000 0.0000 0.0000 7.9112 0.0000 31.6382
#
#
#
# Elastic Compliance Matrix: (Units=1/GPa)
#
#
# Indices 1 2 3 4 5 6 
#
# 1 0.020750 -0.004087 -0.001536 0.000000 -0.013165 0.000000
# 2 -0.004087 0.008234 -0.000334 0.000000 -0.003260 0.000000
# 3 -0.001536 -0.000334 0.023110 0.000000 -0.004251 0.000000
# 4 0.000000 0.000000 0.000000 0.053681 0.000000 -0.013423
# 5 -0.013165 -0.003260 -0.004251 0.000000 0.049810 0.000000
# 6 0.000000 0.000000 0.000000 -0.013423 0.000000 0.034964
#
#
# Mechanical properties :
#
#
# Convention : Reuss Voigt Hill
#
# Bulk Modulus (GPa) = 24.88889 44.47749 34.68319
# Shear Modulus (GPa) = 23.16342 29.87222 26.51782
#
# Velocity S-wave (km/s) = 3.21657 3.65279 3.44160
# Velocity P-wave (km/s) = 4.99120 6.13653 5.59326
#
# Compressibility (1/GPa) = 0.04017857
#
# Stress axis : x y z
#
# Youngs Moduli (GPa) = 48.19323 121.45256 43.27057
#
# Poissons Ratio (x) = 0.49643 0.06648
# Poissons Ratio (y) = 0.19699 0.01444
# Poissons Ratio (z) = 0.07405 0.04053
#
# Static dielectric constant tensor:
#      x y z
#    x 4.084660 0.000000 0.180820 
#    y 0.000000 4.259910 0.000000 
#    z 0.180820 0.000000 3.894300 
# 
# 
# High freq. dielectric constant tensor:
#      x y z
#    x 1.878600 0.000000 0.016610 
#    y 0.000000 1.881130 0.000000 
#    z 0.016610 0.000000 1.871530 
# 
# From -- ./inp_files/232485.got.cif
#   From: 2010.06.25/outbox.cif.g09.slc.cpg/sg12_117_cif.got.tgz:232485.got - 2010.06.28 00:19:55.
