data_PCOD8093420
_publ_section_title
;
Structure prediction by ZEFSAII (Michael W. Deem and Ramdas Pophale) SiO2 
 PCOD8093420
Probable space group: C 2/M
;
_chemical_formula_sum "Si O2"
_cell_formula_units_Z 64
_cell_length_a 21.741191
_cell_length_b 15.722912
_cell_length_c 29.870989
_cell_angle_alpha 90.000000
_cell_angle_beta 18.797367
_cell_angle_gamma 90.000000
_cell_volume 3290.192930
_symmetry_space_group_name_H-M "C 2/M"
_symmetry_group_IT_number 12
_symmetry_cell_setting 'monoclinic'
loop_
_space_group_symop_operation_xyz
x,y,z
-x,y,-z
-x,-y,-z
x,-y,z
1/2+x,1/2+y,z
1/2-x,1/2+y,-z
1/2-x,1/2-y,-z
1/2+x,1/2-y,z
loop_
_atom_site_type_symbol
_atom_site_label
_atom_site_fract_x
_atom_site_fract_y
_atom_site_fract_z
Si Si1 0.502263 0.098131 0.324319
Si Si2 0.879587 0.406088 0.933598
Si Si3 0.564845 0.405874 0.616228
Si Si4 0.076138 0.742167 0.838227
Si Si5 0.671503 0.820386 0.123973
Si Si6 0.834337 0.312123 0.583805
Si Si7 0.501317 0.635890 0.238729
Si Si8 0.918762 0.251394 0.663097
O O1 0.286832 0.115374 0.456997
O O2 0.639209 0.118231 0.188283
O O3 0.550501 0.160823 0.331748
O O4 0.532081 0.000000 0.318902
O O5 0.965767 0.500000 0.872609
O O6 0.903790 0.364361 0.868698
O O7 0.998299 0.353897 0.888676
O O8 0.658495 0.409282 0.099970
O O9 0.517937 0.500000 0.628698
O O10 0.511996 0.409782 0.704734
O O11 0.444905 0.332790 0.674600
O O12 0.196799 0.758930 0.710574
O O13 0.200094 0.751372 0.797515
O O14 0.897628 0.805765 0.964010
O O15 0.550588 0.734583 0.213138
O O16 0.702266 0.376616 0.646421
O O17 0.000000 0.358240 0.500000
O O18 0.937998 0.247838 0.477795
#
# Coordination Sequence:
#
# PCOD8093420 Si02
#       8
#     8   8   8   8   8   8   8   8
#     4  11  23  38  61  91 116 152 201 245 294 351
#     4  11  22  36  59  90 119 151 197 250 291 346
#     4  11  23  38  61  91 119 155 202 244 288 351
#     4  10  22  39  61  86 114 159 198 234 297 362
#     4  11  20  38  62  83 116 156 197 239 293 350
#     4  10  19  35  64  88 110 151 198 237 295 358
#     4  11  18  38  63  83 115 156 201 242 288 341
#     4  11  22  40  63  84 122 160 191 242 302 347
#
# _framework density 19.451747000000001
#
# number of rings (size 3 to 8) (size 9 to 14) (size 15 to 20)
#    0.000    1.250    5.000    2.625    0.000    1.000 
#    0.000    1.875    0.000    7.125    0.000    0.000 
#    0.000    0.000    0.000    0.000    0.000    0.000 
#
# Total GULP energy -396787.154795 kJ/mol
# GULP energy per Si atom -12399.598587 kJ/mol
# Density = 1.940747 g / cm^3
# Si number density = 19.451747 Si / 1000 Ang^3
#
#
#
# Elastic Constant Matrix: (Units=GPa)
#
#
# Indices 1 2 3 4 5 6 
#
# 1 95.8205 40.0262 30.1127 0.0427 -5.1703 -0.0262
# 2 40.0262 117.3337 20.4839 -0.0413 -6.0937 0.0074
# 3 30.1127 20.4839 79.8532 -0.0646 4.0339 0.0243
# 4 0.0427 -0.0413 -0.0646 16.2920 0.0249 3.1558
# 5 -5.1703 -6.0937 4.0339 0.0249 35.6867 0.0434
# 6 -0.0262 0.0074 0.0243 3.1558 0.0434 14.3549
#
#
#
# Elastic Compliance Matrix: (Units=1/GPa)
#
#
# Indices 1 2 3 4 5 6 
#
# 1 0.013415 -0.003753 -0.004186 -0.000073 0.001776 0.000044
# 2 -0.003753 0.010088 -0.001239 0.000033 0.001319 -0.000021
# 3 -0.004186 -0.001239 0.014544 0.000077 -0.002462 -0.000041
# 4 -0.000073 0.000033 0.000077 0.064110 -0.000041 -0.014094
# 5 0.001776 0.001319 -0.002462 -0.000041 0.028783 -0.000071
# 6 0.000044 -0.000021 -0.000041 -0.014094 -0.000071 0.072761
#
#
# Mechanical properties :
#
#
# Convention : Reuss Voigt Hill
#
# Bulk Modulus (GPa) = 50.78584 52.69477 51.74031
# Shear Modulus (GPa) = 21.87024 26.75904 24.31464
#
# Velocity S-wave (km/s) = 3.35675 3.71302 3.53937
# Velocity P-wave (km/s) = 6.41786 6.74765 6.58482
#
# Compressibility (1/GPa) = 0.01969053
#
# Stress axis : x y z
#
# Youngs Moduli (GPa) = 74.54114 99.12853 68.75809
#
# Poissons Ratio (x) = 0.37207 0.28782
# Poissons Ratio (y) = 0.27979 0.08519
# Poissons Ratio (z) = 0.31202 0.12281
#
# Static dielectric constant tensor:
#      x y z
#    x 3.633750 -0.000040 -0.022420 
#    y -0.000040 3.461590 0.000370 
#    z -0.022420 0.000370 3.701710 
# 
# 
# High freq. dielectric constant tensor:
#      x y z
#    x 1.757720 0.000000 0.009660 
#    y 0.000000 1.741480 0.000040 
#    z 0.009660 0.000040 1.766040 
# 
# From -- ./inp_files/381434.got.cif
#   From: 2010.06.25/outbox.cif.g09.slc.cpg/sg12_191_cif.got.tgz:381434.got - 2010.06.28 00:19:55.
