data_PCOD8093252
_publ_section_title
;
Structure prediction by ZEFSAII (Michael W. Deem and Ramdas Pophale) SiO2 
 PCOD8093252
Probable space group: C 2/M
;
_chemical_formula_sum "Si O2"
_cell_formula_units_Z 56
_cell_length_a 19.536341
_cell_length_b 8.711603
_cell_length_c 27.927394
_cell_angle_alpha 90.000000
_cell_angle_beta 38.007128
_cell_angle_gamma 90.000000
_cell_volume 2926.731213
_symmetry_space_group_name_H-M "C 2/M"
_symmetry_group_IT_number 12
_symmetry_cell_setting 'monoclinic'
loop_
_space_group_symop_operation_xyz
x,y,z
-x,y,-z
-x,-y,-z
x,-y,z
1/2+x,1/2+y,z
1/2-x,1/2+y,-z
1/2-x,1/2-y,-z
1/2+x,1/2-y,z
loop_
_atom_site_type_symbol
_atom_site_label
_atom_site_fract_x
_atom_site_fract_y
_atom_site_fract_z
Si Si1 0.861163 0.179696 0.457660
Si Si2 0.623584 0.826245 0.451099
Si Si3 0.319844 0.679428 0.004911
Si Si4 0.785514 0.683429 0.126832
Si Si5 0.253236 0.324555 0.700988
Si Si6 0.089189 0.825575 0.298146
Si Si7 0.578566 0.679010 0.865511
O O1 0.750000 0.250000 0.500000
O O2 0.869515 0.211839 0.508788
O O3 0.967168 0.252122 0.370176
O O4 0.860414 0.000000 0.449835
O O5 0.500000 0.813237 0.500000
O O6 0.716306 0.775171 0.361918
O O7 0.651272 0.000000 0.451530
O O8 0.293181 0.500000 0.023540
O O9 0.449869 0.709659 0.925368
O O10 0.250000 0.750000 0.000000
O O11 0.284769 0.761481 0.073112
O O12 0.792135 0.500000 0.126197
O O13 0.670912 0.749384 0.213642
O O14 0.888666 0.749174 0.100923
O O15 0.229868 0.500000 0.698992
O O16 0.356353 0.313528 0.679851
O O17 0.143392 0.257511 0.786235
O O18 0.072790 0.000000 0.291538
O O19 0.607005 0.500000 0.851641
#
# Coordination Sequence:
#
# PCOD8093252 Si02
#       7
#     8   8   8   8   8   8   8
#     4  11  22  39  58  81 116 157 199 241 289 344
#     4  11  22  36  58  88 118 152 196 241 288 342
#     4  11  24  41  60  85 119 157 192 234 289 345
#     4  10  20  37  63  91 114 149 195 238 287 343
#     4  10  19  35  60  89 115 149 195 240 291 342
#     4   8  17  34  57  83 113 148 187 235 287 336
#     4  10  21  38  60  88 120 152 190 239 290 341
#
# _framework density 19.133975
#
# number of rings (size 3 to 8) (size 9 to 14) (size 15 to 20)
#    0.000    1.857    1.429    3.857    0.000    4.571 
#    2.571    2.143    0.000    0.000    0.000    0.000 
#    0.000    0.000    0.000    0.000    0.000    0.000 
#
# Total GULP energy -347146.674524 kJ/mol
# GULP energy per Si atom -12398.095519 kJ/mol
# Density = 1.909043 g / cm^3
# Si number density = 19.133975 Si / 1000 Ang^3
#
#
#
# Elastic Constant Matrix: (Units=GPa)
#
#
# Indices 1 2 3 4 5 6 
#
# 1 91.3213 40.5506 52.1513 0.0026 -10.6591 -0.0037
# 2 40.5506 86.6879 43.9411 0.0042 -8.3509 0.0077
# 3 52.1513 43.9411 116.3152 0.0009 -6.2105 0.0000
# 4 0.0026 0.0042 0.0009 31.9841 0.0002 3.6981
# 5 -10.6591 -8.3509 -6.2105 0.0002 26.8856 -0.0011
# 6 -0.0037 0.0077 0.0000 3.6981 -0.0011 30.9707
#
#
#
# Elastic Compliance Matrix: (Units=1/GPa)
#
#
# Indices 1 2 3 4 5 6 
#
# 1 0.016580 -0.004600 -0.005489 -0.000001 0.003877 0.000003
# 2 -0.004600 0.015826 -0.003798 -0.000001 0.002215 -0.000004
# 3 -0.005489 -0.003798 0.012468 0.000001 -0.000476 0.000000
# 4 -0.000001 -0.000001 0.000001 0.031703 -0.000001 -0.003786
# 5 0.003877 0.002215 -0.000476 -0.000001 0.039310 0.000001
# 6 0.000003 -0.000004 0.000000 -0.003786 0.000001 0.032741
#
#
# Mechanical properties :
#
#
# Convention : Reuss Voigt Hill
#
# Bulk Modulus (GPa) = 58.48057 63.06783 60.77420
# Shear Modulus (GPa) = 27.45726 28.48017 27.96871
#
# Velocity S-wave (km/s) = 3.79225 3.86224 3.82741
# Velocity P-wave (km/s) = 7.05726 7.27475 7.16683
#
# Compressibility (1/GPa) = 0.01709970
#
# Stress axis : x y z
#
# Youngs Moduli (GPa) = 60.31319 63.18768 80.20657
#
# Poissons Ratio (x) = 0.29066 0.44027
# Poissons Ratio (y) = 0.27744 0.30462
# Poissons Ratio (z) = 0.33107 0.23998
#
# Static dielectric constant tensor:
#      x y z
#    x 3.432720 0.000110 -0.388960 
#    y 0.000110 3.569170 -0.000190 
#    z -0.388960 -0.000190 4.382050 
# 
# 
# High freq. dielectric constant tensor:
#      x y z
#    x 1.725410 0.000000 -0.000780 
#    y 0.000000 1.745160 0.000000 
#    z -0.000780 0.000000 1.763430 
# 
# From -- ./inp_files/362987.got.cif
#   From: 2010.06.25/outbox.cif.g09.slc.cpg/sg12_182_cif.got.tgz:362987.got - 2010.06.28 00:19:55.
