data_PCOD8093856
_publ_section_title
;
Structure prediction by ZEFSAII (Michael W. Deem and Ramdas Pophale) SiO2 
 PCOD8093856
Probable space group: C 2/M
;
_chemical_formula_sum "Si O2"
_cell_formula_units_Z 56
_cell_length_a 19.251541
_cell_length_b 17.727771
_cell_length_c 17.322701
_cell_angle_alpha 90.000000
_cell_angle_beta 30.089463
_cell_angle_gamma 90.000000
_cell_volume 2963.996359
_symmetry_space_group_name_H-M "C 2/M"
_symmetry_group_IT_number 12
_symmetry_cell_setting 'monoclinic'
loop_
_space_group_symop_operation_xyz
x,y,z
-x,y,-z
-x,-y,-z
x,-y,z
1/2+x,1/2+y,z
1/2-x,1/2+y,-z
1/2-x,1/2-y,-z
1/2+x,1/2-y,z
loop_
_atom_site_type_symbol
_atom_site_label
_atom_site_fract_x
_atom_site_fract_y
_atom_site_fract_z
Si Si1 0.343162 0.916756 0.633099
Si Si2 0.983119 0.230436 0.848110
Si Si3 0.010728 0.771375 0.650024
Si Si4 0.314891 0.413171 0.526531
Si Si5 0.613110 0.845876 0.833693
Si Si6 0.759339 0.352590 0.562887
Si Si7 0.750545 0.721594 0.809461
O O1 0.500000 0.896119 0.500000
O O2 0.318846 0.913979 0.564630
O O3 0.246623 0.856761 0.767880
O O4 0.305829 0.000000 0.699457
O O5 0.036632 0.307318 0.835025
O O6 0.100551 0.165877 0.736799
O O7 0.938785 0.242277 0.801922
O O8 0.846459 0.204958 0.024437
O O9 0.905181 0.744421 0.686133
O O10 0.050577 0.858886 0.595569
O O11 0.154248 0.724942 0.511703
O O12 0.364156 0.500000 0.472507
O O13 0.218462 0.406308 0.695752
O O14 0.228510 0.388211 0.533802
O O15 0.694846 0.784352 0.805130
O O16 0.500000 0.884817 0.000000
#
# Coordination Sequence:
#
# PCOD8093856 Si02
#       7
#     8   8   8   8   8   8   8
#     4  11  22  35  54  86 120 150 184 231 286 337
#     4  10  19  36  60  85 109 147 197 230 268 331
#     4  11  20  37  62  85 110 149 194 230 276 334
#     4  11  22  37  58  85 112 147 190 238 285 328
#     4  10  20  36  59  83 112 149 191 231 274 337
#     4  11  19  37  61  83 110 149 195 229 271 337
#     4  11  22  36  59  85 117 147 189 234 282 330
#
# _framework density 18.893409999999999
#
# number of rings (size 3 to 8) (size 9 to 14) (size 15 to 20)
#    0.000    1.286    5.714    1.714    0.000    0.286 
#    0.000    5.714    0.000    0.857    0.000    0.000 
#    0.000    0.000    0.000    0.000    0.000    0.000 
#
# Total GULP energy -347154.547373 kJ/mol
# GULP energy per Si atom -12398.376692 kJ/mol
# Density = 1.885041 g / cm^3
# Si number density = 18.893410 Si / 1000 Ang^3
#
#
#
# Elastic Constant Matrix: (Units=GPa)
#
#
# Indices 1 2 3 4 5 6 
#
# 1 68.7539 26.0165 34.7612 0.0005 6.4861 0.0009
# 2 26.0165 95.9081 39.7063 0.0016 1.7853 -0.0003
# 3 34.7612 39.7063 94.7371 -0.0010 11.3756 0.0018
# 4 0.0005 0.0016 -0.0010 15.5631 -0.0001 2.1538
# 5 6.4861 1.7853 11.3756 -0.0001 25.8916 -0.0005
# 6 0.0009 -0.0003 0.0018 2.1538 -0.0005 6.9555
#
#
#
# Elastic Compliance Matrix: (Units=1/GPa)
#
#
# Indices 1 2 3 4 5 6 
#
# 1 0.018506 -0.002751 -0.005388 0.000000 -0.002079 -0.000001
# 2 -0.002751 0.013083 -0.004696 -0.000002 0.001850 0.000003
# 3 -0.005388 -0.004696 0.015096 0.000002 -0.004959 -0.000004
# 4 0.000000 -0.000002 0.000002 0.067131 -0.000001 -0.020788
# 5 -0.002079 0.001850 -0.004959 -0.000001 0.041195 0.000005
# 6 -0.000001 0.000003 -0.000004 -0.020788 0.000005 0.150209
#
#
# Mechanical properties :
#
#
# Convention : Reuss Voigt Hill
#
# Bulk Modulus (GPa) = 47.58404 51.15189 49.36797
# Shear Modulus (GPa) = 14.79758 20.27637 17.53697
#
# Velocity S-wave (km/s) = 2.80163 3.27952 3.04995
# Velocity P-wave (km/s) = 5.97543 6.43996 6.21204
#
# Compressibility (1/GPa) = 0.02101545
#
# Stress axis : x y z
#
# Youngs Moduli (GPa) = 54.03792 76.43767 66.24266
#
# Poissons Ratio (x) = 0.21026 0.35689
# Poissons Ratio (y) = 0.14864 0.31108
# Poissons Ratio (z) = 0.29113 0.35895
#
# Static dielectric constant tensor:
#      x y z
#    x 3.613240 0.000000 0.224320 
#    y 0.000000 3.222220 0.000000 
#    z 0.224320 0.000000 3.551630 
# 
# 
# High freq. dielectric constant tensor:
#      x y z
#    x 1.743600 0.000000 0.013610 
#    y 0.000000 1.706600 0.000000 
#    z 0.013610 0.000000 1.734490 
# 
# From -- ./inp_files/87825.got.cif
#   From: 2010.06.25/outbox.cif.g09.slc.cpg/sg12_44_cif.got.tgz:87825.got - 2010.06.28 00:19:55.
