data_PCOD8093994
_publ_section_title
;
Structure prediction by ZEFSAII (Michael W. Deem and Ramdas Pophale) SiO2 
 PCOD8093994
Probable space group: C 2/M
;
_chemical_formula_sum "Si O2"
_cell_formula_units_Z 56
_cell_length_a 25.396154
_cell_length_b 8.614144
_cell_length_c 13.619314
_cell_angle_alpha 90.000000
_cell_angle_beta 67.514914
_cell_angle_gamma 90.000000
_cell_volume 2752.944565
_symmetry_space_group_name_H-M "C 2/M"
_symmetry_group_IT_number 12
_symmetry_cell_setting 'monoclinic'
loop_
_space_group_symop_operation_xyz
x,y,z
-x,y,-z
-x,-y,-z
x,-y,z
1/2+x,1/2+y,z
1/2-x,1/2+y,-z
1/2-x,1/2-y,-z
1/2+x,1/2-y,z
loop_
_atom_site_type_symbol
_atom_site_label
_atom_site_fract_x
_atom_site_fract_y
_atom_site_fract_z
Si Si1 0.861749 0.184677 0.774751
Si Si2 0.939409 0.815090 0.075829
Si Si3 0.585878 0.684413 0.687618
Si Si4 0.294502 0.183116 0.392327
Si Si5 0.340735 0.683726 0.007700
Si Si6 0.248543 0.316754 0.225978
Si Si7 0.485136 0.315436 0.618449
O O1 0.814934 0.247418 0.731718
O O2 0.923681 0.248004 0.697941
O O3 0.860656 0.000000 0.773764
O O4 0.845966 0.251339 0.894024
O O5 0.927061 0.757320 0.193847
O O6 0.892116 0.747064 0.036019
O O7 0.939643 0.000000 0.072443
O O8 0.000000 0.747139 0.000000
O O9 0.593476 0.500000 0.675329
O O10 0.643766 0.766002 0.611794
O O11 0.534140 0.743262 0.656758
O O12 0.250000 0.250000 0.500000
O O13 0.283598 0.250729 0.292200
O O14 0.289219 0.000000 0.392517
O O15 0.346875 0.500000 0.998881
O O16 0.281337 0.731171 0.101940
O O17 0.245635 0.500000 0.240585
O O18 0.500000 0.250486 0.500000
O O19 0.483111 0.500000 0.619138
#
# Coordination Sequence:
#
# PCOD8093994 Si02
#       7
#     8   8   8   8   8   8   8
#     4  10  20  35  57  87 121 162 207 248 294 351
#     4   9  15  26  51  84 115 153 198 245 293 345
#     4  10  19  36  61  88 120 155 197 248 299 355
#     4  12  26  43  64  90 119 154 196 246 303 364
#     4   9  17  31  52  83 120 154 196 247 296 351
#     4  11  22  39  60  87 121 157 198 248 303 357
#     4   9  19  34  55  86 120 155 199 248 295 348
#
# _framework density 20.341854000000001
#
# number of rings (size 3 to 8) (size 9 to 14) (size 15 to 20)
#    0.000    2.000    1.429    3.000    2.000    3.429 
#    0.000    1.429    0.000    1.286    0.000    0.000 
#    0.000    0.000    0.000    0.000    0.000    0.000 
#
# Total GULP energy -347229.046723 kJ/mol
# GULP energy per Si atom -12401.037383 kJ/mol
# Density = 2.029556 g / cm^3
# Si number density = 20.341854 Si / 1000 Ang^3
#
#
#
# Elastic Constant Matrix: (Units=GPa)
#
#
# Indices 1 2 3 4 5 6 
#
# 1 159.7884 24.1528 52.2019 0.0000 -19.0269 0.0000
# 2 24.1528 40.7063 30.5896 0.0000 -6.8822 0.0000
# 3 52.2019 30.5896 121.6922 0.0000 -18.3099 0.0000
# 4 0.0000 0.0000 0.0000 17.6021 0.0000 -2.0080
# 5 -19.0269 -6.8822 -18.3099 0.0000 41.5271 0.0000
# 6 0.0000 0.0000 0.0000 -2.0080 0.0000 25.2215
#
#
#
# Elastic Compliance Matrix: (Units=1/GPa)
#
#
# Indices 1 2 3 4 5 6 
#
# 1 0.007639 -0.002410 -0.002361 0.000000 0.002060 0.000000
# 2 -0.002410 0.031171 -0.006630 0.000000 0.001138 0.000000
# 3 -0.002361 -0.006630 0.011320 0.000000 0.002810 0.000000
# 4 0.000000 0.000000 0.000000 0.057332 0.000000 0.004564
# 5 0.002060 0.001138 0.002810 0.000000 0.026452 0.000000
# 6 0.000000 0.000000 0.000000 0.004564 0.000000 0.040012
#
#
# Mechanical properties :
#
#
# Convention : Reuss Voigt Hill
#
# Bulk Modulus (GPa) = 36.59394 59.56394 48.07894
# Shear Modulus (GPa) = 24.29084 31.21965 27.75525
#
# Velocity S-wave (km/s) = 3.45937 3.92184 3.69784
# Velocity P-wave (km/s) = 5.82965 7.06065 6.47447
#
# Compressibility (1/GPa) = 0.02732693
#
# Stress axis : x y z
#
# Youngs Moduli (GPa) = 130.90320 32.08092 88.34010
#
# Poissons Ratio (x) = 0.07732 0.20860
# Poissons Ratio (y) = 0.31548 0.58573
# Poissons Ratio (z) = 0.30910 0.21271
#
# Static dielectric constant tensor:
#      x y z
#    x 3.916790 0.000000 -0.028430 
#    y 0.000000 3.130850 0.000000 
#    z -0.028430 0.000000 3.922470 
# 
# 
# High freq. dielectric constant tensor:
#      x y z
#    x 1.812620 0.000000 -0.004490 
#    y 0.000000 1.742170 0.000000 
#    z -0.004490 0.000000 1.806460 
# 
# From -- ./inp_files/237808.got.cif
#   From: 2010.06.25/outbox.cif.g09.slc.cpg/sg12_119_cif.got.tgz:237808.got - 2010.06.28 00:19:55.
