data_PCOD8093657
_publ_section_title
;
Structure prediction by ZEFSAII (Michael W. Deem and Ramdas Pophale) SiO2 
 PCOD8093657
Probable space group: C 2/M
;
_chemical_formula_sum "Si O2"
_cell_formula_units_Z 48
_cell_length_a 27.812884
_cell_length_b 14.209650
_cell_length_c 14.644092
_cell_angle_alpha 90.000000
_cell_angle_beta 157.906700
_cell_angle_gamma 90.000000
_cell_volume 2176.775118
_symmetry_space_group_name_H-M "C 2/M"
_symmetry_group_IT_number 12
_symmetry_cell_setting 'monoclinic'
loop_
_space_group_symop_operation_xyz
x,y,z
-x,y,-z
-x,-y,-z
x,-y,z
1/2+x,1/2+y,z
1/2-x,1/2+y,-z
1/2-x,1/2-y,-z
1/2+x,1/2-y,z
loop_
_atom_site_type_symbol
_atom_site_label
_atom_site_fract_x
_atom_site_fract_y
_atom_site_fract_z
Si Si1 0.168397 0.892352 0.068446
Si Si2 0.772512 0.610097 0.604061
Si Si3 0.631824 0.302488 0.194264
Si Si4 0.099491 0.892476 0.470038
Si Si5 0.859770 0.850920 0.265028
Si Si6 0.142550 0.361009 0.753672
O O1 0.166725 0.826577 0.152940
O O2 0.299371 0.878019 0.244318
O O3 0.151888 0.000000 0.071572
O O4 0.049611 0.863032 0.794576
O O5 0.819271 0.500000 0.687566
O O6 0.736524 0.643739 0.439472
O O7 0.877196 0.687921 0.817260
O O8 0.656692 0.627716 0.470859
O O9 0.500000 0.344560 0.000000
O O10 0.170193 0.840686 0.678921
O O11 0.117432 0.000000 0.527285
O O12 0.872708 0.747316 0.245552
O O13 0.000000 0.901605 0.500000
O O14 0.742624 0.904164 0.005585
O O15 0.000000 0.407806 0.500000
#
# Coordination Sequence:
#
# PCOD8093657 Si02
#       6
#     8   8   8   8   8   8
#     4  11  22  37  61  92 124 164 214 265 317 381
#     4  10  22  40  61  92 129 164 210 261 315 385
#     4  11  22  39  65  93 126 168 207 261 327 379
#     4  10  20  35  59  88 118 158 212 266 310 370
#     4  10  19  36  58  84 118 162 214 264 317 380
#     4  10  22  38  58  86 124 166 209 262 322 381
#
# _framework density 22.050968999999998
#
# number of rings (size 3 to 8) (size 9 to 14) (size 15 to 20)
#    0.000    1.667    3.333    1.500    0.000    2.333 
#    0.000    0.000    0.000    4.000    0.000    0.000 
#    0.000    0.000    0.000    0.000    0.000    0.000 
#
# Total GULP energy -297332.021401 kJ/mol
# GULP energy per Si atom -12388.834225 kJ/mol
# Density = 2.200078 g / cm^3
# Si number density = 22.050969 Si / 1000 Ang^3
#
#
#
# Elastic Constant Matrix: (Units=GPa)
#
#
# Indices 1 2 3 4 5 6 
#
# 1 126.5949 23.7991 63.8754 0.0000 -5.7707 0.0000
# 2 23.7991 88.5156 23.2752 0.0000 -16.1999 0.0000
# 3 63.8754 23.2752 148.1481 0.0000 -5.2870 0.0000
# 4 0.0000 0.0000 0.0000 8.3683 0.0000 0.6509
# 5 -5.7707 -16.1999 -5.2870 0.0000 35.6067 0.0000
# 6 0.0000 0.0000 0.0000 0.6509 0.0000 -5.4199
#
#
#
# Elastic Compliance Matrix: (Units=1/GPa)
#
#
# Indices 1 2 3 4 5 6 
#
# 1 0.010331 -0.001618 -0.004189 0.000000 0.000316 0.000000
# 2 -0.001618 0.013043 -0.001155 0.000000 0.005500 0.000000
# 3 -0.004189 -0.001155 0.008741 0.000000 0.000093 0.000000
# 4 0.000000 0.000000 0.000000 0.118393 0.000000 0.014217
# 5 0.000316 0.005500 0.000093 0.000000 0.030652 0.000000
# 6 0.000000 0.000000 0.000000 0.014217 0.000000 -0.182799
#
#
# Mechanical properties :
#
#
# Convention : Reuss Voigt Hill
#
# Bulk Modulus (GPa) = 54.97399 65.01756 59.99577
# Shear Modulus (GPa) = 272.48538 24.53162 148.50850
#
# Velocity S-wave (km/s) = 11.12830 3.33903 8.21548
# Velocity P-wave (km/s) = 13.78779 6.66443 10.82861
#
# Compressibility (1/GPa) = 0.01819042
#
# Stress axis : x y z
#
# Youngs Moduli (GPa) = 96.79141 76.66954 114.40453
#
# Poissons Ratio (x) = 0.12409 0.47924
# Poissons Ratio (y) = 0.15666 0.13214
# Poissons Ratio (z) = 0.40546 0.08856
#
# Static dielectric constant tensor:
#      x y z
#    x 3.831560 0.000000 -0.000230 
#    y 0.000000 3.848310 0.000000 
#    z -0.000230 0.000000 4.153770 
# 
# 
# High freq. dielectric constant tensor:
#      x y z
#    x 1.869800 0.000000 -0.008890 
#    y 0.000000 1.857310 0.000000 
#    z -0.008890 0.000000 1.857700 
# 
# From -- ./inp_files/251521.got.cif
#   From: 2010.06.25/outbox.cif.g09.slc.cpg/sg12_126_cif.got.tgz:251521.got - 2010.06.28 00:19:55.
