data_PCOD8093179
_publ_section_title
;
Structure prediction by ZEFSAII (Michael W. Deem and Ramdas Pophale) SiO2 
 PCOD8093179
Probable space group: C 2/M
;
_chemical_formula_sum "Si O2"
_cell_formula_units_Z 56
_cell_length_a 16.083253
_cell_length_b 8.977861
_cell_length_c 22.785466
_cell_angle_alpha 90.000000
_cell_angle_beta 58.443039
_cell_angle_gamma 90.000000
_cell_volume 2803.532508
_symmetry_space_group_name_H-M "C 2/M"
_symmetry_group_IT_number 12
_symmetry_cell_setting 'monoclinic'
loop_
_space_group_symop_operation_xyz
x,y,z
-x,y,-z
-x,-y,-z
x,-y,z
1/2+x,1/2+y,z
1/2-x,1/2+y,-z
1/2-x,1/2-y,-z
1/2+x,1/2-y,z
loop_
_atom_site_type_symbol
_atom_site_label
_atom_site_fract_x
_atom_site_fract_y
_atom_site_fract_z
Si Si1 0.060675 0.323544 0.421023
Si Si2 0.279914 0.673064 0.345676
Si Si3 0.334664 0.174416 0.931876
Si Si4 0.639762 0.670353 0.198943
Si Si5 0.463750 0.673155 0.345196
Si Si6 0.005871 0.830349 0.929417
Si Si7 0.296738 0.669764 0.208478
O O1 0.065121 0.500000 0.412022
O O2 0.170617 0.257093 0.388338
O O3 0.000000 0.273519 0.500000
O O4 0.006293 0.262432 0.384032
O O5 0.269821 0.500000 0.362795
O O6 0.356114 0.736391 0.366319
O O7 0.327332 0.700873 0.264224
O O8 0.334319 0.225778 0.865079
O O9 0.437800 0.214591 0.921703
O O10 0.316562 0.000000 0.940145
O O11 0.250000 0.250000 0.000000
O O12 0.657742 0.500000 0.173946
O O13 0.530370 0.693886 0.262685
O O14 0.710755 0.716486 0.225523
O O15 0.459482 0.500000 0.364466
O O16 0.114525 0.799201 0.867873
O O17 0.973981 0.000000 0.926504
O O18 0.000000 0.798018 0.000000
O O19 0.258987 0.500000 0.215832
#
# Coordination Sequence:
#
# PCOD8093179 Si02
#       7
#     8   8   8   8   8   8   8
#     4  10  21  38  60  87 121 159 202 254 304 357
#     4   9  18  35  58  83 117 160 202 240 299 369
#     4  12  25  40  59  83 115 155 199 247 301 357
#     4  11  22  37  59  87 119 151 196 251 302 356
#     4  10  21  38  61  88 119 159 201 246 299 365
#     4  10  21  37  57  83 114 149 193 243 299 366
#     4  10  19  35  60  84 114 158 197 237 301 369
#
# _framework density 19.974799000000001
#
# number of rings (size 3 to 8) (size 9 to 14) (size 15 to 20)
#    0.000    1.714    1.429    3.429    0.000    5.714 
#    0.000    1.429    0.000    0.000    0.000    0.000 
#    0.000    0.000    0.000    0.000    0.000    0.000 
#
# Total GULP energy -347193.332653 kJ/mol
# GULP energy per Si atom -12399.761880 kJ/mol
# Density = 1.992934 g / cm^3
# Si number density = 19.974799 Si / 1000 Ang^3
#
#
#
# Elastic Constant Matrix: (Units=GPa)
#
#
# Indices 1 2 3 4 5 6 
#
# 1 147.0755 36.9457 47.2622 -0.0001 -1.8109 0.0001
# 2 36.9457 76.9881 31.1579 -0.0002 3.0346 0.0004
# 3 47.2622 31.1579 110.3941 -0.0001 -2.3671 0.0000
# 4 -0.0001 -0.0002 -0.0001 39.1297 0.0000 -8.1838
# 5 -1.8109 3.0346 -2.3671 0.0000 24.0293 0.0000
# 6 0.0001 0.0004 0.0000 -8.1838 0.0000 45.0095
#
#
#
# Elastic Compliance Matrix: (Units=1/GPa)
#
#
# Indices 1 2 3 4 5 6 
#
# 1 0.008440 -0.002962 -0.002762 0.000000 0.000738 0.000000
# 2 -0.002962 0.015827 -0.003254 0.000000 -0.002543 0.000000
# 3 -0.002762 -0.003254 0.011187 0.000000 0.001305 0.000000
# 4 0.000000 0.000000 0.000000 0.026566 0.000000 0.004830
# 5 0.000738 -0.002543 0.001305 0.000000 0.042121 0.000000
# 6 0.000000 0.000000 0.000000 0.004830 0.000000 0.023096
#
#
# Mechanical properties :
#
#
# Convention : Reuss Voigt Hill
#
# Bulk Modulus (GPa) = 57.14170 62.79884 59.97027
# Shear Modulus (GPa) = 33.10726 36.23983 34.67354
#
# Velocity S-wave (km/s) = 4.07560 4.26405 4.17089
# Velocity P-wave (km/s) = 7.12856 7.46660 7.29954
#
# Compressibility (1/GPa) = 0.01750036
#
# Stress axis : x y z
#
# Youngs Moduli (GPa) = 118.48797 63.18201 89.38918
#
# Poissons Ratio (x) = 0.18712 0.24685
# Poissons Ratio (y) = 0.35091 0.29085
# Poissons Ratio (z) = 0.32721 0.20558
#
# Static dielectric constant tensor:
#      x y z
#    x 3.828830 0.000000 -0.157710 
#    y 0.000000 3.200720 0.000000 
#    z -0.157710 0.000000 3.695840 
# 
# 
# High freq. dielectric constant tensor:
#      x y z
#    x 1.791390 0.000000 -0.002000 
#    y 0.000000 1.754700 0.000000 
#    z -0.002000 0.000000 1.786500 
# 
# From -- ./inp_files/338544.got.cif
#   From: 2010.06.25/outbox.cif.g09.slc.cpg/sg12_170_cif.got.tgz:338544.got - 2010.06.28 00:19:55.
