data_PCOD8093005
_publ_section_title
;
Structure prediction by ZEFSAII (Michael W. Deem and Ramdas Pophale) SiO2 
 PCOD8093005
Probable space group: C 2/M
;
_chemical_formula_sum "Si O2"
_cell_formula_units_Z 64
_cell_length_a 30.064556
_cell_length_b 13.650924
_cell_length_c 9.650747
_cell_angle_alpha 90.000000
_cell_angle_beta 61.629918
_cell_angle_gamma 90.000000
_cell_volume 3485.054036
_symmetry_space_group_name_H-M "C 2/M"
_symmetry_group_IT_number 12
_symmetry_cell_setting 'monoclinic'
loop_
_space_group_symop_operation_xyz
x,y,z
-x,y,-z
-x,-y,-z
x,-y,z
1/2+x,1/2+y,z
1/2-x,1/2+y,-z
1/2-x,1/2-y,-z
1/2+x,1/2-y,z
loop_
_atom_site_type_symbol
_atom_site_label
_atom_site_fract_x
_atom_site_fract_y
_atom_site_fract_z
Si Si1 0.322352 0.887132 0.085476
Si Si2 0.148258 0.887882 0.818947
Si Si3 0.878683 0.194248 0.425764
Si Si4 0.850693 0.390905 0.354694
Si Si5 0.134898 0.788727 0.119306
Si Si6 0.059241 0.886220 0.429466
Si Si7 0.738265 0.891186 0.310981
Si Si8 0.289046 0.694738 0.765115
O O1 0.344391 0.860093 0.204205
O O2 0.262620 0.864527 0.170798
O O3 0.330742 0.000000 0.037912
O O4 0.354458 0.826561 0.924007
O O5 0.119189 0.858396 0.724232
O O6 0.206780 0.859310 0.717301
O O7 0.139525 0.000000 0.859141
O O8 0.125194 0.836970 0.986749
O O9 0.884222 0.311426 0.388942
O O10 0.926297 0.152776 0.439593
O O11 0.826840 0.167174 0.583404
O O12 0.874983 0.500000 0.332857
O O13 0.794962 0.390452 0.501749
O O14 0.085486 0.811654 0.282741
O O15 0.184033 0.830998 0.128585
O O16 0.000000 0.875701 0.500000
O O17 0.076238 0.000000 0.383605
O O18 0.720281 0.812298 0.223989
O O19 0.738006 0.000000 0.242678
#
# Coordination Sequence:
#
# PCOD8093005 Si02
#       8
#     8   8   8   8   8   8   8   8
#     4  11  21  32  51  79 117 158 193 221 258 312
#     4  11  20  30  50  79 110 143 182 227 271 317
#     4  10  19  35  59  81 111 146 187 223 267 327
#     4   9  17  31  51  79 114 155 192 225 258 305
#     4  11  22  37  53  79 113 146 181 232 280 321
#     4  10  23  44  66  84 104 134 173 223 288 349
#     4   9  17  28  46  73 112 155 193 226 260 303
#     4  10  20  33  48  75 113 158 193 220 257 315
#
# _framework density 18.364134
#
# number of rings (size 3 to 8) (size 9 to 14) (size 15 to 20)
#    0.000    1.875    2.500    1.875    0.000    6.500 
#    0.000    2.500    0.000    3.750    0.000    1.750 
#    0.000    0.000    0.000    0.000    0.000    0.000 
#
# Total GULP energy -396666.226478 kJ/mol
# GULP energy per Si atom -12395.819577 kJ/mol
# Density = 1.832234 g / cm^3
# Si number density = 18.364134 Si / 1000 Ang^3
#
#
#
# Elastic Constant Matrix: (Units=GPa)
#
#
# Indices 1 2 3 4 5 6 
#
# 1 95.3589 45.2275 46.8879 0.0000 6.7162 0.0000
# 2 45.2275 75.4755 44.5227 0.0000 -6.5788 0.0000
# 3 46.8879 44.5227 75.1877 0.0000 18.4325 0.0000
# 4 0.0000 0.0000 0.0000 23.2991 0.0000 3.4435
# 5 6.7162 -6.5788 18.4325 0.0000 20.0678 0.0000
# 6 0.0000 0.0000 0.0000 3.4435 0.0000 21.6135
#
#
#
# Elastic Compliance Matrix: (Units=1/GPa)
#
#
# Indices 1 2 3 4 5 6 
#
# 1 0.016754 -0.006881 -0.005738 0.000000 -0.002592 0.000000
# 2 -0.006881 0.036805 -0.027137 0.000000 0.039294 0.000000
# 3 -0.005738 -0.027137 0.044730 0.000000 -0.048061 0.000000
# 4 0.000000 0.000000 0.000000 0.043955 0.000000 -0.007003
# 5 -0.002592 0.039294 -0.048061 0.000000 0.107725 0.000000
# 6 0.000000 0.000000 0.000000 -0.007003 0.000000 0.047383
#
#
# Mechanical properties :
#
#
# Convention : Reuss Voigt Hill
#
# Bulk Modulus (GPa) = 53.25293 57.69980 55.47637
# Shear Modulus (GPa) = 13.05065 20.28834 16.66949
#
# Velocity S-wave (km/s) = 2.66871 3.32743 3.01611
# Velocity P-wave (km/s) = 6.20945 6.80077 6.51183
#
# Compressibility (1/GPa) = 0.01877831
#
# Stress axis : x y z
#
# Youngs Moduli (GPa) = 59.68675 27.16996 22.35650
#
# Poissons Ratio (x) = 0.18695 0.12828
# Poissons Ratio (y) = 0.41069 0.60668
# Poissons Ratio (z) = 0.34249 0.73730
#
# Static dielectric constant tensor:
#      x y z
#    x 3.169500 0.000000 0.274790 
#    y 0.000000 3.671950 0.000000 
#    z 0.274790 0.000000 3.285120 
# 
# 
# High freq. dielectric constant tensor:
#      x y z
#    x 1.677860 0.000000 0.032410 
#    y 0.000000 1.725040 0.000000 
#    z 0.032410 0.000000 1.699460 
# 
# From -- ./inp_files/104541.got.cif
#   From: 2010.06.25/outbox.cif.g09.slc.cpg/sg12_53_cif.got.tgz:104541.got - 2010.06.28 00:19:55.
