data_PCOD8093417
_publ_section_title
;
Structure prediction by ZEFSAII (Michael W. Deem and Ramdas Pophale) SiO2 
 PCOD8093417
Probable space group: C 2/M
;
_chemical_formula_sum "Si O2"
_cell_formula_units_Z 40
_cell_length_a 10.165521
_cell_length_b 15.064945
_cell_length_c 12.828070
_cell_angle_alpha 90.000000
_cell_angle_beta 91.144595
_cell_angle_gamma 90.000000
_cell_volume 1964.137326
_symmetry_space_group_name_H-M "C 2/M"
_symmetry_group_IT_number 12
_symmetry_cell_setting 'monoclinic'
loop_
_space_group_symop_operation_xyz
x,y,z
-x,y,-z
-x,-y,-z
x,-y,z
1/2+x,1/2+y,z
1/2-x,1/2+y,-z
1/2-x,1/2-y,-z
1/2+x,1/2-y,z
loop_
_atom_site_type_symbol
_atom_site_label
_atom_site_fract_x
_atom_site_fract_y
_atom_site_fract_z
Si Si1 0.277423 0.098323 0.722659
Si Si2 0.632173 0.860681 0.053815
Si Si3 0.879827 0.740977 0.569530
Si Si4 0.524954 0.398567 0.293024
Si Si5 0.618081 0.347392 0.073758
O O1 0.336095 0.089627 0.839021
O O2 0.362927 0.166999 0.657812
O O3 0.126288 0.131170 0.726174
O O4 0.285125 0.000000 0.672078
O O5 0.615879 0.758093 0.082044
O O6 0.500000 0.898985 0.000000
O O7 0.745641 0.880283 0.972185
O O8 0.750000 0.750000 0.500000
O O9 0.910014 0.837023 0.618631
O O10 0.000000 0.709177 0.500000
O O11 0.534832 0.500000 0.331941
O O12 0.604732 0.388858 0.187377
O O13 0.500000 0.382718 0.000000
#
# Coordination Sequence:
#
# PCOD8093417 Si02
#       5
#     8   8   8   8   8
#     4  11  24  43  68  99 134 173 220 270 330 394
#     4  10  21  35  62  96 138 175 209 261 323 384
#     4  12  26  46  72  95 129 171 218 282 341 386
#     4  11  24  42  70 101 131 171 224 270 321 400
#     4  10  19  35  63  96 129 176 218 253 312 398
#
# _framework density 20.365174
#
# number of rings (size 3 to 8) (size 9 to 14) (size 15 to 20)
#    0.000    1.200    6.000    0.000    0.000    4.800 
#    0.000    2.000    0.000    0.000    0.000    0.000 
#    0.000    0.000    0.000    0.000    0.000    0.000 
#
# Total GULP energy -248098.543653 kJ/mol
# GULP energy per Si atom -12404.927183 kJ/mol
# Density = 2.031882 g / cm^3
# Si number density = 20.365174 Si / 1000 Ang^3
#
#
#
# Elastic Constant Matrix: (Units=GPa)
#
#
# Indices 1 2 3 4 5 6 
#
# 1 162.6350 47.7580 65.8924 0.0000 3.6346 0.0000
# 2 47.7580 99.0014 49.6440 0.0000 -6.8791 0.0000
# 3 65.8924 49.6440 116.3261 0.0000 -2.3086 0.0000
# 4 0.0000 0.0000 0.0000 -8.0487 0.0000 38.1812
# 5 3.6346 -6.8791 -2.3086 0.0000 46.3057 0.0000
# 6 0.0000 0.0000 0.0000 38.1812 0.0000 -33.3372
#
#
#
# Elastic Compliance Matrix: (Units=1/GPa)
#
#
# Indices 1 2 3 4 5 6 
#
# 1 0.008372 -0.002202 -0.003826 0.000000 -0.001175 0.000000
# 2 -0.002202 0.013555 -0.004499 0.000000 0.001962 0.000000
# 3 -0.003826 -0.004499 0.012689 0.000000 0.000265 0.000000
# 4 0.000000 0.000000 0.000000 0.028027 0.000000 0.032099
# 5 -0.001175 0.001962 0.000265 0.000000 0.021993 0.000000
# 6 0.000000 0.000000 0.000000 0.032099 0.000000 0.006767
#
#
# Mechanical properties :
#
#
# Convention : Reuss Voigt Hill
#
# Bulk Modulus (GPa) = 73.72953 78.28346 76.00650
# Shear Modulus (GPa) = 42.74425 15.29516 29.01971
#
# Velocity S-wave (km/s) = 4.58633 2.74349 3.77897
# Velocity P-wave (km/s) = 8.02049 6.96843 7.51290
#
# Compressibility (1/GPa) = 0.01356309
#
# Stress axis : x y z
#
# Youngs Moduli (GPa) = 119.45249 73.77234 78.80957
#
# Poissons Ratio (x) = 0.16242 0.30151
# Poissons Ratio (y) = 0.26299 0.35455
# Poissons Ratio (z) = 0.45700 0.33189
#
# Static dielectric constant tensor:
#      x y z
#    x 3.834870 0.000000 -0.036170 
#    y 0.000000 3.616810 0.000000 
#    z -0.036170 0.000000 3.652270 
# 
# 
# High freq. dielectric constant tensor:
#      x y z
#    x 1.802380 0.000000 -0.002070 
#    y 0.000000 1.795060 0.000000 
#    z -0.002070 0.000000 1.797010 
# 
# From -- ./inp_files/119051.got.cif
#   From: 2010.06.25/outbox.cif.g09.slc.cpg/sg12_60_cif.got.tgz:119051.got - 2010.06.28 00:19:55.
