data_PCOD8093201
_publ_section_title
;
Structure prediction by ZEFSAII (Michael W. Deem and Ramdas Pophale) SiO2 
 PCOD8093201
Probable space group: C 2/M
;
_chemical_formula_sum "Si O2"
_cell_formula_units_Z 56
_cell_length_a 29.287132
_cell_length_b 13.976678
_cell_length_c 12.529920
_cell_angle_alpha 90.000000
_cell_angle_beta 33.229065
_cell_angle_gamma 90.000000
_cell_volume 2810.605263
_symmetry_space_group_name_H-M "C 2/M"
_symmetry_group_IT_number 12
_symmetry_cell_setting 'monoclinic'
loop_
_space_group_symop_operation_xyz
x,y,z
-x,y,-z
-x,-y,-z
x,-y,z
1/2+x,1/2+y,z
1/2-x,1/2+y,-z
1/2-x,1/2-y,-z
1/2+x,1/2-y,z
loop_
_atom_site_type_symbol
_atom_site_label
_atom_site_fract_x
_atom_site_fract_y
_atom_site_fract_z
Si Si1 0.438695 0.393236 0.710701
Si Si2 0.746777 0.607300 0.006291
Si Si3 0.023425 0.762169 0.699292
Si Si4 0.805448 0.245854 0.285409
Si Si5 0.546189 0.601787 0.014205
Si Si6 0.049022 0.388307 0.013933
Si Si7 0.294295 0.248379 0.738960
O O1 0.500000 0.358118 0.500000
O O2 0.463801 0.500000 0.702352
O O3 0.347978 0.394642 0.841563
O O4 0.445747 0.311006 0.786796
O O5 0.781679 0.500000 0.957047
O O6 0.753212 0.666405 0.104540
O O7 0.795761 0.654928 0.811900
O O8 0.108418 0.769299 0.468565
O O9 0.026329 0.832447 0.793890
O O10 0.000580 0.656303 0.787131
O O11 0.750000 0.250000 0.500000
O O12 0.866257 0.155432 0.172420
O O13 0.859046 0.343181 0.173919
O O14 0.748342 0.233080 0.292037
O O15 0.565058 0.500000 0.037501
O O16 0.500000 0.571364 0.000000
O O17 0.058333 0.500000 0.018282
O O18 0.000000 0.367809 0.000000
#
# Coordination Sequence:
#
# PCOD8093201 Si02
#       7
#     8   8   8   8   8   8   8
#     4  10  19  35  60  86 110 144 189 237 291 347
#     4  10  22  40  58  83 119 154 194 242 290 344
#     4  11  20  36  60  84 115 149 195 239 287 339
#     4  11  22  39  61  88 122 153 188 237 297 354
#     4  10  21  37  59  89 119 148 188 238 290 346
#     4  10  22  40  59  80 111 155 202 237 273 336
#     4  11  23  36  58  88 118 154 191 236 295 353
#
# _framework density 19.924534999999999
#
# number of rings (size 3 to 8) (size 9 to 14) (size 15 to 20)
#    0.000    1.571    1.429    5.571    0.000    4.000 
#    0.000    0.000    0.000    0.429    0.000    0.000 
#    0.000    0.000    0.000    0.000    0.000    0.000 
#
# Total GULP energy -346937.482946 kJ/mol
# GULP energy per Si atom -12390.624391 kJ/mol
# Density = 1.987919 g / cm^3
# Si number density = 19.924535 Si / 1000 Ang^3
#
#
#
# Elastic Constant Matrix: (Units=GPa)
#
#
# Indices 1 2 3 4 5 6 
#
# 1 78.2381 25.7877 18.2688 0.0000 11.7739 0.0000
# 2 25.7877 153.7403 43.1680 0.0000 9.4951 0.0000
# 3 18.2688 43.1680 120.4631 0.0000 13.2313 0.0000
# 4 0.0000 0.0000 0.0000 25.8587 0.0000 -7.7287
# 5 11.7739 9.4951 13.2313 0.0000 30.8237 0.0000
# 6 0.0000 0.0000 0.0000 -7.7287 0.0000 24.9937
#
#
#
# Elastic Compliance Matrix: (Units=1/GPa)
#
#
# Indices 1 2 3 4 5 6 
#
# 1 0.014296 -0.001836 -0.001021 0.000000 -0.004457 0.000000
# 2 -0.001836 0.007508 -0.002346 0.000000 -0.000605 0.000000
# 3 -0.001021 -0.002346 0.009628 0.000000 -0.003021 0.000000
# 4 0.000000 0.000000 0.000000 0.042610 0.000000 0.013176
# 5 -0.004457 -0.000605 -0.003021 0.000000 0.035628 0.000000
# 6 0.000000 0.000000 0.000000 0.013176 0.000000 0.044085
#
#
# Mechanical properties :
#
#
# Convention : Reuss Voigt Hill
#
# Bulk Modulus (GPa) = 47.55600 58.54339 53.04970
# Shear Modulus (GPa) = 29.21090 34.01635 31.61362
#
# Velocity S-wave (km/s) = 3.83309 4.13638 3.98762
# Velocity P-wave (km/s) = 6.59621 7.22905 6.91987
#
# Compressibility (1/GPa) = 0.02102784
#
# Stress axis : x y z
#
# Youngs Moduli (GPa) = 69.95112 133.18312 103.85877
#
# Poissons Ratio (x) = 0.24454 0.10599
# Poissons Ratio (y) = 0.12844 0.24363
# Poissons Ratio (z) = 0.07139 0.31242
#
# Static dielectric constant tensor:
#      x y z
#    x 3.632890 0.000000 0.292640 
#    y 0.000000 3.926940 0.000000 
#    z 0.292640 0.000000 3.629670 
# 
# 
# High freq. dielectric constant tensor:
#      x y z
#    x 1.777980 0.000000 0.013820 
#    y 0.000000 1.782940 0.000000 
#    z 0.013820 0.000000 1.778210 
# 
# From -- ./inp_files/183490.got.cif
#   From: 2010.06.25/outbox.cif.g09.slc.cpg/sg12_92_cif.got.tgz:183490.got - 2010.06.28 00:19:55.
