data_PCOD8093319
_publ_section_title
;
Structure prediction by ZEFSAII (Michael W. Deem and Ramdas Pophale) SiO2 
 PCOD8093319
Probable space group: C 2/M
;
_chemical_formula_sum "Si O2"
_cell_formula_units_Z 40
_cell_length_a 20.331892
_cell_length_b 8.740843
_cell_length_c 27.994525
_cell_angle_alpha 90.000000
_cell_angle_beta 155.876937
_cell_angle_gamma 90.000000
_cell_volume 2033.324001
_symmetry_space_group_name_H-M "C 2/M"
_symmetry_group_IT_number 12
_symmetry_cell_setting 'monoclinic'
loop_
_space_group_symop_operation_xyz
x,y,z
-x,y,-z
-x,-y,-z
x,-y,z
1/2+x,1/2+y,z
1/2-x,1/2+y,-z
1/2-x,1/2-y,-z
1/2+x,1/2-y,z
loop_
_atom_site_type_symbol
_atom_site_label
_atom_site_fract_x
_atom_site_fract_y
_atom_site_fract_z
Si Si1 0.826541 0.176244 0.761121
Si Si2 0.782662 0.176195 0.622618
Si Si3 0.331268 0.820376 0.007409
Si Si4 0.542874 0.818473 0.640331
Si Si5 0.913694 0.319667 0.223188
O O1 0.756153 0.192443 0.661429
O O2 0.691751 0.241763 0.707629
O O3 0.982538 0.278894 0.871992
O O4 0.870535 0.000000 0.801433
O O5 0.625189 0.243811 0.492114
O O6 0.933538 0.277304 0.707441
O O7 0.815416 0.000000 0.630104
O O8 0.308446 0.000000 0.995464
O O9 0.250000 0.750000 0.000000
O O10 0.245445 0.758908 0.902993
O O11 0.561682 0.758913 0.706723
O O12 0.539181 0.000000 0.634887
O O13 0.888213 0.500000 0.205177
#
# Coordination Sequence:
#
# PCOD8093319 Si02
#       5
#     8   8   8   8   8
#     4  10  20  37  62  88 117 153 195 239 285 338
#     4  10  19  35  61  88 117 155 199 239 281 336
#     4  12  24  40  61  85 114 148 194 242 292 347
#     4   9  20  37  58  88 121 157 194 233 285 345
#     4  11  22  37  59  86 120 156 195 238 285 341
#
# _framework density 19.672222000000001
#
# number of rings (size 3 to 8) (size 9 to 14) (size 15 to 20)
#    0.000    1.600    2.000    3.600    0.000    3.200 
#    0.000    8.000    0.000    2.400    0.000    0.000 
#    0.000    0.000    0.000    0.000    0.000    0.000 
#
# Total GULP energy -248100.011482 kJ/mol
# GULP energy per Si atom -12405.000574 kJ/mol
# Density = 1.962745 g / cm^3
# Si number density = 19.672222 Si / 1000 Ang^3
#
#
#
# Elastic Constant Matrix: (Units=GPa)
#
#
# Indices 1 2 3 4 5 6 
#
# 1 90.2032 23.4064 27.6697 0.0187 -7.2521 -0.0060
# 2 23.4064 80.3560 33.5810 0.0167 -8.2867 -0.0031
# 3 27.6697 33.5810 127.2329 0.0665 -17.1328 -0.0220
# 4 0.0187 0.0167 0.0665 31.8395 0.0012 1.0221
# 5 -7.2521 -8.2867 -17.1328 0.0012 33.8952 -0.0053
# 6 -0.0060 -0.0031 -0.0220 1.0221 -0.0053 19.5997
#
#
#
# Elastic Compliance Matrix: (Units=1/GPa)
#
#
# Indices 1 2 3 4 5 6 
#
# 1 0.012449 -0.002748 -0.001839 -0.000002 0.001062 0.000002
# 2 -0.002748 0.014682 -0.003083 0.000000 0.001443 -0.000002
# 3 -0.001839 -0.003083 0.009570 -0.000018 0.003690 0.000012
# 4 -0.000002 0.000000 -0.000018 0.031460 -0.000011 -0.001641
# 5 0.001062 0.001443 0.003690 -0.000011 0.031948 0.000014
# 6 0.000002 -0.000002 0.000012 -0.001641 0.000014 0.051107
#
#
# Mechanical properties :
#
#
# Convention : Reuss Voigt Hill
#
# Bulk Modulus (GPa) = 46.81463 51.90070 49.35766
# Shear Modulus (GPa) = 28.78906 31.27587 30.03247
#
# Velocity S-wave (km/s) = 3.82964 3.99162 3.91147
# Velocity P-wave (km/s) = 6.58816 6.90536 6.74862
#
# Compressibility (1/GPa) = 0.02136084
#
# Stress axis : x y z
#
# Youngs Moduli (GPa) = 80.33007 68.10872 104.49104
#
# Poissons Ratio (x) = 0.18717 0.19215
# Poissons Ratio (y) = 0.22075 0.32217
# Poissons Ratio (z) = 0.14772 0.20999
#
# Static dielectric constant tensor:
#      x y z
#    x 3.713020 0.000000 -0.123400 
#    y 0.000000 3.357640 -0.000020 
#    z -0.123400 -0.000020 3.837210 
# 
# 
# High freq. dielectric constant tensor:
#      x y z
#    x 1.772080 0.000000 -0.005590 
#    y 0.000000 1.743860 0.000000 
#    z -0.005590 0.000000 1.782910 
# 
# From -- ./inp_files/151640.got.cif
#   From: 2010.06.25/outbox.cif.g09.slc.cpg/sg12_76_cif.got.tgz:151640.got - 2010.06.28 00:19:55.
