data_PCOD8093346
_publ_section_title
;
Structure prediction by ZEFSAII (Michael W. Deem and Ramdas Pophale) SiO2 
 PCOD8093346
Probable space group: C 2/M
;
_chemical_formula_sum "Si O2"
_cell_formula_units_Z 52
_cell_length_a 14.690738
_cell_length_b 21.461832
_cell_length_c 16.789573
_cell_angle_alpha 90.000000
_cell_angle_beta 152.359466
_cell_angle_gamma 90.000000
_cell_volume 2455.816052
_symmetry_space_group_name_H-M "C 2/M"
_symmetry_group_IT_number 12
_symmetry_cell_setting 'monoclinic'
loop_
_space_group_symop_operation_xyz
x,y,z
-x,y,-z
-x,-y,-z
x,-y,z
1/2+x,1/2+y,z
1/2-x,1/2+y,-z
1/2-x,1/2-y,-z
1/2+x,1/2-y,z
loop_
_atom_site_type_symbol
_atom_site_label
_atom_site_fract_x
_atom_site_fract_y
_atom_site_fract_z
Si Si1 0.650430 0.685934 0.453947
Si Si2 0.367397 0.312708 0.102206
Si Si3 0.158690 0.196271 0.185755
Si Si4 0.295460 0.432911 0.749716
Si Si5 0.750471 0.933170 0.937689
Si Si6 0.000000 0.220141 0.500000
Si Si7 0.133935 0.569116 0.449358
O O1 0.750000 0.750000 0.500000
O O2 0.438709 0.681338 0.247903
O O3 0.618663 0.682131 0.524838
O O4 0.771016 0.623812 0.528585
O O5 0.560872 0.310225 0.196816
O O6 0.229044 0.372680 0.977866
O O7 0.250000 0.250000 0.000000
O O8 0.241762 0.127848 0.224127
O O9 0.345411 0.240125 0.329728
O O10 0.000000 0.221880 0.000000
O O11 0.225326 0.500000 0.731710
O O12 0.529388 0.435588 0.923133
O O13 0.822091 0.421112 0.423563
O O14 0.709332 0.000000 0.950433
O O15 0.599846 0.927187 0.747035
O O16 0.214573 0.500000 0.486654
#
# Coordination Sequence:
#
# PCOD8093346 Si02
#       7
#     8   8   8   8   8   4   8
#     4  12  22  41  65  90 123 167 208 259 314 369
#     4  11  21  37  62  89 118 163 206 255 309 367
#     4  11  23  39  56  87 126 163 201 256 309 369
#     4   9  18  36  58  86 121 161 206 248 304 373
#     4   9  18  32  57  89 117 152 204 252 302 370
#     4  12  26  42  60  90 128 158 212 260 314 368
#     4  10  19  35  61  90 122 163 209 256 310 372
#
# _framework density 21.174223999999999
#
# number of rings (size 3 to 8) (size 9 to 14) (size 15 to 20)
#    0.000    1.538    4.615    1.846    0.000    4.000 
#    0.000    0.769    0.000    0.923    0.000    2.154 
#    0.000    0.000    0.000    0.000    0.000    0.000 
#
# Total GULP energy -322127.369006 kJ/mol
# GULP energy per Si atom -12389.514193 kJ/mol
# Density = 2.112603 g / cm^3
# Si number density = 21.174224 Si / 1000 Ang^3
#
#
#
# Elastic Constant Matrix: (Units=GPa)
#
#
# Indices 1 2 3 4 5 6 
#
# 1 72.7935 29.6456 5.8395 0.0030 -7.2204 0.0017
# 2 29.6456 156.3674 39.1517 0.0029 6.5683 0.0027
# 3 5.8395 39.1517 148.6052 0.0279 -19.5538 0.0114
# 4 0.0030 0.0029 0.0279 19.6103 0.0032 2.5635
# 5 -7.2204 6.5683 -19.5538 0.0032 12.3729 0.0017
# 6 0.0017 0.0027 0.0114 2.5635 0.0017 18.4317
#
#
#
# Elastic Compliance Matrix: (Units=1/GPa)
#
#
# Indices 1 2 3 4 5 6 
#
# 1 0.017066 -0.004630 0.002756 -0.000008 0.016773 -0.000003
# 2 -0.004630 0.008830 -0.003935 0.000007 -0.013608 0.000002
# 3 0.002756 -0.003935 0.010282 -0.000017 0.019947 -0.000005
# 4 -0.000008 0.000007 -0.000017 0.051938 -0.000048 -0.007224
# 5 0.016773 -0.013608 0.019947 -0.000048 0.129358 -0.000017
# 6 -0.000003 0.000002 -0.000005 -0.007224 -0.000017 0.055259
#
#
# Mechanical properties :
#
#
# Convention : Reuss Voigt Hill
#
# Bulk Modulus (GPa) = 40.71622 58.55997 49.63810
# Shear Modulus (GPa) = 17.09184 30.29160 23.69172
#
# Velocity S-wave (km/s) = 2.84421 3.78642 3.34862
# Velocity P-wave (km/s) = 5.48242 6.84341 6.20037
#
# Compressibility (1/GPa) = 0.02456024
#
# Stress axis : x y z
#
# Youngs Moduli (GPa) = 58.59693 113.25160 97.25392
#
# Poissons Ratio (x) = 0.52437 -0.26806
# Poissons Ratio (y) = 0.27131 0.38269
# Poissons Ratio (z) = -0.16151 0.44564
#
# Static dielectric constant tensor:
#      x y z
#    x 3.509010 0.000000 -0.180020 
#    y 0.000000 4.643400 -0.000010 
#    z -0.180020 -0.000010 4.255430 
# 
# 
# High freq. dielectric constant tensor:
#      x y z
#    x 1.772360 0.000000 -0.011510 
#    y 0.000000 1.846330 0.000000 
#    z -0.011510 0.000000 1.860940 
# 
# From -- ./inp_files/272226.got.cif
#   From: 2010.06.25/outbox.cif.g09.slc.cpg/sg12_137_cif.got.tgz:272226.got - 2010.06.28 00:19:55.
