data_PCOD8093814
_publ_section_title
;
Structure prediction by ZEFSAII (Michael W. Deem and Ramdas Pophale) SiO2 
 PCOD8093814
Probable space group: C 2/M
;
_chemical_formula_sum "Si O2"
_cell_formula_units_Z 64
_cell_length_a 24.246514
_cell_length_b 9.043532
_cell_length_c 19.839935
_cell_angle_alpha 90.000000
_cell_angle_beta 54.335465
_cell_angle_gamma 90.000000
_cell_volume 3534.446186
_symmetry_space_group_name_H-M "C 2/M"
_symmetry_group_IT_number 12
_symmetry_cell_setting 'monoclinic'
loop_
_space_group_symop_operation_xyz
x,y,z
-x,y,-z
-x,-y,-z
x,-y,z
1/2+x,1/2+y,z
1/2-x,1/2+y,-z
1/2-x,1/2-y,-z
1/2+x,1/2-y,z
loop_
_atom_site_type_symbol
_atom_site_label
_atom_site_fract_x
_atom_site_fract_y
_atom_site_fract_z
Si Si1 0.083045 0.330148 0.745738
Si Si2 0.176198 0.672683 0.296556
Si Si3 0.444916 0.674663 0.874231
Si Si4 0.425739 0.674491 0.530030
Si Si5 0.442354 0.168991 0.384703
Si Si6 0.428405 0.828213 0.020612
Si Si7 0.184109 0.669789 0.788212
Si Si8 0.908912 0.329296 0.769498
O O1 0.059642 0.500000 0.773862
O O2 0.098301 0.301699 0.655952
O O3 0.150886 0.296245 0.739133
O O4 0.022411 0.228221 0.814936
O O5 0.169127 0.500000 0.317023
O O6 0.131255 0.758938 0.381975
O O7 0.253512 0.721212 0.247317
O O8 0.151852 0.709257 0.238073
O O9 0.442882 0.500000 0.876186
O O10 0.400813 0.731957 0.842330
O O11 0.410871 0.735613 0.966464
O O12 0.500000 0.730748 0.500000
O O13 0.420166 0.500000 0.537705
O O14 0.411420 0.726442 0.463986
O O15 0.520970 0.209983 0.317819
O O16 0.434589 0.000000 0.413950
O O17 0.370299 0.794333 0.115729
O O18 0.431962 0.000000 0.998808
O O19 0.500000 0.774986 0.000000
O O20 0.208584 0.500000 0.774945
O O21 0.908888 0.500000 0.791506
#
# Coordination Sequence:
#
# PCOD8093814 Si02
#       8
#     8   8   8   8   8   8   8   8
#     4   9  18  36  57  80 112 151 188 222 276 341
#     4  11  23  39  59  82 113 150 188 230 279 337
#     4  11  21  31  53  87 117 141 180 240 282 318
#     4  11  22  35  55  84 116 145 183 233 279 330
#     4   9  17  32  57  83 108 140 186 233 273 326
#     4  10  19  36  60  82 110 150 192 227 274 339
#     4  10  21  38  60  83 112 149 187 229 278 336
#     4   9  19  36  56  78 109 150 187 223 276 340
#
# _framework density 18.107503999999999
#
# number of rings (size 3 to 8) (size 9 to 14) (size 15 to 20)
#    0.000    2.000    2.500    2.625    0.000    4.750 
#    0.000    1.250    0.000    0.000    0.000    0.000 
#    0.000    0.000    0.000    0.000    0.000    0.000 
#
# Total GULP energy -396893.186149 kJ/mol
# GULP energy per Si atom -12402.912067 kJ/mol
# Density = 1.806629 g / cm^3
# Si number density = 18.107504 Si / 1000 Ang^3
#
#
#
# Elastic Constant Matrix: (Units=GPa)
#
#
# Indices 1 2 3 4 5 6 
#
# 1 123.0712 50.7172 57.9437 0.0003 13.1295 0.0003
# 2 50.7172 85.9856 51.1070 0.0007 13.0479 -0.0029
# 3 57.9437 51.1070 94.9845 -0.0012 13.0933 -0.0006
# 4 0.0003 0.0007 -0.0012 22.3963 0.0002 -6.2147
# 5 13.1295 13.0479 13.0933 0.0002 28.3299 0.0008
# 6 0.0003 -0.0029 -0.0006 -6.2147 0.0008 21.2112
#
#
#
# Elastic Compliance Matrix: (Units=1/GPa)
#
#
# Indices 1 2 3 4 5 6 
#
# 1 0.012374 -0.003980 -0.005200 -0.000001 -0.001498 -0.000001
# 2 -0.003980 0.018785 -0.007199 0.000000 -0.003480 0.000002
# 3 -0.005200 -0.007199 0.017927 0.000001 -0.002559 0.000000
# 4 -0.000001 0.000000 0.000001 0.048601 -0.000001 0.014240
# 5 -0.001498 -0.003480 -0.002559 -0.000001 0.038778 -0.000002
# 6 -0.000001 0.000002 0.000000 0.014240 -0.000002 0.051317
#
#
# Mechanical properties :
#
#
# Convention : Reuss Voigt Hill
#
# Bulk Modulus (GPa) = 61.25464 69.28635 65.27050
# Shear Modulus (GPa) = 22.12545 24.00572 23.06558
#
# Velocity S-wave (km/s) = 3.49935 3.64501 3.57292
# Velocity P-wave (km/s) = 7.08725 7.48744 7.29009
#
# Compressibility (1/GPa) = 0.01632529
#
# Stress axis : x y z
#
# Youngs Moduli (GPa) = 80.81558 53.23482 55.78194
#
# Poissons Ratio (x) = 0.21189 0.29009
# Poissons Ratio (y) = 0.32167 0.40160
# Poissons Ratio (z) = 0.42027 0.38326
#
# Static dielectric constant tensor:
#      x y z
#    x 3.535140 0.000000 0.236920 
#    y 0.000000 3.249280 0.000000 
#    z 0.236920 0.000000 3.215340 
# 
# 
# High freq. dielectric constant tensor:
#      x y z
#    x 1.698460 0.000000 0.023800 
#    y 0.000000 1.698360 0.000000 
#    z 0.023800 0.000000 1.690510 
# 
# From -- ./inp_files/295612.got.cif
#   From: 2010.06.25/outbox.cif.g09.slc.cpg/sg12_148_cif.got.tgz:295612.got - 2010.06.28 00:19:55.
