data_PCOD8093700
_publ_section_title
;
Structure prediction by ZEFSAII (Michael W. Deem and Ramdas Pophale) SiO2 
 PCOD8093700
Probable space group: C 2/M
;
_chemical_formula_sum "Si O2"
_cell_formula_units_Z 56
_cell_length_a 30.654681
_cell_length_b 12.121817
_cell_length_c 15.056089
_cell_angle_alpha 90.000000
_cell_angle_beta 32.219922
_cell_angle_gamma 90.000000
_cell_volume 2982.928095
_symmetry_space_group_name_H-M "C 2/M"
_symmetry_group_IT_number 12
_symmetry_cell_setting 'monoclinic'
loop_
_space_group_symop_operation_xyz
x,y,z
-x,y,-z
-x,-y,-z
x,-y,z
1/2+x,1/2+y,z
1/2-x,1/2+y,-z
1/2-x,1/2-y,-z
1/2+x,1/2-y,z
loop_
_atom_site_type_symbol
_atom_site_label
_atom_site_fract_x
_atom_site_fract_y
_atom_site_fract_z
Si Si1 0.549501 0.251929 0.163327
Si Si2 0.064045 0.374945 0.957433
Si Si3 0.268238 0.214994 0.368852
Si Si4 0.147626 0.631045 0.138867
Si Si5 0.882095 0.872273 0.485547
Si Si6 0.697827 0.372935 0.842673
Si Si7 0.805300 0.230836 0.780421
O O1 0.574476 0.174397 0.202830
O O2 0.459327 0.297804 0.329288
O O3 0.555173 0.177780 0.067765
O O4 0.612607 0.352806 0.041126
O O5 0.037620 0.500000 0.015735
O O6 0.156246 0.369887 0.761061
O O7 0.000000 0.317155 0.000000
O O8 0.250000 0.250000 0.500000
O O9 0.190736 0.157845 0.456320
O O10 0.299130 0.321128 0.260715
O O11 0.137959 0.500000 0.173518
O O12 0.140943 0.703458 0.240042
O O13 0.235828 0.653698 0.943125
O O14 0.860133 0.850450 0.626333
O O15 0.904337 0.000000 0.435496
O O16 0.713854 0.500000 0.802696
O O17 0.769718 0.324085 0.777975
#
# Coordination Sequence:
#
# PCOD8093700 Si02
#       7
#     8   8   8   8   8   8   8
#     4  10  21  35  53  80 109 141 185 224 263 324
#     4  10  20  36  57  79 108 144 179 219 270 323
#     4  10  21  36  56  83 110 137 181 227 265 323
#     4  10  19  36  59  80 109 145 182 226 276 324
#     4  11  22  38  57  78 110 145 180 224 275 323
#     4   9  18  34  54  76 107 141 173 217 270 319
#     4   9  20  35  56  84 107 137 185 227 267 328
#
# _framework density 18.773501
#
# number of rings (size 3 to 8) (size 9 to 14) (size 15 to 20)
#    0.000    2.143    0.000    3.857    0.000    1.714 
#    0.000   12.143    0.000    4.714    0.000    0.000 
#    0.000    0.000    0.000    0.000    0.000    0.000 
#
# Total GULP energy -347185.110380 kJ/mol
# GULP energy per Si atom -12399.468228 kJ/mol
# Density = 1.873077 g / cm^3
# Si number density = 18.773501 Si / 1000 Ang^3
#
#
#
# Elastic Constant Matrix: (Units=GPa)
#
#
# Indices 1 2 3 4 5 6 
#
# 1 132.7236 31.5266 43.7724 0.0000 1.1335 0.0000
# 2 31.5266 89.3589 19.5165 0.0000 -4.3663 0.0000
# 3 43.7724 19.5165 95.5368 0.0000 -4.7291 0.0000
# 4 0.0000 0.0000 0.0000 8.0042 0.0000 -2.2411
# 5 1.1335 -4.3663 -4.7291 0.0000 36.5392 0.0000
# 6 0.0000 0.0000 0.0000 -2.2411 0.0000 19.3094
#
#
#
# Elastic Compliance Matrix: (Units=1/GPa)
#
#
# Indices 1 2 3 4 5 6 
#
# 1 0.009416 -0.002534 -0.003850 0.000000 -0.001093 0.000000
# 2 -0.002534 0.012439 -0.001311 0.000000 0.001395 0.000000
# 3 -0.003850 -0.001311 0.012578 0.000000 0.001591 0.000000
# 4 0.000000 0.000000 0.000000 0.129131 0.000000 0.014987
# 5 -0.001093 0.001395 0.001591 0.000000 0.027774 0.000000
# 6 0.000000 0.000000 0.000000 0.014987 0.000000 0.053528
#
#
# Mechanical properties :
#
#
# Convention : Reuss Voigt Hill
#
# Bulk Modulus (GPa) = 52.51656 56.36114 54.43885
# Shear Modulus (GPa) = 18.75437 27.62414 23.18926
#
# Velocity S-wave (km/s) = 3.16409 3.84010 3.51837
# Velocity P-wave (km/s) = 6.43297 7.05327 6.75025
#
# Compressibility (1/GPa) = 0.01904161
#
# Stress axis : x y z
#
# Youngs Moduli (GPa) = 106.20592 80.38923 79.50484
#
# Poissons Ratio (x) = 0.20374 0.30613
# Poissons Ratio (y) = 0.26917 0.10422
# Poissons Ratio (z) = 0.40893 0.10538
#
# Static dielectric constant tensor:
#      x y z
#    x 3.709260 0.000000 -0.076210 
#    y 0.000000 3.336370 0.000000 
#    z -0.076210 0.000000 3.563470 
# 
# 
# High freq. dielectric constant tensor:
#      x y z
#    x 1.742050 0.000000 0.003010 
#    y 0.000000 1.726100 0.000000 
#    z 0.003010 0.000000 1.723420 
# 
# From -- ./inp_files/223125.got.cif
#   From: 2010.06.25/outbox.cif.g09.slc.cpg/sg12_112_cif.got.tgz:223125.got - 2010.06.28 00:19:55.
