data_PCOD8093260
_publ_section_title
;
Structure prediction by ZEFSAII (Michael W. Deem and Ramdas Pophale) SiO2 
 PCOD8093260
Probable space group: C 2/M
;
_chemical_formula_sum "Si O2"
_cell_formula_units_Z 64
_cell_length_a 15.436378
_cell_length_b 8.665442
_cell_length_c 23.989328
_cell_angle_alpha 90.000000
_cell_angle_beta 89.750994
_cell_angle_gamma 90.000000
_cell_volume 3208.855095
_symmetry_space_group_name_H-M "C 2/M"
_symmetry_group_IT_number 12
_symmetry_cell_setting 'monoclinic'
loop_
_space_group_symop_operation_xyz
x,y,z
-x,y,-z
-x,-y,-z
x,-y,z
1/2+x,1/2+y,z
1/2-x,1/2+y,-z
1/2-x,1/2-y,-z
1/2+x,1/2-y,z
loop_
_atom_site_type_symbol
_atom_site_label
_atom_site_fract_x
_atom_site_fract_y
_atom_site_fract_z
Si Si1 0.600592 0.180080 0.364463
Si Si2 0.903890 0.819704 0.247725
Si Si3 0.755505 0.183482 0.438800
Si Si4 0.913995 0.678773 0.759486
Si Si5 0.349740 0.176939 0.137382
Si Si6 0.594852 0.817070 0.634279
Si Si7 0.501309 0.317544 0.937122
Si Si8 0.157520 0.823408 0.136712
O O1 0.673431 0.252890 0.404545
O O2 0.627686 0.216478 0.300598
O O3 0.503534 0.243608 0.376478
O O4 0.598603 0.000000 0.375780
O O5 0.845891 0.764317 0.196426
O O6 0.875865 0.730692 0.303775
O O7 0.002357 0.784017 0.230497
O O8 0.889953 0.000000 0.257957
O O9 0.750000 0.250000 0.500000
O O10 0.844825 0.237464 0.411252
O O11 0.753590 0.000000 0.440325
O O12 0.942060 0.500000 0.761733
O O13 0.846213 0.719459 0.807680
O O14 0.416708 0.248695 0.094364
O O15 0.253772 0.193119 0.111045
O O16 0.375185 0.000000 0.147985
O O17 0.601401 0.000000 0.628427
O O18 0.511215 0.500000 0.936441
O O19 0.412099 0.264040 0.908186
O O20 0.500000 0.253372 0.000000
O O21 0.137979 0.000000 0.153277
#
# Coordination Sequence:
#
# PCOD8093260 Si02
#       8
#     8   8   8   8   8   8   8   8
#     4   8  19  38  59  83 117 156 196 236 293 356
#     4  11  21  36  59  88 123 160 195 243 304 363
#     4  11  23  41  61  87 119 159 202 247 293 355
#     4  10  19  35  60  89 119 156 198 244 296 361
#     4  11  23  38  58  89 122 157 202 250 296 350
#     4  10  21  40  62  88 117 155 199 248 298 355
#     4  10  22  42  64  85 117 162 205 247 300 359
#     4  10  22  38  57  87 123 158 195 246 300 351
#
# _framework density 19.944807000000001
#
# number of rings (size 3 to 8) (size 9 to 14) (size 15 to 20)
#    0.000    1.875    1.250    3.375    1.750    2.250 
#    0.000    9.375    0.000    0.000    0.000    0.000 
#    0.000    0.000    0.000    0.000    0.000    0.000 
#
# Total GULP energy -396823.271531 kJ/mol
# GULP energy per Si atom -12400.727235 kJ/mol
# Density = 1.989941 g / cm^3
# Si number density = 19.944807 Si / 1000 Ang^3
#
#
#
# Elastic Constant Matrix: (Units=GPa)
#
#
# Indices 1 2 3 4 5 6 
#
# 1 125.1258 28.3637 84.3627 0.0000 5.7906 0.0000
# 2 28.3637 54.6451 41.4145 0.0000 0.6170 0.0000
# 3 84.3627 41.4145 153.0629 0.0000 5.6986 0.0000
# 4 0.0000 0.0000 0.0000 31.6969 0.0000 -6.4242
# 5 5.7906 0.6170 5.6986 0.0000 25.2057 0.0000
# 6 0.0000 0.0000 0.0000 -6.4242 0.0000 28.3723
#
#
#
# Elastic Compliance Matrix: (Units=1/GPa)
#
#
# Indices 1 2 3 4 5 6 
#
# 1 0.012884 -0.001673 -0.006595 0.000000 -0.001428 0.000000
# 2 -0.001673 0.023256 -0.005409 0.000000 0.001038 0.000000
# 3 -0.006595 -0.005409 0.011669 0.000000 -0.000991 0.000000
# 4 0.000000 0.000000 0.000000 0.033066 0.000000 0.007487
# 5 -0.001428 0.001038 -0.000991 0.000000 0.040200 0.000000
# 6 0.000000 0.000000 0.000000 0.007487 0.000000 0.036941
#
#
# Mechanical properties :
#
#
# Convention : Reuss Voigt Hill
#
# Bulk Modulus (GPa) = 48.88982 71.23505 60.06244
# Shear Modulus (GPa) = 26.01613 28.96784 27.49199
#
# Velocity S-wave (km/s) = 3.61557 3.81517 3.71671
# Velocity P-wave (km/s) = 6.48040 7.42974 6.97125
#
# Compressibility (1/GPa) = 0.02045415
#
# Stress axis : x y z
#
# Youngs Moduli (GPa) = 77.61550 42.99997 85.69849
#
# Poissons Ratio (x) = 0.07193 0.56522
# Poissons Ratio (y) = 0.12984 0.46354
# Poissons Ratio (z) = 0.51191 0.23259
#
# Static dielectric constant tensor:
#      x y z
#    x 3.745830 0.000000 0.174760 
#    y 0.000000 3.512950 0.000000 
#    z 0.174760 0.000000 3.715720 
# 
# 
# High freq. dielectric constant tensor:
#      x y z
#    x 1.783880 0.000000 0.001820 
#    y 0.000000 1.769590 0.000000 
#    z 0.001820 0.000000 1.774940 
# 
# From -- ./inp_files/338674.got.cif
#   From: 2010.06.25/outbox.cif.g09.slc.cpg/sg12_170_cif.got.tgz:338674.got - 2010.06.28 00:19:55.
