data_PCOD8093352
_publ_section_title
;
Structure prediction by ZEFSAII (Michael W. Deem and Ramdas Pophale) SiO2 
 PCOD8093352
Probable space group: C 2/M
;
_chemical_formula_sum "Si O2"
_cell_formula_units_Z 64
_cell_length_a 33.355966
_cell_length_b 8.357363
_cell_length_c 13.895363
_cell_angle_alpha 90.000000
_cell_angle_beta 53.098580
_cell_angle_gamma 90.000000
_cell_volume 3097.585966
_symmetry_space_group_name_H-M "C 2/M"
_symmetry_group_IT_number 12
_symmetry_cell_setting 'monoclinic'
loop_
_space_group_symop_operation_xyz
x,y,z
-x,y,-z
-x,-y,-z
x,-y,z
1/2+x,1/2+y,z
1/2-x,1/2+y,-z
1/2-x,1/2-y,-z
1/2+x,1/2-y,z
loop_
_atom_site_type_symbol
_atom_site_label
_atom_site_fract_x
_atom_site_fract_y
_atom_site_fract_z
Si Si1 0.292780 0.809807 0.509085
Si Si2 0.638034 0.814021 0.230206
Si Si3 0.997994 0.686886 0.209129
Si Si4 0.029328 0.814824 0.364367
Si Si5 0.396232 0.190385 0.267385
Si Si6 0.404941 0.191254 0.038160
Si Si7 0.184138 0.688769 0.965394
Si Si8 0.287214 0.311664 0.730625
O O1 0.250000 0.750000 0.500000
O O2 0.346079 0.748695 0.391782
O O3 0.283912 0.727363 0.623663
O O4 0.291015 0.000000 0.522021
O O5 0.587956 0.711808 0.295092
O O6 0.665160 0.776600 0.291494
O O7 0.623663 0.000000 0.244511
O O8 0.674398 0.762638 0.089996
O O9 0.995973 0.500000 0.192383
O O10 0.944613 0.760887 0.253775
O O11 0.007680 0.716236 0.306797
O O12 0.042981 0.759992 0.079935
O O13 0.000000 0.752470 0.500000
O O14 0.018609 0.000000 0.360606
O O15 0.397577 0.256086 0.156549
O O16 0.396681 0.000000 0.265740
O O17 0.359856 0.260428 0.038076
O O18 0.405306 0.000000 0.034547
O O19 0.184671 0.500000 0.951221
O O20 0.237455 0.757719 0.854247
O O21 0.292974 0.500000 0.738209
#
# Coordination Sequence:
#
# PCOD8093352 Si02
#       8
#     8   8   8   8   8   8   8   8
#     4  11  23  41  61  87 121 161 207 250 295 356
#     4  11  22  40  64  91 118 152 203 254 296 355
#     4  10  19  35  61  91 116 149 195 246 297 353
#     4  11  25  42  59  84 121 163 198 239 301 363
#     4   9  19  33  57  89 118 150 194 246 296 349
#     4   9  15  30  57  89 118 146 190 243 294 348
#     4   9  18  34  59  89 120 156 197 245 301 354
#     4  11  23  39  61  89 124 161 196 246 306 362
#
# _framework density 20.661252000000001
#
# number of rings (size 3 to 8) (size 9 to 14) (size 15 to 20)
#    0.000    1.875    1.250    3.000    1.750    4.500 
#    0.000    2.500    0.000    2.250    0.000    0.000 
#    0.000    0.000    0.000    0.000    0.000    0.000 
#
# Total GULP energy -396887.048540 kJ/mol
# GULP energy per Si atom -12402.720267 kJ/mol
# Density = 2.061423 g / cm^3
# Si number density = 20.661252 Si / 1000 Ang^3
#
#
#
# Elastic Constant Matrix: (Units=GPa)
#
#
# Indices 1 2 3 4 5 6 
#
# 1 145.2536 1.6053 43.6017 0.0000 -0.6002 0.0000
# 2 1.6053 20.6489 12.6537 0.0000 -5.7781 0.0000
# 3 43.6017 12.6537 132.7271 0.0000 6.3247 0.0000
# 4 0.0000 0.0000 0.0000 20.2499 0.0000 0.8027
# 5 -0.6002 -5.7781 6.3247 0.0000 36.9764 0.0000
# 6 0.0000 0.0000 0.0000 0.8027 0.0000 24.2783
#
#
#
# Elastic Compliance Matrix: (Units=1/GPa)
#
#
# Indices 1 2 3 4 5 6 
#
# 1 0.007678 0.001264 -0.002680 0.000000 0.000781 0.000000
# 2 0.001264 0.054757 -0.006094 0.000000 0.009619 0.000000
# 3 -0.002680 -0.006094 0.009117 0.000000 -0.002555 0.000000
# 4 0.000000 0.000000 0.000000 0.049448 0.000000 -0.001635
# 5 0.000781 0.009619 -0.002555 0.000000 0.028997 0.000000
# 6 0.000000 0.000000 0.000000 -0.001635 0.000000 0.041243
#
#
# Mechanical properties :
#
#
# Convention : Reuss Voigt Hill
#
# Bulk Modulus (GPa) = 17.68907 46.03898 31.86402
# Shear Modulus (GPa) = 22.21192 32.35218 27.28205
#
# Velocity S-wave (km/s) = 3.28236 3.96136 3.63774
# Velocity P-wave (km/s) = 4.79012 6.57680 5.75324
#
# Compressibility (1/GPa) = 0.05653209
#
# Stress axis : x y z
#
# Youngs Moduli (GPa) = 130.23799 18.26266 109.68057
#
# Poissons Ratio (x) = -0.02308 0.29395
# Poissons Ratio (y) = -0.16460 0.66837
# Poissons Ratio (z) = 0.34904 0.11129
#
# Static dielectric constant tensor:
#      x y z
#    x 3.881280 0.000000 -0.116010 
#    y 0.000000 3.295600 0.000000 
#    z -0.116010 0.000000 3.996800 
# 
# 
# High freq. dielectric constant tensor:
#      x y z
#    x 1.824590 0.000000 -0.001400 
#    y 0.000000 1.768410 0.000000 
#    z -0.001400 0.000000 1.822140 
# 
# From -- ./inp_files/249741.got.cif
#   From: 2010.06.25/outbox.cif.g09.slc.cpg/sg12_125_cif.got.tgz:249741.got - 2010.06.28 00:19:55.
