data_PCOD8093671
_publ_section_title
;
Structure prediction by ZEFSAII (Michael W. Deem and Ramdas Pophale) SiO2 
 PCOD8093671
Probable space group: C 2/M
;
_chemical_formula_sum "Si O2"
_cell_formula_units_Z 44
_cell_length_a 11.529056
_cell_length_b 32.459949
_cell_length_c 6.018825
_cell_angle_alpha 90.000000
_cell_angle_beta 90.439353
_cell_angle_gamma 90.000000
_cell_volume 2252.374125
_symmetry_space_group_name_H-M "C 2/M"
_symmetry_group_IT_number 12
_symmetry_cell_setting 'monoclinic'
loop_
_space_group_symop_operation_xyz
x,y,z
-x,y,-z
-x,-y,-z
x,-y,z
1/2+x,1/2+y,z
1/2-x,1/2+y,-z
1/2-x,1/2-y,-z
1/2+x,1/2-y,z
loop_
_atom_site_type_symbol
_atom_site_label
_atom_site_fract_x
_atom_site_fract_y
_atom_site_fract_z
Si Si1 0.121119 0.045278 0.623101
Si Si2 0.778884 0.812713 0.344511
Si Si3 0.623010 0.156768 0.949702
Si Si4 0.182797 0.118319 0.340499
Si Si5 0.107337 0.732681 0.661147
Si Si6 0.500000 0.410593 0.000000
O O1 0.200973 0.075372 0.474584
O O2 0.000000 0.041218 0.500000
O O3 0.180421 0.000000 0.641628
O O4 0.095138 0.062004 0.870516
O O5 0.851536 0.847461 0.476675
O O6 0.860995 0.777794 0.233890
O O7 0.710414 0.787460 0.526686
O O8 0.699047 0.836492 0.169209
O O9 0.695530 0.129118 0.777161
O O10 0.582521 0.201391 0.859667
O O11 0.500000 0.133793 0.000000
O O12 0.074942 0.117601 0.168117
O O13 0.000000 0.738921 0.500000
#
# Coordination Sequence:
#
# PCOD8093671 Si02
#       6
#     8   8   8   8   8   4
#     4   9  18  34  57  85 118 147 178 222 279 344
#     4  10  21  36  52  78 107 144 190 239 282 327
#     4  11  21  37  58  78 110 154 201 234 274 332
#     4  10  22  35  56  85 117 148 186 232 279 337
#     4  10  20  35  54  75 104 144 191 241 284 325
#     4  10  19  36  58  88 116 146 182 222 284 346
#
# _framework density 19.534941
#
# number of rings (size 3 to 8) (size 9 to 14) (size 15 to 20)
#    0.000    2.000    1.818    1.909    0.000    4.364 
#    0.000    0.000    2.000    0.545    0.000    5.091 
#    0.000    0.000    0.000    0.000    0.000    0.000 
#
# Total GULP energy -272650.239760 kJ/mol
# GULP energy per Si atom -12393.192716 kJ/mol
# Density = 1.949048 g / cm^3
# Si number density = 19.534941 Si / 1000 Ang^3
#
#
#
# Elastic Constant Matrix: (Units=GPa)
#
#
# Indices 1 2 3 4 5 6 
#
# 1 75.0820 57.3042 35.2745 0.0000 -0.3673 0.0000
# 2 57.3042 129.5559 48.6262 0.0000 -5.9384 0.0000
# 3 35.2745 48.6262 103.6556 0.0000 5.2566 0.0000
# 4 0.0000 0.0000 0.0000 6.0481 0.0000 -3.5413
# 5 -0.3673 -5.9384 5.2566 0.0000 32.7927 0.0000
# 6 0.0000 0.0000 0.0000 -3.5413 0.0000 22.5844
#
#
#
# Elastic Compliance Matrix: (Units=1/GPa)
#
#
# Indices 1 2 3 4 5 6 
#
# 1 0.021061 -0.008096 -0.003334 0.000000 -0.000696 0.000000
# 2 -0.008096 0.012675 -0.003330 0.000000 0.002738 0.000000
# 3 -0.003334 -0.003330 0.012478 0.000000 -0.002640 0.000000
# 4 0.000000 0.000000 0.000000 0.182057 0.000000 0.028547
# 5 -0.000696 0.002738 -0.002640 0.000000 0.031406 0.000000
# 6 0.000000 0.000000 0.000000 0.028547 0.000000 0.048755
#
#
# Mechanical properties :
#
#
# Convention : Reuss Voigt Hill
#
# Bulk Modulus (GPa) = 59.90087 65.63370 62.76729
# Shear Modulus (GPa) = 14.55542 23.42425 18.98984
#
# Velocity S-wave (km/s) = 2.73261 3.46655 3.12123
# Velocity P-wave (km/s) = 6.37857 7.04938 6.72235
#
# Compressibility (1/GPa) = 0.01669425
#
# Stress axis : x y z
#
# Youngs Moduli (GPa) = 47.48177 78.89603 80.14248
#
# Poissons Ratio (x) = 0.63874 0.26718
# Poissons Ratio (y) = 0.38441 0.26685
# Poissons Ratio (z) = 0.15830 0.26270
#
# Static dielectric constant tensor:
#      x y z
#    x 3.355580 0.000000 -0.122060 
#    y 0.000000 4.086050 0.000000 
#    z -0.122060 0.000000 3.686760 
# 
# 
# High freq. dielectric constant tensor:
#      x y z
#    x 1.733320 0.000000 -0.006360 
#    y 0.000000 1.750890 0.000000 
#    z -0.006360 0.000000 1.772220 
# 
# From -- ./inp_files/8459.got.cif
#   From: 2010.06.25/outbox.cif.g09.slc.cpg/sg12_5_cif.got.tgz:8459.got - 2010.06.28 00:19:55.
