data_PCOD8093853
_publ_section_title
;
Structure prediction by ZEFSAII (Michael W. Deem and Ramdas Pophale) SiO2 
 PCOD8093853
Probable space group: C 2/M
;
_chemical_formula_sum "Si O2"
_cell_formula_units_Z 64
_cell_length_a 23.244996
_cell_length_b 14.547229
_cell_length_c 9.886979
_cell_angle_alpha 90.000000
_cell_angle_beta 102.028162
_cell_angle_gamma 90.000000
_cell_volume 3269.883870
_symmetry_space_group_name_H-M "C 2/M"
_symmetry_group_IT_number 12
_symmetry_cell_setting 'monoclinic'
loop_
_space_group_symop_operation_xyz
x,y,z
-x,y,-z
-x,-y,-z
x,-y,z
1/2+x,1/2+y,z
1/2-x,1/2+y,-z
1/2-x,1/2-y,-z
1/2+x,1/2-y,z
loop_
_atom_site_type_symbol
_atom_site_label
_atom_site_fract_x
_atom_site_fract_y
_atom_site_fract_z
Si Si1 0.259749 0.658273 0.919198
Si Si2 0.567485 0.281656 0.374975
Si Si3 0.238438 0.891265 0.599747
Si Si4 0.566699 0.723985 0.689944
Si Si5 0.670125 0.610794 0.303379
Si Si6 0.136395 0.603519 0.416516
Si Si7 0.139285 0.398534 0.729035
Si Si8 0.833509 0.898813 0.189122
O O1 0.301995 0.665017 0.809346
O O2 0.196221 0.620044 0.848223
O O3 0.250000 0.750000 0.000000
O O4 0.294580 0.590333 0.036032
O O5 0.500040 0.290335 0.296524
O O6 0.575218 0.304635 0.537369
O O7 0.604071 0.353026 0.300757
O O8 0.585063 0.175271 0.358585
O O9 0.208669 0.854865 0.448867
O O10 0.306976 0.864967 0.642287
O O11 0.205015 0.847959 0.712593
O O12 0.232209 0.000000 0.601872
O O13 0.585827 0.828733 0.728842
O O14 0.607432 0.659811 0.803536
O O15 0.670391 0.500000 0.282438
O O16 0.115044 0.500000 0.368666
O O17 0.158266 0.606413 0.582091
O O18 0.115355 0.500000 0.753163
O O19 0.853130 0.000000 0.245264
#
# Coordination Sequence:
#
# PCOD8093853 Si02
#       8
#     8   8   8   8   8   8   8   8
#     4  12  24  38  60  90 121 154 193 243 307 365
#     4  10  22  35  60  85 122 161 205 248 290 345
#     4   9  18  33  57  87 116 147 188 238 301 359
#     4  10  21  38  54  91 120 158 208 248 291 345
#     4  11  22  39  61  89 120 159 202 242 296 362
#     4   9  18  33  57  89 121 151 191 246 301 355
#     4  10  19  36  60  84 117 158 195 241 300 360
#     4  11  22  37  58  87 123 155 191 247 302 353
#
# _framework density 19.572558999999998
#
# number of rings (size 3 to 8) (size 9 to 14) (size 15 to 20)
#    0.000    1.750    3.750    1.125    1.750    1.500 
#    0.000    4.375    0.000    1.500    0.000    0.875 
#    0.000    0.000    0.000    0.000    0.000    0.000 
#
# Total GULP energy -396705.378791 kJ/mol
# GULP energy per Si atom -12397.043087 kJ/mol
# Density = 1.952801 g / cm^3
# Si number density = 19.572559 Si / 1000 Ang^3
#
#
#
# Elastic Constant Matrix: (Units=GPa)
#
#
# Indices 1 2 3 4 5 6 
#
# 1 110.4643 26.9540 36.2592 0.0000 -4.6910 0.0000
# 2 26.9540 69.3446 17.2058 0.0000 -2.6761 0.0000
# 3 36.2592 17.2058 82.0383 0.0000 -4.1625 0.0000
# 4 0.0000 0.0000 0.0000 21.9499 0.0000 -0.8975
# 5 -4.6910 -2.6761 -4.1625 0.0000 25.1219 0.0000
# 6 0.0000 0.0000 0.0000 -0.8975 0.0000 23.1539
#
#
#
# Elastic Compliance Matrix: (Units=1/GPa)
#
#
# Indices 1 2 3 4 5 6 
#
# 1 0.011296 -0.003296 -0.004248 0.000000 0.001054 0.000000
# 2 -0.003296 0.016204 -0.001901 0.000000 0.000796 0.000000
# 3 -0.004248 -0.001901 0.014537 0.000000 0.001413 0.000000
# 4 0.000000 0.000000 0.000000 0.045631 0.000000 0.001769
# 5 0.001054 0.000796 0.001413 0.000000 0.040322 0.000000
# 6 0.000000 0.000000 0.000000 0.001769 0.000000 0.043258
#
#
# Mechanical properties :
#
#
# Convention : Reuss Voigt Hill
#
# Bulk Modulus (GPa) = 43.20171 46.96503 45.08337
# Shear Modulus (GPa) = 25.27114 26.14036 25.70575
#
# Velocity S-wave (km/s) = 3.59716 3.65850 3.62796
# Velocity P-wave (km/s) = 6.27481 6.47253 6.37443
#
# Compressibility (1/GPa) = 0.02314723
#
# Stress axis : x y z
#
# Youngs Moduli (GPa) = 88.52645 61.71171 68.78831
#
# Poissons Ratio (x) = 0.20341 0.29220
# Poissons Ratio (y) = 0.29179 0.13079
# Poissons Ratio (z) = 0.37605 0.11734
#
# Static dielectric constant tensor:
#      x y z
#    x 3.459800 0.000000 -0.047090 
#    y 0.000000 3.635240 0.000000 
#    z -0.047090 0.000000 3.558770 
# 
# 
# High freq. dielectric constant tensor:
#      x y z
#    x 1.751650 0.000000 -0.000860 
#    y 0.000000 1.770890 0.000000 
#    z -0.000860 0.000000 1.736920 
# 
# From -- ./inp_files/96860.got.cif
#   From: 2010.06.25/outbox.cif.g09.slc.cpg/sg12_49_cif.got.tgz:96860.got - 2010.06.28 00:19:55.
