data_PCOD8093089
_publ_section_title
;
Structure prediction by ZEFSAII (Michael W. Deem and Ramdas Pophale) SiO2 
 PCOD8093089
Probable space group: C 2/M
;
_chemical_formula_sum "Si O2"
_cell_formula_units_Z 64
_cell_length_a 15.444287
_cell_length_b 9.006874
_cell_length_c 23.689362
_cell_angle_alpha 90.000000
_cell_angle_beta 90.762142
_cell_angle_gamma 90.000000
_cell_volume 3295.011177
_symmetry_space_group_name_H-M "C 2/M"
_symmetry_group_IT_number 12
_symmetry_cell_setting 'monoclinic'
loop_
_space_group_symop_operation_xyz
x,y,z
-x,y,-z
-x,-y,-z
x,-y,z
1/2+x,1/2+y,z
1/2-x,1/2+y,-z
1/2-x,1/2-y,-z
1/2+x,1/2-y,z
loop_
_atom_site_type_symbol
_atom_site_label
_atom_site_fract_x
_atom_site_fract_y
_atom_site_fract_z
Si Si1 0.956267 0.674964 0.824968
Si Si2 0.709915 0.331170 0.946559
Si Si3 0.734032 0.830535 0.175467
Si Si4 0.381880 0.176092 0.243249
Si Si5 0.024228 0.673127 0.436136
Si Si6 0.966072 0.324383 0.059685
Si Si7 0.721334 0.826314 0.442777
Si Si8 0.623048 0.675271 0.636637
O O1 0.965924 0.500000 0.824457
O O2 0.860701 0.721406 0.803305
O O3 0.969993 0.727274 0.889797
O O4 0.029087 0.738968 0.783354
O O5 0.692395 0.500000 0.964237
O O6 0.771807 0.322623 0.892604
O O7 0.623245 0.252345 0.926436
O O8 0.750000 0.250000 0.000000
O O9 0.803304 0.718739 0.201612
O O10 0.754788 0.000000 0.194619
O O11 0.368701 0.252711 0.302597
O O12 0.383501 0.000000 0.251072
O O13 0.009725 0.500000 0.423114
O O14 0.123650 0.721120 0.424858
O O15 0.000000 0.711718 0.500000
O O16 0.962311 0.765992 0.395122
O O17 0.951686 0.500000 0.057423
O O18 0.000000 0.265082 0.000000
O O19 0.750000 0.750000 0.500000
O O20 0.788824 0.779573 0.394953
O O21 0.723548 0.000000 0.454708
O O22 0.614614 0.500000 0.642339
#
# Coordination Sequence:
#
# PCOD8093089 Si02
#       8
#     8   8   8   8   8   8   8   8
#     4   9  19  37  61  85 113 154 198 239 296 360
#     4  11  22  35  56  86 121 155 194 246 303 363
#     4  10  21  40  63  86 115 155 199 246 300 356
#     4  11  23  41  63  86 117 158 204 250 292 348
#     4  10  20  37  62  90 121 157 197 242 291 346
#     4  10  19  35  59  85 117 154 196 244 300 365
#     4  10  21  37  60  89 122 159 197 241 295 351
#     4  11  24  40  60  89 124 160 199 244 295 352
#
# _framework density 19.423302
#
# number of rings (size 3 to 8) (size 9 to 14) (size 15 to 20)
#    0.000    1.750    2.500    1.875    0.000    5.000 
#    0.000    6.875    0.000    0.000    0.000    0.000 
#    0.000    0.000    0.000    0.000    0.000    0.000 
#
# Total GULP energy -396801.120792 kJ/mol
# GULP energy per Si atom -12400.035025 kJ/mol
# Density = 1.937909 g / cm^3
# Si number density = 19.423302 Si / 1000 Ang^3
#
#
#
# Elastic Constant Matrix: (Units=GPa)
#
#
# Indices 1 2 3 4 5 6 
#
# 1 145.2428 30.3642 52.3625 0.0000 -11.8010 0.0000
# 2 30.3642 45.9815 39.1569 0.0000 -1.5176 0.0000
# 3 52.3625 39.1569 117.8962 0.0000 -9.9847 0.0000
# 4 0.0000 0.0000 0.0000 31.0069 0.0000 3.7900
# 5 -11.8010 -1.5176 -9.9847 0.0000 30.5633 0.0000
# 6 0.0000 0.0000 0.0000 3.7900 0.0000 28.1181
#
#
#
# Elastic Compliance Matrix: (Units=1/GPa)
#
#
# Indices 1 2 3 4 5 6 
#
# 1 0.008720 -0.003560 -0.002489 0.000000 0.002377 0.000000
# 2 -0.003560 0.031879 -0.009245 0.000000 -0.002812 0.000000
# 3 -0.002489 -0.009245 0.012895 0.000000 0.002792 0.000000
# 4 0.000000 0.000000 0.000000 0.032791 0.000000 -0.004420
# 5 0.002377 -0.002812 0.002792 0.000000 0.034409 0.000000
# 6 0.000000 0.000000 0.000000 -0.004420 0.000000 0.036160
#
#
# Mechanical properties :
#
#
# Convention : Reuss Voigt Hill
#
# Bulk Modulus (GPa) = 43.65856 61.43194 52.54525
# Shear Modulus (GPa) = 25.63098 30.42013 28.02556
#
# Velocity S-wave (km/s) = 3.63657 3.96178 3.80265
# Velocity P-wave (km/s) = 6.33712 7.25425 6.81114
#
# Compressibility (1/GPa) = 0.02290501
#
# Stress axis : x y z
#
# Youngs Moduli (GPa) = 114.68196 31.36890 77.55223
#
# Poissons Ratio (x) = 0.11167 0.19304
# Poissons Ratio (y) = 0.40827 0.71696
# Poissons Ratio (z) = 0.28546 0.29000
#
# Static dielectric constant tensor:
#      x y z
#    x 3.632090 0.000000 -0.192410 
#    y 0.000000 3.358980 0.000000 
#    z -0.192410 0.000000 3.574770 
# 
# 
# High freq. dielectric constant tensor:
#      x y z
#    x 1.771290 0.000000 -0.004160 
#    y 0.000000 1.741830 0.000000 
#    z -0.004160 0.000000 1.757790 
# 
# From -- ./inp_files/338827.got.cif
#   From: 2010.06.25/outbox.cif.g09.slc.cpg/sg12_170_cif.got.tgz:338827.got - 2010.06.28 00:19:55.
