data_PCOD8093418
_publ_section_title
;
Structure prediction by ZEFSAII (Michael W. Deem and Ramdas Pophale) SiO2 
 PCOD8093418
Probable space group: C 2/M
;
_chemical_formula_sum "Si O2"
_cell_formula_units_Z 32
_cell_length_a 19.056469
_cell_length_b 8.048151
_cell_length_c 20.219427
_cell_angle_alpha 90.000000
_cell_angle_beta 30.781837
_cell_angle_gamma 90.000000
_cell_volume 1587.021021
_symmetry_space_group_name_H-M "C 2/M"
_symmetry_group_IT_number 12
_symmetry_cell_setting 'monoclinic'
loop_
_space_group_symop_operation_xyz
x,y,z
-x,y,-z
-x,-y,-z
x,-y,z
1/2+x,1/2+y,z
1/2-x,1/2+y,-z
1/2-x,1/2-y,-z
1/2+x,1/2-y,z
loop_
_atom_site_type_symbol
_atom_site_label
_atom_site_fract_x
_atom_site_fract_y
_atom_site_fract_z
Si Si1 0.575722 0.812878 0.071698
Si Si2 0.852324 0.500000 0.585960
Si Si3 0.874281 0.318543 0.441878
Si Si4 0.379823 0.312986 0.824576
Si Si5 0.566631 0.500000 0.874467
O O1 0.727987 0.775212 0.919394
O O2 0.527410 0.000000 0.090054
O O3 0.582319 0.808151 0.145848
O O4 0.475453 0.670759 0.126951
O O5 0.837745 0.336455 0.549811
O O6 0.733091 0.500000 0.737981
O O7 0.000000 0.500000 0.500000
O O8 0.909515 0.500000 0.384347
O O9 0.750000 0.250000 0.500000
O O10 0.010000 0.206826 0.323434
O O11 0.384622 0.500000 0.848454
O O12 0.500000 0.500000 0.000000
#
# Coordination Sequence:
#
# PCOD8093418 Si02
#       5
#     8   4   8   8   4
#     4  10  22  38  63  99 132 165 220 279 327 388
#     4  10  26  44  62  98 139 177 224 271 339 417
#     4  10  21  35  65  88 130 171 222 267 333 391
#     4  10  19  35  63  99 133 159 213 280 338 387
#     4  12  26  42  72  88 134 183 224 262 331 401
#
# _framework density 20.163564000000001
#
# number of rings (size 3 to 8) (size 9 to 14) (size 15 to 20)
#    0.750    1.000    1.250    3.000    7.000    0.500 
#    0.000    1.250    0.000    3.750    0.000    0.000 
#    0.000    0.000    0.000    0.000    0.000    0.000 
#
# Total GULP energy -198255.907647 kJ/mol
# GULP energy per Si atom -12390.994228 kJ/mol
# Density = 2.011767 g / cm^3
# Si number density = 20.163564 Si / 1000 Ang^3
#
#
#
# Elastic Constant Matrix: (Units=GPa)
#
#
# Indices 1 2 3 4 5 6 
#
# 1 83.6758 32.3998 38.6555 0.0000 -10.1012 0.0000
# 2 32.3998 101.1155 25.6921 0.0002 -13.5008 -0.0001
# 3 38.6555 25.6921 155.5878 0.0000 -10.7468 -0.0001
# 4 0.0000 0.0002 0.0000 31.7127 0.0000 0.6548
# 5 -10.1012 -13.5008 -10.7468 0.0000 31.7853 0.0000
# 6 0.0000 -0.0001 -0.0001 0.6548 0.0000 18.6323
#
#
#
# Elastic Compliance Matrix: (Units=1/GPa)
#
#
# Indices 1 2 3 4 5 6 
#
# 1 0.015045 -0.003777 -0.002964 0.000000 0.002175 0.000000
# 2 -0.003777 0.011766 -0.000760 0.000000 0.003540 0.000000
# 3 -0.002964 -0.000760 0.007374 0.000000 0.001228 0.000000
# 4 0.000000 0.000000 0.000000 0.031556 0.000000 -0.001109
# 5 0.002175 0.003540 0.001228 0.000000 0.034071 0.000000
# 6 0.000000 0.000000 0.000000 -0.001109 0.000000 0.053709
#
#
# Mechanical properties :
#
#
# Convention : Reuss Voigt Hill
#
# Bulk Modulus (GPa) = 52.13067 59.31932 55.72499
# Shear Modulus (GPa) = 28.58478 32.66817 30.62648
#
# Velocity S-wave (km/s) = 3.76925 4.02949 3.90154
# Velocity P-wave (km/s) = 6.69724 7.15066 6.92766
#
# Compressibility (1/GPa) = 0.01918257
#
# Stress axis : x y z
#
# Youngs Moduli (GPa) = 66.46582 84.99208 135.61216
#
# Poissons Ratio (x) = 0.32105 0.40196
# Poissons Ratio (y) = 0.25107 0.10305
# Poissons Ratio (z) = 0.19701 0.06458
#
# Static dielectric constant tensor:
#      x y z
#    x 3.261790 0.000000 -0.106010 
#    y 0.000000 3.749700 0.000000 
#    z -0.106010 0.000000 3.847380 
# 
# 
# High freq. dielectric constant tensor:
#      x y z
#    x 1.746350 0.000000 -0.014040 
#    y 0.000000 1.788740 0.000000 
#    z -0.014040 0.000000 1.797490 
# 
# From -- ./inp_files/318944.got.cif
#   From: 2010.06.25/outbox.cif.g09.slc.cpg/sg12_160_cif.got.tgz:318944.got - 2010.06.28 00:19:55.
