data_PCOD8093637
_publ_section_title
;
Structure prediction by ZEFSAII (Michael W. Deem and Ramdas Pophale) SiO2 
 PCOD8093637
Probable space group: C 2/M
;
_chemical_formula_sum "Si O2"
_cell_formula_units_Z 56
_cell_length_a 27.592007
_cell_length_b 9.073654
_cell_length_c 15.027669
_cell_angle_alpha 90.000000
_cell_angle_beta 131.229667
_cell_angle_gamma 90.000000
_cell_volume 2829.551194
_symmetry_space_group_name_H-M "C 2/M"
_symmetry_group_IT_number 12
_symmetry_cell_setting 'monoclinic'
loop_
_space_group_symop_operation_xyz
x,y,z
-x,y,-z
-x,-y,-z
x,-y,z
1/2+x,1/2+y,z
1/2-x,1/2+y,-z
1/2-x,1/2-y,-z
1/2+x,1/2-y,z
loop_
_atom_site_type_symbol
_atom_site_label
_atom_site_fract_x
_atom_site_fract_y
_atom_site_fract_z
Si Si1 0.461618 0.825282 0.544055
Si Si2 0.623778 0.661378 0.934899
Si Si3 0.061033 0.674388 0.133977
Si Si4 0.819739 0.326016 0.327960
Si Si5 0.679559 0.330308 0.190044
Si Si6 0.018639 0.833274 0.250512
Si Si7 0.808391 0.327636 0.118056
O O1 0.500000 0.779468 0.500000
O O2 0.386507 0.773473 0.452699
O O3 0.489652 0.741329 0.663060
O O4 0.468534 0.000000 0.566223
O O5 0.638813 0.500000 0.911710
O O6 0.550873 0.666107 0.881289
O O7 0.629916 0.786778 0.867164
O O8 0.672331 0.688035 0.075240
O O9 0.060104 0.500000 0.141415
O O10 0.129098 0.723402 0.175668
O O11 0.062193 0.741718 0.234720
O O12 0.000000 0.727532 0.000000
O O13 0.821465 0.500000 0.320894
O O14 0.754009 0.281847 0.301970
O O15 0.818329 0.259134 0.227337
O O16 0.666607 0.500000 0.202951
O O17 0.045309 0.000000 0.293330
O O18 0.797316 0.500000 0.107581
O O19 0.750000 0.250000 0.000000
#
# Coordination Sequence:
#
# PCOD8093637 Si02
#       7
#     8   8   8   8   8   8   8
#     4  10  21  40  64  88 118 158 202 247 291 341
#     4  10  20  34  53  81 116 152 189 235 291 352
#     4  11  23  38  59  90 122 151 195 248 299 357
#     4   9  19  36  57  81 114 156 197 239 291 350
#     4  10  19  36  58  81 116 155 192 235 294 357
#     4  11  23  39  61  87 118 157 199 242 297 357
#     4  11  20  32  52  81 116 152 192 236 291 354
#
# _framework density 19.791122999999999
#
# number of rings (size 3 to 8) (size 9 to 14) (size 15 to 20)
#    0.000    1.714    2.857    2.143    0.000    3.714 
#    0.000    2.857    0.000    0.000    0.000    0.000 
#    0.000    0.000    0.000    0.000    0.000    0.000 
#
# Total GULP energy -347012.044902 kJ/mol
# GULP energy per Si atom -12393.287318 kJ/mol
# Density = 1.974608 g / cm^3
# Si number density = 19.791123 Si / 1000 Ang^3
#
#
#
# Elastic Constant Matrix: (Units=GPa)
#
#
# Indices 1 2 3 4 5 6 
#
# 1 112.2934 38.7928 35.1283 0.0000 6.7331 0.0000
# 2 38.7928 71.9212 28.3256 0.0000 -7.5557 0.0000
# 3 35.1283 28.3256 69.8068 0.0000 6.0038 0.0000
# 4 0.0000 0.0000 0.0000 23.7962 0.0000 -4.1253
# 5 6.7331 -7.5557 6.0038 0.0000 37.8365 0.0000
# 6 0.0000 0.0000 0.0000 -4.1253 0.0000 34.8721
#
#
#
# Elastic Compliance Matrix: (Units=1/GPa)
#
#
# Indices 1 2 3 4 5 6 
#
# 1 0.012054 -0.005329 -0.003678 0.000000 -0.002626 0.000000
# 2 -0.005329 0.019671 -0.005799 0.000000 0.005797 0.000000
# 3 -0.003678 -0.005799 0.018829 0.000000 -0.003491 0.000000
# 4 0.000000 0.000000 0.000000 0.042903 0.000000 0.005075
# 5 -0.002626 0.005797 -0.003491 0.000000 0.028608 0.000000
# 6 0.000000 0.000000 0.000000 0.005075 0.000000 0.029277
#
#
# Mechanical properties :
#
#
# Convention : Reuss Voigt Hill
#
# Bulk Modulus (GPa) = 47.74791 50.94607 49.34699
# Shear Modulus (GPa) = 26.60487 29.41929 28.01208
#
# Velocity S-wave (km/s) = 3.67042 3.85968 3.76624
# Velocity P-wave (km/s) = 6.49161 6.75727 6.62577
#
# Compressibility (1/GPa) = 0.02094333
#
# Stress axis : x y z
#
# Youngs Moduli (GPa) = 82.95890 50.83533 53.10896
#
# Poissons Ratio (x) = 0.27091 0.19532
# Poissons Ratio (y) = 0.44210 0.30797
# Poissons Ratio (z) = 0.30509 0.29479
#
# Static dielectric constant tensor:
#      x y z
#    x 4.021240 0.000000 0.147360 
#    y 0.000000 3.753510 0.000000 
#    z 0.147360 0.000000 3.595800 
# 
# 
# High freq. dielectric constant tensor:
#      x y z
#    x 1.780000 0.000000 0.011390 
#    y 0.000000 1.754460 0.000000 
#    z 0.011390 0.000000 1.756880 
# 
# From -- ./inp_files/249273.got.cif
#   From: 2010.06.25/outbox.cif.g09.slc.cpg/sg12_125_cif.got.tgz:249273.got - 2010.06.28 00:19:55.
