data_PCOD8093095
_publ_section_title
;
Structure prediction by ZEFSAII (Michael W. Deem and Ramdas Pophale) SiO2 
 PCOD8093095
Probable space group: C 2/M
;
_chemical_formula_sum "Si O2"
_cell_formula_units_Z 64
_cell_length_a 21.901119
_cell_length_b 12.784506
_cell_length_c 13.479289
_cell_angle_alpha 90.000000
_cell_angle_beta 66.661965
_cell_angle_gamma 90.000000
_cell_volume 3465.347354
_symmetry_space_group_name_H-M "C 2/M"
_symmetry_group_IT_number 12
_symmetry_cell_setting 'monoclinic'
loop_
_space_group_symop_operation_xyz
x,y,z
-x,y,-z
-x,-y,-z
x,-y,z
1/2+x,1/2+y,z
1/2-x,1/2+y,-z
1/2-x,1/2-y,-z
1/2+x,1/2-y,z
loop_
_atom_site_type_symbol
_atom_site_label
_atom_site_fract_x
_atom_site_fract_y
_atom_site_fract_z
Si Si1 0.747596 0.293925 0.656459
Si Si2 0.817896 0.876169 0.911672
Si Si3 0.695999 0.231095 0.895354
Si Si4 0.613663 0.119401 0.392718
Si Si5 0.315279 0.381836 0.495114
Si Si6 0.060741 0.623563 0.030366
Si Si7 0.565355 0.764331 0.232947
Si Si8 0.046131 0.796351 0.555959
O O1 0.703764 0.279667 0.782056
O O2 0.807920 0.373347 0.636990
O O3 0.699218 0.340560 0.605170
O O4 0.775962 0.182186 0.603715
O O5 0.756632 0.846923 0.880014
O O6 0.885713 0.831888 0.821451
O O7 0.824121 0.000000 0.917816
O O8 0.805203 0.827725 0.027933
O O9 0.628386 0.166103 0.939987
O O10 0.600039 0.161646 0.291460
O O11 0.572894 0.183674 0.501422
O O12 0.590558 0.000000 0.415855
O O13 0.291350 0.500000 0.522237
O O14 0.394123 0.375059 0.461354
O O15 0.065422 0.500000 0.035380
O O16 0.049214 0.668659 0.146817
O O17 0.000000 0.659398 0.000000
O O18 0.495813 0.718872 0.316975
O O19 0.000000 0.846690 0.500000
#
# Coordination Sequence:
#
# PCOD8093095 Si02
#       8
#     8   8   8   8   8   8   8   8
#     4  10  21  39  58  85 116 146 187 237 283 339
#     4  10  21  37  59  87 114 147 193 237 287 339
#     4  10  21  39  59  84 115 150 185 242 285 335
#     4  10  19  35  59  86 113 147 189 233 285 339
#     4  10  22  38  58  84 114 149 188 230 282 341
#     4  10  22  37  56  83 112 149 192 232 285 341
#     4  10  20  37  56  82 116 150 186 241 278 330
#     4   9  21  37  55  83 115 149 189 233 277 333
#
# _framework density 18.468567
#
# number of rings (size 3 to 8) (size 9 to 14) (size 15 to 20)
#    0.000    2.125    1.250    1.125    1.750    5.500 
#    0.000    0.000    0.000    1.500    0.000    0.000 
#    0.000    0.000    0.000    0.000    0.000    0.000 
#
# Total GULP energy -396921.680814 kJ/mol
# GULP energy per Si atom -12403.802525 kJ/mol
# Density = 1.842653 g / cm^3
# Si number density = 18.468567 Si / 1000 Ang^3
#
#
#
# Elastic Constant Matrix: (Units=GPa)
#
#
# Indices 1 2 3 4 5 6 
#
# 1 100.2890 31.6698 32.1818 0.0000 8.4221 0.0000
# 2 31.6698 110.3849 32.0648 0.0000 -2.4528 0.0000
# 3 32.1818 32.0648 109.3723 0.0000 -3.7228 0.0000
# 4 0.0000 0.0000 0.0000 12.3832 0.0000 0.8539
# 5 8.4221 -2.4528 -3.7228 0.0000 21.9994 0.0000
# 6 0.0000 0.0000 0.0000 0.8539 0.0000 18.7074
#
#
#
# Elastic Compliance Matrix: (Units=1/GPa)
#
#
# Indices 1 2 3 4 5 6 
#
# 1 0.012268 -0.002775 -0.002984 0.000000 -0.005511 0.000000
# 2 -0.002775 0.010539 -0.002210 0.000000 0.001864 0.000000
# 3 -0.002984 -0.002210 0.010761 0.000000 0.002717 0.000000
# 4 0.000000 0.000000 0.000000 0.081010 0.000000 -0.003698
# 5 -0.005511 0.001864 0.002717 0.000000 0.048233 0.000000
# 6 0.000000 0.000000 0.000000 -0.003698 0.000000 0.053624
#
#
# Mechanical properties :
#
#
# Convention : Reuss Voigt Hill
#
# Bulk Modulus (GPa) = 56.71963 56.87545 56.79754
# Shear Modulus (GPa) = 20.98654 25.55999 23.27326
#
# Velocity S-wave (km/s) = 3.37462 3.72421 3.55372
# Velocity P-wave (km/s) = 6.77954 7.02536 6.90355
#
# Compressibility (1/GPa) = 0.01763058
#
# Stress axis : x y z
#
# Youngs Moduli (GPa) = 81.51399 94.88796 92.92608
#
# Poissons Ratio (x) = 0.26336 0.27725
# Poissons Ratio (y) = 0.22624 0.20533
# Poissons Ratio (z) = 0.24320 0.20966
#
# Static dielectric constant tensor:
#      x y z
#    x 3.596140 0.000000 0.030030 
#    y 0.000000 3.186350 0.000000 
#    z 0.030030 0.000000 3.398660 
# 
# 
# High freq. dielectric constant tensor:
#      x y z
#    x 1.726950 0.000000 0.000400 
#    y 0.000000 1.707100 0.000000 
#    z 0.000400 0.000000 1.721930 
# 
# From -- ./inp_files/175271.got.cif
#   From: 2010.06.25/outbox.cif.g09.slc.cpg/sg12_88_cif.got.tgz:175271.got - 2010.06.28 00:19:55.
