data_PCOD8093416
_publ_section_title
;
Structure prediction by ZEFSAII (Michael W. Deem and Ramdas Pophale) SiO2 
 PCOD8093416
Probable space group: C 2/M
;
_chemical_formula_sum "Si O2"
_cell_formula_units_Z 40
_cell_length_a 10.097931
_cell_length_b 15.087181
_cell_length_c 13.947967
_cell_angle_alpha 90.000000
_cell_angle_beta 111.293926
_cell_angle_gamma 90.000000
_cell_volume 1979.891378
_symmetry_space_group_name_H-M "C 2/M"
_symmetry_group_IT_number 12
_symmetry_cell_setting 'monoclinic'
loop_
_space_group_symop_operation_xyz
x,y,z
-x,y,-z
-x,-y,-z
x,-y,z
1/2+x,1/2+y,z
1/2-x,1/2+y,-z
1/2-x,1/2-y,-z
1/2+x,1/2-y,z
loop_
_atom_site_type_symbol
_atom_site_label
_atom_site_fract_x
_atom_site_fract_y
_atom_site_fract_z
Si Si1 0.411764 0.253745 0.071674
Si Si2 0.598127 0.143346 0.439246
Si Si3 0.882780 0.900615 0.216724
Si Si4 0.922531 0.399888 0.782254
Si Si5 0.086088 0.147848 0.431490
O O1 0.430888 0.337962 0.143925
O O2 0.461921 0.164086 0.138305
O O3 0.500000 0.270257 0.000000
O O4 0.250000 0.250000 0.000000
O O5 0.500000 0.108809 0.500000
O O6 0.560304 0.098720 0.328159
O O7 0.753983 0.115199 0.514023
O O8 0.579583 0.247131 0.416687
O O9 0.736577 0.867944 0.229595
O O10 0.014810 0.899927 0.323384
O O11 0.862167 0.000000 0.171806
O O12 0.950793 0.500000 0.826442
O O13 0.000000 0.115405 0.500000
#
# Coordination Sequence:
#
# PCOD8093416 Si02
#       5
#     8   8   8   8   8
#     4  12  26  46  72  95 129 171 219 284 340 384
#     4  10  21  35  62  97 137 175 212 260 320 387
#     4  11  24  42  69 101 132 171 224 271 324 397
#     4  11  24  43  69  99 133 175 220 265 331 403
#     4  10  19  35  63  95 130 176 216 256 314 392
#
# _framework density 20.203129000000001
#
# number of rings (size 3 to 8) (size 9 to 14) (size 15 to 20)
#    0.000    1.200    6.000    0.000    0.000    4.800 
#    0.000    2.000    0.000    0.000    0.000    0.000 
#    0.000    0.000    0.000    0.000    0.000    0.000 
#
# Total GULP energy -248027.455259 kJ/mol
# GULP energy per Si atom -12401.372763 kJ/mol
# Density = 2.015715 g / cm^3
# Si number density = 20.203129 Si / 1000 Ang^3
#
#
#
# Elastic Constant Matrix: (Units=GPa)
#
#
# Indices 1 2 3 4 5 6 
#
# 1 159.1813 47.4269 74.0328 0.0000 -1.8221 0.0000
# 2 47.4269 102.5514 61.3905 0.0000 -1.6778 0.0000
# 3 74.0328 61.3905 143.6277 0.0000 -1.6392 0.0000
# 4 0.0000 0.0000 0.0000 -1.9464 0.0000 6.3651
# 5 -1.8221 -1.6778 -1.6392 0.0000 45.9836 0.0000
# 6 0.0000 0.0000 0.0000 6.3651 0.0000 29.5753
#
#
#
# Elastic Compliance Matrix: (Units=1/GPa)
#
#
# Indices 1 2 3 4 5 6 
#
# 1 0.008493 -0.001755 -0.003626 0.000000 0.000143 0.000000
# 2 -0.001755 0.013470 -0.004850 0.000000 0.000249 0.000000
# 3 -0.003626 -0.004850 0.010905 0.000000 0.000068 0.000000
# 4 0.000000 0.000000 0.000000 -0.301549 0.000000 0.064898
# 5 0.000143 0.000249 0.000068 0.000000 0.021764 0.000000
# 6 0.000000 0.000000 0.000000 0.064898 0.000000 0.019845
#
#
# Mechanical properties :
#
#
# Convention : Reuss Voigt Hill
#
# Bulk Modulus (GPa) = 80.60219 85.67342 83.13781
# Shear Modulus (GPa) = -24.69456 29.55652 2.43098
#
# Velocity S-wave (km/s) = -3.49995 3.82903 1.09813
# Velocity P-wave (km/s) = 4.86309 7.87697 6.54585
#
# Compressibility (1/GPa) = 0.01240661
#
# Stress axis : x y z
#
# Youngs Moduli (GPa) = 117.74367 74.23725 91.69751
#
# Poissons Ratio (x) = 0.13027 0.33250
# Poissons Ratio (y) = 0.20661 0.44476
# Poissons Ratio (z) = 0.42695 0.36007
#
# Static dielectric constant tensor:
#      x y z
#    x 3.765020 0.000000 -0.024380 
#    y 0.000000 3.694090 0.000000 
#    z -0.024380 0.000000 3.702110 
# 
# 
# High freq. dielectric constant tensor:
#      x y z
#    x 1.793900 0.000000 0.000620 
#    y 0.000000 1.787840 0.000000 
#    z 0.000620 0.000000 1.793830 
# 
# From -- ./inp_files/194421.got.cif
#   From: 2010.06.25/outbox.cif.g09.slc.cpg/sg12_98_cif.got.tgz:194421.got - 2010.06.28 00:19:55.
