data_PCOD8093270
_publ_section_title
;
Structure prediction by ZEFSAII (Michael W. Deem and Ramdas Pophale) SiO2 
 PCOD8093270
Probable space group: C 2/M
;
_chemical_formula_sum "Si O2"
_cell_formula_units_Z 56
_cell_length_a 14.010780
_cell_length_b 18.321124
_cell_length_c 12.027180
_cell_angle_alpha 90.000000
_cell_angle_beta 116.281327
_cell_angle_gamma 90.000000
_cell_volume 2768.164425
_symmetry_space_group_name_H-M "C 2/M"
_symmetry_group_IT_number 12
_symmetry_cell_setting 'monoclinic'
loop_
_space_group_symop_operation_xyz
x,y,z
-x,y,-z
-x,-y,-z
x,-y,z
1/2+x,1/2+y,z
1/2-x,1/2+y,-z
1/2-x,1/2-y,-z
1/2+x,1/2-y,z
loop_
_atom_site_type_symbol
_atom_site_label
_atom_site_fract_x
_atom_site_fract_y
_atom_site_fract_z
Si Si1 0.972954 0.414051 0.737848
Si Si2 0.109771 0.914636 0.119210
Si Si3 0.406546 0.799853 0.534616
Si Si4 0.801499 0.586373 0.060927
Si Si5 0.710437 0.086413 0.191557
Si Si6 0.618576 0.586233 0.550545
Si Si7 0.826674 0.170084 0.631804
O O1 0.969116 0.500000 0.713375
O O2 0.936177 0.376811 0.605077
O O3 0.897751 0.391596 0.801779
O O4 0.090426 0.385184 0.827554
O O5 0.202763 0.889552 0.084613
O O6 0.117115 0.864395 0.231707
O O7 0.119767 0.000000 0.157843
O O8 0.000000 0.899341 0.000000
O O9 0.500000 0.774884 0.500000
O O10 0.296232 0.807941 0.408641
O O11 0.393533 0.740181 0.625784
O O12 0.807465 0.500000 0.052082
O O13 0.789174 0.621004 0.931432
O O14 0.811787 0.117692 0.311368
O O15 0.720180 0.000000 0.189090
O O16 0.500000 0.618624 0.500000
O O17 0.616887 0.500000 0.552389
O O18 0.673558 0.609921 0.465109
#
# Coordination Sequence:
#
# PCOD8093270 Si02
#       7
#     8   8   8   8   8   8   8
#     4  10  19  35  60  90 118 150 196 244 299 357
#     4  10  22  39  61  89 122 160 201 247 296 349
#     4  11  24  41  62  85 119 158 198 249 308 359
#     4   9  18  33  56  88 122 153 187 239 296 348
#     4   9  17  31  53  86 121 148 185 235 288 343
#     4  10  20  33  57  90 118 153 200 244 289 347
#     4  11  23  41  61  83 120 158 200 245 301 359
#
# _framework density 20.230011000000001
#
# number of rings (size 3 to 8) (size 9 to 14) (size 15 to 20)
#    0.000    2.000    1.429    2.143    2.000    2.571 
#    0.000    1.429    0.000    2.571    0.000    0.000 
#    0.000    0.000    0.000    0.000    0.000    0.000 
#
# Total GULP energy -347207.482329 kJ/mol
# GULP energy per Si atom -12400.267226 kJ/mol
# Density = 2.018397 g / cm^3
# Si number density = 20.230011 Si / 1000 Ang^3
#
#
#
# Elastic Constant Matrix: (Units=GPa)
#
#
# Indices 1 2 3 4 5 6 
#
# 1 152.2347 40.3197 57.3117 0.0000 15.2172 0.0000
# 2 40.3197 51.6332 52.6067 0.0000 -0.0884 0.0000
# 3 57.3117 52.6067 124.0665 0.0000 4.9078 0.0000
# 4 0.0000 0.0000 0.0000 23.5632 0.0000 -3.4683
# 5 15.2172 -0.0884 4.9078 0.0000 33.0739 0.0000
# 6 0.0000 0.0000 0.0000 -3.4683 0.0000 13.4434
#
#
#
# Elastic Compliance Matrix: (Units=1/GPa)
#
#
# Indices 1 2 3 4 5 6 
#
# 1 0.009017 -0.005213 -0.001801 0.000000 -0.003895 0.000000
# 2 -0.005213 0.037280 -0.013578 0.000000 0.004513 0.000000
# 3 -0.001801 -0.013578 0.014704 0.000000 -0.001390 0.000000
# 4 0.000000 0.000000 0.000000 0.044114 0.000000 0.011381
# 5 -0.003895 0.004513 -0.001390 0.000000 0.032246 0.000000
# 6 0.000000 0.000000 0.000000 0.011381 0.000000 0.077322
#
#
# Mechanical properties :
#
#
# Convention : Reuss Voigt Hill
#
# Bulk Modulus (GPa) = 50.46009 69.82340 60.14175
# Shear Modulus (GPa) = 19.04969 25.86252 22.45610
#
# Velocity S-wave (km/s) = 3.07197 3.57938 3.33534
# Velocity P-wave (km/s) = 6.13025 7.18835 6.68028
#
# Compressibility (1/GPa) = 0.01981764
#
# Stress axis : x y z
#
# Youngs Moduli (GPa) = 110.90418 26.82430 68.00791
#
# Poissons Ratio (x) = 0.13984 0.12246
# Poissons Ratio (y) = 0.57816 0.92339
# Poissons Ratio (z) = 0.19970 0.36421
#
# Static dielectric constant tensor:
#      x y z
#    x 3.908060 0.000000 0.138340 
#    y 0.000000 3.358240 0.000000 
#    z 0.138340 0.000000 3.822800 
# 
# 
# High freq. dielectric constant tensor:
#      x y z
#    x 1.803980 0.000000 0.007260 
#    y 0.000000 1.758520 0.000000 
#    z 0.007260 0.000000 1.790860 
# 
# From -- ./inp_files/146223.got.cif
#   From: 2010.06.25/outbox.cif.g09.slc.cpg/sg12_74_cif.got.tgz:146223.got - 2010.06.28 00:19:55.
