data_PCOD8093237
_publ_section_title
;
Structure prediction by ZEFSAII (Michael W. Deem and Ramdas Pophale) SiO2 
 PCOD8093237
Probable space group: C 2/M
;
_chemical_formula_sum "Si O2"
_cell_formula_units_Z 64
_cell_length_a 29.624114
_cell_length_b 8.858372
_cell_length_c 11.840887
_cell_angle_alpha 90.000000
_cell_angle_beta 92.602522
_cell_angle_gamma 90.000000
_cell_volume 3104.097446
_symmetry_space_group_name_H-M "C 2/M"
_symmetry_group_IT_number 12
_symmetry_cell_setting 'monoclinic'
loop_
_space_group_symop_operation_xyz
x,y,z
-x,y,-z
-x,-y,-z
x,-y,z
1/2+x,1/2+y,z
1/2-x,1/2+y,-z
1/2-x,1/2-y,-z
1/2+x,1/2-y,z
loop_
_atom_site_type_symbol
_atom_site_label
_atom_site_fract_x
_atom_site_fract_y
_atom_site_fract_z
Si Si1 0.733531 0.674489 0.278184
Si Si2 0.345536 0.672258 0.573130
Si Si3 0.007669 0.821346 0.630575
Si Si4 0.293597 0.821188 0.946292
Si Si5 0.582297 0.827288 0.786807
Si Si6 0.168428 0.329244 0.654869
Si Si7 0.419084 0.321078 0.751974
Si Si8 0.611559 0.679569 0.007357
O O1 0.734151 0.500000 0.236388
O O2 0.706082 0.689526 0.391731
O O3 0.707754 0.776969 0.184917
O O4 0.783677 0.741224 0.301699
O O5 0.359469 0.500000 0.557398
O O6 0.352895 0.748157 0.454425
O O7 0.379283 0.745572 0.668810
O O8 0.966481 0.766651 0.705295
O O9 0.000000 0.769631 0.500000
O O10 0.051955 0.742456 0.684542
O O11 0.014362 0.000000 0.636694
O O12 0.293481 0.000000 0.963875
O O13 0.250000 0.750000 0.000000
O O14 0.339409 0.754410 0.004169
O O15 0.634232 0.816200 0.754298
O O16 0.578517 0.733911 0.902829
O O17 0.567918 0.000000 0.806149
O O18 0.177800 0.500000 0.619360
O O19 0.416273 0.500000 0.752667
O O20 0.411811 0.263183 0.879092
O O21 0.616832 0.500000 0.004843
#
# Coordination Sequence:
#
# PCOD8093237 Si02
#       8
#     8   8   8   8   8   8   8   8
#     4  10  20  37  58  83 118 158 201 250 303 359
#     4  10  19  35  60  87 118 154 197 250 305 367
#     4  10  21  40  67  94 120 156 206 253 305 374
#     4  12  24  38  59  87 121 163 211 256 302 360
#     4  11  24  41  59  87 126 161 202 253 309 365
#     4  10  22  37  55  82 119 159 197 248 305 360
#     4   9  19  37  62  91 120 154 198 255 311 362
#     4  11  22  41  65  88 121 160 204 253 309 368
#
# _framework density 20.617909000000001
#
# number of rings (size 3 to 8) (size 9 to 14) (size 15 to 20)
#    0.000    1.625    1.250    3.750    0.000    4.750 
#    0.000    4.375    0.000    0.000    0.000    0.000 
#    0.000    0.000    0.000    0.000    0.000    0.000 
#
# Total GULP energy -396870.173347 kJ/mol
# GULP energy per Si atom -12402.192917 kJ/mol
# Density = 2.057098 g / cm^3
# Si number density = 20.617909 Si / 1000 Ang^3
#
#
#
# Elastic Constant Matrix: (Units=GPa)
#
#
# Indices 1 2 3 4 5 6 
#
# 1 96.3189 28.1225 32.2976 0.0000 4.3762 0.0000
# 2 28.1225 80.5510 42.4958 0.0000 3.9812 0.0000
# 3 32.2976 42.4958 128.9971 0.0000 12.0822 0.0000
# 4 0.0000 0.0000 0.0000 30.6844 0.0000 5.3929
# 5 4.3762 3.9812 12.0822 0.0000 37.6656 0.0000
# 6 0.0000 0.0000 0.0000 5.3929 0.0000 27.4358
#
#
#
# Elastic Compliance Matrix: (Units=1/GPa)
#
#
# Indices 1 2 3 4 5 6 
#
# 1 0.011963 -0.003143 -0.001919 0.000000 -0.000442 0.000000
# 2 -0.003143 0.015851 -0.004446 0.000000 0.000116 0.000000
# 3 -0.001919 -0.004446 0.009931 0.000000 -0.002493 0.000000
# 4 0.000000 0.000000 0.000000 0.033756 0.000000 -0.006635
# 5 -0.000442 0.000116 -0.002493 0.000000 0.027388 0.000000
# 6 0.000000 0.000000 0.000000 -0.006635 0.000000 0.037753
#
#
# Mechanical properties :
#
#
# Convention : Reuss Voigt Hill
#
# Bulk Modulus (GPa) = 53.38780 56.85542 55.12161
# Shear Modulus (GPa) = 30.88318 32.68723 31.78520
#
# Velocity S-wave (km/s) = 3.87445 3.98600 3.93062
# Velocity P-wave (km/s) = 6.77977 6.98712 6.88423
#
# Compressibility (1/GPa) = 0.01873087
#
# Stress axis : x y z
#
# Youngs Moduli (GPa) = 83.58991 63.08557 100.69894
#
# Poissons Ratio (x) = 0.19825 0.19320
# Poissons Ratio (y) = 0.26269 0.44771
# Poissons Ratio (z) = 0.16037 0.28048
#
# Static dielectric constant tensor:
#      x y z
#    x 3.814170 0.000000 -0.021510 
#    y 0.000000 3.547930 0.000000 
#    z -0.021510 0.000000 3.822650 
# 
# 
# High freq. dielectric constant tensor:
#      x y z
#    x 1.810710 0.000000 -0.000270 
#    y 0.000000 1.783590 0.000000 
#    z -0.000270 0.000000 1.817360 
# 
# From -- ./inp_files/187616.got.cif
#   From: 2010.06.25/outbox.cif.g09.slc.cpg/sg12_94_cif.got.tgz:187616.got - 2010.06.28 00:19:55.
