data_PCOD8093601
_publ_section_title
;
Structure prediction by ZEFSAII (Michael W. Deem and Ramdas Pophale) SiO2 
 PCOD8093601
Probable space group: C 2/M
;
_chemical_formula_sum "Si O2"
_cell_formula_units_Z 64
_cell_length_a 14.581585
_cell_length_b 9.068053
_cell_length_c 26.720797
_cell_angle_alpha 90.000000
_cell_angle_beta 105.379658
_cell_angle_gamma 90.000000
_cell_volume 3406.674544
_symmetry_space_group_name_H-M "C 2/M"
_symmetry_group_IT_number 12
_symmetry_cell_setting 'monoclinic'
loop_
_space_group_symop_operation_xyz
x,y,z
-x,y,-z
-x,-y,-z
x,-y,z
1/2+x,1/2+y,z
1/2-x,1/2+y,-z
1/2-x,1/2-y,-z
1/2+x,1/2-y,z
loop_
_atom_site_type_symbol
_atom_site_label
_atom_site_fract_x
_atom_site_fract_y
_atom_site_fract_z
Si Si1 0.948703 0.669102 0.138372
Si Si2 0.928299 0.324652 0.309987
Si Si3 0.651884 0.671653 0.499592
Si Si4 0.941710 0.674330 0.944197
Si Si5 0.959883 0.827160 0.417798
Si Si6 0.733792 0.331120 0.116476
Si Si7 0.238943 0.826180 0.229257
Si Si8 0.538505 0.674162 0.242987
O O1 0.973864 0.500000 0.155599
O O2 0.838251 0.683490 0.108248
O O3 0.007125 0.726534 0.099257
O O4 0.970015 0.769335 0.189201
O O5 0.936751 0.500000 0.309185
O O6 0.931328 0.271965 0.367097
O O7 0.830667 0.264433 0.271407
O O8 0.014610 0.252465 0.291759
O O9 0.672553 0.500000 0.498863
O O10 0.750000 0.750000 0.500000
O O11 0.615967 0.712721 0.549952
O O12 0.567290 0.715481 0.449323
O O13 0.934068 0.500000 0.946144
O O14 0.836376 0.741491 0.929764
O O15 0.000000 0.736089 0.000000
O O16 0.954495 0.000000 0.403910
O O17 0.699526 0.500000 0.113081
O O18 0.732522 0.261250 0.172229
O O19 0.146286 0.779744 0.246671
O O20 0.249670 0.000000 0.226001
O O21 0.526121 0.500000 0.246594
#
# Coordination Sequence:
#
# PCOD8093601 Si02
#       8
#     8   8   8   8   8   8   8   8
#     4  10  20  36  57  78 107 144 179 222 275 330
#     4  11  22  38  57  82 116 151 186 231 279 330
#     4   9  19  37  62  85 115 153 193 235 282 331
#     4  10  22  38  55  81 114 142 176 229 283 328
#     4   9  20  39  57  82 118 155 188 232 283 330
#     4  10  19  36  58  78 104 142 183 222 268 331
#     4   9  19  35  54  77 108 143 180 222 274 328
#     4  11  21  35  56  81 108 143 184 227 274 331
#
# _framework density 18.786649000000001
#
# number of rings (size 3 to 8) (size 9 to 14) (size 15 to 20)
#    0.000    2.125    2.500    1.500    0.000    3.250 
#    0.000    7.500    0.000    0.000    0.000    0.000 
#    0.000    0.000    0.000    0.000    0.000    0.000 
#
# Total GULP energy -396850.125367 kJ/mol
# GULP energy per Si atom -12401.566418 kJ/mol
# Density = 1.874389 g / cm^3
# Si number density = 18.786649 Si / 1000 Ang^3
#
#
#
# Elastic Constant Matrix: (Units=GPa)
#
#
# Indices 1 2 3 4 5 6 
#
# 1 97.7427 28.1543 17.8413 0.0000 4.8270 0.0000
# 2 28.1543 46.3988 24.1808 0.0000 -0.1936 0.0000
# 3 17.8413 24.1808 78.7325 0.0000 5.5944 0.0000
# 4 0.0000 0.0000 0.0000 31.9271 0.0000 2.6289
# 5 4.8270 -0.1936 5.5944 0.0000 25.6468 0.0000
# 6 0.0000 0.0000 0.0000 2.6289 0.0000 30.7071
#
#
#
# Elastic Compliance Matrix: (Units=1/GPa)
#
#
# Indices 1 2 3 4 5 6 
#
# 1 0.012557 -0.007420 -0.000401 0.000000 -0.002332 0.000000
# 2 -0.007420 0.030140 -0.007812 0.000000 0.003328 0.000000
# 3 -0.000401 -0.007812 0.015429 0.000000 -0.003349 0.000000
# 4 0.000000 0.000000 0.000000 0.031544 0.000000 -0.002700
# 5 -0.002332 0.003328 -0.003349 0.000000 0.040186 0.000000
# 6 0.000000 0.000000 0.000000 -0.002700 0.000000 0.032797
#
#
# Mechanical properties :
#
#
# Convention : Reuss Voigt Hill
#
# Bulk Modulus (GPa) = 37.22969 40.35855 38.79412
# Shear Modulus (GPa) = 24.64628 27.83604 26.24116
#
# Velocity S-wave (km/s) = 3.62595 3.85345 3.74143
# Velocity P-wave (km/s) = 6.11475 6.42869 6.27368
#
# Compressibility (1/GPa) = 0.02686028
#
# Stress axis : x y z
#
# Youngs Moduli (GPa) = 79.63955 33.17890 64.81211
#
# Poissons Ratio (x) = 0.24619 0.02598
# Poissons Ratio (y) = 0.59093 0.50629
# Poissons Ratio (z) = 0.03192 0.25918
#
# Static dielectric constant tensor:
#      x y z
#    x 3.570870 0.000000 0.001360 
#    y 0.000000 3.239450 0.000000 
#    z 0.001360 0.000000 3.438580 
# 
# 
# High freq. dielectric constant tensor:
#      x y z
#    x 1.740660 0.000000 -0.000650 
#    y 0.000000 1.713690 0.000000 
#    z -0.000650 0.000000 1.727040 
# 
# From -- ./inp_files/359984.got.cif
#   From: 2010.06.25/outbox.cif.g09.slc.cpg/sg12_180_cif.got.tgz:359984.got - 2010.06.28 00:19:55.
