data_PCOD8093372
_publ_section_title
;
Structure prediction by ZEFSAII (Michael W. Deem and Ramdas Pophale) SiO2 
 PCOD8093372
Probable space group: C 2/M
;
_chemical_formula_sum "Si O2"
_cell_formula_units_Z 40
_cell_length_a 13.171964
_cell_length_b 13.837569
_cell_length_c 15.389289
_cell_angle_alpha 90.000000
_cell_angle_beta 135.379877
_cell_angle_gamma 90.000000
_cell_volume 1970.222610
_symmetry_space_group_name_H-M "C 2/M"
_symmetry_group_IT_number 12
_symmetry_cell_setting 'monoclinic'
loop_
_space_group_symop_operation_xyz
x,y,z
-x,y,-z
-x,-y,-z
x,-y,z
1/2+x,1/2+y,z
1/2-x,1/2+y,-z
1/2-x,1/2-y,-z
1/2+x,1/2-y,z
loop_
_atom_site_type_symbol
_atom_site_label
_atom_site_fract_x
_atom_site_fract_y
_atom_site_fract_z
Si Si1 0.161661 0.202928 0.134933
Si Si2 0.917258 0.388917 0.535052
Si Si3 0.084347 0.604454 0.140963
Si Si4 0.552947 0.798035 0.784320
Si Si5 0.388914 0.608536 0.725142
O O1 0.198247 0.307508 0.202153
O O2 0.276213 0.188238 0.128149
O O3 0.174018 0.120140 0.215175
O O4 0.000000 0.203927 0.000000
O O5 0.960743 0.500000 0.577676
O O6 0.744948 0.377184 0.421409
O O7 0.000000 0.349779 0.500000
O O8 0.962707 0.325631 0.644566
O O9 0.158465 0.500000 0.206071
O O10 0.976882 0.630306 0.154328
O O11 0.000000 0.595422 0.000000
O O12 0.514156 0.686851 0.783856
O O13 0.453069 0.500000 0.755006
#
# Coordination Sequence:
#
# PCOD8093372 Si02
#       5
#     8   8   8   8   8
#     4  10  22  38  56  83 116 151 192 234 278 333
#     4  10  19  35  62  88 112 144 188 236 283 337
#     4   9  20  37  56  80 111 147 190 231 276 335
#     4  11  21  37  62  84 113 153 189 231 284 335
#     4  10  22  38  57  87 117 145 188 238 283 333
#
# _framework density 20.302274000000001
#
# number of rings (size 3 to 8) (size 9 to 14) (size 15 to 20)
#    0.000    2.000    2.000    1.200    0.000    9.200 
#    0.000    4.000    0.000    0.600    0.000    0.000 
#    0.000    0.000    0.000    0.000    0.000    0.000 
#
# Total GULP energy -247901.369814 kJ/mol
# GULP energy per Si atom -12395.068491 kJ/mol
# Density = 2.025607 g / cm^3
# Si number density = 20.302274 Si / 1000 Ang^3
#
#
#
# Elastic Constant Matrix: (Units=GPa)
#
#
# Indices 1 2 3 4 5 6 
#
# 1 99.3113 13.7587 37.6377 0.0000 -20.7713 0.0000
# 2 13.7587 100.7389 38.1210 0.0000 -14.3964 0.0000
# 3 37.6377 38.1210 69.0345 0.0000 -7.3485 0.0000
# 4 0.0000 0.0000 0.0000 33.6957 0.0000 -8.4566
# 5 -20.7713 -14.3964 -7.3485 0.0000 32.9861 0.0000
# 6 0.0000 0.0000 0.0000 -8.4566 0.0000 21.3007
#
#
#
# Elastic Compliance Matrix: (Units=1/GPa)
#
#
# Indices 1 2 3 4 5 6 
#
# 1 0.014696 0.002387 -0.008434 0.000000 0.008417 0.000000
# 2 0.002387 0.013482 -0.008153 0.000000 0.005571 0.000000
# 3 -0.008434 -0.008153 0.023192 0.000000 -0.003703 0.000000
# 4 0.000000 0.000000 0.000000 0.032961 0.000000 0.013086
# 5 0.008417 0.005571 -0.003703 0.000000 0.037222 0.000000
# 6 0.000000 0.000000 0.000000 0.013086 0.000000 0.052142
#
#
# Mechanical properties :
#
#
# Convention : Reuss Voigt Hill
#
# Bulk Modulus (GPa) = 43.53716 49.79106 46.66411
# Shear Modulus (GPa) = 23.83757 29.56767 26.70262
#
# Velocity S-wave (km/s) = 3.43028 3.82038 3.63058
# Velocity P-wave (km/s) = 6.09755 6.63616 6.37255
#
# Compressibility (1/GPa) = 0.02296888
#
# Stress axis : x y z
#
# Youngs Moduli (GPa) = 68.04787 74.17228 43.11795
#
# Poissons Ratio (x) = -0.17708 0.36368
# Poissons Ratio (y) = -0.16246 0.35156
# Poissons Ratio (z) = 0.57395 0.60476
#
# Static dielectric constant tensor:
#      x y z
#    x 3.708930 0.000000 -0.249470 
#    y 0.000000 4.177590 0.000000 
#    z -0.249470 0.000000 3.471540 
# 
# 
# High freq. dielectric constant tensor:
#      x y z
#    x 1.786140 0.000000 -0.020630 
#    y 0.000000 1.801360 0.000000 
#    z -0.020630 0.000000 1.777500 
# 
# From -- ./inp_files/129105.got.cif
#   From: 2010.06.25/outbox.cif.g09.slc.cpg/sg12_65_cif.got.tgz:129105.got - 2010.06.28 00:19:55.
