data_PCOD8093213
_publ_section_title
;
Structure prediction by ZEFSAII (Michael W. Deem and Ramdas Pophale) SiO2 
 PCOD8093213
Probable space group: C 2/M
;
_chemical_formula_sum "Si O2"
_cell_formula_units_Z 56
_cell_length_a 14.490316
_cell_length_b 17.753911
_cell_length_c 11.053627
_cell_angle_alpha 90.000000
_cell_angle_beta 84.978076
_cell_angle_gamma 90.000000
_cell_volume 2832.737654
_symmetry_space_group_name_H-M "C 2/M"
_symmetry_group_IT_number 12
_symmetry_cell_setting 'monoclinic'
loop_
_space_group_symop_operation_xyz
x,y,z
-x,y,-z
-x,-y,-z
x,-y,z
1/2+x,1/2+y,z
1/2-x,1/2+y,-z
1/2-x,1/2-y,-z
1/2+x,1/2-y,z
loop_
_atom_site_type_symbol
_atom_site_label
_atom_site_fract_x
_atom_site_fract_y
_atom_site_fract_z
Si Si1 0.334812 0.277631 0.645470
Si Si2 0.131530 0.914435 0.190824
Si Si3 0.737403 0.588003 0.942615
Si Si4 0.999694 0.663532 0.362493
Si Si5 0.443480 0.911116 0.888623
Si Si6 0.921763 0.913471 0.216853
Si Si7 0.349079 0.283425 0.370372
O O1 0.347840 0.357792 0.705216
O O2 0.422807 0.226547 0.657819
O O3 0.320039 0.300845 0.509518
O O4 0.244103 0.230216 0.698521
O O5 0.026058 0.906362 0.152564
O O6 0.146649 0.000000 0.235104
O O7 0.206309 0.893227 0.081223
O O8 0.744982 0.500000 0.919567
O O9 0.838949 0.623722 0.905094
O O10 0.654432 0.617770 0.868110
O O11 0.011573 0.606164 0.248481
O O12 0.000000 0.626715 0.500000
O O13 0.903258 0.704987 0.353522
O O14 0.439766 0.000000 0.902163
O O15 0.500000 0.878926 0.000000
O O16 0.910130 0.856174 0.328963
O O17 0.902472 0.000000 0.258862
#
# Coordination Sequence:
#
# PCOD8093213 Si02
#       7
#     8   8   8   8   8   8   8
#     4  10  21  38  56  81 118 157 190 243 299 351
#     4  10  20  35  59  88 116 152 195 240 296 357
#     4   9  19  36  57  81 116 150 184 238 299 349
#     4  10  21  40  60  83 118 155 196 243 299 359
#     4  10  22  40  61  86 118 156 201 251 295 340
#     4  10  19  35  60  86 114 150 194 243 297 356
#     4  10  21  37  57  81 117 155 193 241 300 349
#
# _framework density 19.768863
#
# number of rings (size 3 to 8) (size 9 to 14) (size 15 to 20)
#    0.000    2.143    1.429    1.286    2.000    2.571 
#    2.571    2.857    0.000    5.143    0.000    0.000 
#    0.000    0.000    0.000    0.000    0.000    0.000 
#
# Total GULP energy -346918.815345 kJ/mol
# GULP energy per Si atom -12389.957691 kJ/mol
# Density = 1.972387 g / cm^3
# Si number density = 19.768863 Si / 1000 Ang^3
#
#
#
# Elastic Constant Matrix: (Units=GPa)
#
#
# Indices 1 2 3 4 5 6 
#
# 1 98.4898 18.1620 41.5651 0.0000 -5.6117 0.0000
# 2 18.1620 42.6753 25.9172 0.0000 -0.3657 0.0000
# 3 41.5651 25.9172 87.1334 0.0000 -0.0668 0.0000
# 4 0.0000 0.0000 0.0000 25.2238 0.0000 -2.9997
# 5 -5.6117 -0.3657 -0.0668 0.0000 28.6678 0.0000
# 6 0.0000 0.0000 0.0000 -2.9997 0.0000 24.5920
#
#
#
# Elastic Compliance Matrix: (Units=1/GPa)
#
#
# Indices 1 2 3 4 5 6 
#
# 1 0.013049 -0.002139 -0.005586 0.000000 0.002514 0.000000
# 2 -0.002139 0.028953 -0.007591 0.000000 -0.000067 0.000000
# 3 -0.005586 -0.007591 0.016399 0.000000 -0.001152 0.000000
# 4 0.000000 0.000000 0.000000 0.040229 0.000000 0.004907
# 5 0.002514 -0.000067 -0.001152 0.000000 0.035371 0.000000
# 6 0.000000 0.000000 0.000000 0.004907 0.000000 0.041262
#
#
# Mechanical properties :
#
#
# Convention : Reuss Voigt Hill
#
# Bulk Modulus (GPa) = 36.01489 44.39860 40.20674
# Shear Modulus (GPa) = 23.23947 25.20701 24.22324
#
# Velocity S-wave (km/s) = 3.43236 3.57471 3.50426
# Velocity P-wave (km/s) = 5.82801 6.28853 6.06265
#
# Compressibility (1/GPa) = 0.02776629
#
# Stress axis : x y z
#
# Youngs Moduli (GPa) = 76.63647 34.53881 60.98059
#
# Poissons Ratio (x) = 0.07388 0.34066
# Poissons Ratio (y) = 0.16393 0.46293
# Poissons Ratio (z) = 0.42812 0.26220
#
# Static dielectric constant tensor:
#      x y z
#    x 4.023380 0.000000 -0.038290 
#    y 0.000000 3.356010 0.000000 
#    z -0.038290 0.000000 3.596740 
# 
# 
# High freq. dielectric constant tensor:
#      x y z
#    x 1.792570 0.000000 -0.003010 
#    y 0.000000 1.745490 0.000000 
#    z -0.003010 0.000000 1.760900 
# 
# From -- ./inp_files/143699.got.cif
#   From: 2010.06.25/outbox.cif.g09.slc.cpg/sg12_72_cif.got.tgz:143699.got - 2010.06.28 00:19:55.
