data_PCOD8093506
_publ_section_title
;
Structure prediction by ZEFSAII (Michael W. Deem and Ramdas Pophale) SiO2 
 PCOD8093506
Probable space group: C 2/M
;
_chemical_formula_sum "Si O2"
_cell_formula_units_Z 64
_cell_length_a 24.940607
_cell_length_b 9.487947
_cell_length_c 31.740876
_cell_angle_alpha 90.000000
_cell_angle_beta 152.764983
_cell_angle_gamma 90.000000
_cell_volume 3437.347988
_symmetry_space_group_name_H-M "C 2/M"
_symmetry_group_IT_number 12
_symmetry_cell_setting 'monoclinic'
loop_
_space_group_symop_operation_xyz
x,y,z
-x,y,-z
-x,-y,-z
x,-y,z
1/2+x,1/2+y,z
1/2-x,1/2+y,-z
1/2-x,1/2-y,-z
1/2+x,1/2-y,z
loop_
_atom_site_type_symbol
_atom_site_label
_atom_site_fract_x
_atom_site_fract_y
_atom_site_fract_z
Si Si1 0.061162 0.161177 0.000847
Si Si2 0.310660 0.666316 0.677274
Si Si3 0.659323 0.662930 0.207130
Si Si4 0.430388 0.843441 0.530800
Si Si5 0.647036 0.665273 0.703719
Si Si6 0.713282 0.342820 0.843932
Si Si7 0.014783 0.160080 0.272332
Si Si8 0.361270 0.154278 0.577474
O O1 0.180432 0.239272 0.073171
O O2 0.095268 0.000000 0.033677
O O3 0.000000 0.224735 0.000000
O O4 0.975280 0.176124 0.901071
O O5 0.303536 0.500000 0.671834
O O6 0.331697 0.721658 0.739043
O O7 0.185627 0.723360 0.572466
O O8 0.422709 0.712731 0.727023
O O9 0.701453 0.500000 0.232903
O O10 0.735030 0.761945 0.230087
O O11 0.539180 0.736608 0.602778
O O12 0.406794 0.864259 0.562835
O O13 0.460745 0.000000 0.533106
O O14 0.646198 0.500000 0.692113
O O15 0.643134 0.691405 0.751373
O O16 0.765202 0.500000 0.876304
O O17 0.626987 0.335204 0.824685
O O18 0.042464 0.269637 0.327900
O O19 0.058110 0.000000 0.312884
O O20 0.250000 0.250000 0.500000
O O21 0.332498 0.000000 0.576360
#
# Coordination Sequence:
#
# PCOD8093506 Si02
#       8
#     8   8   8   8   8   8   8   8
#     4  10  20  35  58  85 109 135 177 232 279 321
#     4   9  19  37  59  78 105 150 195 223 257 322
#     4  10  21  39  60  80 105 144 188 228 271 327
#     4  10  20  34  54  80 109 147 189 226 264 318
#     4  11  22  35  54  83 115 144 176 226 283 329
#     4  10  21  34  55  85 114 142 172 221 284 336
#     4  10  19  36  56  80 112 145 186 226 268 324
#     4  11  20  30  50  79 109 143 184 228 272 313
#
# _framework density 18.619005000000001
#
# number of rings (size 3 to 8) (size 9 to 14) (size 15 to 20)
#    0.000    1.875    3.750    0.750    0.000    2.750 
#    0.000    4.375    0.000    0.000    0.000    0.000 
#    0.000    0.000    0.000    0.000    0.000    0.000 
#
# Total GULP energy -396595.465153 kJ/mol
# GULP energy per Si atom -12393.608286 kJ/mol
# Density = 1.857663 g / cm^3
# Si number density = 18.619005 Si / 1000 Ang^3
#
#
#
# Elastic Constant Matrix: (Units=GPa)
#
#
# Indices 1 2 3 4 5 6 
#
# 1 66.2670 29.7181 35.8158 0.0009 6.2050 0.0002
# 2 29.7181 88.7951 41.5353 -0.0016 12.4349 -0.0001
# 3 35.8158 41.5353 86.6149 -0.0026 9.1830 0.0001
# 4 0.0009 -0.0016 -0.0026 27.7474 0.0001 7.7220
# 5 6.2050 12.4349 9.1830 0.0001 30.7581 0.0000
# 6 0.0002 -0.0001 0.0001 7.7220 0.0000 20.2635
#
#
#
# Elastic Compliance Matrix: (Units=1/GPa)
#
#
# Indices 1 2 3 4 5 6 
#
# 1 0.020349 -0.003628 -0.006604 -0.000002 -0.000667 0.000000
# 2 -0.003628 0.015637 -0.005582 0.000001 -0.003923 0.000000
# 3 -0.006604 -0.005582 0.017114 0.000002 -0.001521 -0.000001
# 4 -0.000002 0.000001 0.000002 0.040315 -0.000001 -0.015363
# 5 -0.000667 -0.003923 -0.001521 -0.000001 0.034686 0.000000
# 6 0.000000 0.000000 -0.000001 -0.015363 0.000000 0.055204
#
#
# Mechanical properties :
#
#
# Convention : Reuss Voigt Hill
#
# Bulk Modulus (GPa) = 46.57325 50.64613 48.60969
# Shear Modulus (GPa) = 22.51320 24.72765 23.62043
#
# Velocity S-wave (km/s) = 3.48106 3.64825 3.56563
# Velocity P-wave (km/s) = 6.42068 6.70870 6.56627
#
# Compressibility (1/GPa) = 0.02147155
#
# Stress axis : x y z
#
# Youngs Moduli (GPa) = 49.14185 63.95205 58.43052
#
# Poissons Ratio (x) = 0.23202 0.38588
# Poissons Ratio (y) = 0.17829 0.32618
# Poissons Ratio (z) = 0.32454 0.35700
#
# Static dielectric constant tensor:
#      x y z
#    x 3.380570 0.000000 0.106990 
#    y 0.000000 3.371050 0.000000 
#    z 0.106990 0.000000 3.117820 
# 
# 
# High freq. dielectric constant tensor:
#      x y z
#    x 1.713210 0.000000 0.012210 
#    y 0.000000 1.712290 0.000000 
#    z 0.012210 0.000000 1.712560 
# 
# From -- ./inp_files/382449.got.cif
#   From: 2010.06.25/outbox.cif.g09.slc.cpg/sg12_192_cif.got.tgz:382449.got - 2010.06.28 00:19:55.
