data_PCOD8093016
_publ_section_title
;
Structure prediction by ZEFSAII (Michael W. Deem and Ramdas Pophale) SiO2 
 PCOD8093016
Probable space group: C 2/M
;
_chemical_formula_sum "Si O2"
_cell_formula_units_Z 56
_cell_length_a 16.387351
_cell_length_b 14.911993
_cell_length_c 17.091528
_cell_angle_alpha 90.000000
_cell_angle_beta 44.990620
_cell_angle_gamma 90.000000
_cell_volume 2952.835336
_symmetry_space_group_name_H-M "C 2/M"
_symmetry_group_IT_number 12
_symmetry_cell_setting 'monoclinic'
loop_
_space_group_symop_operation_xyz
x,y,z
-x,y,-z
-x,-y,-z
x,-y,z
1/2+x,1/2+y,z
1/2-x,1/2+y,-z
1/2-x,1/2-y,-z
1/2+x,1/2-y,z
loop_
_atom_site_type_symbol
_atom_site_label
_atom_site_fract_x
_atom_site_fract_y
_atom_site_fract_z
Si Si1 0.390709 0.398056 0.303044
Si Si2 0.532885 0.741658 0.305679
Si Si3 0.363570 0.189813 0.918241
Si Si4 0.234010 0.186570 0.280489
Si Si5 0.185557 0.285209 0.468356
Si Si6 0.654530 0.000000 0.821540
Si Si7 0.044652 0.799692 0.887882
Si Si8 0.610222 0.000000 0.033909
O O1 0.408687 0.500000 0.314617
O O2 0.458620 0.338245 0.319015
O O3 0.253385 0.374980 0.395299
O O4 0.443787 0.380960 0.181020
O O5 0.585326 0.806182 0.203950
O O6 0.630375 0.694872 0.290232
O O7 0.448711 0.801927 0.418234
O O8 0.456177 0.224566 0.917841
O O9 0.336972 0.086711 0.957797
O O10 0.250000 0.250000 0.000000
O O11 0.192970 0.211623 0.395064
O O12 0.276778 0.085298 0.256134
O O13 0.333771 0.251480 0.181418
O O14 0.250000 0.250000 0.500000
O O15 0.528149 0.000000 0.868598
O O16 0.652250 0.000000 0.916571
O O17 0.000000 0.839962 0.000000
#
# Coordination Sequence:
#
# PCOD8093016 Si02
#       8
#     8   8   8   8   8   4   8   4
#     4   9  20  37  57  85 115 152 198 242 290 348
#     4  10  21  38  61  85 120 156 194 240 299 353
#     4  11  22  39  59  87 122 160 197 242 295 353
#     4  11  21  37  62  87 122 153 193 242 301 358
#     4   9  20  40  59  81 114 158 197 236 295 349
#     4  11  22  34  59  96 123 150 190 245 304 359
#     4  10  19  35  59  82 113 160 195 237 294 346
#     4  11  22  38  60  90 127 155 200 242 296 365
#
# _framework density 18.964822999999999
#
# number of rings (size 3 to 8) (size 9 to 14) (size 15 to 20)
#    0.000    1.857    1.429    3.857    1.000    0.286 
#   11.571    0.714   12.571    3.429    0.000    0.000 
#    0.000    0.000    0.000    0.000    0.000    0.000 
#
# Total GULP energy -347196.982532 kJ/mol
# GULP energy per Si atom -12399.892233 kJ/mol
# Density = 1.892166 g / cm^3
# Si number density = 18.964823 Si / 1000 Ang^3
#
#
#
# Elastic Constant Matrix: (Units=GPa)
#
#
# Indices 1 2 3 4 5 6 
#
# 1 92.9482 36.4234 48.0085 0.0000 -1.4623 0.0000
# 2 36.4234 109.1152 36.8027 0.0000 1.0324 0.0000
# 3 48.0085 36.8027 138.7060 0.0000 5.4319 0.0000
# 4 0.0000 0.0000 0.0000 16.9907 0.0000 -1.6944
# 5 -1.4623 1.0324 5.4319 0.0000 36.6182 0.0000
# 6 0.0000 0.0000 0.0000 -1.6944 0.0000 23.1581
#
#
#
# Elastic Compliance Matrix: (Units=1/GPa)
#
#
# Indices 1 2 3 4 5 6 
#
# 1 0.014205 -0.003381 -0.004069 0.000000 0.001266 0.000000
# 2 -0.003381 0.010871 -0.001707 0.000000 -0.000188 0.000000
# 3 -0.004069 -0.001707 0.009128 0.000000 -0.001468 0.000000
# 4 0.000000 0.000000 0.000000 0.059288 0.000000 0.004338
# 5 0.001266 -0.000188 -0.001468 0.000000 0.027582 0.000000
# 6 0.000000 0.000000 0.000000 0.004338 0.000000 0.043499
#
#
# Mechanical properties :
#
#
# Convention : Reuss Voigt Hill
#
# Bulk Modulus (GPa) = 62.93220 64.80429 63.86824
# Shear Modulus (GPa) = 26.56960 29.98906 28.27933
#
# Velocity S-wave (km/s) = 3.74705 3.98087 3.86573
# Velocity P-wave (km/s) = 7.20945 7.44142 7.32635
#
# Compressibility (1/GPa) = 0.01589012
#
# Stress axis : x y z
#
# Youngs Moduli (GPa) = 70.39574 91.98998 109.55063
#
# Poissons Ratio (x) = 0.31105 0.44578
# Poissons Ratio (y) = 0.23804 0.18696
# Poissons Ratio (z) = 0.28645 0.15699
#
# Static dielectric constant tensor:
#      x y z
#    x 3.520750 0.000000 -0.052240 
#    y 0.000000 2.427030 0.000000 
#    z -0.052240 0.000000 4.589930 
# 
# 
# High freq. dielectric constant tensor:
#      x y z
#    x 1.740430 0.000000 0.000150 
#    y 0.000000 1.707940 0.000000 
#    z 0.000150 0.000000 1.756060 
# 
# From -- ./inp_files/277860.got.cif
#   From: 2010.06.25/outbox.cif.g09.slc.cpg/sg12_139_cif.got.tgz:277860.got - 2010.06.28 00:19:55.
