data_PCOD8093235
_publ_section_title
;
Structure prediction by ZEFSAII (Michael W. Deem and Ramdas Pophale) SiO2 
 PCOD8093235
Probable space group: C 2/M
;
_chemical_formula_sum "Si O2"
_cell_formula_units_Z 56
_cell_length_a 19.209879
_cell_length_b 14.556836
_cell_length_c 22.838788
_cell_angle_alpha 90.000000
_cell_angle_beta 154.477792
_cell_angle_gamma 90.000000
_cell_volume 2751.704316
_symmetry_space_group_name_H-M "C 2/M"
_symmetry_group_IT_number 12
_symmetry_cell_setting 'monoclinic'
loop_
_space_group_symop_operation_xyz
x,y,z
-x,y,-z
-x,-y,-z
x,-y,z
1/2+x,1/2+y,z
1/2-x,1/2+y,-z
1/2-x,1/2-y,-z
1/2+x,1/2-y,z
loop_
_atom_site_type_symbol
_atom_site_label
_atom_site_fract_x
_atom_site_fract_y
_atom_site_fract_z
Si Si1 0.314950 0.604135 0.946162
Si Si2 0.159085 0.900761 0.816581
Si Si3 0.206364 0.107407 0.475519
Si Si4 0.717173 0.240873 0.775636
Si Si5 0.098492 0.231615 0.201006
Si Si6 0.652130 0.227933 0.513327
Si Si7 0.157350 0.656177 0.936355
O O1 0.359469 0.500000 0.965655
O O2 0.268802 0.649606 0.849460
O O3 0.161610 0.608895 0.875218
O O4 0.469120 0.650426 0.094523
O O5 0.240740 0.824787 0.838142
O O6 0.971852 0.878868 0.687079
O O7 0.173575 0.000000 0.796201
O O8 0.249583 0.907381 0.946956
O O9 0.330601 0.149029 0.522838
O O10 0.214344 0.171183 0.539508
O O11 0.245573 0.000000 0.519214
O O12 0.836992 0.260842 0.813406
O O13 0.536246 0.233290 0.613502
O O14 0.247789 0.196966 0.353754
O O15 0.021327 0.320777 0.174915
O O16 0.250000 0.750000 0.000000
#
# Coordination Sequence:
#
# PCOD8093235 Si02
#       7
#     8   8   8   8   8   8   8
#     4  11  24  41  66  92 122 162 204 254 308 361
#     4  10  19  36  61  88 121 161 202 250 306 363
#     4   9  19  36  61  90 120 157 202 253 304 357
#     4  11  23  41  60  89 128 162 204 252 300 365
#     4  11  23  40  63  86 127 166 200 245 308 370
#     4  10  22  37  62  88 121 162 203 247 303 359
#     4  10  19  35  60  87 117 149 200 254 295 348
#
# _framework density 20.351023999999999
#
# number of rings (size 3 to 8) (size 9 to 14) (size 15 to 20)
#    0.000    1.714    2.857    3.000    4.000    3.429 
#    0.000    3.571    0.000    6.000    0.000    0.000 
#    0.000    0.000    0.000    0.000    0.000    0.000 
#
# Total GULP energy -347134.645702 kJ/mol
# GULP energy per Si atom -12397.665918 kJ/mol
# Density = 2.030470 g / cm^3
# Si number density = 20.351024 Si / 1000 Ang^3
#
#
#
# Elastic Constant Matrix: (Units=GPa)
#
#
# Indices 1 2 3 4 5 6 
#
# 1 109.5985 20.2312 28.4658 0.0066 10.0144 0.0070
# 2 20.2312 111.2995 13.0254 0.0018 6.0642 0.0094
# 3 28.4658 13.0254 75.5959 -0.0170 -8.5540 0.0031
# 4 0.0066 0.0018 -0.0170 22.3319 0.0041 1.3854
# 5 10.0144 6.0642 -8.5540 0.0041 25.8913 0.0044
# 6 0.0070 0.0094 0.0031 1.3854 0.0044 7.1509
#
#
#
# Elastic Compliance Matrix: (Units=1/GPa)
#
#
# Indices 1 2 3 4 5 6 
#
# 1 0.011031 -0.001170 -0.004575 -0.000005 -0.005504 -0.000003
# 2 -0.001170 0.009490 -0.001449 -0.000001 -0.002249 -0.000009
# 3 -0.004575 -0.001449 0.016039 0.000013 0.007408 -0.000007
# 4 -0.000005 -0.000001 0.000013 0.045324 0.000001 -0.008781
# 5 -0.005504 -0.002249 0.007408 0.000001 0.043726 -0.000022
# 6 -0.000003 -0.000009 -0.000007 -0.008781 -0.000022 0.141545
#
#
# Mechanical properties :
#
#
# Convention : Reuss Voigt Hill
#
# Bulk Modulus (GPa) = 45.10246 46.65987 45.88116
# Shear Modulus (GPa) = 17.30504 26.72625 22.01564
#
# Velocity S-wave (km/s) = 2.91920 3.62783 3.29263
# Velocity P-wave (km/s) = 5.79419 6.36596 6.08680
#
# Compressibility (1/GPa) = 0.02217174
#
# Stress axis : x y z
#
# Youngs Moduli (GPa) = 90.65017 105.37932 62.34821
#
# Poissons Ratio (x) = 0.12328 0.28525
# Poissons Ratio (y) = 0.10605 0.09034
# Poissons Ratio (z) = 0.41474 0.15270
#
# Static dielectric constant tensor:
#      x y z
#    x 3.331680 0.000050 0.377050 
#    y 0.000050 3.657620 -0.000060 
#    z 0.377050 -0.000060 3.488400 
# 
# 
# High freq. dielectric constant tensor:
#      x y z
#    x 1.787820 0.000000 0.002100 
#    y 0.000000 1.783660 0.000000 
#    z 0.002100 0.000000 1.794430 
# 
# From -- ./inp_files/316748.got.cif
#   From: 2010.06.25/outbox.cif.g09.slc.cpg/sg12_159_cif.got.tgz:316748.got - 2010.06.28 00:19:55.
