data_PCOD8093041
_publ_section_title
;
Structure prediction by ZEFSAII (Michael W. Deem and Ramdas Pophale) SiO2 
 PCOD8093041
Probable space group: C 2/M
;
_chemical_formula_sum "Si O2"
_cell_formula_units_Z 48
_cell_length_a 13.873062
_cell_length_b 18.651322
_cell_length_c 18.112441
_cell_angle_alpha 90.000000
_cell_angle_beta 31.637815
_cell_angle_gamma 90.000000
_cell_volume 2458.352223
_symmetry_space_group_name_H-M "C 2/M"
_symmetry_group_IT_number 12
_symmetry_cell_setting 'monoclinic'
loop_
_space_group_symop_operation_xyz
x,y,z
-x,y,-z
-x,-y,-z
x,-y,z
1/2+x,1/2+y,z
1/2-x,1/2+y,-z
1/2-x,1/2-y,-z
1/2+x,1/2-y,z
loop_
_atom_site_type_symbol
_atom_site_label
_atom_site_fract_x
_atom_site_fract_y
_atom_site_fract_z
Si Si1 0.991072 0.160762 0.261348
Si Si2 0.870246 0.779694 0.689699
Si Si3 0.273941 0.876863 0.790668
Si Si4 0.920584 0.918490 0.938358
Si Si5 0.825518 0.582153 0.453044
Si Si6 0.734548 0.201997 0.622786
O O1 0.101875 0.127313 0.121298
O O2 0.818050 0.110284 0.392660
O O3 0.927997 0.241292 0.282403
O O4 0.130868 0.166159 0.239804
O O5 0.767077 0.706763 0.776253
O O6 0.766607 0.815956 0.688170
O O7 0.083121 0.762726 0.531718
O O8 0.128101 0.916349 0.833652
O O9 0.471345 0.911340 0.645142
O O10 0.222309 0.886444 0.909901
O O11 0.866924 0.000000 0.956189
O O12 0.780073 0.500000 0.463643
O O13 0.814770 0.627720 0.384655
#
# Coordination Sequence:
#
# PCOD8093041 Si02
#       6
#     8   8   8   8   8   8
#     4  11  20  37  57  84 111 144 187 230 270 323
#     4  10  19  35  59  84 108 144 187 227 273 321
#     4  11  20  37  58  79 113 147 183 225 276 335
#     4  11  24  37  52  83 121 147 175 229 287 329
#     4  11  21  36  59  85 110 147 188 223 273 333
#     4  10  19  36  57  85 115 140 181 236 273 314
#
# _framework density 19.525274
#
# number of rings (size 3 to 8) (size 9 to 14) (size 15 to 20)
#    0.000    1.333    5.000    3.500    0.000    1.333 
#    0.000    9.167    0.000    0.000    0.000    2.333 
#    0.000    0.000    0.000    0.000    0.000    0.000 
#
# Total GULP energy -297685.624816 kJ/mol
# GULP energy per Si atom -12403.567701 kJ/mol
# Density = 1.948083 g / cm^3
# Si number density = 19.525274 Si / 1000 Ang^3
#
#
#
# Elastic Constant Matrix: (Units=GPa)
#
#
# Indices 1 2 3 4 5 6 
#
# 1 70.5216 9.9285 8.1374 -0.0191 24.7244 0.0031
# 2 9.9285 96.7826 17.4318 -0.0240 11.9637 0.0095
# 3 8.1374 17.4318 36.3179 -0.0411 16.0222 0.0213
# 4 -0.0191 -0.0240 -0.0411 10.4866 0.0285 3.9373
# 5 24.7244 11.9637 16.0222 0.0285 35.8262 -0.0094
# 6 0.0031 0.0095 0.0213 3.9373 -0.0094 26.0756
#
#
#
# Elastic Compliance Matrix: (Units=1/GPa)
#
#
# Indices 1 2 3 4 5 6 
#
# 1 0.018843 -0.000619 0.002144 0.000087 -0.013756 -0.000022
# 2 -0.000619 0.011412 -0.004791 0.000010 -0.001241 -0.000002
# 3 0.002144 -0.004791 0.036503 0.000205 -0.016205 -0.000065
# 4 0.000087 0.000010 0.000205 0.101093 -0.000240 -0.015265
# 5 -0.013756 -0.001241 -0.016205 -0.000240 0.045068 0.000068
# 6 -0.000022 -0.000002 -0.000065 -0.015265 0.000068 0.040655
#
#
# Mechanical properties :
#
#
# Convention : Reuss Voigt Hill
#
# Bulk Modulus (GPa) = 16.60421 30.51303 23.55862
# Shear Modulus (GPa) = 17.84555 25.68595 21.76575
#
# Velocity S-wave (km/s) = 3.02648 3.63095 3.34241
# Velocity P-wave (km/s) = 4.55359 5.76539 5.19495
#
# Compressibility (1/GPa) = 0.06022570
#
# Stress axis : x y z
#
# Youngs Moduli (GPa) = 53.07134 87.62441 27.39478
#
# Poissons Ratio (x) = 0.05421 -0.05873
# Poissons Ratio (y) = 0.03283 0.13126
# Poissons Ratio (z) = -0.11378 0.41985
#
# Static dielectric constant tensor:
#      x y z
#    x 3.665610 -0.000030 0.147620 
#    y -0.000030 3.393960 0.000080 
#    z 0.147620 0.000080 3.478160 
# 
# 
# High freq. dielectric constant tensor:
#      x y z
#    x 1.758170 0.000000 0.013160 
#    y 0.000000 1.750260 0.000010 
#    z 0.013160 0.000010 1.747010 
# 
# From -- ./inp_files/271592.got.cif
#   From: 2010.06.25/outbox.cif.g09.slc.cpg/sg12_136_cif.got.tgz:271592.got - 2010.06.28 00:19:55.
