data_PCOD8093169
_publ_section_title
;
Structure prediction by ZEFSAII (Michael W. Deem and Ramdas Pophale) SiO2 
 PCOD8093169
Probable space group: C 2/M
;
_chemical_formula_sum "Si O2"
_cell_formula_units_Z 44
_cell_length_a 10.560222
_cell_length_b 15.251112
_cell_length_c 18.501673
_cell_angle_alpha 90.000000
_cell_angle_beta 50.014652
_cell_angle_gamma 90.000000
_cell_volume 2283.140787
_symmetry_space_group_name_H-M "C 2/M"
_symmetry_group_IT_number 12
_symmetry_cell_setting 'monoclinic'
loop_
_space_group_symop_operation_xyz
x,y,z
-x,y,-z
-x,-y,-z
x,-y,z
1/2+x,1/2+y,z
1/2-x,1/2+y,-z
1/2-x,1/2-y,-z
1/2+x,1/2-y,z
loop_
_atom_site_type_symbol
_atom_site_label
_atom_site_fract_x
_atom_site_fract_y
_atom_site_fract_z
Si Si1 0.538042 0.000000 0.306154
Si Si2 0.414494 0.139402 0.249335
Si Si3 0.039622 0.157247 0.410723
Si Si4 0.705120 0.500000 0.515353
Si Si5 0.973102 0.821768 0.745957
Si Si6 0.629785 0.100022 0.892863
Si Si7 0.168122 0.000000 0.690298
O O1 0.536820 0.912534 0.257664
O O2 0.379328 0.000000 0.413928
O O3 0.703046 0.000000 0.292136
O O4 0.225145 0.118777 0.340874
O O5 0.445675 0.243422 0.239349
O O6 0.453847 0.104511 0.155069
O O7 0.000000 0.213303 0.500000
O O8 0.009914 0.206331 0.345368
O O9 0.905036 0.081707 0.466625
O O10 0.755561 0.500000 0.580893
O O11 0.058881 0.912662 0.735173
O O12 0.782956 0.833092 0.838138
O O13 0.685795 0.000000 0.888284
O O14 0.500000 0.132802 0.000000
#
# Coordination Sequence:
#
# PCOD8093169 Si02
#       7
#     4   8   8   4   8   8   4
#     4  12  22  36  58  88 122 164 195 251 284 360
#     4  11  23  37  61  93 118 156 200 245 297 353
#     4  10  19  35  60  82 117 159 204 248 284 332
#     4  10  19  38  57  82 116 167 210 248 289 328
#     4  10  23  40  60  89 122 158 194 243 303 354
#     4  10  21  42  71  91 109 149 203 252 295 353
#     4  10  23  39  56  83 129 165 193 240 298 355
#
# _framework density 19.271697
#
# number of rings (size 3 to 8) (size 9 to 14) (size 15 to 20)
#    0.000    1.636    3.636    1.091    7.636    1.455 
#    0.000    0.000    0.000    1.091    0.000    0.000 
#    0.000    0.000    0.000    0.000    0.000    0.000 
#
# Total GULP energy -272686.657857 kJ/mol
# GULP energy per Si atom -12394.848084 kJ/mol
# Density = 1.922783 g / cm^3
# Si number density = 19.271697 Si / 1000 Ang^3
#
#
#
# Elastic Constant Matrix: (Units=GPa)
#
#
# Indices 1 2 3 4 5 6 
#
# 1 113.9721 20.2934 44.4209 0.0000 4.2819 0.0000
# 2 20.2934 79.4680 22.5919 0.0000 -1.5052 0.0000
# 3 44.4209 22.5919 142.3758 0.0000 12.8208 0.0000
# 4 0.0000 0.0000 0.0000 6.5075 0.0000 12.6071
# 5 4.2819 -1.5052 12.8208 0.0000 19.2478 0.0000
# 6 0.0000 0.0000 0.0000 12.6071 0.0000 3.7767
#
#
#
# Elastic Compliance Matrix: (Units=1/GPa)
#
#
# Indices 1 2 3 4 5 6 
#
# 1 0.010230 -0.001809 -0.002858 0.000000 -0.000513 0.000000
# 2 -0.001809 0.013620 -0.001839 0.000000 0.002693 0.000000
# 3 -0.002858 -0.001839 0.008684 0.000000 -0.005292 0.000000
# 4 0.000000 0.000000 0.000000 -0.028108 0.000000 0.093829
# 5 -0.000513 0.002693 -0.005292 0.000000 0.055804 0.000000
# 6 0.000000 0.000000 0.000000 0.093829 0.000000 -0.048433
#
#
# Mechanical properties :
#
#
# Convention : Reuss Voigt Hill
#
# Bulk Modulus (GPa) = 51.23095 56.71428 53.97261
# Shear Modulus (GPa) = 159.66426 22.47371 91.06899
#
# Velocity S-wave (km/s) = 9.11202 3.41860 6.88171
# Velocity P-wave (km/s) = 11.71949 6.71380 9.55043
#
# Compressibility (1/GPa) = 0.01951945
#
# Stress axis : x y z
#
# Youngs Moduli (GPa) = 97.75599 73.42371 115.15688
#
# Poissons Ratio (x) = 0.13286 0.32915
# Poissons Ratio (y) = 0.17688 0.21178
# Poissons Ratio (z) = 0.27941 0.13503
#
# Static dielectric constant tensor:
#      x y z
#    x 3.591400 0.000000 0.197010 
#    y 0.000000 3.325960 0.000000 
#    z 0.197010 0.000000 3.533100 
# 
# 
# High freq. dielectric constant tensor:
#      x y z
#    x 1.753020 0.000000 0.010300 
#    y 0.000000 1.731150 0.000000 
#    z 0.010300 0.000000 1.744250 
# 
# From -- ./inp_files/246981.got.cif
#   From: 2010.06.25/outbox.cif.g09.slc.cpg/sg12_124_cif.got.tgz:246981.got - 2010.06.28 00:19:55.
