data_PCOD8093817
_publ_section_title
;
Structure prediction by ZEFSAII (Michael W. Deem and Ramdas Pophale) SiO2 
 PCOD8093817
Probable space group: C 2/M
;
_chemical_formula_sum "Si O2"
_cell_formula_units_Z 52
_cell_length_a 22.062442
_cell_length_b 16.238281
_cell_length_c 10.392221
_cell_angle_alpha 90.000000
_cell_angle_beta 133.929975
_cell_angle_gamma 90.000000
_cell_volume 2681.316246
_symmetry_space_group_name_H-M "C 2/M"
_symmetry_group_IT_number 12
_symmetry_cell_setting 'monoclinic'
loop_
_space_group_symop_operation_xyz
x,y,z
-x,y,-z
-x,-y,-z
x,-y,z
1/2+x,1/2+y,z
1/2-x,1/2+y,-z
1/2-x,1/2-y,-z
1/2+x,1/2-y,z
loop_
_atom_site_type_symbol
_atom_site_label
_atom_site_fract_x
_atom_site_fract_y
_atom_site_fract_z
Si Si1 0.668032 0.091885 0.819217
Si Si2 0.170803 0.594262 0.321362
Si Si3 0.750281 0.846645 0.188749
Si Si4 0.227691 0.907114 0.287071
Si Si5 0.500000 0.812541 0.000000
Si Si6 0.908978 0.767196 0.314466
Si Si7 0.611560 0.710545 0.996185
O O1 0.721378 0.098862 0.769389
O O2 0.602816 0.168232 0.724540
O O3 0.624660 0.000000 0.760854
O O4 0.728853 0.098653 0.032358
O O5 0.149571 0.500000 0.317614
O O6 0.235049 0.601086 0.295800
O O7 0.217203 0.632822 0.515437
O O8 0.080093 0.635208 0.164167
O O9 0.844034 0.809585 0.317356
O O10 0.692085 0.768157 0.111678
O O11 0.137846 0.862569 0.132470
O O12 0.205750 0.000000 0.293542
O O13 0.527846 0.755739 0.922295
O O14 0.000000 0.783942 0.500000
O O15 0.903860 0.816940 0.172603
#
# Coordination Sequence:
#
# PCOD8093817 Si02
#       7
#     8   8   8   8   4   8   8
#     4  10  19  36  60  82 112 154 192 234 288 344
#     4  10  22  38  60  89 119 150 192 240 288 348
#     4  10  19  38  59  81 114 158 196 232 282 349
#     4  10  20  36  60  82 110 153 197 237 279 339
#     4  10  23  34  61  88 120 154 180 238 303 342
#     4  11  22  35  58  87 120 146 195 247 288 341
#     4  10  20  38  56  83 117 152 197 238 283 347
#
# _framework density 19.393460999999999
#
# number of rings (size 3 to 8) (size 9 to 14) (size 15 to 20)
#    0.000    1.846    3.077    1.615    2.154    4.000 
#    0.000    1.154    0.000    4.154    0.000    0.000 
#    0.000    0.000    0.000    0.000    0.000    0.000 
#
# Total GULP energy -322233.915965 kJ/mol
# GULP energy per Si atom -12393.612152 kJ/mol
# Density = 1.934932 g / cm^3
# Si number density = 19.393461 Si / 1000 Ang^3
#
#
#
# Elastic Constant Matrix: (Units=GPa)
#
#
# Indices 1 2 3 4 5 6 
#
# 1 116.7565 30.0583 56.7225 0.0000 1.8747 0.0000
# 2 30.0583 63.2009 47.4273 0.0000 5.5257 0.0000
# 3 56.7225 47.4273 121.1501 0.0000 -6.6345 0.0000
# 4 0.0000 0.0000 0.0000 22.4614 0.0000 -4.6156
# 5 1.8747 5.5257 -6.6345 0.0000 35.9940 0.0000
# 6 0.0000 0.0000 0.0000 -4.6156 0.0000 21.6874
#
#
#
# Elastic Compliance Matrix: (Units=1/GPa)
#
#
# Indices 1 2 3 4 5 6 
#
# 1 0.011306 -0.001775 -0.004663 0.000000 -0.001176 0.000000
# 2 -0.001775 0.023653 -0.008710 0.000000 -0.005144 0.000000
# 3 -0.004663 -0.008710 0.014076 0.000000 0.004174 0.000000
# 4 0.000000 0.000000 0.000000 0.046557 0.000000 0.009908
# 5 -0.001176 -0.005144 0.004174 0.000000 0.029403 0.000000
# 6 0.000000 0.000000 0.000000 0.009908 0.000000 0.048218
#
#
# Mechanical properties :
#
#
# Convention : Reuss Voigt Hill
#
# Bulk Modulus (GPa) = 53.36666 63.28040 58.32353
# Shear Modulus (GPa) = 23.83729 27.15519 25.49624
#
# Velocity S-wave (km/s) = 3.50971 3.74602 3.62979
# Velocity P-wave (km/s) = 6.63338 7.17013 6.90697
#
# Compressibility (1/GPa) = 0.01873829
#
# Stress axis : x y z
#
# Youngs Moduli (GPa) = 88.44806 42.27830 71.04392
#
# Poissons Ratio (x) = 0.07505 0.33127
# Poissons Ratio (y) = 0.15701 0.61880
# Poissons Ratio (z) = 0.41243 0.36825
#
# Static dielectric constant tensor:
#      x y z
#    x 3.832580 0.000000 -0.504370 
#    y 0.000000 3.727250 0.000000 
#    z -0.504370 0.000000 3.930300 
# 
# 
# High freq. dielectric constant tensor:
#      x y z
#    x 1.746290 0.000000 -0.019610 
#    y 0.000000 1.746780 0.000000 
#    z -0.019610 0.000000 1.753970 
# 
# From -- ./inp_files/88498.got.cif
#   From: 2010.06.25/outbox.cif.g09.slc.cpg/sg12_45_cif.got.tgz:88498.got - 2010.06.28 00:19:55.
