data_PCOD8093514
_publ_section_title
;
Structure prediction by ZEFSAII (Michael W. Deem and Ramdas Pophale) SiO2 
 PCOD8093514
Probable space group: C 2/M
;
_chemical_formula_sum "Si O2"
_cell_formula_units_Z 48
_cell_length_a 15.672123
_cell_length_b 15.764288
_cell_length_c 10.419501
_cell_angle_alpha 90.000000
_cell_angle_beta 111.872623
_cell_angle_gamma 90.000000
_cell_volume 2388.932139
_symmetry_space_group_name_H-M "C 2/M"
_symmetry_group_IT_number 12
_symmetry_cell_setting 'monoclinic'
loop_
_space_group_symop_operation_xyz
x,y,z
-x,y,-z
-x,-y,-z
x,-y,z
1/2+x,1/2+y,z
1/2-x,1/2+y,-z
1/2-x,1/2-y,-z
1/2+x,1/2-y,z
loop_
_atom_site_type_symbol
_atom_site_label
_atom_site_fract_x
_atom_site_fract_y
_atom_site_fract_z
Si Si1 0.896246 0.700413 0.447629
Si Si2 0.763518 0.093581 0.724243
Si Si3 0.403205 0.738122 0.727833
Si Si4 0.272914 0.125578 0.010804
Si Si5 0.093423 0.591758 0.121286
Si Si6 0.386181 0.721130 0.169696
O O1 0.825199 0.622276 0.407914
O O2 0.882218 0.758868 0.564562
O O3 0.876335 0.760065 0.314959
O O4 0.000000 0.663374 0.500000
O O5 0.842956 0.164165 0.757850
O O6 0.733871 0.081943 0.855102
O O7 0.795007 0.000000 0.692493
O O8 0.378522 0.831638 0.768024
O O9 0.508486 0.713463 0.814258
O O10 0.334805 0.209968 0.054028
O O11 0.327936 0.070696 0.938666
O O12 0.169793 0.136177 0.895441
O O13 0.079489 0.500000 0.185821
O O14 0.000000 0.619562 0.000000
#
# Coordination Sequence:
#
# PCOD8093514 Si02
#       6
#     8   8   8   8   8   8
#     4   9  20  38  60  86 111 152 198 242 295 346
#     4  11  24  38  58  86 121 159 194 237 287 348
#     4  11  21  38  61  87 119 152 195 240 291 348
#     4  10  19  36  56  82 117 154 193 237 289 343
#     4  11  22  35  57  86 114 148 192 243 293 339
#     4   9  18  35  62  83 112 156 192 236 290 341
#
# _framework density 20.092659000000001
#
# number of rings (size 3 to 8) (size 9 to 14) (size 15 to 20)
#    0.000    1.833    1.667    4.000    0.000    1.000 
#    0.000    2.500    0.000    5.500    0.000    0.000 
#    0.000    0.000    0.000    0.000    0.000    0.000 
#
# Total GULP energy -297441.447947 kJ/mol
# GULP energy per Si atom -12393.393664 kJ/mol
# Density = 2.004693 g / cm^3
# Si number density = 20.092659 Si / 1000 Ang^3
#
#
#
# Elastic Constant Matrix: (Units=GPa)
#
#
# Indices 1 2 3 4 5 6 
#
# 1 115.6479 46.2084 35.8418 0.0000 12.8076 0.0000
# 2 46.2084 101.3013 19.5053 0.0000 15.0322 0.0000
# 3 35.8418 19.5053 73.6640 0.0000 16.2032 0.0000
# 4 0.0000 0.0000 0.0000 -7.9917 0.0000 -17.5849
# 5 12.8076 15.0322 16.2032 0.0000 33.4834 0.0000
# 6 0.0000 0.0000 0.0000 -17.5849 0.0000 -11.2275
#
#
#
# Elastic Compliance Matrix: (Units=1/GPa)
#
#
# Indices 1 2 3 4 5 6 
#
# 1 0.011882 -0.004500 -0.004515 0.000000 -0.000340 0.000000
# 2 -0.004500 0.012541 -0.000304 0.000000 -0.003762 0.000000
# 3 -0.004515 -0.000304 0.017282 0.000000 -0.006500 0.000000
# 4 0.000000 0.000000 0.000000 0.051150 0.000000 -0.080113
# 5 -0.000340 -0.003762 -0.006500 0.000000 0.034830 0.000000
# 6 0.000000 0.000000 0.000000 -0.080113 0.000000 0.036409
#
#
# Mechanical properties :
#
#
# Convention : Reuss Voigt Hill
#
# Bulk Modulus (GPa) = 43.35106 54.85826 49.10466
# Shear Modulus (GPa) = 26.25780 15.45667 20.85724
#
# Velocity S-wave (km/s) = 3.61894 2.77658 3.22538
# Velocity P-wave (km/s) = 6.25178 6.13523 6.19378
#
# Compressibility (1/GPa) = 0.02306749
#
# Stress axis : x y z
#
# Youngs Moduli (GPa) = 84.16150 79.73858 57.86362
#
# Poissons Ratio (x) = 0.35884 0.26125
# Poissons Ratio (y) = 0.37874 0.01757
# Poissons Ratio (z) = 0.37998 0.02421
#
# Static dielectric constant tensor:
#      x y z
#    x 3.814780 0.000000 0.094110 
#    y 0.000000 3.405340 0.000000 
#    z 0.094110 0.000000 3.640800 
# 
# 
# High freq. dielectric constant tensor:
#      x y z
#    x 1.792350 0.000000 0.003520 
#    y 0.000000 1.759420 0.000000 
#    z 0.003520 0.000000 1.782080 
# 
# From -- ./inp_files/144957.got.cif
#   From: 2010.06.25/outbox.cif.g09.slc.cpg/sg12_73_cif.got.tgz:144957.got - 2010.06.28 00:19:55.
