data_PCOD8093511
_publ_section_title
;
Structure prediction by ZEFSAII (Michael W. Deem and Ramdas Pophale) SiO2 
 PCOD8093511
Probable space group: C 2/M
;
_chemical_formula_sum "Si O2"
_cell_formula_units_Z 52
_cell_length_a 8.092571
_cell_length_b 20.267702
_cell_length_c 16.785066
_cell_angle_alpha 90.000000
_cell_angle_beta 112.660026
_cell_angle_gamma 90.000000
_cell_volume 2540.533994
_symmetry_space_group_name_H-M "C 2/M"
_symmetry_group_IT_number 12
_symmetry_cell_setting 'monoclinic'
loop_
_space_group_symop_operation_xyz
x,y,z
-x,y,-z
-x,-y,-z
x,-y,z
1/2+x,1/2+y,z
1/2-x,1/2+y,-z
1/2-x,1/2-y,-z
1/2+x,1/2-y,z
loop_
_atom_site_type_symbol
_atom_site_label
_atom_site_fract_x
_atom_site_fract_y
_atom_site_fract_z
Si Si1 0.130735 0.695114 0.879099
Si Si2 0.326967 0.388399 0.364540
Si Si3 0.217871 0.075662 0.468420
Si Si4 0.670087 0.848269 0.653872
Si Si5 0.500000 0.730706 0.000000
Si Si6 0.535267 0.730347 0.704303
Si Si7 0.535945 0.072960 0.769154
O O1 0.130740 0.744057 0.802529
O O2 0.003886 0.724198 0.922697
O O3 0.059092 0.622356 0.846871
O O4 0.326441 0.685627 0.954712
O O5 0.277833 0.382869 0.449192
O O6 0.518852 0.424640 0.393025
O O7 0.333110 0.317708 0.321358
O O8 0.172218 0.430744 0.294753
O O9 0.353266 0.113689 0.434008
O O10 0.279145 0.000000 0.493312
O O11 0.509229 0.795815 0.642992
O O12 0.665635 0.903874 0.721288
O O13 0.852524 0.806234 0.691144
O O14 0.596252 0.000000 0.806386
#
# Coordination Sequence:
#
# PCOD8093511 Si02
#       7
#     8   8   8   8   4   8   8
#     4  10  20  36  58  83 110 135 173 222 267 332
#     4  10  20  34  57  78 108 147 188 232 272 314
#     4  10  20  36  53  78 111 150 191 231 272 320
#     4  10  21  34  55  78 110 146 187 233 272 316
#     4  10  20  36  62  86 104 136 172 214 280 326
#     4  10  19  36  56  82 108 140 181 229 278 319
#     4  11  21  36  56  82 111 148 184 221 267 322
#
# _framework density 20.468138
#
# number of rings (size 3 to 8) (size 9 to 14) (size 15 to 20)
#    0.000    1.846    0.000    6.923    0.000    1.231 
#    0.000    8.462    0.000    0.000    0.000    0.000 
#    0.000    0.000    0.000    0.000    0.000    0.000 
#
# Total GULP energy -322266.755834 kJ/mol
# GULP energy per Si atom -12394.875224 kJ/mol
# Density = 2.042155 g / cm^3
# Si number density = 20.468138 Si / 1000 Ang^3
#
#
#
# Elastic Constant Matrix: (Units=GPa)
#
#
# Indices 1 2 3 4 5 6 
#
# 1 55.8630 29.6444 32.2186 0.0000 -4.3726 0.0000
# 2 29.6444 134.8132 63.1537 0.0000 -5.9090 0.0000
# 3 32.2186 63.1537 92.6671 0.0000 -11.8040 0.0000
# 4 0.0000 0.0000 0.0000 15.4030 0.0000 0.6268
# 5 -4.3726 -5.9090 -11.8040 0.0000 35.5825 0.0000
# 6 0.0000 0.0000 0.0000 0.6268 0.0000 21.8849
#
#
#
# Elastic Compliance Matrix: (Units=1/GPa)
#
#
# Indices 1 2 3 4 5 6 
#
# 1 0.022721 -0.001910 -0.006560 0.000000 0.000299 0.000000
# 2 -0.001910 0.011073 -0.006973 0.000000 -0.000709 0.000000
# 3 -0.006560 -0.006973 0.018349 0.000000 0.004123 0.000000
# 4 0.000000 0.000000 0.000000 0.064998 0.000000 -0.001862
# 5 0.000299 -0.000709 0.004123 0.000000 0.029390 0.000000
# 6 0.000000 0.000000 0.000000 -0.001862 0.000000 0.045747
#
#
# Mechanical properties :
#
#
# Convention : Reuss Voigt Hill
#
# Bulk Modulus (GPa) = 47.04065 59.26410 53.15238
# Shear Modulus (GPa) = 21.71549 25.12917 23.42233
#
# Velocity S-wave (km/s) = 3.26074 3.50769 3.38647
# Velocity P-wave (km/s) = 6.09991 6.73961 6.42772
#
# Compressibility (1/GPa) = 0.02125821
#
# Stress axis : x y z
#
# Youngs Moduli (GPa) = 44.01145 90.31051 54.49849
#
# Poissons Ratio (x) = 0.17250 0.35751
# Poissons Ratio (y) = 0.08407 0.37999
# Poissons Ratio (z) = 0.28871 0.62969
#
# Static dielectric constant tensor:
#      x y z
#    x 3.927230 0.000000 -0.170890 
#    y 0.000000 3.688070 0.000000 
#    z -0.170890 0.000000 3.613880 
# 
# 
# High freq. dielectric constant tensor:
#      x y z
#    x 1.815360 0.000000 -0.007060 
#    y 0.000000 1.792670 0.000000 
#    z -0.007060 0.000000 1.780760 
# 
# From -- ./inp_files/257727.got.cif
#   From: 2010.06.25/outbox.cif.g09.slc.cpg/sg12_129_cif.got.tgz:257727.got - 2010.06.28 00:19:55.
