data_PCOD8093166
_publ_section_title
;
Structure prediction by ZEFSAII (Michael W. Deem and Ramdas Pophale) SiO2 
 PCOD8093166
Probable space group: C 2/M
;
_chemical_formula_sum "Si O2"
_cell_formula_units_Z 64
_cell_length_a 14.428158
_cell_length_b 23.363011
_cell_length_c 17.911998
_cell_angle_alpha 90.000000
_cell_angle_beta 148.133949
_cell_angle_gamma 90.000000
_cell_volume 3187.603984
_symmetry_space_group_name_H-M "C 2/M"
_symmetry_group_IT_number 12
_symmetry_cell_setting 'monoclinic'
loop_
_space_group_symop_operation_xyz
x,y,z
-x,y,-z
-x,-y,-z
x,-y,z
1/2+x,1/2+y,z
1/2-x,1/2+y,-z
1/2-x,1/2-y,-z
1/2+x,1/2-y,z
loop_
_atom_site_type_symbol
_atom_site_label
_atom_site_fract_x
_atom_site_fract_y
_atom_site_fract_z
Si Si1 0.713411 0.805201 0.926220
Si Si2 0.400582 0.332316 0.803342
Si Si3 0.102087 0.136960 0.647511
Si Si4 0.695844 0.567027 0.484220
Si Si5 0.870982 0.263288 0.290204
Si Si6 0.875801 0.362277 0.728291
Si Si7 0.300570 0.065420 0.386275
Si Si8 0.739928 0.242824 0.580364
O O1 0.611009 0.786503 0.781603
O O2 0.583165 0.849453 0.879135
O O3 0.750000 0.750000 0.000000
O O4 0.896268 0.837001 0.034635
O O5 0.303399 0.289902 0.793812
O O6 0.321751 0.395978 0.750658
O O7 0.375590 0.304473 0.703903
O O8 0.136004 0.194593 0.717435
O O9 0.294411 0.113660 0.751061
O O10 0.000000 0.145807 0.500000
O O11 0.996400 0.093791 0.629439
O O12 0.682270 0.500000 0.489948
O O13 0.844334 0.593248 0.639772
O O14 0.760702 0.580445 0.445063
O O15 0.040413 0.280300 0.456354
O O16 0.770009 0.303111 0.640993
O O17 0.500000 0.078341 0.500000
O O18 0.251855 0.000000 0.335659
O O19 0.750000 0.250000 0.500000
#
# Coordination Sequence:
#
# PCOD8093166 Si02
#       8
#     8   8   8   8   8   8   8   8
#     4  12  25  39  55  89 136 173 207 250 321 391
#     4  12  24  38  59  92 130 166 210 258 317 385
#     4  10  19  35  59  93 128 157 208 262 313 372
#     4  10  22  39  64  96 124 162 211 268 319 363
#     4  12  21  36  59  90 126 166 209 263 316 376
#     4  11  21  36  57  86 128 165 210 254 312 374
#     4  10  23  43  68  96 124 161 219 272 313 368
#     4  12  19  33  58  87 119 162 210 257 314 366
#
# _framework density 20.077776
#
# number of rings (size 3 to 8) (size 9 to 14) (size 15 to 20)
#    0.000    0.875    6.250    2.250    3.500    2.250 
#    0.000    0.625    0.000    1.500    0.000    1.750 
#    0.000    0.000    0.000    0.000    0.000    0.000 
#
# Total GULP energy -396620.882923 kJ/mol
# GULP energy per Si atom -12394.402591 kJ/mol
# Density = 2.003208 g / cm^3
# Si number density = 20.077776 Si / 1000 Ang^3
#
#
#
# Elastic Constant Matrix: (Units=GPa)
#
#
# Indices 1 2 3 4 5 6 
#
# 1 121.6942 40.0342 35.1805 -0.0010 27.6589 -0.0005
# 2 40.0342 107.6253 33.2432 -0.0011 11.9117 -0.0003
# 3 35.1805 33.2432 83.5752 0.0028 25.6406 0.0013
# 4 -0.0010 -0.0011 0.0028 20.3200 0.0008 1.9510
# 5 27.6589 11.9117 25.6406 0.0008 37.1907 0.0004
# 6 -0.0005 -0.0003 0.0013 1.9510 0.0004 30.9203
#
#
#
# Elastic Compliance Matrix: (Units=1/GPa)
#
#
# Indices 1 2 3 4 5 6 
#
# 1 0.011046 -0.002935 -0.001586 0.000001 -0.006182 0.000000
# 2 -0.002935 0.011384 -0.003607 0.000001 0.001023 0.000000
# 3 -0.001586 -0.003607 0.016933 -0.000002 -0.009339 -0.000001
# 4 0.000001 0.000001 -0.000002 0.049513 0.000000 -0.003124
# 5 -0.006182 0.001023 -0.009339 0.000000 0.037597 0.000000
# 6 0.000000 0.000000 -0.000001 -0.003124 0.000000 0.032538
#
#
# Mechanical properties :
#
#
# Convention : Reuss Voigt Hill
#
# Bulk Modulus (GPa) = 43.27471 58.86784 51.07128
# Shear Modulus (GPa) = 27.32705 31.31530 29.32118
#
# Velocity S-wave (km/s) = 3.69326 3.95359 3.82564
# Velocity P-wave (km/s) = 6.30771 7.08694 6.70865
#
# Compressibility (1/GPa) = 0.02310818
#
# Stress axis : x y z
#
# Youngs Moduli (GPa) = 90.52782 87.84267 59.05716
#
# Poissons Ratio (x) = 0.25781 0.09366
# Poissons Ratio (y) = 0.26569 0.21299
# Poissons Ratio (z) = 0.14357 0.31681
#
# Static dielectric constant tensor:
#      x y z
#    x 4.241150 0.000000 0.361050 
#    y 0.000000 3.548600 0.000000 
#    z 0.361050 0.000000 3.863200 
# 
# 
# High freq. dielectric constant tensor:
#      x y z
#    x 1.811810 0.000000 0.017680 
#    y 0.000000 1.759770 0.000000 
#    z 0.017680 0.000000 1.756030 
# 
# From -- ./inp_files/272885.got.cif
#   From: 2010.06.25/outbox.cif.g09.slc.cpg/sg12_137_cif.got.tgz:272885.got - 2010.06.28 00:19:55.
