data_PCOD8093493
_publ_section_title
;
Structure prediction by ZEFSAII (Michael W. Deem and Ramdas Pophale) SiO2 
 PCOD8093493
Probable space group: C 2/M
;
_chemical_formula_sum "Si O2"
_cell_formula_units_Z 64
_cell_length_a 23.162259
_cell_length_b 9.177468
_cell_length_c 21.574720
_cell_angle_alpha 90.000000
_cell_angle_beta 123.044788
_cell_angle_gamma 90.000000
_cell_volume 3844.321572
_symmetry_space_group_name_H-M "C 2/M"
_symmetry_group_IT_number 12
_symmetry_cell_setting 'monoclinic'
loop_
_space_group_symop_operation_xyz
x,y,z
-x,y,-z
-x,-y,-z
x,-y,z
1/2+x,1/2+y,z
1/2-x,1/2+y,-z
1/2-x,1/2-y,-z
1/2+x,1/2-y,z
loop_
_atom_site_type_symbol
_atom_site_label
_atom_site_fract_x
_atom_site_fract_y
_atom_site_fract_z
Si Si1 0.608771 0.335332 0.585202
Si Si2 0.449005 0.829120 0.133529
Si Si3 0.537582 0.832100 0.716480
Si Si4 0.815769 0.825643 0.010231
Si Si5 0.674389 0.172469 0.727829
Si Si6 0.186344 0.171109 0.131278
Si Si7 0.532843 0.336223 0.423901
Si Si8 0.537436 0.669808 0.086464
O O1 0.637145 0.500000 0.599645
O O2 0.664338 0.234591 0.652447
O O3 0.593242 0.279041 0.505781
O O4 0.538400 0.329656 0.581589
O O5 0.473397 0.800776 0.217793
O O6 0.381208 0.733926 0.084873
O O7 0.508270 0.772625 0.122824
O O8 0.434148 0.000000 0.113175
O O9 0.612844 0.776174 0.737697
O O10 0.474361 0.757364 0.642789
O O11 0.532390 0.000000 0.697111
O O12 0.811640 0.000000 0.014023
O O13 0.750000 0.750000 0.000000
O O14 0.821518 0.770786 0.943011
O O15 0.745909 0.238110 0.796420
O O16 0.678049 0.000000 0.724742
O O17 0.117838 0.211062 0.129162
O O18 0.195974 0.000000 0.132790
O O19 0.550329 0.500000 0.413961
O O20 0.525980 0.500000 0.096730
O O21 0.500000 0.705080 0.000000
#
# Coordination Sequence:
#
# PCOD8093493 Si02
#       8
#     8   8   8   8   8   8   8   8
#     4   8  14  25  40  63  95 125 151 188 230 273
#     4  11  22  35  50  72  99 127 160 204 250 289
#     4   9  18  30  44  66  99 129 156 192 236 282
#     4  11  21  35  52  72  98 130 162 197 240 291
#     4   9  16  28  46  67  92 126 159 188 227 285
#     4   9  18  33  51  68  93 125 160 200 243 285
#     4   8  14  25  42  63  91 126 159 186 224 276
#     4  10  19  36  56  71  88 122 167 208 248 291
#
# _framework density 16.647929999999999
#
# number of rings (size 3 to 8) (size 9 to 14) (size 15 to 20)
#    0.000    2.625    1.250    2.250    0.000    3.750 
#    0.000    6.875    0.000    0.000    0.000    0.875 
#    0.000    0.000    0.000    0.000    0.000    0.000 
#
# Total GULP energy -396647.138411 kJ/mol
# GULP energy per Si atom -12395.223075 kJ/mol
# Density = 1.661004 g / cm^3
# Si number density = 16.647930 Si / 1000 Ang^3
#
#
#
# Elastic Constant Matrix: (Units=GPa)
#
#
# Indices 1 2 3 4 5 6 
#
# 1 66.3441 31.6185 37.0670 0.0000 -10.3484 0.0000
# 2 31.6185 57.7926 49.1070 0.0000 -6.9993 0.0000
# 3 37.0670 49.1070 121.4829 0.0000 -11.0056 0.0000
# 4 0.0000 0.0000 0.0000 29.9899 0.0000 -2.3669
# 5 -10.3484 -6.9993 -11.0056 0.0000 10.9630 0.0000
# 6 0.0000 0.0000 0.0000 -2.3669 0.0000 22.6020
#
#
#
# Elastic Compliance Matrix: (Units=1/GPa)
#
#
# Indices 1 2 3 4 5 6 
#
# 1 0.022614 -0.009003 -0.002032 0.000000 0.013558 0.000000
# 2 -0.009003 0.030402 -0.009409 0.000000 0.001465 0.000000
# 3 -0.002032 -0.009409 0.013132 0.000000 0.005257 0.000000
# 4 0.000000 0.000000 0.000000 0.033622 0.000000 0.003521
# 5 0.013558 0.001465 0.005257 0.000000 0.110226 0.000000
# 6 0.000000 0.000000 0.000000 0.003521 0.000000 0.044613
#
#
# Mechanical properties :
#
#
# Convention : Reuss Voigt Hill
#
# Bulk Modulus (GPa) = 39.59282 53.46718 46.53000
# Shear Modulus (GPa) = 16.45181 21.23279 18.84230
#
# Velocity S-wave (km/s) = 3.14701 3.57515 3.36789
# Velocity P-wave (km/s) = 6.08596 7.01630 6.56762
#
# Compressibility (1/GPa) = 0.02525711
#
# Stress axis : x y z
#
# Youngs Moduli (GPa) = 44.22035 32.89285 76.15262
#
# Poissons Ratio (x) = 0.29614 0.15477
# Poissons Ratio (y) = 0.39813 0.71655
# Poissons Ratio (z) = 0.08987 0.30950
#
# Static dielectric constant tensor:
#      x y z
#    x 2.222880 0.000000 -0.183750 
#    y 0.000000 3.067190 0.000000 
#    z -0.183750 0.000000 3.453770 
# 
# 
# High freq. dielectric constant tensor:
#      x y z
#    x 1.603980 0.000000 0.001230 
#    y 0.000000 1.630770 0.000000 
#    z 0.001230 0.000000 1.652280 
# 
# From -- ./inp_files/323770.got.cif
#   From: 2010.06.25/outbox.cif.g09.slc.cpg/sg12_162_cif.got.tgz:323770.got - 2010.06.28 00:19:55.
