data_PCOD8093434
_publ_section_title
;
Structure prediction by ZEFSAII (Michael W. Deem and Ramdas Pophale) SiO2 
 PCOD8093434
Probable space group: C 2/M
;
_chemical_formula_sum "Si O2"
_cell_formula_units_Z 64
_cell_length_a 9.151859
_cell_length_b 15.348994
_cell_length_c 31.406934
_cell_angle_alpha 90.000000
_cell_angle_beta 135.362350
_cell_angle_gamma 90.000000
_cell_volume 3099.814974
_symmetry_space_group_name_H-M "C 2/M"
_symmetry_group_IT_number 12
_symmetry_cell_setting 'monoclinic'
loop_
_space_group_symop_operation_xyz
x,y,z
-x,y,-z
-x,-y,-z
x,-y,z
1/2+x,1/2+y,z
1/2-x,1/2+y,-z
1/2-x,1/2-y,-z
1/2+x,1/2-y,z
loop_
_atom_site_type_symbol
_atom_site_label
_atom_site_fract_x
_atom_site_fract_y
_atom_site_fract_z
Si Si1 0.123379 0.598805 0.118949
Si Si2 0.318180 0.758974 0.710111
Si Si3 0.224310 0.749045 0.204499
Si Si4 0.329221 0.097891 0.366428
Si Si5 0.447987 0.597835 0.114435
Si Si6 0.507589 0.403441 0.374404
Si Si7 0.337151 0.840534 0.503091
Si Si8 0.179466 0.843345 0.001841
O O1 0.171081 0.500000 0.143514
O O2 0.207257 0.663315 0.172235
O O3 0.240929 0.619762 0.098868
O O4 0.876815 0.608875 0.063041
O O5 0.538373 0.765262 0.732237
O O6 0.385309 0.768976 0.773281
O O7 0.202870 0.666646 0.678210
O O8 0.179710 0.835904 0.662527
O O9 0.127704 0.833035 0.161578
O O10 0.147669 0.116259 0.362515
O O11 0.553596 0.109473 0.435194
O O12 0.315783 0.000000 0.345106
O O13 0.526614 0.500000 0.141350
O O14 0.398528 0.600913 0.054224
O O15 0.411765 0.500000 0.352127
O O16 0.647579 0.398129 0.445933
O O17 0.500000 0.821115 0.500000
O O18 0.250000 0.750000 0.500000
O O19 0.250000 0.750000 0.000000
O O20 0.000000 0.835294 0.000000
#
# Coordination Sequence:
#
# PCOD8093434 Si02
#       8
#     8   8   8   8   8   8   8   8
#     4  11  25  46  71  98 130 172 214 263 323 383
#     4  12  24  41  65  90 126 169 218 263 316 371
#     4  12  26  43  65  94 126 172 220 265 312 372
#     4  10  21  39  65  93 123 166 213 259 317 386
#     4  11  25  46  70  98 132 170 213 265 323 382
#     4  10  21  39  64  94 125 163 211 263 317 382
#     4  10  19  35  65  93 123 160 205 260 322 381
#     4  12  25  42  71 104 135 168 210 263 326 383
#
# _framework density 20.646391999999999
#
# number of rings (size 3 to 8) (size 9 to 14) (size 15 to 20)
#    0.000    1.000    5.000    1.875    1.750    5.500 
#    0.000    0.000    0.000    0.750    0.000    0.000 
#    0.000    0.000    0.000    0.000    0.000    0.000 
#
# Total GULP energy -396870.011516 kJ/mol
# GULP energy per Si atom -12402.187860 kJ/mol
# Density = 2.059940 g / cm^3
# Si number density = 20.646392 Si / 1000 Ang^3
#
#
#
# Elastic Constant Matrix: (Units=GPa)
#
#
# Indices 1 2 3 4 5 6 
#
# 1 71.5798 46.1354 43.9046 0.0000 -1.4256 0.0000
# 2 46.1354 155.0248 52.2251 0.0000 11.0000 0.0000
# 3 43.9046 52.2251 103.8689 0.0000 13.5448 0.0000
# 4 0.0000 0.0000 0.0000 14.0190 0.0000 -5.6138
# 5 -1.4256 11.0000 13.5448 0.0000 34.6108 0.0000
# 6 0.0000 0.0000 0.0000 -5.6138 0.0000 28.4962
#
#
#
# Elastic Compliance Matrix: (Units=1/GPa)
#
#
# Indices 1 2 3 4 5 6 
#
# 1 0.021459 -0.004179 -0.007648 0.000000 0.005205 0.000000
# 2 -0.004179 0.008612 -0.002302 0.000000 -0.002008 0.000000
# 3 -0.007648 -0.002302 0.014714 0.000000 -0.005342 0.000000
# 4 0.000000 0.000000 0.000000 0.077441 0.000000 0.015256
# 5 0.005205 -0.002008 -0.005342 0.000000 0.031836 0.000000
# 6 0.000000 0.000000 0.000000 0.015256 0.000000 0.038098
#
#
# Mechanical properties :
#
#
# Convention : Reuss Voigt Hill
#
# Bulk Modulus (GPa) = 60.50556 68.33375 64.41965
# Shear Modulus (GPa) = 22.13111 27.97243 25.05177
#
# Velocity S-wave (km/s) = 3.27756 3.68480 3.48713
# Velocity P-wave (km/s) = 6.61003 7.16050 6.89076
#
# Compressibility (1/GPa) = 0.01652741
#
# Stress axis : x y z
#
# Youngs Moduli (GPa) = 46.60153 116.11424 67.96153
#
# Poissons Ratio (x) = 0.48523 0.51977
# Poissons Ratio (y) = 0.19474 0.15644
# Poissons Ratio (z) = 0.35641 0.26728
#
# Static dielectric constant tensor:
#      x y z
#    x 3.682490 0.000000 0.034940 
#    y 0.000000 3.737330 0.000000 
#    z 0.034940 0.000000 3.823130 
# 
# 
# High freq. dielectric constant tensor:
#      x y z
#    x 1.799090 0.000000 0.003500 
#    y 0.000000 1.817420 0.000000 
#    z 0.003500 0.000000 1.812260 
# 
# From -- ./inp_files/372582.got.cif
#   From: 2010.06.25/outbox.cif.g09.slc.cpg/sg12_187_cif.got.tgz:372582.got - 2010.06.28 00:19:55.
