data_PCOD8093332
_publ_section_title
;
Structure prediction by ZEFSAII (Michael W. Deem and Ramdas Pophale) SiO2 
 PCOD8093332
Probable space group: C 2/M
;
_chemical_formula_sum "Si O2"
_cell_formula_units_Z 64
_cell_length_a 28.466811
_cell_length_b 8.814071
_cell_length_c 14.298627
_cell_angle_alpha 90.000000
_cell_angle_beta 120.179414
_cell_angle_gamma 90.000000
_cell_volume 3101.361065
_symmetry_space_group_name_H-M "C 2/M"
_symmetry_group_IT_number 12
_symmetry_cell_setting 'monoclinic'
loop_
_space_group_symop_operation_xyz
x,y,z
-x,y,-z
-x,-y,-z
x,-y,z
1/2+x,1/2+y,z
1/2-x,1/2+y,-z
1/2-x,1/2-y,-z
1/2+x,1/2-y,z
loop_
_atom_site_type_symbol
_atom_site_label
_atom_site_fract_x
_atom_site_fract_y
_atom_site_fract_z
Si Si1 0.604837 0.328394 0.261604
Si Si2 0.803926 0.818837 0.511642
Si Si3 0.668140 0.320340 0.670308
Si Si4 0.940978 0.677961 0.477241
Si Si5 0.588036 0.822081 0.861438
Si Si6 0.296638 0.179102 0.109636
Si Si7 0.984653 0.828122 0.689045
Si Si8 0.559815 0.319474 0.029039
O O1 0.624873 0.500000 0.275942
O O2 0.647882 0.249256 0.374488
O O3 0.542419 0.322510 0.235728
O O4 0.601768 0.264658 0.152882
O O5 0.750000 0.750000 0.500000
O O6 0.811827 0.764729 0.412057
O O7 0.802226 0.000000 0.511278
O O8 0.669681 0.500000 0.680991
O O9 0.606794 0.261286 0.626836
O O10 0.706227 0.248244 0.788600
O O11 0.931038 0.500000 0.458865
O O12 0.941100 0.735719 0.583641
O O13 0.000000 0.728458 0.500000
O O14 0.646764 0.776085 0.882312
O O15 0.543592 0.748323 0.748308
O O16 0.578475 0.000000 0.849141
O O17 0.580958 0.762557 0.958571
O O18 0.288443 0.000000 0.108068
O O19 0.250000 0.250000 0.000000
O O20 0.989939 0.000000 0.657500
O O21 0.561288 0.500000 0.014601
O O22 0.500000 0.266144 0.000000
#
# Coordination Sequence:
#
# PCOD8093332 Si02
#       8
#     8   8   8   8   8   8   8   8
#     4   9  18  36  58  84 119 156 199 252 302 351
#     4  10  22  41  63  91 126 162 206 258 307 364
#     4  11  23  42  68  95 126 164 210 259 309 372
#     4  11  23  37  56  89 130 166 204 254 312 369
#     4  11  24  40  59  91 130 163 203 262 321 373
#     4  11  26  47  68  91 125 165 211 264 315 370
#     4  11  20  36  61  87 120 161 206 253 305 371
#     4  10  19  35  61  89 120 163 210 253 303 372
#
# _framework density 20.636101
#
# number of rings (size 3 to 8) (size 9 to 14) (size 15 to 20)
#    0.000    1.500    2.500    2.625    0.000    8.250 
#    0.000    3.125    0.000    0.000    0.000    0.000 
#    0.000    0.000    0.000    0.000    0.000    0.000 
#
# Total GULP energy -396736.300554 kJ/mol
# GULP energy per Si atom -12398.009392 kJ/mol
# Density = 2.058913 g / cm^3
# Si number density = 20.636101 Si / 1000 Ang^3
#
#
#
# Elastic Constant Matrix: (Units=GPa)
#
#
# Indices 1 2 3 4 5 6 
#
# 1 93.2494 35.9948 45.6118 0.0000 8.5038 0.0000
# 2 35.9948 50.4841 27.0468 0.0000 7.5988 0.0000
# 3 45.6118 27.0468 141.5987 0.0000 14.0926 0.0000
# 4 0.0000 0.0000 0.0000 34.6027 0.0000 0.4994
# 5 8.5038 7.5988 14.0926 0.0000 32.1889 0.0000
# 6 0.0000 0.0000 0.0000 0.4994 0.0000 32.9510
#
#
#
# Elastic Compliance Matrix: (Units=1/GPa)
#
#
# Indices 1 2 3 4 5 6 
#
# 1 0.016103 -0.009636 -0.003293 0.000000 -0.000538 0.000000
# 2 -0.009636 0.028220 -0.001962 0.000000 -0.003257 0.000000
# 3 -0.003293 -0.001962 0.008746 0.000000 -0.002496 0.000000
# 4 0.000000 0.000000 0.000000 0.028906 0.000000 -0.000438
# 5 -0.000538 -0.003257 -0.002496 0.000000 0.033070 0.000000
# 6 0.000000 0.000000 0.000000 -0.000438 0.000000 0.030355
#
#
# Mechanical properties :
#
#
# Convention : Reuss Voigt Hill
#
# Bulk Modulus (GPa) = 42.94295 55.84880 49.39588
# Shear Modulus (GPa) = 27.33039 31.72709 29.52874
#
# Velocity S-wave (km/s) = 3.64317 3.92529 3.78686
# Velocity P-wave (km/s) = 6.20901 6.90408 6.56575
#
# Compressibility (1/GPa) = 0.02328671
#
# Stress axis : x y z
#
# Youngs Moduli (GPa) = 62.09844 35.43535 114.33573
#
# Poissons Ratio (x) = 0.34147 0.37652
# Poissons Ratio (y) = 0.59841 0.22434
# Poissons Ratio (z) = 0.20449 0.06953
#
# Static dielectric constant tensor:
#      x y z
#    x 3.717640 0.000000 -0.008690 
#    y 0.000000 3.540500 0.000000 
#    z -0.008690 0.000000 4.110840 
# 
# 
# High freq. dielectric constant tensor:
#      x y z
#    x 1.799810 0.000000 -0.005700 
#    y 0.000000 1.791750 0.000000 
#    z -0.005700 0.000000 1.828770 
# 
# From -- ./inp_files/249216.got.cif
#   From: 2010.06.25/outbox.cif.g09.slc.cpg/sg12_125_cif.got.tgz:249216.got - 2010.06.28 00:19:55.
