data_PCOD8093567
_publ_section_title
;
Structure prediction by ZEFSAII (Michael W. Deem and Ramdas Pophale) SiO2 
 PCOD8093567
Probable space group: C 2/M
;
_chemical_formula_sum "Si O2"
_cell_formula_units_Z 64
_cell_length_a 17.579228
_cell_length_b 27.642626
_cell_length_c 15.525126
_cell_angle_alpha 90.000000
_cell_angle_beta 156.931556
_cell_angle_gamma 90.000000
_cell_volume 2956.054414
_symmetry_space_group_name_H-M "C 2/M"
_symmetry_group_IT_number 12
_symmetry_cell_setting 'monoclinic'
loop_
_space_group_symop_operation_xyz
x,y,z
-x,y,-z
-x,-y,-z
x,-y,z
1/2+x,1/2+y,z
1/2-x,1/2+y,-z
1/2-x,1/2-y,-z
1/2+x,1/2-y,z
loop_
_atom_site_type_symbol
_atom_site_label
_atom_site_fract_x
_atom_site_fract_y
_atom_site_fract_z
Si Si1 0.622253 0.795831 0.951493
Si Si2 0.817120 0.402590 0.969035
Si Si3 0.915071 0.711454 0.286114
Si Si4 0.919594 0.055513 0.130890
Si Si5 0.101275 0.858671 0.015044
Si Si6 0.703599 0.443193 0.682681
Si Si7 0.366000 0.274082 0.774051
Si Si8 0.183341 0.554737 0.382805
O O1 0.588313 0.806149 0.815739
O O2 0.417825 0.774591 0.775235
O O3 0.689309 0.846369 0.061417
O O4 0.796334 0.761222 0.162142
O O5 0.634894 0.423996 0.831490
O O6 0.851867 0.430540 0.914541
O O7 0.999043 0.414231 0.221880
O O8 0.134451 0.721937 0.549171
O O9 0.807463 0.670948 0.233850
O O10 0.851501 0.091508 0.984994
O O11 0.152721 0.056758 0.373606
O O12 0.845113 0.000000 0.038892
O O13 0.945610 0.822147 0.805556
O O14 0.000000 0.872807 0.000000
O O15 0.500000 0.419567 0.500000
O O16 0.682717 0.500000 0.649247
O O17 0.756213 0.420827 0.645373
O O18 0.500000 0.274511 0.000000
O O19 0.114740 0.500000 0.296981
#
# Coordination Sequence:
#
# PCOD8093567 Si02
#       8
#     8   8   8   8   8   8   8   8
#     4  10  23  38  64  96 126 170 207 253 318 376
#     4  12  22  37  59  93 123 170 213 257 309 374
#     4  10  21  45  66  92 128 164 210 258 317 385
#     4  11  23  40  61  91 130 164 209 268 324 379
#     4  10  23  41  67  96 119 164 215 262 330 386
#     4  10  19  36  57  81 121 170 212 252 300 361
#     4  10  23  42  66  96 128 164 207 262 318 384
#     4  10  22  37  58  85 122 172 212 254 308 370
#
# _framework density 21.650480999999999
#
# number of rings (size 3 to 8) (size 9 to 14) (size 15 to 20)
#    0.000    1.625    2.500    1.875    1.750    7.750 
#    2.250    0.000    0.000    0.000    0.000    7.000 
#    0.000    0.000    0.000    0.000    0.000    0.000 
#
# Total GULP energy -396430.882681 kJ/mol
# GULP energy per Si atom -12388.465084 kJ/mol
# Density = 2.160120 g / cm^3
# Si number density = 21.650481 Si / 1000 Ang^3
#
#
#
# Elastic Constant Matrix: (Units=GPa)
#
#
# Indices 1 2 3 4 5 6 
#
# 1 72.1558 26.8313 19.9009 0.0002 1.4603 0.0001
# 2 26.8313 113.3763 28.4848 0.0001 6.5231 0.0000
# 3 19.9009 28.4848 113.7852 0.0004 17.6752 0.0006
# 4 0.0002 0.0001 0.0004 18.1677 0.0002 2.9705
# 5 1.4603 6.5231 17.6752 0.0002 29.8778 0.0002
# 6 0.0001 0.0000 0.0006 2.9705 0.0002 24.4613
#
#
#
# Elastic Compliance Matrix: (Units=1/GPa)
#
#
# Indices 1 2 3 4 5 6 
#
# 1 0.015619 -0.003236 -0.002106 0.000000 0.001189 0.000000
# 2 -0.003236 0.010097 -0.001810 0.000000 -0.000975 0.000000
# 3 -0.002106 -0.001810 0.010497 0.000000 -0.005712 0.000000
# 4 0.000000 0.000000 0.000000 0.056158 0.000000 -0.006820
# 5 0.001189 -0.000975 -0.005712 0.000000 0.037004 0.000000
# 6 0.000000 0.000000 0.000000 -0.006820 0.000000 0.041709
#
#
# Mechanical properties :
#
#
# Convention : Reuss Voigt Hill
#
# Bulk Modulus (GPa) = 45.64406 49.97237 47.80822
# Shear Modulus (GPa) = 25.94830 29.44137 27.69483
#
# Velocity S-wave (km/s) = 3.46570 3.69161 3.58044
# Velocity P-wave (km/s) = 6.09449 6.42668 6.26279
#
# Compressibility (1/GPa) = 0.02190866
#
# Stress axis : x y z
#
# Youngs Moduli (GPa) = 64.02479 99.04116 95.26202
#
# Poissons Ratio (x) = 0.32045 0.20067
# Poissons Ratio (y) = 0.20715 0.17245
# Poissons Ratio (z) = 0.13487 0.17929
#
# Static dielectric constant tensor:
#      x y z
#    x 3.943200 0.000000 0.321160 
#    y 0.000000 3.853280 0.000000 
#    z 0.321160 0.000000 3.845310 
# 
# 
# High freq. dielectric constant tensor:
#      x y z
#    x 1.843750 0.000000 0.021230 
#    y 0.000000 1.839770 0.000000 
#    z 0.021230 0.000000 1.842090 
# 
# From -- ./inp_files/286699.got.cif
#   From: 2010.06.25/outbox.cif.g09.slc.cpg/sg12_144_cif.got.tgz:286699.got - 2010.06.28 00:19:55.
