data_PCOD8093710
_publ_section_title
;
Structure prediction by ZEFSAII (Michael W. Deem and Ramdas Pophale) SiO2 
 PCOD8093710
Probable space group: C 2/M
;
_chemical_formula_sum "Si O2"
_cell_formula_units_Z 48
_cell_length_a 15.054201
_cell_length_b 9.028035
_cell_length_c 19.144755
_cell_angle_alpha 90.000000
_cell_angle_beta 90.330382
_cell_angle_gamma 90.000000
_cell_volume 2601.917591
_symmetry_space_group_name_H-M "C 2/M"
_symmetry_group_IT_number 12
_symmetry_cell_setting 'monoclinic'
loop_
_space_group_symop_operation_xyz
x,y,z
-x,y,-z
-x,-y,-z
x,-y,z
1/2+x,1/2+y,z
1/2-x,1/2+y,-z
1/2-x,1/2-y,-z
1/2+x,1/2-y,z
loop_
_atom_site_type_symbol
_atom_site_label
_atom_site_fract_x
_atom_site_fract_y
_atom_site_fract_z
Si Si1 0.780779 0.823989 0.428965
Si Si2 0.035636 0.673067 0.577211
Si Si3 0.225496 0.827417 0.928613
Si Si4 0.523429 0.327106 0.922178
Si Si5 0.874845 0.324603 0.671773
Si Si6 0.620126 0.824294 0.171457
O O1 0.750000 0.750000 0.500000
O O2 0.877467 0.768884 0.407127
O O3 0.713470 0.770887 0.368265
O O4 0.779873 0.000000 0.438650
O O5 0.058007 0.500000 0.586524
O O6 0.000000 0.705366 0.500000
O O7 0.962165 0.730553 0.631440
O O8 0.125452 0.789632 0.905569
O O9 0.290998 0.771605 0.868015
O O10 0.237026 0.000000 0.942484
O O11 0.250000 0.750000 0.000000
O O12 0.501784 0.500000 0.914734
O O13 0.466517 0.238868 0.866000
O O14 0.500000 0.272128 0.000000
O O15 0.875604 0.500000 0.673655
O O16 0.874999 0.259657 0.750096
O O17 0.612334 0.000000 0.171975
#
# Coordination Sequence:
#
# PCOD8093710 Si02
#       6
#     8   8   8   8   8   8
#     4  11  21  36  59  86 113 147 189 232 275 330
#     4  10  19  36  59  81 109 150 188 227 280 332
#     4  10  20  34  55  80 107 142 182 222 269 325
#     4  10  20  35  55  80 111 143 176 225 281 323
#     4   9  20  38  56  78 114 148 177 225 288 333
#     4  10  21  37  57  81 108 144 186 226 271 331
#
# _framework density 18.447932000000002
#
# number of rings (size 3 to 8) (size 9 to 14) (size 15 to 20)
#    0.000    2.000    3.333    0.500    0.000    2.667 
#    0.000    4.167    0.000    0.000    0.000    0.000 
#    0.000    0.000    0.000    0.000    0.000    0.000 
#
# Total GULP energy -297651.933377 kJ/mol
# GULP energy per Si atom -12402.163891 kJ/mol
# Density = 1.840594 g / cm^3
# Si number density = 18.447932 Si / 1000 Ang^3
#
#
#
# Elastic Constant Matrix: (Units=GPa)
#
#
# Indices 1 2 3 4 5 6 
#
# 1 168.8659 43.9403 93.2757 0.0000 -3.5688 0.0000
# 2 43.9403 38.3442 39.1379 0.0000 2.8663 0.0000
# 3 93.2757 39.1379 177.5653 0.0000 -2.2193 0.0000
# 4 0.0000 0.0000 0.0000 20.4826 0.0000 4.0608
# 5 -3.5688 2.8663 -2.2193 0.0000 34.9089 0.0000
# 6 0.0000 0.0000 0.0000 4.0608 0.0000 34.0211
#
#
#
# Elastic Compliance Matrix: (Units=1/GPa)
#
#
# Indices 1 2 3 4 5 6 
#
# 1 0.009927 -0.007974 -0.003439 0.000000 0.001451 0.000000
# 2 -0.007974 0.040425 -0.004777 0.000000 -0.004438 0.000000
# 3 -0.003439 -0.004777 0.008498 0.000000 0.000581 0.000000
# 4 0.000000 0.000000 0.000000 0.050005 0.000000 -0.005969
# 5 0.001451 -0.004438 0.000581 0.000000 0.029196 0.000000
# 6 0.000000 0.000000 0.000000 -0.005969 0.000000 0.030106
#
#
# Mechanical properties :
#
#
# Convention : Reuss Voigt Hill
#
# Bulk Modulus (GPa) = 37.77793 81.94258 59.86026
# Shear Modulus (GPa) = 23.88221 31.77727 27.82974
#
# Velocity S-wave (km/s) = 3.60192 4.15485 3.88823
# Velocity P-wave (km/s) = 6.14988 8.21777 7.25785
#
# Compressibility (1/GPa) = 0.02647048
#
# Stress axis : x y z
#
# Youngs Moduli (GPa) = 100.73521 24.73716 117.66956
#
# Poissons Ratio (x) = 0.19726 0.40466
# Poissons Ratio (y) = 0.80328 0.56209
# Poissons Ratio (z) = 0.34642 0.11817
#
# Static dielectric constant tensor:
#      x y z
#    x 3.864760 0.000000 -0.060100 
#    y 0.000000 3.205070 0.000000 
#    z -0.060100 0.000000 3.628370 
# 
# 
# High freq. dielectric constant tensor:
#      x y z
#    x 1.732970 0.000000 -0.003450 
#    y 0.000000 1.693750 0.000000 
#    z -0.003450 0.000000 1.717520 
# 
# From -- ./inp_files/267594.got.cif
#   From: 2010.06.25/outbox.cif.g09.slc.cpg/sg12_134_cif.got.tgz:267594.got - 2010.06.28 00:19:55.
