data_PCOD8093680
_publ_section_title
;
Structure prediction by ZEFSAII (Michael W. Deem and Ramdas Pophale) SiO2 
 PCOD8093680
Probable space group: C 2/M
;
_chemical_formula_sum "Si O2"
_cell_formula_units_Z 48
_cell_length_a 29.966172
_cell_length_b 12.982217
_cell_length_c 21.447665
_cell_angle_alpha 90.000000
_cell_angle_beta 16.825727
_cell_angle_gamma 90.000000
_cell_volume 2415.189124
_symmetry_space_group_name_H-M "C 2/M"
_symmetry_group_IT_number 12
_symmetry_cell_setting 'monoclinic'
loop_
_space_group_symop_operation_xyz
x,y,z
-x,y,-z
-x,-y,-z
x,-y,z
1/2+x,1/2+y,z
1/2-x,1/2+y,-z
1/2-x,1/2-y,-z
1/2+x,1/2-y,z
loop_
_atom_site_type_symbol
_atom_site_label
_atom_site_fract_x
_atom_site_fract_y
_atom_site_fract_z
Si Si1 0.820786 0.616799 0.636218
Si Si2 0.441487 0.693667 0.928905
Si Si3 0.753789 0.118008 0.827009
Si Si4 0.506547 0.686552 0.397031
Si Si5 0.646131 0.270293 0.765327
Si Si6 0.419642 0.381256 0.383031
O O1 0.881330 0.500000 0.552997
O O2 0.967442 0.691462 0.450222
O O3 0.735399 0.642729 0.685384
O O4 0.703113 0.630175 0.850979
O O5 0.589159 0.680595 0.776527
O O6 0.480193 0.650540 0.809970
O O7 0.398863 0.815253 0.981981
O O8 0.868567 0.123831 0.614771
O O9 0.833962 0.166013 0.781175
O O10 0.705646 0.000000 0.903056
O O11 0.522932 0.645446 0.305096
O O12 0.756588 0.175483 0.603512
O O13 0.500000 0.228616 0.000000
O O14 0.379467 0.500000 0.433563
#
# Coordination Sequence:
#
# PCOD8093680 Si02
#       6
#     8   8   8   8   8   8
#     4   9  18  35  57  77 104 143 179 215 259 306
#     4  10  21  34  50  81 111 136 175 216 259 320
#     4  10  19  36  59  76 103 143 179 218 261 307
#     4   9  19  35  55  81 103 132 184 223 252 309
#     4   9  20  36  54  77 104 135 180 222 250 310
#     4  11  21  34  53  76 108 139 167 218 276 313
#
# _framework density 19.874220000000001
#
# number of rings (size 3 to 8) (size 9 to 14) (size 15 to 20)
#    0.000    2.333    0.000    4.000    0.000    5.333 
#    0.000   10.833    0.000    0.000    0.000    0.000 
#    0.000    0.000    0.000    0.000    0.000    0.000 
#
# Total GULP energy -297644.543181 kJ/mol
# GULP energy per Si atom -12401.855966 kJ/mol
# Density = 1.982899 g / cm^3
# Si number density = 19.874220 Si / 1000 Ang^3
#
#
#
# Elastic Constant Matrix: (Units=GPa)
#
#
# Indices 1 2 3 4 5 6 
#
# 1 118.0750 25.1286 16.6846 -0.0047 26.1559 0.0040
# 2 25.1286 150.9793 20.3321 0.0040 6.2120 0.0010
# 3 16.6846 20.3321 26.6106 0.0026 15.0708 0.0005
# 4 -0.0047 0.0040 0.0026 14.9746 -0.0029 -1.3678
# 5 26.1559 6.2120 15.0708 -0.0029 28.3737 -0.0011
# 6 0.0040 0.0010 0.0005 -1.3678 -0.0011 17.1304
#
#
#
# Elastic Compliance Matrix: (Units=1/GPa)
#
#
# Indices 1 2 3 4 5 6 
#
# 1 0.010938 -0.001375 -0.000383 0.000002 -0.009579 -0.000003
# 2 -0.001375 0.007634 -0.006782 -0.000001 0.003198 0.000000
# 3 -0.000383 -0.006782 0.060013 -0.000015 -0.030039 -0.000005
# 4 0.000002 -0.000001 -0.000015 0.067270 0.000013 0.005371
# 5 -0.009579 0.003198 -0.030039 0.000013 0.059329 0.000008
# 6 -0.000003 0.000000 -0.000005 0.005371 0.000008 0.058805
#
#
# Mechanical properties :
#
#
# Convention : Reuss Voigt Hill
#
# Bulk Modulus (GPa) = 16.25871 46.66173 31.46022
# Shear Modulus (GPa) = 16.57990 27.66371 22.12181
#
# Velocity S-wave (km/s) = 2.89146 3.73492 3.33992
# Velocity P-wave (km/s) = 4.39840 6.49068 5.54414
#
# Compressibility (1/GPa) = 0.06150551
#
# Stress axis : x y z
#
# Youngs Moduli (GPa) = 91.42713 130.99292 16.66299
#
# Poissons Ratio (x) = 0.18009 0.00638
# Poissons Ratio (y) = 0.12569 0.11301
# Poissons Ratio (z) = 0.03498 0.88843
#
# Static dielectric constant tensor:
#      x y z
#    x 3.899220 -0.000010 0.039450 
#    y -0.000010 3.490410 0.000010 
#    z 0.039450 0.000010 3.293370 
# 
# 
# High freq. dielectric constant tensor:
#      x y z
#    x 1.792020 0.000000 0.004510 
#    y 0.000000 1.767570 0.000000 
#    z 0.004510 0.000000 1.745440 
# 
# From -- ./inp_files/153629.got.cif
#   From: 2010.06.25/outbox.cif.g09.slc.cpg/sg12_77_cif.got.tgz:153629.got - 2010.06.28 00:19:55.
