data_PCOD8093984
_publ_section_title
;
Structure prediction by ZEFSAII (Michael W. Deem and Ramdas Pophale) SiO2 
 PCOD8093984
Probable space group: C 2/M
;
_chemical_formula_sum "Si O2"
_cell_formula_units_Z 48
_cell_length_a 18.839089
_cell_length_b 18.088800
_cell_length_c 9.591996
_cell_angle_alpha 90.000000
_cell_angle_beta 43.924408
_cell_angle_gamma 90.000000
_cell_volume 2267.544389
_symmetry_space_group_name_H-M "C 2/M"
_symmetry_group_IT_number 12
_symmetry_cell_setting 'monoclinic'
loop_
_space_group_symop_operation_xyz
x,y,z
-x,y,-z
-x,-y,-z
x,-y,z
1/2+x,1/2+y,z
1/2-x,1/2+y,-z
1/2-x,1/2-y,-z
1/2+x,1/2-y,z
loop_
_atom_site_type_symbol
_atom_site_label
_atom_site_fract_x
_atom_site_fract_y
_atom_site_fract_z
Si Si1 0.266346 0.586310 0.654617
Si Si2 0.604793 0.359488 0.290493
Si Si3 0.900597 0.916286 0.215036
Si Si4 0.399373 0.198335 0.050691
Si Si5 0.404524 0.812536 0.720632
Si Si6 0.197212 0.149244 0.883342
O O1 0.243057 0.500000 0.658523
O O2 0.303787 0.599494 0.758919
O O3 0.356212 0.616910 0.422743
O O4 0.162092 0.632730 0.784049
O O5 0.500000 0.391278 0.500000
O O6 0.615620 0.271835 0.294877
O O7 0.610610 0.376114 0.117671
O O8 0.807157 0.909084 0.236660
O O9 0.931076 0.000000 0.201461
O O10 0.000000 0.876054 0.000000
O O11 0.327309 0.270409 0.147045
O O12 0.500000 0.213764 0.000000
O O13 0.427103 0.176185 0.852364
O O14 0.500000 0.844936 0.500000
O O15 0.304076 0.855913 0.813110
#
# Coordination Sequence:
#
# PCOD8093984 Si02
#       6
#     8   8   8   8   8   8
#     4  11  23  40  59  85 122 163 200 243 295 349
#     4  10  19  36  61  87 119 149 192 245 301 354
#     4  10  23  40  58  88 126 156 195 246 299 360
#     4  11  23  40  62  91 119 157 203 244 295 352
#     4  10  21  38  61  91 122 150 189 255 298 349
#     4  11  20  39  63  90 120 153 198 246 301 350
#
# _framework density 21.168274
#
# number of rings (size 3 to 8) (size 9 to 14) (size 15 to 20)
#    0.000    1.500    3.333    2.500    2.333    4.667 
#    0.000    0.000    0.000    1.000    0.000    0.000 
#    0.000    0.000    0.000    0.000    0.000    0.000 
#
# Total GULP energy -297485.556310 kJ/mol
# GULP energy per Si atom -12395.231513 kJ/mol
# Density = 2.112009 g / cm^3
# Si number density = 21.168274 Si / 1000 Ang^3
#
#
#
# Elastic Constant Matrix: (Units=GPa)
#
#
# Indices 1 2 3 4 5 6 
#
# 1 111.4853 12.3390 29.7921 0.0000 4.0246 0.0000
# 2 12.3390 37.9876 36.7632 0.0000 -1.4103 0.0000
# 3 29.7921 36.7632 130.5043 0.0000 3.1025 0.0000
# 4 0.0000 0.0000 0.0000 18.7335 0.0000 5.0444
# 5 4.0246 -1.4103 3.1025 0.0000 31.8085 0.0000
# 6 0.0000 0.0000 0.0000 5.0444 0.0000 24.1431
#
#
#
# Elastic Compliance Matrix: (Units=1/GPa)
#
#
# Indices 1 2 3 4 5 6 
#
# 1 0.009643 -0.001469 -0.001761 0.000000 -0.001113 0.000000
# 2 -0.001469 0.036631 -0.010050 0.000000 0.002790 0.000000
# 3 -0.001761 -0.010050 0.010926 0.000000 -0.001289 0.000000
# 4 0.000000 0.000000 0.000000 0.056563 0.000000 -0.011818
# 5 -0.001113 0.002790 -0.001289 0.000000 0.031828 0.000000
# 6 0.000000 0.000000 0.000000 -0.011818 0.000000 0.043889
#
#
# Mechanical properties :
#
#
# Convention : Reuss Voigt Hill
#
# Bulk Modulus (GPa) = 32.63698 48.64066 40.63882
# Shear Modulus (GPa) = 22.09898 28.34254 25.22076
#
# Velocity S-wave (km/s) = 3.23455 3.66309 3.45547
# Velocity P-wave (km/s) = 5.42228 6.39679 5.92959
#
# Compressibility (1/GPa) = 0.03064009
#
# Stress axis : x y z
#
# Youngs Moduli (GPa) = 103.69998 27.29908 91.52217
#
# Poissons Ratio (x) = 0.04011 0.16117
# Poissons Ratio (y) = 0.15237 0.91980
# Poissons Ratio (z) = 0.18262 0.27436
#
# Static dielectric constant tensor:
#      x y z
#    x 3.773010 0.000000 -0.017130 
#    y 0.000000 3.428990 0.000000 
#    z -0.017130 0.000000 4.199200 
# 
# 
# High freq. dielectric constant tensor:
#      x y z
#    x 1.830790 0.000000 0.010860 
#    y 0.000000 1.789420 0.000000 
#    z 0.010860 0.000000 1.841510 
# 
# From -- ./inp_files/77251.got.cif
#   From: 2010.06.25/outbox.cif.g09.slc.cpg/sg12_39_cif.got.tgz:77251.got - 2010.06.28 00:19:55.
