data_PCOD8093047
_publ_section_title
;
Structure prediction by ZEFSAII (Michael W. Deem and Ramdas Pophale) SiO2 
 PCOD8093047
Probable space group: C 2/M
;
_chemical_formula_sum "Si O2"
_cell_formula_units_Z 64
_cell_length_a 19.593606
_cell_length_b 8.871813
_cell_length_c 31.226912
_cell_angle_alpha 90.000000
_cell_angle_beta 143.278797
_cell_angle_gamma 90.000000
_cell_volume 3245.638801
_symmetry_space_group_name_H-M "C 2/M"
_symmetry_group_IT_number 12
_symmetry_cell_setting 'monoclinic'
loop_
_space_group_symop_operation_xyz
x,y,z
-x,y,-z
-x,-y,-z
x,-y,z
1/2+x,1/2+y,z
1/2-x,1/2+y,-z
1/2-x,1/2-y,-z
1/2+x,1/2-y,z
loop_
_atom_site_type_symbol
_atom_site_label
_atom_site_fract_x
_atom_site_fract_y
_atom_site_fract_z
Si Si1 0.675675 0.821270 0.500750
Si Si2 0.043637 0.679415 0.224587
Si Si3 0.472852 0.822574 0.879261
Si Si4 0.666784 0.821895 0.827187
Si Si5 0.224854 0.822239 0.615712
Si Si6 0.064083 0.825846 0.611178
Si Si7 0.782666 0.173477 0.231627
Si Si8 0.596484 0.321331 0.015971
O O1 0.750000 0.750000 0.500000
O O2 0.720595 0.764997 0.569014
O O3 0.543229 0.775905 0.430160
O O4 0.687235 0.000000 0.503561
O O5 0.046813 0.500000 0.224816
O O6 0.021225 0.741716 0.165811
O O7 0.163519 0.737579 0.303410
O O8 0.941842 0.743133 0.202474
O O9 0.349211 0.778836 0.835384
O O10 0.493451 0.000000 0.890628
O O11 0.571261 0.743681 0.956335
O O12 0.652843 0.771358 0.771285
O O13 0.782074 0.757899 0.906837
O O14 0.668120 0.000000 0.829545
O O15 0.113902 0.786102 0.589197
O O16 0.231981 0.000000 0.609866
O O17 0.164677 0.793999 0.695470
O O18 0.025147 0.000000 0.592725
O O19 0.797362 0.000000 0.226726
O O20 0.596879 0.500000 0.013369
O O21 0.500000 0.262428 0.000000
#
# Coordination Sequence:
#
# PCOD8093047 Si02
#       8
#     8   8   8   8   8   8   8   8
#     4  12  27  44  62  90 126 159 197 243 292 347
#     4   9  19  37  60  86 114 148 193 239 290 349
#     4  10  19  35  59  84 110 146 193 242 286 344
#     4  10  21  36  55  80 114 156 197 240 294 351
#     4  10  20  40  67  90 119 158 197 241 299 359
#     4  10  21  40  65  91 121 158 196 241 299 357
#     4  10  20  35  58  87 116 145 190 245 290 339
#     4  10  20  34  51  77 116 155 192 240 296 347
#
# _framework density 19.718769000000002
#
# number of rings (size 3 to 8) (size 9 to 14) (size 15 to 20)
#    0.000    1.875    2.500    1.500    1.750    3.750 
#    0.000    1.250    0.000    0.000    0.000    0.000 
#    0.000    0.000    0.000    0.000    0.000    0.000 
#
# Total GULP energy -396848.219237 kJ/mol
# GULP energy per Si atom -12401.506851 kJ/mol
# Density = 1.967389 g / cm^3
# Si number density = 19.718769 Si / 1000 Ang^3
#
#
#
# Elastic Constant Matrix: (Units=GPa)
#
#
# Indices 1 2 3 4 5 6 
#
# 1 140.7972 43.2711 49.0777 0.0001 -3.8858 -0.0001
# 2 43.2711 52.2805 30.2507 0.0006 -0.7102 -0.0007
# 3 49.0777 30.2507 95.8287 0.0001 -6.5936 0.0000
# 4 0.0001 0.0006 0.0001 28.4847 0.0000 -6.3755
# 5 -3.8858 -0.7102 -6.5936 0.0000 37.9691 0.0001
# 6 -0.0001 -0.0007 0.0000 -6.3755 0.0001 26.8612
#
#
#
# Elastic Compliance Matrix: (Units=1/GPa)
#
#
# Indices 1 2 3 4 5 6 
#
# 1 0.010251 -0.006676 -0.003116 0.000000 0.000383 0.000000
# 2 -0.006676 0.027778 -0.005426 0.000000 -0.001106 0.000001
# 3 -0.003116 -0.005426 0.013881 0.000000 0.001990 0.000000
# 4 0.000000 0.000000 0.000000 0.037076 0.000000 0.008800
# 5 0.000383 -0.001106 0.001990 0.000000 0.026701 0.000000
# 6 0.000000 0.000001 0.000000 0.008800 0.000000 0.039317
#
#
# Mechanical properties :
#
#
# Convention : Reuss Voigt Hill
#
# Bulk Modulus (GPa) = 46.56874 59.34503 52.95689
# Shear Modulus (GPa) = 25.96087 29.75015 27.85551
#
# Velocity S-wave (km/s) = 3.63237 3.88844 3.76259
# Velocity P-wave (km/s) = 6.42339 7.09373 6.76687
#
# Compressibility (1/GPa) = 0.02147363
#
# Stress axis : x y z
#
# Youngs Moduli (GPa) = 97.55197 36.00013 72.04196
#
# Poissons Ratio (x) = 0.24034 0.22449
# Poissons Ratio (y) = 0.65128 0.39087
# Poissons Ratio (z) = 0.30398 0.19532
#
# Static dielectric constant tensor:
#      x y z
#    x 3.751110 0.000000 0.035230 
#    y 0.000000 3.267870 0.000000 
#    z 0.035230 0.000000 3.740630 
# 
# 
# High freq. dielectric constant tensor:
#      x y z
#    x 1.777190 0.000000 -0.004540 
#    y 0.000000 1.737510 0.000000 
#    z -0.004540 0.000000 1.781960 
# 
# From -- ./inp_files/378521.got.cif
#   From: 2010.06.25/outbox.cif.g09.slc.cpg/sg12_190_cif.got.tgz:378521.got - 2010.06.28 00:19:55.
