data_PCOD8093006
_publ_section_title
;
Structure prediction by ZEFSAII (Michael W. Deem and Ramdas Pophale) SiO2 
 PCOD8093006
Probable space group: C 2/M
;
_chemical_formula_sum "Si O2"
_cell_formula_units_Z 64
_cell_length_a 28.472550
_cell_length_b 9.405445
_cell_length_c 23.150227
_cell_angle_alpha 90.000000
_cell_angle_beta 32.123120
_cell_angle_gamma 90.000000
_cell_volume 3296.557059
_symmetry_space_group_name_H-M "C 2/M"
_symmetry_group_IT_number 12
_symmetry_cell_setting 'monoclinic'
loop_
_space_group_symop_operation_xyz
x,y,z
-x,y,-z
-x,-y,-z
x,-y,z
1/2+x,1/2+y,z
1/2-x,1/2+y,-z
1/2-x,1/2-y,-z
1/2+x,1/2-y,z
loop_
_atom_site_type_symbol
_atom_site_label
_atom_site_fract_x
_atom_site_fract_y
_atom_site_fract_z
Si Si1 0.784393 0.338530 0.911218
Si Si2 0.235559 0.834553 0.333389
Si Si3 0.481919 0.836642 0.226458
Si Si4 0.098539 0.662690 0.917068
Si Si5 0.931912 0.331431 0.520365
Si Si6 0.284018 0.164214 0.409969
Si Si7 0.522817 0.833424 0.311222
Si Si8 0.117591 0.838177 0.010535
O O1 0.797658 0.500000 0.919041
O O2 0.877538 0.272933 0.793550
O O3 0.750000 0.250000 0.000000
O O4 0.717713 0.330372 0.927726
O O5 0.332405 0.806150 0.206026
O O6 0.162908 0.744694 0.373481
O O7 0.238546 0.785864 0.397588
O O8 0.210941 0.000000 0.354340
O O9 0.388494 0.811413 0.293437
O O10 0.473744 0.794563 0.302583
O O11 0.554091 0.739178 0.121583
O O12 0.512766 0.000000 0.188275
O O13 0.105336 0.500000 0.931128
O O14 0.120129 0.765556 0.946522
O O15 0.000000 0.698026 0.000000
O O16 0.915558 0.500000 0.537269
O O17 0.000000 0.288473 0.500000
O O18 0.970636 0.268981 0.419917
O O19 0.250000 0.250000 0.500000
O O20 0.263666 0.000000 0.443642
O O21 0.526665 0.000000 0.318143
O O22 0.084949 0.000000 0.038659
#
# Coordination Sequence:
#
# PCOD8093006 Si02
#       8
#     8   8   8   8   8   8   8   8
#     4  10  20  35  55  82 117 151 190 237 287 343
#     4  10  22  40  60  86 120 153 192 244 292 340
#     4  10  19  35  59  81 111 155 195 229 277 352
#     4  10  22  42  65  85 113 158 202 234 280 354
#     4  10  22  39  62  86 112 154 202 243 289 346
#     4  10  21  37  60  88 115 148 190 236 287 341
#     4   9  18  34  56  81 111 150 196 237 277 337
#     4  11  23  35  55  88 120 145 184 243 298 338
#
# _framework density 19.414193999999998
#
# number of rings (size 3 to 8) (size 9 to 14) (size 15 to 20)
#    0.000    2.000    1.250    1.875    1.750    5.500 
#    0.000    2.500    0.000    0.000    0.000    0.000 
#    0.000    0.000    0.000    0.000    0.000    0.000 
#
# Total GULP energy -396829.038713 kJ/mol
# GULP energy per Si atom -12400.907460 kJ/mol
# Density = 1.937001 g / cm^3
# Si number density = 19.414194 Si / 1000 Ang^3
#
#
#
# Elastic Constant Matrix: (Units=GPa)
#
#
# Indices 1 2 3 4 5 6 
#
# 1 124.1533 50.2068 44.7275 -0.0008 -3.6651 0.0000
# 2 50.2068 67.0249 36.4791 -0.0281 -0.0887 0.0135
# 3 44.7275 36.4791 97.2298 -0.0108 -3.2395 0.0060
# 4 -0.0008 -0.0281 -0.0108 30.8227 0.0027 1.1602
# 5 -3.6651 -0.0887 -3.2395 0.0027 36.5525 -0.0005
# 6 0.0000 0.0135 0.0060 1.1602 -0.0005 30.9517
#
#
#
# Elastic Compliance Matrix: (Units=1/GPa)
#
#
# Indices 1 2 3 4 5 6 
#
# 1 0.012135 -0.007625 -0.002690 -0.000008 0.000960 0.000004
# 2 -0.007625 0.023552 -0.005368 0.000020 -0.001183 -0.000010
# 3 -0.002690 -0.005368 0.013567 0.000000 0.000920 0.000000
# 4 -0.000008 0.000020 0.000000 0.032489 -0.000003 -0.001218
# 5 0.000960 -0.001183 0.000920 -0.000003 0.027533 0.000001
# 6 0.000004 -0.000010 0.000000 -0.001218 0.000001 0.032354
#
#
# Mechanical properties :
#
#
# Convention : Reuss Voigt Hill
#
# Bulk Modulus (GPa) = 55.90232 61.24830 58.57531
# Shear Modulus (GPa) = 27.93938 30.13168 29.03553
#
# Velocity S-wave (km/s) = 3.79769 3.94387 3.87147
# Velocity P-wave (km/s) = 6.93448 7.23571 7.08670
#
# Compressibility (1/GPa) = 0.01788834
#
# Stress axis : x y z
#
# Youngs Moduli (GPa) = 82.40292 42.45971 73.70934
#
# Poissons Ratio (x) = 0.32377 0.19825
# Poissons Ratio (y) = 0.62834 0.39566
# Poissons Ratio (z) = 0.22164 0.22792
#
# Static dielectric constant tensor:
#      x y z
#    x 3.714710 -0.000010 -0.119040 
#    y -0.000010 3.415280 0.000020 
#    z -0.119040 0.000020 3.826790 
# 
# 
# High freq. dielectric constant tensor:
#      x y z
#    x 1.766980 0.000000 -0.004440 
#    y 0.000000 1.736070 0.000000 
#    z -0.004440 0.000000 1.763500 
# 
# From -- ./inp_files/353334.got.cif
#   From: 2010.06.25/outbox.cif.g09.slc.cpg/sg12_177_cif.got.tgz:353334.got - 2010.06.28 00:19:55.
