data_PCOD8093015
_publ_section_title
;
Structure prediction by ZEFSAII (Michael W. Deem and Ramdas Pophale) SiO2 
 PCOD8093015
Probable space group: C 2/M
;
_chemical_formula_sum "Si O2"
_cell_formula_units_Z 32
_cell_length_a 13.441995
_cell_length_b 14.741022
_cell_length_c 9.586821
_cell_angle_alpha 90.000000
_cell_angle_beta 104.379063
_cell_angle_gamma 90.000000
_cell_volume 1840.109101
_symmetry_space_group_name_H-M "C 2/M"
_symmetry_group_IT_number 12
_symmetry_cell_setting 'monoclinic'
loop_
_space_group_symop_operation_xyz
x,y,z
-x,y,-z
-x,-y,-z
x,-y,z
1/2+x,1/2+y,z
1/2-x,1/2+y,-z
1/2-x,1/2-y,-z
1/2+x,1/2-y,z
loop_
_atom_site_type_symbol
_atom_site_label
_atom_site_fract_x
_atom_site_fract_y
_atom_site_fract_z
Si Si1 0.066818 0.893857 0.159910
Si Si2 0.969939 0.601330 0.145381
Si Si3 0.224304 0.691505 0.857420
Si Si4 0.969025 0.238507 0.330039
O O1 0.007903 0.854136 0.273082
O O2 0.176304 0.845158 0.186059
O O3 0.082915 0.000000 0.190114
O O4 0.000000 0.873601 0.000000
O O5 0.008148 0.500000 0.195604
O O6 0.845881 0.606710 0.115942
O O7 0.021286 0.674738 0.268439
O O8 0.000000 0.629139 0.000000
O O9 0.155176 0.753577 0.728077
O O10 0.250000 0.750000 0.000000
O O11 0.000000 0.239477 0.500000
#
# Coordination Sequence:
#
# PCOD8093015 Si02
#       4
#     8   8   8   8
#     4  11  21  37  60  85 113 152 195 234 279 338
#     4   9  18  34  57  83 112 147 190 234 277 336
#     4  10  19  35  59  82 113 148 190 231 279 341
#     4  10  22  37  56  85 118 148 187 239 290 334
#
# _framework density 17.390274000000002
#
# number of rings (size 3 to 8) (size 9 to 14) (size 15 to 20)
#    1.500    0.500    2.500    3.000    0.000    2.000 
#    0.000    0.000    0.000    3.000    0.000    0.000 
#    0.000    0.000    0.000    0.000    0.000    0.000 
#
# Total GULP energy -198255.667838 kJ/mol
# GULP energy per Si atom -12390.979240 kJ/mol
# Density = 1.735069 g / cm^3
# Si number density = 17.390274 Si / 1000 Ang^3
#
#
#
# Elastic Constant Matrix: (Units=GPa)
#
#
# Indices 1 2 3 4 5 6 
#
# 1 117.0325 40.8269 44.7637 0.0000 2.0526 0.0000
# 2 40.8269 95.9130 60.2668 0.0000 -3.2458 0.0000
# 3 44.7637 60.2668 146.6083 0.0000 8.5197 0.0000
# 4 0.0000 0.0000 0.0000 16.2474 0.0000 -7.3993
# 5 2.0526 -3.2458 8.5197 0.0000 24.7385 0.0000
# 6 0.0000 0.0000 0.0000 -7.3993 0.0000 27.0859
#
#
#
# Elastic Compliance Matrix: (Units=1/GPa)
#
#
# Indices 1 2 3 4 5 6 
#
# 1 0.010396 -0.003343 -0.001760 0.000000 -0.000695 0.000000
# 2 -0.003343 0.015513 -0.005603 0.000000 0.004242 0.000000
# 3 -0.001760 -0.005603 0.009894 0.000000 -0.003996 0.000000
# 4 0.000000 0.000000 0.000000 0.070293 0.000000 0.019203
# 5 -0.000695 0.004242 -0.003996 0.000000 0.042413 0.000000
# 6 0.000000 0.000000 0.000000 0.019203 0.000000 0.042165
#
#
# Mechanical properties :
#
#
# Convention : Reuss Voigt Hill
#
# Bulk Modulus (GPa) = 69.48408 72.36320 70.92364
# Shear Modulus (GPa) = 23.05383 27.86079 25.45731
#
# Velocity S-wave (km/s) = 3.64493 4.00695 3.83022
# Velocity P-wave (km/s) = 7.59977 7.94413 7.77386
#
# Compressibility (1/GPa) = 0.01439179
#
# Stress axis : x y z
#
# Youngs Moduli (GPa) = 96.18978 64.46070 101.07582
#
# Poissons Ratio (x) = 0.21551 0.17785
# Poissons Ratio (y) = 0.32158 0.56632
# Poissons Ratio (z) = 0.16925 0.36117
#
# Static dielectric constant tensor:
#      x y z
#    x 3.171620 0.000000 -0.027860 
#    y 0.000000 3.214600 0.000000 
#    z -0.027860 0.000000 2.942830 
# 
# 
# High freq. dielectric constant tensor:
#      x y z
#    x 1.667180 0.000000 -0.006480 
#    y 0.000000 1.674850 0.000000 
#    z -0.006480 0.000000 1.651680 
# 
# From -- ./inp_files/44911.got.cif
#   From: 2010.06.25/outbox.cif.g09.slc.cpg/sg12_23_cif.got.tgz:44911.got - 2010.06.28 00:19:55.
