data_PCOD8093701
_publ_section_title
;
Structure prediction by ZEFSAII (Michael W. Deem and Ramdas Pophale) SiO2 
 PCOD8093701
Probable space group: C 2/M
;
_chemical_formula_sum "Si O2"
_cell_formula_units_Z 56
_cell_length_a 15.240010
_cell_length_b 7.824499
_cell_length_c 25.846222
_cell_angle_alpha 90.000000
_cell_angle_beta 115.349264
_cell_angle_gamma 90.000000
_cell_volume 2785.288843
_symmetry_space_group_name_H-M "C 2/M"
_symmetry_group_IT_number 12
_symmetry_cell_setting 'monoclinic'
loop_
_space_group_symop_operation_xyz
x,y,z
-x,y,-z
-x,-y,-z
x,-y,z
1/2+x,1/2+y,z
1/2-x,1/2+y,-z
1/2-x,1/2-y,-z
1/2+x,1/2-y,z
loop_
_atom_site_type_symbol
_atom_site_label
_atom_site_fract_x
_atom_site_fract_y
_atom_site_fract_z
Si Si1 0.048551 0.500000 0.932587
Si Si2 0.967749 0.686644 0.170123
Si Si3 0.230230 0.704260 0.642456
Si Si4 0.845781 0.500000 0.938925
Si Si5 0.325483 0.691950 0.768893
Si Si6 0.672470 0.299500 0.437452
Si Si7 0.243393 0.704787 0.855756
Si Si8 0.978499 0.697155 0.438600
O O1 0.055134 0.668922 0.897445
O O2 0.947357 0.500000 0.935887
O O3 0.137625 0.500000 0.995101
O O4 0.999249 0.500000 0.199541
O O5 0.871089 0.748507 0.174889
O O6 0.057461 0.810677 0.204079
O O7 0.234125 0.500000 0.644559
O O8 0.278578 0.782600 0.706717
O O9 0.290966 0.771188 0.608433
O O10 0.119913 0.775544 0.610648
O O11 0.789978 0.323750 0.911683
O O12 0.287041 0.500000 0.759800
O O13 0.288034 0.773753 0.812978
O O14 0.658951 0.500000 0.433007
O O15 0.750000 0.250000 0.500000
O O16 0.568092 0.217584 0.422450
O O17 0.261241 0.500000 0.870952
O O18 0.956470 0.500000 0.443126
O O19 0.000000 0.784185 0.500000
#
# Coordination Sequence:
#
# PCOD8093701 Si02
#       8
#     4   8   8   4   8   8   8   8
#     4   9  20  38  60  85 121 155 191 242 295 337
#     4   9  19  38  56  83 118 149 188 240 285 335
#     4   9  20  37  56  80 112 149 185 234 288 346
#     4  11  20  38  64  85 121 165 191 239 303 346
#     4  10  20  37  59  81 111 151 198 235 282 348
#     4  11  21  36  57  81 112 145 183 232 287 349
#     4  10  21  37  60  86 117 158 199 239 292 351
#     4  10  19  36  59  80 109 149 182 224 291 351
#
# _framework density 20.105633000000001
#
# number of rings (size 3 to 8) (size 9 to 14) (size 15 to 20)
#    0.429    1.714    2.857    0.429    1.000    2.000 
#    0.000    5.714    0.000    0.000    0.000    0.000 
#    0.000    0.000    0.000    0.000    0.000    0.000 
#
# Total GULP energy -347005.170728 kJ/mol
# GULP energy per Si atom -12393.041812 kJ/mol
# Density = 2.005987 g / cm^3
# Si number density = 20.105633 Si / 1000 Ang^3
#
#
#
# Elastic Constant Matrix: (Units=GPa)
#
#
# Indices 1 2 3 4 5 6 
#
# 1 143.6133 8.3767 59.6805 0.0000 18.1379 0.0000
# 2 8.3767 37.7730 25.6347 0.0000 3.7767 0.0000
# 3 59.6805 25.6347 157.2070 0.0000 13.3836 0.0000
# 4 0.0000 0.0000 0.0000 17.8398 0.0000 2.8869
# 5 18.1379 3.7767 13.3836 0.0000 21.9014 0.0000
# 6 0.0000 0.0000 0.0000 2.8869 0.0000 25.1228
#
#
#
# Elastic Compliance Matrix: (Units=1/GPa)
#
#
# Indices 1 2 3 4 5 6 
#
# 1 0.008883 0.000626 -0.002994 0.000000 -0.005634 0.000000
# 2 0.000626 0.029921 -0.004887 0.000000 -0.002691 0.000000
# 3 -0.002994 -0.004887 0.008452 0.000000 -0.001842 0.000000
# 4 0.000000 0.000000 0.000000 0.057117 0.000000 -0.006563
# 5 -0.005634 -0.002691 -0.001842 0.000000 0.051915 0.000000
# 6 0.000000 0.000000 0.000000 -0.006563 0.000000 0.040559
#
#
# Mechanical properties :
#
#
# Convention : Reuss Voigt Hill
#
# Bulk Modulus (GPa) = 30.54098 58.44188 44.49143
# Shear Modulus (GPa) = 22.49492 29.29956 25.89724
#
# Velocity S-wave (km/s) = 3.34853 3.82158 3.59285
# Velocity P-wave (km/s) = 5.49304 6.97159 6.27601
#
# Compressibility (1/GPa) = 0.03274289
#
# Stress axis : x y z
#
# Youngs Moduli (GPa) = 112.57927 33.42115 118.32065
#
# Poissons Ratio (x) = -0.02091 0.35431
# Poissons Ratio (y) = -0.07044 0.57829
# Poissons Ratio (z) = 0.33712 0.16334
#
# Static dielectric constant tensor:
#      x y z
#    x 3.721050 0.000000 -0.094110 
#    y 0.000000 3.307610 0.000000 
#    z -0.094110 0.000000 3.848260 
# 
# 
# High freq. dielectric constant tensor:
#      x y z
#    x 1.796260 0.000000 0.001260 
#    y 0.000000 1.755520 0.000000 
#    z 0.001260 0.000000 1.777610 
# 
# From -- ./inp_files/360048.got.cif
#   From: 2010.06.25/outbox.cif.g09.slc.cpg/sg12_181_cif.got.tgz:360048.got - 2010.06.28 00:19:55.
