data_PCOD8093570
_publ_section_title
;
Structure prediction by ZEFSAII (Michael W. Deem and Ramdas Pophale) SiO2 
 PCOD8093570
Probable space group: C 2/M
;
_chemical_formula_sum "Si O2"
_cell_formula_units_Z 56
_cell_length_a 17.258378
_cell_length_b 14.168656
_cell_length_c 18.620261
_cell_angle_alpha 90.000000
_cell_angle_beta 141.801540
_cell_angle_gamma 90.000000
_cell_volume 2815.625825
_symmetry_space_group_name_H-M "C 2/M"
_symmetry_group_IT_number 12
_symmetry_cell_setting 'monoclinic'
loop_
_space_group_symop_operation_xyz
x,y,z
-x,y,-z
-x,-y,-z
x,-y,z
1/2+x,1/2+y,z
1/2-x,1/2+y,-z
1/2-x,1/2-y,-z
1/2+x,1/2-y,z
loop_
_atom_site_type_symbol
_atom_site_label
_atom_site_fract_x
_atom_site_fract_y
_atom_site_fract_z
Si Si1 0.224893 0.389701 0.065523
Si Si2 0.747430 0.106511 0.617231
Si Si3 0.005114 0.610151 0.187221
Si Si4 0.119976 0.278143 0.636479
Si Si5 0.992166 0.106515 0.717780
Si Si6 0.057172 0.296373 0.375073
Si Si7 0.209538 0.391245 0.215496
O O1 0.213059 0.500000 0.047511
O O2 0.369116 0.358979 0.157053
O O3 0.174108 0.362869 0.107902
O O4 0.130712 0.348473 0.936300
O O5 0.721336 0.150781 0.676196
O O6 0.897500 0.107946 0.716397
O O7 0.679969 0.164932 0.504426
O O8 0.695036 0.000000 0.576565
O O9 0.002273 0.500000 0.205780
O O10 0.053564 0.666780 0.291273
O O11 0.095701 0.628833 0.185893
O O12 0.172733 0.172889 0.678744
O O13 0.000000 0.271469 0.500000
O O14 0.072295 0.322233 0.677505
O O15 0.937791 0.181396 0.620619
O O16 0.997398 0.000000 0.688395
O O17 0.253086 0.500000 0.251161
#
# Coordination Sequence:
#
# PCOD8093570 Si02
#       7
#     8   8   8   8   8   8   8
#     4   9  18  35  58  83 112 146 181 219 276 334
#     4  10  22  39  59  79 108 150 186 226 274 325
#     4  10  21  35  57  86 113 144 182 229 273 319
#     4  10  22  37  55  80 110 147 187 225 271 331
#     4  10  20  36  58  81 110 145 182 224 274 328
#     4  11  21  36  57  84 112 141 186 231 272 323
#     4  10  19  36  57  82 115 145 179 223 275 332
#
# _framework density 19.889006999999999
#
# number of rings (size 3 to 8) (size 9 to 14) (size 15 to 20)
#    0.000    2.000    1.429    2.143    0.000    6.857 
#    0.000    5.000    0.000    0.000    0.000    4.000 
#    0.000    0.000    0.000    0.000    0.000    0.000 
#
# Total GULP energy -346988.333961 kJ/mol
# GULP energy per Si atom -12392.440499 kJ/mol
# Density = 1.984374 g / cm^3
# Si number density = 19.889007 Si / 1000 Ang^3
#
#
#
# Elastic Constant Matrix: (Units=GPa)
#
#
# Indices 1 2 3 4 5 6 
#
# 1 121.9135 19.7137 48.8904 0.0000 6.3658 0.0000
# 2 19.7137 54.8417 25.2846 0.0000 2.4441 0.0000
# 3 48.8904 25.2846 47.5869 -0.0001 2.7438 -0.0001
# 4 0.0000 0.0000 -0.0001 19.4822 -0.0001 1.5046
# 5 6.3658 2.4441 2.7438 -0.0001 26.3735 -0.0001
# 6 0.0000 0.0000 -0.0001 1.5046 -0.0001 27.0785
#
#
#
# Elastic Compliance Matrix: (Units=1/GPa)
#
#
# Indices 1 2 3 4 5 6 
#
# 1 0.014242 0.002202 -0.015686 0.000000 -0.002010 0.000000
# 2 0.002202 0.024513 -0.015217 0.000000 -0.001220 0.000000
# 3 -0.015686 -0.015217 0.045187 0.000000 0.000495 0.000000
# 4 0.000000 0.000000 0.000000 0.051550 0.000000 -0.002864
# 5 -0.002010 -0.001220 0.000495 0.000000 0.038463 0.000000
# 6 0.000000 0.000000 0.000000 -0.002864 0.000000 0.037089
#
#
# Mechanical properties :
#
#
# Convention : Reuss Voigt Hill
#
# Bulk Modulus (GPa) = 37.67907 45.79102 41.73505
# Shear Modulus (GPa) = 18.03156 23.28375 20.65765
#
# Velocity S-wave (km/s) = 3.01426 3.42524 3.22630
# Velocity P-wave (km/s) = 5.57675 6.22224 5.90832
#
# Compressibility (1/GPa) = 0.02653993
#
# Stress axis : x y z
#
# Youngs Moduli (GPa) = 70.21492 40.79533 22.13039
#
# Poissons Ratio (x) = -0.08984 0.34714
# Poissons Ratio (y) = -0.15463 0.33675
# Poissons Ratio (z) = 1.10141 0.62076
#
# Static dielectric constant tensor:
#      x y z
#    x 4.144050 0.000000 0.067440 
#    y 0.000000 3.687210 0.000000 
#    z 0.067440 0.000000 3.539830 
# 
# 
# High freq. dielectric constant tensor:
#      x y z
#    x 1.792810 0.000000 0.012380 
#    y 0.000000 1.769880 0.000000 
#    z 0.012380 0.000000 1.749190 
# 
# From -- ./inp_files/277876.got.cif
#   From: 2010.06.25/outbox.cif.g09.slc.cpg/sg12_139_cif.got.tgz:277876.got - 2010.06.28 00:19:55.
