data_PCOD8093405
_publ_section_title
;
Structure prediction by ZEFSAII (Michael W. Deem and Ramdas Pophale) SiO2 
 PCOD8093405
Probable space group: C 2/M
;
_chemical_formula_sum "Si O2"
_cell_formula_units_Z 56
_cell_length_a 31.435101
_cell_length_b 8.523681
_cell_length_c 11.893996
_cell_angle_alpha 90.000000
_cell_angle_beta 63.872249
_cell_angle_gamma 90.000000
_cell_volume 2861.253894
_symmetry_space_group_name_H-M "C 2/M"
_symmetry_group_IT_number 12
_symmetry_cell_setting 'monoclinic'
loop_
_space_group_symop_operation_xyz
x,y,z
-x,y,-z
-x,-y,-z
x,-y,z
1/2+x,1/2+y,z
1/2-x,1/2+y,-z
1/2-x,1/2-y,-z
1/2+x,1/2-y,z
loop_
_atom_site_type_symbol
_atom_site_label
_atom_site_fract_x
_atom_site_fract_y
_atom_site_fract_z
Si Si1 0.644734 0.817046 0.062105
Si Si2 0.727424 0.315017 0.832669
Si Si3 0.165442 0.685286 0.285890
Si Si4 0.293265 0.185289 0.379307
Si Si5 0.038921 0.314471 0.810871
Si Si6 0.941320 0.816982 0.971986
Si Si7 0.379157 0.184551 0.437564
O O1 0.697846 0.772660 0.963670
O O2 0.635510 0.000000 0.052261
O O3 0.639656 0.772062 0.199371
O O4 0.607101 0.718487 0.035546
O O5 0.725344 0.500000 0.856673
O O6 0.780983 0.248108 0.773280
O O7 0.703547 0.274169 0.742046
O O8 0.169834 0.500000 0.295879
O O9 0.134743 0.758695 0.424749
O O10 0.250000 0.250000 0.500000
O O11 0.340505 0.230812 0.390344
O O12 0.288246 0.000000 0.366280
O O13 0.041660 0.500000 0.819682
O O14 0.070027 0.255265 0.667839
O O15 0.984932 0.262434 0.854575
O O16 0.061182 0.244513 0.898311
O O17 0.950750 0.000000 0.963734
O O18 0.381052 0.000000 0.451342
#
# Coordination Sequence:
#
# PCOD8093405 Si02
#       7
#     8   8   8   8   8   8   8
#     4  11  22  37  58  81 108 146 196 236 274 331
#     4  11  21  36  57  81 114 149 187 234 288 335
#     4   9  19  36  56  79 111 150 188 232 276 330
#     4  11  20  33  54  81 115 149 185 227 274 329
#     4  10  19  35  63  90 112 140 181 229 279 338
#     4  11  22  38  58  82 116 146 179 229 286 336
#     4   9  18  34  56  82 112 145 181 226 278 327
#
# _framework density 19.571838
#
# number of rings (size 3 to 8) (size 9 to 14) (size 15 to 20)
#    0.000    1.714    1.429    5.143    0.000    1.143 
#    0.000    5.000    0.000    4.286    0.000    0.000 
#    0.000    0.000    0.000    0.000    0.000    0.000 
#
# Total GULP energy -347210.111626 kJ/mol
# GULP energy per Si atom -12400.361129 kJ/mol
# Density = 1.952729 g / cm^3
# Si number density = 19.571838 Si / 1000 Ang^3
#
#
#
# Elastic Constant Matrix: (Units=GPa)
#
#
# Indices 1 2 3 4 5 6 
#
# 1 80.7512 18.7078 54.7344 0.0000 -12.2227 0.0000
# 2 18.7078 69.2400 26.6016 0.0000 -3.6711 0.0000
# 3 54.7344 26.6016 142.5354 0.0000 -18.6580 0.0000
# 4 0.0000 0.0000 0.0000 19.8203 0.0000 -3.4807
# 5 -12.2227 -3.6711 -18.6580 0.0000 31.2172 0.0000
# 6 0.0000 0.0000 0.0000 -3.4807 0.0000 25.1580
#
#
#
# Elastic Compliance Matrix: (Units=1/GPa)
#
#
# Indices 1 2 3 4 5 6 
#
# 1 0.017322 -0.002280 -0.005830 0.000000 0.003030 0.000000
# 2 -0.002280 0.015858 -0.002123 0.000000 -0.000297 0.000000
# 3 -0.005830 -0.002123 0.010110 0.000000 0.003510 0.000000
# 4 0.000000 0.000000 0.000000 0.051710 0.000000 0.007154
# 5 0.003030 -0.000297 0.003510 0.000000 0.035283 0.000000
# 6 0.000000 0.000000 0.000000 0.007154 0.000000 0.040739
#
#
# Mechanical properties :
#
#
# Convention : Reuss Voigt Hill
#
# Bulk Modulus (GPa) = 43.81060 54.73492 49.27276
# Shear Modulus (GPa) = 25.11360 28.07130 26.59245
#
# Velocity S-wave (km/s) = 3.58599 3.79128 3.69007
# Velocity P-wave (km/s) = 6.29118 6.86964 6.58676
#
# Compressibility (1/GPa) = 0.02282553
#
# Stress axis : x y z
#
# Youngs Moduli (GPa) = 57.73038 63.05792 98.91045
#
# Poissons Ratio (x) = 0.14376 0.57661
# Poissons Ratio (y) = 0.13161 0.20999
# Poissons Ratio (z) = 0.33655 0.13388
#
# Static dielectric constant tensor:
#      x y z
#    x 3.346110 0.000000 -0.310060 
#    y 0.000000 3.425390 0.000000 
#    z -0.310060 0.000000 3.803500 
# 
# 
# High freq. dielectric constant tensor:
#      x y z
#    x 1.754190 0.000000 -0.007770 
#    y 0.000000 1.745900 0.000000 
#    z -0.007770 0.000000 1.773930 
# 
# From -- ./inp_files/186402.got.cif
#   From: 2010.06.25/outbox.cif.g09.slc.cpg/sg12_94_cif.got.tgz:186402.got - 2010.06.28 00:19:55.
