data_PCOD8093918
_publ_section_title
;
Structure prediction by ZEFSAII (Michael W. Deem and Ramdas Pophale) SiO2 
 PCOD8093918
Probable space group: C 2/M
;
_chemical_formula_sum "Si O2"
_cell_formula_units_Z 48
_cell_length_a 23.957745
_cell_length_b 8.853121
_cell_length_c 11.380174
_cell_angle_alpha 90.000000
_cell_angle_beta 110.450010
_cell_angle_gamma 90.000000
_cell_volume 2261.623714
_symmetry_space_group_name_H-M "C 2/M"
_symmetry_group_IT_number 12
_symmetry_cell_setting 'monoclinic'
loop_
_space_group_symop_operation_xyz
x,y,z
-x,y,-z
-x,-y,-z
x,-y,z
1/2+x,1/2+y,z
1/2-x,1/2+y,-z
1/2-x,1/2-y,-z
1/2+x,1/2-y,z
loop_
_atom_site_type_symbol
_atom_site_label
_atom_site_fract_x
_atom_site_fract_y
_atom_site_fract_z
Si Si1 0.727703 0.675193 0.864521
Si Si2 0.939251 0.172725 0.012599
Si Si3 0.658952 0.173463 0.204884
Si Si4 0.875699 0.322087 0.350170
Si Si5 0.022236 0.828090 0.698373
Si Si6 0.114211 0.822235 0.401789
O O1 0.715428 0.500000 0.881018
O O2 0.774842 0.698067 0.794650
O O3 0.666628 0.752154 0.779977
O O4 0.750000 0.750000 0.000000
O O5 0.942765 0.187332 0.154288
O O6 0.927944 0.000000 0.963693
O O7 0.885713 0.276364 0.930445
O O8 0.000000 0.232826 0.000000
O O9 0.651241 0.272911 0.315384
O O10 0.646562 0.000000 0.227301
O O11 0.869364 0.500000 0.343903
O O12 0.943868 0.273581 0.372641
O O13 0.857861 0.259786 0.464844
O O14 0.954548 0.772875 0.665380
O O15 0.023227 0.000000 0.653369
O O16 0.121063 0.000000 0.423472
#
# Coordination Sequence:
#
# PCOD8093918 Si02
#       6
#     8   8   8   8   8   8
#     4  11  25  46  69  94 125 165 210 258 312 372
#     4  10  19  36  60  90 124 163 207 247 301 371
#     4  11  24  40  62  95 129 162 206 262 317 366
#     4  12  26  42  63  93 127 166 211 260 315 371
#     4  10  21  39  64  92 126 168 213 258 308 373
#     4  11  23  42  66  92 125 168 212 255 312 378
#
# _framework density 21.223690999999999
#
# number of rings (size 3 to 8) (size 9 to 14) (size 15 to 20)
#    0.000    1.167    1.667    4.500    0.000   10.333 
#    0.000    0.000    0.000    0.000    0.000    0.000 
#    0.000    0.000    0.000    0.000    0.000    0.000 
#
# Total GULP energy -297776.841506 kJ/mol
# GULP energy per Si atom -12407.368396 kJ/mol
# Density = 2.117538 g / cm^3
# Si number density = 21.223691 Si / 1000 Ang^3
#
#
#
# Elastic Constant Matrix: (Units=GPa)
#
#
# Indices 1 2 3 4 5 6 
#
# 1 75.2677 48.9955 19.9298 0.0000 -5.3687 0.0000
# 2 48.9955 133.3631 49.3100 0.0000 -3.2032 0.0000
# 3 19.9298 49.3100 107.2962 0.0000 -8.0429 0.0000
# 4 0.0000 0.0000 0.0000 38.4703 0.0000 -2.3369
# 5 -5.3687 -3.2032 -8.0429 0.0000 31.2755 0.0000
# 6 0.0000 0.0000 0.0000 -2.3369 0.0000 33.5554
#
#
#
# Elastic Compliance Matrix: (Units=1/GPa)
#
#
# Indices 1 2 3 4 5 6 
#
# 1 0.017638 -0.006358 -0.000180 0.000000 0.002330 0.000000
# 2 -0.006358 0.011325 -0.004098 0.000000 -0.000985 0.000000
# 3 -0.000180 -0.004098 0.011423 0.000000 0.002487 0.000000
# 4 0.000000 0.000000 0.000000 0.026104 0.000000 0.001818
# 5 0.002330 -0.000985 0.002487 0.000000 0.032913 0.000000
# 6 0.000000 0.000000 0.000000 0.001818 0.000000 0.029928
#
#
# Mechanical properties :
#
#
# Convention : Reuss Voigt Hill
#
# Bulk Modulus (GPa) = 52.31111 61.37751 56.84431
# Shear Modulus (GPa) = 31.85235 33.83968 32.84602
#
# Velocity S-wave (km/s) = 3.87821 3.99736 3.93824
# Velocity P-wave (km/s) = 6.68992 7.09136 6.89356
#
# Compressibility (1/GPa) = 0.01911640
#
# Stress axis : x y z
#
# Youngs Moduli (GPa) = 56.69525 88.29674 87.54232
#
# Poissons Ratio (x) = 0.56135 0.01574
# Poissons Ratio (y) = 0.36044 0.35873
# Poissons Ratio (z) = 0.01019 0.36182
#
# Static dielectric constant tensor:
#      x y z
#    x 3.866380 0.000000 -0.023690 
#    y 0.000000 3.775830 0.000000 
#    z -0.023690 0.000000 3.837350 
# 
# 
# High freq. dielectric constant tensor:
#      x y z
#    x 1.836450 0.000000 -0.006890 
#    y 0.000000 1.828480 0.000000 
#    z -0.006890 0.000000 1.842960 
# 
# From -- ./inp_files/173085.got.cif
#   From: 2010.06.25/outbox.cif.g09.slc.cpg/sg12_87_cif.got.tgz:173085.got - 2010.06.28 00:19:55.
