data_PCOD8093703
_publ_section_title
;
Structure prediction by ZEFSAII (Michael W. Deem and Ramdas Pophale) SiO2 
 PCOD8093703
Probable space group: C 2/M
;
_chemical_formula_sum "Si O2"
_cell_formula_units_Z 64
_cell_length_a 30.145894
_cell_length_b 8.905885
_cell_length_c 14.595480
_cell_angle_alpha 90.000000
_cell_angle_beta 59.198155
_cell_angle_gamma 90.000000
_cell_volume 3365.799052
_symmetry_space_group_name_H-M "C 2/M"
_symmetry_group_IT_number 12
_symmetry_cell_setting 'monoclinic'
loop_
_space_group_symop_operation_xyz
x,y,z
-x,y,-z
-x,-y,-z
x,-y,z
1/2+x,1/2+y,z
1/2-x,1/2+y,-z
1/2-x,1/2-y,-z
1/2+x,1/2-y,z
loop_
_atom_site_type_symbol
_atom_site_label
_atom_site_fract_x
_atom_site_fract_y
_atom_site_fract_z
Si Si1 0.119306 0.176077 0.495748
Si Si2 0.473381 0.322766 0.285826
Si Si3 0.719681 0.174009 0.451200
Si Si4 0.910936 0.177066 0.839349
Si Si5 0.260171 0.674662 0.208465
Si Si6 0.658599 0.675407 0.258355
Si Si7 0.131507 0.677763 0.934832
Si Si8 0.448664 0.322681 0.109772
O O1 0.064340 0.233452 0.593048
O O2 0.162856 0.257756 0.508343
O O3 0.123944 0.217372 0.383675
O O4 0.126320 0.000000 0.504304
O O5 0.471804 0.500000 0.280879
O O6 0.531300 0.271561 0.248961
O O7 0.455237 0.261044 0.206141
O O8 0.750000 0.250000 0.500000
O O9 0.750118 0.206350 0.325548
O O10 0.714598 0.000000 0.477303
O O11 0.873587 0.222759 0.796254
O O12 0.908295 0.000000 0.863793
O O13 0.895933 0.267847 0.944520
O O14 0.268573 0.500000 0.178496
O O15 0.211587 0.731934 0.200729
O O16 0.310092 0.765120 0.125229
O O17 0.672333 0.500000 0.243992
O O18 0.131235 0.500000 0.930389
O O19 0.101268 0.742192 0.879375
O O20 0.438768 0.500000 0.115983
O O21 0.500000 0.278647 0.000000
#
# Coordination Sequence:
#
# PCOD8093703 Si02
#       8
#     8   8   8   8   8   8   8   8
#     4   9  18  34  55  84 116 146 184 231 277 326
#     4   9  18  33  57  85 114 151 190 224 268 333
#     4  10  21  36  55  80 109 146 187 229 276 332
#     4  10  20  38  60  83 112 152 193 229 278 339
#     4  10  22  40  60  80 110 151 191 228 280 345
#     4   9  19  36  60  86 115 145 184 241 287 322
#     4  12  25  38  56  85 116 146 187 240 288 331
#     4  10  19  36  59  80 112 155 191 226 273 337
#
# _framework density 19.014800999999999
#
# number of rings (size 3 to 8) (size 9 to 14) (size 15 to 20)
#    0.000    2.125    1.250    1.875    1.750    3.250 
#    0.000    3.125    0.000    0.000    0.000    4.375 
#    0.000    0.000    0.000    0.000    0.000    0.000 
#
# Total GULP energy -396866.292012 kJ/mol
# GULP energy per Si atom -12402.071625 kJ/mol
# Density = 1.897152 g / cm^3
# Si number density = 19.014801 Si / 1000 Ang^3
#
#
#
# Elastic Constant Matrix: (Units=GPa)
#
#
# Indices 1 2 3 4 5 6 
#
# 1 121.5260 34.2274 28.0483 0.0000 -3.4341 0.0000
# 2 34.2274 54.0301 14.2681 0.0000 -7.4833 0.0000
# 3 28.0483 14.2681 45.7485 0.0000 -19.4224 0.0000
# 4 0.0000 0.0000 0.0000 19.5737 0.0000 -1.2830
# 5 -3.4341 -7.4833 -19.4224 0.0000 36.7483 0.0000
# 6 0.0000 0.0000 0.0000 -1.2830 0.0000 29.7950
#
#
#
# Elastic Compliance Matrix: (Units=1/GPa)
#
#
# Indices 1 2 3 4 5 6 
#
# 1 0.011330 -0.005928 -0.006654 0.000000 -0.003665 0.000000
# 2 -0.005928 0.023300 -0.002389 0.000000 0.002928 0.000000
# 3 -0.006654 -0.002389 0.033796 0.000000 0.016754 0.000000
# 4 0.000000 0.000000 0.000000 0.051234 0.000000 0.002206
# 5 -0.003665 0.002928 0.016754 0.000000 0.036321 0.000000
# 6 0.000000 0.000000 0.000000 0.002206 0.000000 0.033658
#
#
# Mechanical properties :
#
#
# Convention : Reuss Voigt Hill
#
# Bulk Modulus (GPa) = 25.98474 41.59911 33.79192
# Shear Modulus (GPa) = 21.51381 26.87413 24.19397
#
# Velocity S-wave (km/s) = 3.36731 3.76350 3.57091
# Velocity P-wave (km/s) = 5.36783 6.38827 5.90015
#
# Compressibility (1/GPa) = 0.03848413
#
# Stress axis : x y z
#
# Youngs Moduli (GPa) = 88.25748 42.91826 29.58934
#
# Poissons Ratio (x) = 0.25443 0.19688
# Poissons Ratio (y) = 0.52321 0.07069
# Poissons Ratio (z) = 0.58725 0.10254
#
# Static dielectric constant tensor:
#      x y z
#    x 3.649030 0.000000 -0.106840 
#    y 0.000000 3.233570 0.000000 
#    z -0.106840 0.000000 3.677790 
# 
# 
# High freq. dielectric constant tensor:
#      x y z
#    x 1.748340 0.000000 -0.003440 
#    y 0.000000 1.721040 0.000000 
#    z -0.003440 0.000000 1.743740 
# 
# From -- ./inp_files/248967.got.cif
#   From: 2010.06.25/outbox.cif.g09.slc.cpg/sg12_125_cif.got.tgz:248967.got - 2010.06.28 00:19:55.
