data_PCOD8093810
_publ_section_title
;
Structure prediction by ZEFSAII (Michael W. Deem and Ramdas Pophale) SiO2 
 PCOD8093810
Probable space group: C 2/M
;
_chemical_formula_sum "Si O2"
_cell_formula_units_Z 56
_cell_length_a 15.200878
_cell_length_b 18.064318
_cell_length_c 20.210586
_cell_angle_alpha 90.000000
_cell_angle_beta 147.950955
_cell_angle_gamma 90.000000
_cell_volume 2944.918110
_symmetry_space_group_name_H-M "C 2/M"
_symmetry_group_IT_number 12
_symmetry_cell_setting 'monoclinic'
loop_
_space_group_symop_operation_xyz
x,y,z
-x,y,-z
-x,-y,-z
x,-y,z
1/2+x,1/2+y,z
1/2-x,1/2+y,-z
1/2-x,1/2-y,-z
1/2+x,1/2-y,z
loop_
_atom_site_type_symbol
_atom_site_label
_atom_site_fract_x
_atom_site_fract_y
_atom_site_fract_z
Si Si1 0.661834 0.720640 0.346316
Si Si2 0.754292 0.413180 0.199057
Si Si3 0.487193 0.793795 0.632082
Si Si4 0.173439 0.413314 0.141063
Si Si5 0.343667 0.683303 0.355268
Si Si6 0.567540 0.584534 0.807872
Si Si7 0.414072 0.584170 0.036314
O O1 0.534408 0.774629 0.303944
O O2 0.724478 0.763542 0.321526
O O3 0.580864 0.641880 0.279187
O O4 0.808840 0.696244 0.487214
O O5 0.795901 0.500000 0.229703
O O6 0.920930 0.370586 0.323806
O O7 0.604703 0.387231 0.152334
O O8 0.707853 0.381441 0.096021
O O9 0.584313 0.726954 0.660544
O O10 0.154065 0.500000 0.141701
O O11 0.229328 0.379859 0.248014
O O12 0.311841 0.395128 0.174708
O O13 0.000000 0.381896 0.000000
O O14 0.500000 0.653064 0.500000
O O15 0.500112 0.500000 0.757351
O O16 0.662354 0.592332 0.939060
O O17 0.428244 0.500000 0.021858
#
# Coordination Sequence:
#
# PCOD8093810 Si02
#       7
#     8   8   8   8   8   8   8
#     4  10  21  36  56  80 111 149 187 237 287 331
#     4   9  17  32  53  79 116 151 183 228 282 341
#     4  10  20  36  53  79 114 145 187 237 286 335
#     4  10  22  41  62  85 116 151 193 247 289 329
#     4  10  21  40  61  82 118 157 188 235 293 347
#     4  10  19  36  60  81 110 149 194 236 286 347
#     4   8  16  31  52  80 110 143 178 224 284 338
#
# _framework density 19.015809000000001
#
# number of rings (size 3 to 8) (size 9 to 14) (size 15 to 20)
#    0.000    2.429    1.429    1.714    0.000    2.000 
#    5.143    3.571    0.000    5.143    0.000    0.000 
#    0.000    0.000    0.000    0.000    0.000    0.000 
#
# Total GULP energy -346892.215296 kJ/mol
# GULP energy per Si atom -12389.007689 kJ/mol
# Density = 1.897253 g / cm^3
# Si number density = 19.015809 Si / 1000 Ang^3
#
#
#
# Elastic Constant Matrix: (Units=GPa)
#
#
# Indices 1 2 3 4 5 6 
#
# 1 90.5951 22.1671 35.0983 0.0004 -9.4252 -0.0005
# 2 22.1671 63.0636 51.3557 0.0001 -1.9677 -0.0010
# 3 35.0983 51.3557 88.2327 -0.0015 -3.0224 -0.0013
# 4 0.0004 0.0001 -0.0015 28.2760 -0.0005 2.2494
# 5 -9.4252 -1.9677 -3.0224 -0.0005 22.6652 -0.0005
# 6 -0.0005 -0.0010 -0.0013 2.2494 -0.0005 25.9522
#
#
#
# Elastic Compliance Matrix: (Units=1/GPa)
#
#
# Indices 1 2 3 4 5 6 
#
# 1 0.013596 -0.000681 -0.004842 0.000000 0.004949 0.000000
# 2 -0.000681 0.030182 -0.017295 -0.000001 0.000031 0.000000
# 3 -0.004842 -0.017295 0.023313 0.000001 -0.000406 0.000000
# 4 0.000000 -0.000001 0.000001 0.035611 0.000001 -0.003087
# 5 0.004949 0.000031 -0.000406 0.000001 0.046127 0.000001
# 6 0.000000 0.000000 0.000000 -0.003087 0.000001 0.038800
#
#
# Mechanical properties :
#
#
# Convention : Reuss Voigt Hill
#
# Bulk Modulus (GPa) = 46.61429 51.01485 48.81457
# Shear Modulus (GPa) = 20.79728 24.26337 22.53033
#
# Velocity S-wave (km/s) = 3.31068 3.57593 3.44586
# Velocity P-wave (km/s) = 6.25945 6.62839 6.44656
#
# Compressibility (1/GPa) = 0.02145265
#
# Stress axis : x y z
#
# Youngs Moduli (GPa) = 73.55304 33.13265 42.89531
#
# Poissons Ratio (x) = 0.02257 0.20771
# Poissons Ratio (y) = 0.05011 0.74188
# Poissons Ratio (z) = 0.35616 0.57303
#
# Static dielectric constant tensor:
#      x y z
#    x 3.649020 0.000000 -0.056390 
#    y 0.000000 3.259390 0.000000 
#    z -0.056390 0.000000 3.519860 
# 
# 
# High freq. dielectric constant tensor:
#      x y z
#    x 1.752600 0.000000 -0.005620 
#    y 0.000000 1.720180 0.000000 
#    z -0.005620 0.000000 1.728720 
# 
# From -- ./inp_files/311746.got.cif
#   From: 2010.06.25/outbox.cif.g09.slc.cpg/sg12_156_cif.got.tgz:311746.got - 2010.06.28 00:19:55.
