data_PCOD8093571
_publ_section_title
;
Structure prediction by ZEFSAII (Michael W. Deem and Ramdas Pophale) SiO2 
 PCOD8093571
Probable space group: C 2/M
;
_chemical_formula_sum "Si O2"
_cell_formula_units_Z 56
_cell_length_a 15.871631
_cell_length_b 24.838233
_cell_length_c 8.916747
_cell_angle_alpha 90.000000
_cell_angle_beta 124.331765
_cell_angle_gamma 90.000000
_cell_volume 2902.793097
_symmetry_space_group_name_H-M "C 2/M"
_symmetry_group_IT_number 12
_symmetry_cell_setting 'monoclinic'
loop_
_space_group_symop_operation_xyz
x,y,z
-x,y,-z
-x,-y,-z
x,-y,z
1/2+x,1/2+y,z
1/2-x,1/2+y,-z
1/2-x,1/2-y,-z
1/2+x,1/2-y,z
loop_
_atom_site_type_symbol
_atom_site_label
_atom_site_fract_x
_atom_site_fract_y
_atom_site_fract_z
Si Si1 0.597351 0.862770 0.193555
Si Si2 0.342246 0.258605 0.696737
Si Si3 0.055680 0.939469 0.712651
Si Si4 0.995912 0.561421 0.318825
Si Si5 0.999653 0.840748 0.176996
Si Si6 0.212023 0.802045 0.040132
Si Si7 0.711372 0.901663 0.034414
O O1 0.602920 0.798435 0.222035
O O2 0.578822 0.897431 0.326858
O O3 0.692030 0.883666 0.188226
O O4 0.500000 0.875946 0.000000
O O5 0.250000 0.250000 0.500000
O O6 0.413910 0.300208 0.678160
O O7 0.299393 0.289764 0.797193
O O8 0.991306 0.902186 0.761774
O O9 0.178670 0.931113 0.845376
O O10 0.000000 0.927684 0.500000
O O11 0.034340 0.000000 0.742358
O O12 0.033495 0.500000 0.330667
O O13 0.000000 0.575028 0.500000
O O14 0.881607 0.564088 0.130912
O O15 0.895696 0.817624 0.141574
O O16 0.000000 0.838136 0.000000
O O17 0.250000 0.750000 0.000000
O O18 0.287805 0.850945 0.078995
#
# Coordination Sequence:
#
# PCOD8093571 Si02
#       7
#     8   8   8   8   8   8   8
#     4  10  21  38  61  86 116 156 193 238 296 356
#     4  11  23  35  57  88 120 150 192 241 288 356
#     4  10  22  39  60  85 114 152 201 247 285 335
#     4  10  23  41  61  88 121 153 196 249 299 353
#     4   9  21  38  57  80 118 153 189 236 286 347
#     4  10  19  36  57  82 117 155 187 229 293 343
#     4  10  21  37  63  87 118 155 196 241 294 357
#
# _framework density 19.291765000000002
#
# number of rings (size 3 to 8) (size 9 to 14) (size 15 to 20)
#    0.000    2.000    1.429    1.714    6.000    3.429 
#    0.000    0.714    0.000    0.000    0.000    0.000 
#    0.000    0.000    0.000    0.000    0.000    0.000 
#
# Total GULP energy -346869.698280 kJ/mol
# GULP energy per Si atom -12388.203510 kJ/mol
# Density = 1.924786 g / cm^3
# Si number density = 19.291765 Si / 1000 Ang^3
#
#
#
# Elastic Constant Matrix: (Units=GPa)
#
#
# Indices 1 2 3 4 5 6 
#
# 1 82.5100 53.0116 27.7711 0.0000 -10.8397 0.0000
# 2 53.0116 129.4155 26.9467 0.0000 -11.9974 0.0000
# 3 27.7711 26.9467 70.3745 0.0000 6.5789 0.0000
# 4 0.0000 0.0000 0.0000 29.4000 0.0000 -9.4971
# 5 -10.8397 -11.9974 6.5789 0.0000 24.8452 0.0000
# 6 0.0000 0.0000 0.0000 -9.4971 0.0000 28.8540
#
#
#
# Elastic Compliance Matrix: (Units=1/GPa)
#
#
# Indices 1 2 3 4 5 6 
#
# 1 0.018717 -0.005820 -0.005802 0.000000 0.006892 0.000000
# 2 -0.005820 0.010868 -0.002172 0.000000 0.003284 0.000000
# 3 -0.005802 -0.002172 0.018114 0.000000 -0.008376 0.000000
# 4 0.000000 0.000000 0.000000 0.038060 0.000000 0.012527
# 5 0.006892 0.003284 -0.008376 0.000000 0.047060 0.000000
# 6 0.000000 0.000000 0.000000 0.012527 0.000000 0.038780
#
#
# Mechanical properties :
#
#
# Convention : Reuss Voigt Hill
#
# Bulk Modulus (GPa) = 49.72246 55.30655 52.51450
# Shear Modulus (GPa) = 24.28476 28.25789 26.27132
#
# Velocity S-wave (km/s) = 3.55183 3.83138 3.69425
# Velocity P-wave (km/s) = 6.53074 6.95006 6.74366
#
# Compressibility (1/GPa) = 0.02011164
#
# Stress axis : x y z
#
# Youngs Moduli (GPa) = 53.42650 92.01644 55.20648
#
# Poissons Ratio (x) = 0.53554 0.32031
# Poissons Ratio (y) = 0.31094 0.11988
# Poissons Ratio (z) = 0.30998 0.19982
#
# Static dielectric constant tensor:
#      x y z
#    x 2.057880 0.000000 1.285970 
#    y 0.000000 3.513380 0.000000 
#    z 1.285970 0.000000 2.494100 
# 
# 
# High freq. dielectric constant tensor:
#      x y z
#    x 1.754700 0.000000 0.000640 
#    y 0.000000 1.765140 0.000000 
#    z 0.000640 0.000000 1.738520 
# 
# From -- ./inp_files/77611.got.cif
#   From: 2010.06.25/outbox.cif.g09.slc.cpg/sg12_39_cif.got.tgz:77611.got - 2010.06.28 00:19:55.
