data_PCOD8093096
_publ_section_title
;
Structure prediction by ZEFSAII (Michael W. Deem and Ramdas Pophale) SiO2 
 PCOD8093096
Probable space group: C 2/M
;
_chemical_formula_sum "Si O2"
_cell_formula_units_Z 48
_cell_length_a 26.625875
_cell_length_b 12.597224
_cell_length_c 23.487140
_cell_angle_alpha 90.000000
_cell_angle_beta 18.120912
_cell_angle_gamma 90.000000
_cell_volume 2450.201751
_symmetry_space_group_name_H-M "C 2/M"
_symmetry_group_IT_number 12
_symmetry_cell_setting 'monoclinic'
loop_
_space_group_symop_operation_xyz
x,y,z
-x,y,-z
-x,-y,-z
x,-y,z
1/2+x,1/2+y,z
1/2-x,1/2+y,-z
1/2-x,1/2-y,-z
1/2+x,1/2-y,z
loop_
_atom_site_type_symbol
_atom_site_label
_atom_site_fract_x
_atom_site_fract_y
_atom_site_fract_z
Si Si1 0.507980 0.763837 0.234576
Si Si2 0.614933 0.732958 0.321510
Si Si3 0.171060 0.876499 0.150584
Si Si4 0.797450 0.122807 0.391388
Si Si5 0.650945 0.617562 0.874645
Si Si6 0.624846 0.114141 0.468615
O O1 0.541405 0.692784 0.254739
O O2 0.361635 0.844377 0.402730
O O3 0.457030 0.685228 0.238479
O O4 0.654716 0.835682 0.056314
O O5 0.500000 0.702961 0.500000
O O6 0.650171 0.633050 0.242275
O O7 0.787544 0.789236 0.149735
O O8 0.526620 0.809532 0.371688
O O9 0.150805 0.000000 0.156818
O O10 0.766989 0.152555 0.357875
O O11 0.833094 0.000000 0.362810
O O12 0.612060 0.500000 0.944501
O O13 0.805667 0.600729 0.668767
O O14 0.500000 0.658099 0.000000
O O15 0.560830 0.000000 0.560158
#
# Coordination Sequence:
#
# PCOD8093096 Si02
#       6
#     8   8   8   8   8   8
#     4  10  22  38  58  83 115 148 185 233 288 331
#     4  10  20  36  56  79 111 152 187 230 277 332
#     4  11  23  40  58  82 113 150 196 238 280 333
#     4  10  19  35  59  86 114 144 181 224 284 349
#     4   9  18  31  51  81 112 142 180 230 284 333
#     4   9  17  31  52  81 113 143 177 221 277 342
#
# _framework density 19.590223000000002
#
# number of rings (size 3 to 8) (size 9 to 14) (size 15 to 20)
#    0.000    2.167    1.667    1.500    2.333    2.333 
#    0.000    1.667    0.000    0.500    0.000    0.000 
#    0.000    0.000    0.000    0.000    0.000    0.000 
#
# Total GULP energy -297343.112385 kJ/mol
# GULP energy per Si atom -12389.296349 kJ/mol
# Density = 1.954563 g / cm^3
# Si number density = 19.590223 Si / 1000 Ang^3
#
#
#
# Elastic Constant Matrix: (Units=GPa)
#
#
# Indices 1 2 3 4 5 6 
#
# 1 88.7378 29.0830 9.2701 0.0023 -2.8336 -0.0019
# 2 29.0830 64.8624 14.4783 0.0119 1.5430 -0.0054
# 3 9.2701 14.4783 38.7791 0.0224 -2.7980 -0.0113
# 4 0.0023 0.0119 0.0224 17.7160 -0.0051 2.7017
# 5 -2.8336 1.5430 -2.7980 -0.0051 32.6718 0.0022
# 6 -0.0019 -0.0054 -0.0113 2.7017 0.0022 26.0420
#
#
#
# Elastic Compliance Matrix: (Units=1/GPa)
#
#
# Indices 1 2 3 4 5 6 
#
# 1 0.013307 -0.005793 -0.000921 0.000004 0.001349 -0.000001
# 2 -0.005793 0.019399 -0.005997 -0.000005 -0.001932 0.000002
# 3 -0.000921 -0.005997 0.028437 -0.000033 0.002639 0.000014
# 4 0.000004 -0.000005 -0.000033 0.057354 0.000007 -0.005950
# 5 0.001349 -0.001932 0.002639 0.000007 0.031042 -0.000002
# 6 -0.000001 0.000002 0.000014 -0.005950 -0.000002 0.039017
#
#
# Mechanical properties :
#
#
# Convention : Reuss Voigt Hill
#
# Bulk Modulus (GPa) = 27.99513 33.11579 30.55546
# Shear Modulus (GPa) = 22.13514 24.58913 23.36214
#
# Velocity S-wave (km/s) = 3.36506 3.54669 3.45706
# Velocity P-wave (km/s) = 5.42398 5.80628 5.61838
#
# Compressibility (1/GPa) = 0.03572049
#
# Stress axis : x y z
#
# Youngs Moduli (GPa) = 75.14790 51.54774 35.16575
#
# Poissons Ratio (x) = 0.29863 0.03238
# Poissons Ratio (y) = 0.43535 0.21090
# Poissons Ratio (z) = 0.06920 0.30915
#
# Static dielectric constant tensor:
#      x y z
#    x 3.724030 0.000000 -0.116840 
#    y 0.000000 3.544160 0.000010 
#    z -0.116840 0.000010 3.352520 
# 
# 
# High freq. dielectric constant tensor:
#      x y z
#    x 1.771870 0.000000 -0.009880 
#    y 0.000000 1.742240 0.000000 
#    z -0.009880 0.000000 1.754630 
# 
# From -- ./inp_files/94405.got.cif
#   From: 2010.06.25/outbox.cif.g09.slc.cpg/sg12_48_cif.got.tgz:94405.got - 2010.06.28 00:19:55.
