data_PCOD8093320
_publ_section_title
;
Structure prediction by ZEFSAII (Michael W. Deem and Ramdas Pophale) SiO2 
 PCOD8093320
Probable space group: C 2/M
;
_chemical_formula_sum "Si O2"
_cell_formula_units_Z 64
_cell_length_a 15.293237
_cell_length_b 8.708050
_cell_length_c 28.750890
_cell_angle_alpha 90.000000
_cell_angle_beta 124.974288
_cell_angle_gamma 90.000000
_cell_volume 3137.419173
_symmetry_space_group_name_H-M "C 2/M"
_symmetry_group_IT_number 12
_symmetry_cell_setting 'monoclinic'
loop_
_space_group_symop_operation_xyz
x,y,z
-x,y,-z
-x,-y,-z
x,-y,z
1/2+x,1/2+y,z
1/2-x,1/2+y,-z
1/2-x,1/2-y,-z
1/2+x,1/2-y,z
loop_
_atom_site_type_symbol
_atom_site_label
_atom_site_fract_x
_atom_site_fract_y
_atom_site_fract_z
Si Si1 0.554326 0.817758 0.063747
Si Si2 0.834882 0.820630 0.742013
Si Si3 0.053030 0.322070 0.565257
Si Si4 0.281693 0.179645 0.632766
Si Si5 0.560659 0.323746 0.384957
Si Si6 0.145843 0.823504 0.736127
Si Si7 0.976958 0.818019 0.133121
Si Si8 0.293599 0.681512 0.143355
O O1 0.483930 0.757660 0.084877
O O2 0.674499 0.749278 0.102751
O O3 0.556400 0.000000 0.066443
O O4 0.500000 0.758124 0.000000
O O5 0.849677 0.730759 0.698366
O O6 0.719142 0.786294 0.727681
O O7 0.923933 0.762842 0.805264
O O8 0.847142 0.000000 0.735015
O O9 0.083725 0.500000 0.579836
O O10 0.158750 0.221609 0.603064
O O11 0.000000 0.285817 0.500000
O O12 0.969163 0.275265 0.579209
O O13 0.326924 0.263957 0.600761
O O14 0.293549 0.000000 0.629064
O O15 0.572320 0.500000 0.403813
O O16 0.474371 0.303082 0.317696
O O17 0.152961 0.769234 0.791687
O O18 0.184493 0.000000 0.742207
O O19 0.868010 0.758203 0.124090
O O20 0.978051 0.000000 0.127879
O O21 0.287568 0.500000 0.138409
#
# Coordination Sequence:
#
# PCOD8093320 Si02
#       8
#     8   8   8   8   8   8   8   8
#     4  10  21  37  57  81 111 151 198 248 298 352
#     4  11  21  35  59  89 122 153 194 249 302 360
#     4  11  25  45  67  92 124 162 207 259 307 355
#     4  12  25  41  64  93 126 166 205 246 305 366
#     4  11  23  40  65  95 125 160 205 252 304 367
#     4  10  19  35  61  88 117 158 195 234 300 368
#     4  10  21  37  58  84 113 153 194 238 296 355
#     4   9  18  35  57  80 115 154 189 232 293 360
#
# _framework density 20.398931999999999
#
# number of rings (size 3 to 8) (size 9 to 14) (size 15 to 20)
#    0.000    1.500    2.500    3.000    0.000    5.250 
#    0.000    1.250    0.000    0.000    0.000    0.000 
#    0.000    0.000    0.000    0.000    0.000    0.000 
#
# Total GULP energy -396952.484007 kJ/mol
# GULP energy per Si atom -12404.765125 kJ/mol
# Density = 2.035250 g / cm^3
# Si number density = 20.398932 Si / 1000 Ang^3
#
#
#
# Elastic Constant Matrix: (Units=GPa)
#
#
# Indices 1 2 3 4 5 6 
#
# 1 128.4058 15.5849 29.8777 0.0000 -22.6060 0.0000
# 2 15.5849 51.1161 30.8891 0.0000 -5.9427 0.0000
# 3 29.8777 30.8891 94.7996 0.0000 -27.3824 0.0000
# 4 0.0000 0.0000 0.0000 18.3354 0.0000 -6.3368
# 5 -22.6060 -5.9427 -27.3824 0.0000 27.1433 0.0000
# 6 0.0000 0.0000 0.0000 -6.3368 0.0000 34.6063
#
#
#
# Elastic Compliance Matrix: (Units=1/GPa)
#
#
# Indices 1 2 3 4 5 6 
#
# 1 0.009324 -0.001841 -0.000299 0.000000 0.007060 0.000000
# 2 -0.001841 0.025000 -0.009071 0.000000 -0.005210 0.000000
# 3 -0.000299 -0.009071 0.018279 0.000000 0.016205 0.000000
# 4 0.000000 0.000000 0.000000 0.058224 0.000000 0.010661
# 5 0.007060 -0.005210 0.016205 0.000000 0.057928 0.000000
# 6 0.000000 0.000000 0.000000 0.010661 0.000000 0.030849
#
#
# Mechanical properties :
#
#
# Convention : Reuss Voigt Hill
#
# Bulk Modulus (GPa) = 33.13350 47.44721 40.29035
# Shear Modulus (GPa) = 21.54366 29.21501 25.37933
#
# Velocity S-wave (km/s) = 3.25332 3.78853 3.53108
# Velocity P-wave (km/s) = 5.51273 6.51517 6.03480
#
# Compressibility (1/GPa) = 0.03018094
#
# Stress axis : x y z
#
# Youngs Moduli (GPa) = 107.25147 39.99957 54.70698
#
# Poissons Ratio (x) = 0.07364 0.01638
# Poissons Ratio (y) = 0.19745 0.49623
# Poissons Ratio (z) = 0.03211 0.36283
#
# Static dielectric constant tensor:
#      x y z
#    x 3.818640 0.000000 -0.013930 
#    y 0.000000 3.472370 0.000000 
#    z -0.013930 0.000000 3.793220 
# 
# 
# High freq. dielectric constant tensor:
#      x y z
#    x 1.809770 0.000000 -0.006100 
#    y 0.000000 1.779890 0.000000 
#    z -0.006100 0.000000 1.795000 
# 
# From -- ./inp_files/375620.got.cif
#   From: 2010.06.25/outbox.cif.g09.slc.cpg/sg12_188_cif.got.tgz:375620.got - 2010.06.28 00:19:55.
