data_PCOD8093871
_publ_section_title
;
Structure prediction by ZEFSAII (Michael W. Deem and Ramdas Pophale) SiO2 
 PCOD8093871
Probable space group: C 2/M
;
_chemical_formula_sum "Si O2"
_cell_formula_units_Z 56
_cell_length_a 14.416540
_cell_length_b 17.583439
_cell_length_c 13.832143
_cell_angle_alpha 90.000000
_cell_angle_beta 116.535711
_cell_angle_gamma 90.000000
_cell_volume 3136.970613
_symmetry_space_group_name_H-M "C 2/M"
_symmetry_group_IT_number 12
_symmetry_cell_setting 'monoclinic'
loop_
_space_group_symop_operation_xyz
x,y,z
-x,y,-z
-x,-y,-z
x,-y,z
1/2+x,1/2+y,z
1/2-x,1/2+y,-z
1/2-x,1/2-y,-z
1/2+x,1/2-y,z
loop_
_atom_site_type_symbol
_atom_site_label
_atom_site_fract_x
_atom_site_fract_y
_atom_site_fract_z
Si Si1 0.736553 0.343287 0.799126
Si Si2 0.087636 0.274766 0.655197
Si Si3 0.115322 0.765494 0.018253
Si Si4 0.794691 0.915721 0.015697
Si Si5 0.376798 0.911988 0.707742
Si Si6 0.355427 0.796591 0.529415
Si Si7 0.596803 0.854356 0.849751
O O1 0.639745 0.305956 0.699771
O O2 0.812640 0.276115 0.870090
O O3 0.787740 0.397832 0.743921
O O4 0.696962 0.395733 0.867599
O O5 0.133155 0.313712 0.579183
O O6 0.117357 0.338442 0.747191
O O7 0.964586 0.254192 0.603250
O O8 0.145837 0.853655 0.021420
O O9 0.123319 0.724252 0.918317
O O10 0.000000 0.760144 0.000000
O O11 0.674354 0.918100 0.926635
O O12 0.841854 0.000000 0.021074
O O13 0.352008 0.871687 0.593958
O O14 0.480082 0.882407 0.809552
O O15 0.386935 0.000000 0.687403
O O16 0.250000 0.750000 0.500000
#
# Coordination Sequence:
#
# PCOD8093871 Si02
#       7
#     8   8   8   8   8   8   8
#     4  11  19  36  58  82 113 148 193 225 273 341
#     4  10  19  36  60  86 102 148 200 229 273 328
#     4  11  20  34  56  81 110 153 197 222 261 341
#     4  11  22  34  52  83 121 150 182 233 279 327
#     4  11  22  35  58  89 116 142 179 239 297 329
#     4  10  21  36  60  85 110 143 192 236 277 342
#     4  10  19  37  55  82 114 150 185 229 277 342
#
# _framework density 17.851617000000001
#
# number of rings (size 3 to 8) (size 9 to 14) (size 15 to 20)
#    0.000    1.429    5.714    1.714    0.000    0.286 
#    0.000    8.571    0.000    2.571    0.000    0.000 
#    0.000    0.000    0.000    0.000    0.000    0.000 
#
# Total GULP energy -347081.170357 kJ/mol
# GULP energy per Si atom -12395.756084 kJ/mol
# Density = 1.781099 g / cm^3
# Si number density = 17.851617 Si / 1000 Ang^3
#
#
#
# Elastic Constant Matrix: (Units=GPa)
#
#
# Indices 1 2 3 4 5 6 
#
# 1 61.0896 17.3321 23.8300 0.0000 -0.1945 0.0000
# 2 17.3321 111.7674 31.8336 0.0000 5.8923 0.0000
# 3 23.8300 31.8336 92.3894 0.0000 -6.2909 0.0000
# 4 0.0000 0.0000 0.0000 -30.3989 0.0000 -20.1468
# 5 -0.1945 5.8923 -6.2909 0.0000 26.9051 0.0000
# 6 0.0000 0.0000 0.0000 -20.1468 0.0000 17.4161
#
#
#
# Elastic Compliance Matrix: (Units=1/GPa)
#
#
# Indices 1 2 3 4 5 6 
#
# 1 0.018485 -0.001633 -0.004239 0.000000 -0.000500 0.000000
# 2 -0.001633 0.010312 -0.003340 0.000000 -0.003051 0.000000
# 3 -0.004239 -0.003340 0.013328 0.000000 0.003817 0.000000
# 4 0.000000 0.000000 0.000000 -0.018620 0.000000 -0.021540
# 5 -0.000500 -0.003051 0.003817 0.000000 0.038725 0.000000
# 6 0.000000 0.000000 0.000000 -0.021540 0.000000 0.032501
#
#
# Mechanical properties :
#
#
# Convention : Reuss Voigt Hill
#
# Bulk Modulus (GPa) = 42.19167 45.69310 43.94239
# Shear Modulus (GPa) = 41.30374 15.60119 28.45247
#
# Velocity S-wave (km/s) = 4.81534 2.95945 3.99661
# Velocity P-wave (km/s) = 7.38936 6.10978 6.77982
#
# Compressibility (1/GPa) = 0.02370136
#
# Stress axis : x y z
#
# Youngs Moduli (GPa) = 54.09885 96.97000 75.03069
#
# Poissons Ratio (x) = 0.15832 0.31807
# Poissons Ratio (y) = 0.08833 0.25059
# Poissons Ratio (z) = 0.22934 0.32387
#
# Static dielectric constant tensor:
#      x y z
#    x 3.426360 0.000000 0.020010 
#    y 0.000000 3.050470 0.000000 
#    z 0.020010 0.000000 3.544540 
# 
# 
# High freq. dielectric constant tensor:
#      x y z
#    x 1.696020 0.000000 -0.002540 
#    y 0.000000 1.665370 0.000000 
#    z -0.002540 0.000000 1.699940 
# 
# From -- ./inp_files/145495.got.cif
#   From: 2010.06.25/outbox.cif.g09.slc.cpg/sg12_73_cif.got.tgz:145495.got - 2010.06.28 00:19:55.
