data_PCOD8093643
_publ_section_title
;
Structure prediction by ZEFSAII (Michael W. Deem and Ramdas Pophale) SiO2 
 PCOD8093643
Probable space group: C 2/M
;
_chemical_formula_sum "Si O2"
_cell_formula_units_Z 64
_cell_length_a 15.453539
_cell_length_b 8.906090
_cell_length_c 28.713251
_cell_angle_alpha 90.000000
_cell_angle_beta 57.020336
_cell_angle_gamma 90.000000
_cell_volume 3315.040704
_symmetry_space_group_name_H-M "C 2/M"
_symmetry_group_IT_number 12
_symmetry_cell_setting 'monoclinic'
loop_
_space_group_symop_operation_xyz
x,y,z
-x,y,-z
-x,-y,-z
x,-y,z
1/2+x,1/2+y,z
1/2-x,1/2+y,-z
1/2-x,1/2-y,-z
1/2+x,1/2-y,z
loop_
_atom_site_type_symbol
_atom_site_label
_atom_site_fract_x
_atom_site_fract_y
_atom_site_fract_z
Si Si1 0.009795 0.821951 0.866014
Si Si2 0.871334 0.178026 0.258394
Si Si3 0.845505 0.828922 0.675610
Si Si4 0.776488 0.175243 0.443962
Si Si5 0.897162 0.170420 0.556967
Si Si6 0.224675 0.821487 0.056749
Si Si7 0.459214 0.678035 0.328707
Si Si8 0.404051 0.676646 0.060958
O O1 0.891252 0.769493 0.896601
O O2 0.071760 0.755649 0.803737
O O3 0.065468 0.763589 0.896658
O O4 0.013219 0.000000 0.865814
O O5 0.752333 0.222558 0.293613
O O6 0.928127 0.245044 0.287480
O O7 0.878185 0.000000 0.256108
O O8 0.909603 0.815467 0.608783
O O9 0.923790 0.776099 0.693319
O O10 0.808939 0.000000 0.693993
O O11 0.750000 0.250000 0.500000
O O12 0.689696 0.212372 0.431801
O O13 0.882952 0.239305 0.391318
O O14 0.783251 0.000000 0.450797
O O15 0.000000 0.218428 0.500000
O O16 0.866651 0.000000 0.551769
O O17 0.302111 0.762867 0.073776
O O18 0.233506 0.000000 0.050284
O O19 0.250000 0.750000 0.000000
O O20 0.447260 0.500000 0.330767
O O21 0.380130 0.500000 0.067121
O O22 0.500000 0.715884 0.000000
#
# Coordination Sequence:
#
# PCOD8093643 Si02
#       8
#     8   8   8   8   8   8   8   8
#     4   9  20  37  58  82 114 154 191 230 287 343
#     4  10  20  39  61  81 110 151 195 234 275 336
#     4  10  20  36  58  82 111 147 186 232 287 337
#     4  11  21  35  55  82 112 145 187 232 284 343
#     4  10  20  35  55  80 113 148 184 230 286 342
#     4  11  21  36  58  88 118 153 194 236 285 340
#     4   9  19  36  58  80 109 149 186 224 282 343
#     4  10  19  36  58  82 116 157 192 233 289 340
#
# _framework density 19.305947
#
# number of rings (size 3 to 8) (size 9 to 14) (size 15 to 20)
#    0.000    2.000    2.500    1.500    0.000    3.500 
#    0.000    6.250    0.000    0.000    0.000    0.000 
#    0.000    0.000    0.000    0.000    0.000    0.000 
#
# Total GULP energy -396778.160570 kJ/mol
# GULP energy per Si atom -12399.317518 kJ/mol
# Density = 1.926201 g / cm^3
# Si number density = 19.305947 Si / 1000 Ang^3
#
#
#
# Elastic Constant Matrix: (Units=GPa)
#
#
# Indices 1 2 3 4 5 6 
#
# 1 161.1856 25.9797 70.8905 0.0000 7.9643 0.0000
# 2 25.9797 34.5102 24.4731 0.0000 1.9370 0.0001
# 3 70.8905 24.4731 142.8909 0.0000 6.5751 0.0000
# 4 0.0000 0.0000 0.0000 18.3398 0.0000 -0.9877
# 5 7.9643 1.9370 6.5751 0.0000 32.1057 0.0000
# 6 0.0000 0.0001 0.0000 -0.9877 0.0000 33.4830
#
#
#
# Elastic Compliance Matrix: (Units=1/GPa)
#
#
# Indices 1 2 3 4 5 6 
#
# 1 0.008396 -0.003801 -0.003461 0.000000 -0.001144 0.000000
# 2 -0.003801 0.034727 -0.004047 0.000000 -0.000323 0.000000
# 3 -0.003461 -0.004047 0.009447 0.000000 -0.000832 0.000000
# 4 0.000000 0.000000 0.000000 0.054613 0.000000 0.001611
# 5 -0.001144 -0.000323 -0.000832 0.000000 0.031621 0.000000
# 6 0.000000 0.000000 0.000000 0.001611 0.000000 0.029913
#
#
# Mechanical properties :
#
#
# Convention : Reuss Voigt Hill
#
# Bulk Modulus (GPa) = 33.38910 64.58593 48.98751
# Shear Modulus (GPa) = 24.83614 31.26860 28.05237
#
# Velocity S-wave (km/s) = 3.59060 4.02884 3.81602
# Velocity P-wave (km/s) = 5.87556 7.42755 6.69667
#
# Compressibility (1/GPa) = 0.02994990
#
# Stress axis : x y z
#
# Youngs Moduli (GPa) = 119.10899 28.79625 105.85321
#
# Poissons Ratio (x) = 0.10947 0.36641
# Poissons Ratio (y) = 0.45278 0.42838
# Poissons Ratio (z) = 0.41230 0.11654
#
# Static dielectric constant tensor:
#      x y z
#    x 3.970300 0.000000 0.249340 
#    y 0.000000 3.360290 0.000000 
#    z 0.249340 0.000000 3.836430 
# 
# 
# High freq. dielectric constant tensor:
#      x y z
#    x 1.764280 0.000000 0.004270 
#    y 0.000000 1.719220 0.000000 
#    z 0.004270 0.000000 1.755770 
# 
# From -- ./inp_files/375067.got.cif
#   From: 2010.06.25/outbox.cif.g09.slc.cpg/sg12_188_cif.got.tgz:375067.got - 2010.06.28 00:19:55.
