data_PCOD8093586
_publ_section_title
;
Structure prediction by ZEFSAII (Michael W. Deem and Ramdas Pophale) SiO2 
 PCOD8093586
Probable space group: C 2/M
;
_chemical_formula_sum "Si O2"
_cell_formula_units_Z 64
_cell_length_a 11.800012
_cell_length_b 17.429656
_cell_length_c 20.370414
_cell_angle_alpha 90.000000
_cell_angle_beta 133.565792
_cell_angle_gamma 90.000000
_cell_volume 3035.704812
_symmetry_space_group_name_H-M "C 2/M"
_symmetry_group_IT_number 12
_symmetry_cell_setting 'monoclinic'
loop_
_space_group_symop_operation_xyz
x,y,z
-x,y,-z
-x,-y,-z
x,-y,z
1/2+x,1/2+y,z
1/2-x,1/2+y,-z
1/2-x,1/2-y,-z
1/2+x,1/2-y,z
loop_
_atom_site_type_symbol
_atom_site_label
_atom_site_fract_x
_atom_site_fract_y
_atom_site_fract_z
Si Si1 0.837425 0.846618 0.295923
Si Si2 0.302648 0.585478 0.142377
Si Si3 0.176910 0.264146 0.044575
Si Si4 0.633213 0.411187 0.471687
Si Si5 0.673007 0.908724 0.572961
Si Si6 0.334662 0.189170 0.224243
Si Si7 0.633066 0.090188 0.319084
Si Si8 0.642154 0.586619 0.227759
O O1 0.851988 0.898101 0.236800
O O2 0.843539 0.757504 0.280416
O O3 0.674986 0.871049 0.266034
O O4 0.973275 0.864201 0.402595
O O5 0.230754 0.500000 0.108881
O O6 0.179968 0.645246 0.062741
O O7 0.457813 0.591311 0.161123
O O8 0.305907 0.220859 0.139983
O O9 0.250000 0.250000 0.000000
O O10 0.000000 0.238741 0.000000
O O11 0.590628 0.500000 0.444391
O O12 0.743205 0.379043 0.458473
O O13 0.718177 0.398619 0.574405
O O14 0.500000 0.873542 0.500000
O O15 0.766638 0.877612 0.673241
O O16 0.667440 0.000000 0.572369
O O17 0.487064 0.136082 0.290126
O O18 0.185842 0.136820 0.182315
O O19 0.590982 0.000000 0.294894
O O20 0.698703 0.500000 0.238852
#
# Coordination Sequence:
#
# PCOD8093586 Si02
#       8
#     8   8   8   8   8   8   8   8
#     4  11  23  37  62  92 131 179 221 266 318 380
#     4  10  21  39  69  99 126 164 215 267 320 394
#     4  11  26  47  72  98 130 169 208 264 343 418
#     4  10  19  36  57  87 129 176 225 269 316 371
#     4   9  16  27  51  82 117 161 210 257 301 353
#     4  11  26  41  67  92 130 168 216 267 331 400
#     4  11  24  41  64  95 133 176 226 273 320 379
#     4  10  19  37  63  92 127 169 215 264 322 386
#
# _framework density 21.082419000000002
#
# number of rings (size 3 to 8) (size 9 to 14) (size 15 to 20)
#    0.000    1.625    1.250    3.375    7.000    3.750 
#    0.000    3.750    0.000    3.375    0.000    0.000 
#    0.000    0.000    0.000    0.000    0.000    0.000 
#
# Total GULP energy -396611.640640 kJ/mol
# GULP energy per Si atom -12394.113770 kJ/mol
# Density = 2.103443 g / cm^3
# Si number density = 21.082419 Si / 1000 Ang^3
#
#
#
# Elastic Constant Matrix: (Units=GPa)
#
#
# Indices 1 2 3 4 5 6 
#
# 1 110.8091 53.6433 13.8021 0.0000 -10.4086 0.0000
# 2 53.6433 118.6645 38.3198 0.0000 -6.8670 0.0000
# 3 13.8021 38.3198 65.3014 0.0000 -4.0619 0.0000
# 4 0.0000 0.0000 0.0000 25.9551 0.0000 3.0634
# 5 -10.4086 -6.8670 -4.0619 0.0000 29.9737 0.0000
# 6 0.0000 0.0000 0.0000 3.0634 0.0000 35.0156
#
#
#
# Elastic Compliance Matrix: (Units=1/GPa)
#
#
# Indices 1 2 3 4 5 6 
#
# 1 0.011840 -0.005468 0.000891 0.000000 0.002980 0.000000
# 2 -0.005468 0.012996 -0.006458 0.000000 0.000203 0.000000
# 3 0.000891 -0.006458 0.019002 0.000000 0.001405 0.000000
# 4 0.000000 0.000000 0.000000 0.038930 0.000000 -0.003406
# 5 0.002980 0.000203 0.001405 0.000000 0.034634 0.000000
# 6 0.000000 0.000000 0.000000 -0.003406 0.000000 0.028857
#
#
# Mechanical properties :
#
#
# Convention : Reuss Voigt Hill
#
# Bulk Modulus (GPa) = 45.93517 56.25615 51.09566
# Shear Modulus (GPa) = 28.47613 30.78954 29.63283
#
# Velocity S-wave (km/s) = 3.67918 3.82571 3.75316
# Velocity P-wave (km/s) = 6.31539 6.80122 6.56280
#
# Compressibility (1/GPa) = 0.02176981
#
# Stress axis : x y z
#
# Youngs Moduli (GPa) = 84.45600 76.94551 52.62546
#
# Poissons Ratio (x) = 0.42074 -0.04691
# Poissons Ratio (y) = 0.46181 0.33985
# Poissons Ratio (z) = -0.07529 0.49691
#
# Static dielectric constant tensor:
#      x y z
#    x 4.021310 0.000000 -0.043300 
#    y 0.000000 3.728710 0.000000 
#    z -0.043300 0.000000 3.597810 
# 
# 
# High freq. dielectric constant tensor:
#      x y z
#    x 1.843200 0.000000 -0.002150 
#    y 0.000000 1.816330 0.000000 
#    z -0.002150 0.000000 1.807180 
# 
# From -- ./inp_files/306255.got.cif
#   From: 2010.06.25/outbox.cif.g09.slc.cpg/sg12_154_cif.got.tgz:306255.got - 2010.06.28 00:19:55.
