data_PCOD8093740
_publ_section_title
;
Structure prediction by ZEFSAII (Michael W. Deem and Ramdas Pophale) SiO2 
 PCOD8093740
Probable space group: C 2/M
;
_chemical_formula_sum "Si O2"
_cell_formula_units_Z 64
_cell_length_a 30.045296
_cell_length_b 9.414353
_cell_length_c 23.737667
_cell_angle_alpha 90.000000
_cell_angle_beta 29.011919
_cell_angle_gamma 90.000000
_cell_volume 3256.410703
_symmetry_space_group_name_H-M "C 2/M"
_symmetry_group_IT_number 12
_symmetry_cell_setting 'monoclinic'
loop_
_space_group_symop_operation_xyz
x,y,z
-x,y,-z
-x,-y,-z
x,-y,z
1/2+x,1/2+y,z
1/2-x,1/2+y,-z
1/2-x,1/2-y,-z
1/2+x,1/2-y,z
loop_
_atom_site_type_symbol
_atom_site_label
_atom_site_fract_x
_atom_site_fract_y
_atom_site_fract_z
Si Si1 0.736666 0.837246 0.254517
Si Si2 0.095130 0.666117 0.621283
Si Si3 0.257945 0.344132 0.045345
Si Si4 0.890849 0.834161 0.997256
Si Si5 0.581146 0.653647 0.368781
Si Si6 0.949793 0.343364 0.695037
Si Si7 0.573880 0.170997 0.771386
Si Si8 0.261629 0.667062 0.357735
O O1 0.662623 0.742159 0.305502
O O2 0.736985 0.801698 0.320253
O O3 0.707932 0.000000 0.275860
O O4 0.836397 0.809418 0.116115
O O5 0.104912 0.500000 0.617341
O O6 0.093733 0.729269 0.685934
O O7 0.179291 0.720774 0.489561
O O8 0.998589 0.708213 0.698683
O O9 0.290465 0.500000 0.990214
O O10 0.158712 0.351432 0.182247
O O11 0.250000 0.250000 0.000000
O O12 0.327358 0.284083 0.015193
O O13 0.978558 0.732919 0.899885
O O14 0.918773 0.000000 0.960564
O O15 0.500000 0.623460 0.500000
O O16 0.620617 0.500000 0.305035
O O17 0.527507 0.732916 0.378294
O O18 0.989931 0.500000 0.635419
O O19 0.651658 0.235630 0.724838
O O20 0.572071 0.000000 0.777268
O O21 0.283553 0.500000 0.342336
#
# Coordination Sequence:
#
# PCOD8093740 Si02
#       8
#     8   8   8   8   8   8   8   8
#     4  10  21  40  64  86 113 154 201 244 289 344
#     4   9  19  36  60  89 118 149 194 244 291 350
#     4  10  20  34  55  83 117 152 191 235 283 339
#     4  10  21  39  59  84 117 153 198 245 286 342
#     4  11  23  36  53  84 123 155 187 234 292 348
#     4  10  19  36  59  83 112 151 197 235 273 338
#     4  11  23  39  60  86 117 155 193 241 303 355
#     4  10  21  39  63  88 112 148 197 249 299 347
#
# _framework density 19.653542000000002
#
# number of rings (size 3 to 8) (size 9 to 14) (size 15 to 20)
#    0.000    1.875    1.250    2.625    0.000    5.500 
#    0.000    5.000    0.000    0.000    0.000    0.000 
#    0.000    0.000    0.000    0.000    0.000    0.000 
#
# Total GULP energy -396688.895163 kJ/mol
# GULP energy per Si atom -12396.527974 kJ/mol
# Density = 1.960881 g / cm^3
# Si number density = 19.653542 Si / 1000 Ang^3
#
#
#
# Elastic Constant Matrix: (Units=GPa)
#
#
# Indices 1 2 3 4 5 6 
#
# 1 79.0810 41.8861 15.8981 -0.0025 -1.4911 0.0009
# 2 41.8861 84.6164 28.5618 0.0047 -0.3630 0.0062
# 3 15.8981 28.5618 76.6589 0.0010 -0.5737 0.0116
# 4 -0.0025 0.0047 0.0010 18.9389 -0.0008 -3.8900
# 5 -1.4911 -0.3630 -0.5737 -0.0008 39.8647 0.0000
# 6 0.0009 0.0062 0.0116 -3.8900 0.0000 15.8839
#
#
#
# Elastic Compliance Matrix: (Units=1/GPa)
#
#
# Indices 1 2 3 4 5 6 
#
# 1 0.017165 -0.008344 -0.000447 0.000005 0.000560 0.000004
# 2 -0.008344 0.017574 -0.004819 -0.000006 -0.000221 -0.000004
# 3 -0.000447 -0.004819 0.014934 -0.000002 0.000154 -0.000009
# 4 0.000005 -0.000006 -0.000002 0.055598 0.000001 0.013616
# 5 0.000560 -0.000221 0.000154 0.000001 0.025106 0.000000
# 6 0.000004 -0.000004 -0.000009 0.013616 0.000000 0.066292
#
#
# Mechanical properties :
#
#
# Convention : Reuss Voigt Hill
#
# Bulk Modulus (GPa) = 44.53575 45.89425 45.21500
# Shear Modulus (GPa) = 21.61019 25.20485 23.40752
#
# Velocity S-wave (km/s) = 3.31955 3.58503 3.45484
# Velocity P-wave (km/s) = 6.11573 6.36702 6.24264
#
# Compressibility (1/GPa) = 0.02245387
#
# Stress axis : x y z
#
# Youngs Moduli (GPa) = 58.25830 56.90261 66.96068
#
# Poissons Ratio (x) = 0.47477 0.02993
# Poissons Ratio (y) = 0.48608 0.32269
# Poissons Ratio (z) = 0.02604 0.27422
#
# Static dielectric constant tensor:
#      x y z
#    x 3.612690 -0.000020 -0.019310 
#    y -0.000020 3.720050 0.000060 
#    z -0.019310 0.000060 3.623980 
# 
# 
# High freq. dielectric constant tensor:
#      x y z
#    x 1.772560 0.000000 0.001450 
#    y 0.000000 1.753770 0.000000 
#    z 0.001450 0.000000 1.767800 
# 
# From -- ./inp_files/249878.got.cif
#   From: 2010.06.25/outbox.cif.g09.slc.cpg/sg12_125_cif.got.tgz:249878.got - 2010.06.28 00:19:55.
