data_PCOD8093847
_publ_section_title
;
Structure prediction by ZEFSAII (Michael W. Deem and Ramdas Pophale) SiO2 
 PCOD8093847
Probable space group: C 2/M
;
_chemical_formula_sum "Si O2"
_cell_formula_units_Z 64
_cell_length_a 30.059803
_cell_length_b 9.002603
_cell_length_c 15.706738
_cell_angle_alpha 90.000000
_cell_angle_beta 49.521576
_cell_angle_gamma 90.000000
_cell_volume 3233.146395
_symmetry_space_group_name_H-M "C 2/M"
_symmetry_group_IT_number 12
_symmetry_cell_setting 'monoclinic'
loop_
_space_group_symop_operation_xyz
x,y,z
-x,y,-z
-x,-y,-z
x,-y,z
1/2+x,1/2+y,z
1/2-x,1/2+y,-z
1/2-x,1/2-y,-z
1/2+x,1/2-y,z
loop_
_atom_site_type_symbol
_atom_site_label
_atom_site_fract_x
_atom_site_fract_y
_atom_site_fract_z
Si Si1 0.206351 0.673738 0.489044
Si Si2 0.428734 0.176861 0.340585
Si Si3 0.188518 0.824685 0.064934
Si Si4 0.243305 0.333521 0.728560
Si Si5 0.652125 0.668501 0.285268
Si Si6 0.545459 0.324337 0.518211
Si Si7 0.993629 0.674358 0.913466
Si Si8 0.137043 0.670550 0.970669
O O1 0.208071 0.500000 0.503730
O O2 0.250000 0.750000 0.500000
O O3 0.139152 0.730616 0.579989
O O4 0.232518 0.710192 0.364592
O O5 0.463060 0.245170 0.379611
O O6 0.460538 0.234876 0.214363
O O7 0.432868 0.000000 0.343363
O O8 0.148456 0.768089 0.194011
O O9 0.157353 0.781406 0.017642
O O10 0.197692 0.000000 0.057612
O O11 0.250000 0.750000 0.000000
O O12 0.250196 0.500000 0.680855
O O13 0.280883 0.318707 0.767976
O O14 0.175914 0.303868 0.837303
O O15 0.630144 0.500000 0.309412
O O16 0.607208 0.743081 0.407056
O O17 0.500000 0.280034 0.500000
O O18 0.544027 0.500000 0.537855
O O19 0.003885 0.500000 0.908292
O O20 0.928798 0.714880 0.965596
O O21 0.000000 0.746306 0.000000
O O22 0.143363 0.500000 0.993012
#
# Coordination Sequence:
#
# PCOD8093847 Si02
#       8
#     8   8   8   8   8   8   8   8
#     4  11  24  39  60  89 117 148 189 238 296 349
#     4  10  22  40  61  89 119 147 192 246 291 342
#     4  11  21  35  55  82 118 154 191 236 286 343
#     4  10  19  36  60  84 114 150 191 238 289 345
#     4   9  18  34  53  77 112 151 191 233 282 341
#     4  10  21  37  59  83 113 159 200 229 281 352
#     4   9  20  39  63  85 111 153 199 241 289 349
#     4  10  21  37  59  86 115 153 198 240 289 346
#
# _framework density 19.794957
#
# number of rings (size 3 to 8) (size 9 to 14) (size 15 to 20)
#    0.000    2.000    2.500    0.750    3.500    1.250 
#    0.000    1.250    0.000    0.750    0.000    0.000 
#    0.000    0.000    0.000    0.000    0.000    0.000 
#
# Total GULP energy -396598.641079 kJ/mol
# GULP energy per Si atom -12393.707534 kJ/mol
# Density = 1.974990 g / cm^3
# Si number density = 19.794957 Si / 1000 Ang^3
#
#
#
# Elastic Constant Matrix: (Units=GPa)
#
#
# Indices 1 2 3 4 5 6 
#
# 1 107.3914 34.6268 69.3642 0.0000 7.6538 -0.0001
# 2 34.6268 44.1587 31.6447 0.0001 4.6256 -0.0001
# 3 69.3642 31.6447 152.4744 0.0000 5.4837 0.0000
# 4 0.0000 0.0001 0.0000 27.1046 0.0000 5.8699
# 5 7.6538 4.6256 5.4837 0.0000 35.4759 0.0000
# 6 -0.0001 -0.0001 0.0000 5.8699 0.0000 29.0855
#
#
#
# Elastic Compliance Matrix: (Units=1/GPa)
#
#
# Indices 1 2 3 4 5 6 
#
# 1 0.015470 -0.008191 -0.005286 0.000000 -0.001453 0.000000
# 2 -0.008191 0.031185 -0.002678 0.000000 -0.001885 0.000000
# 3 -0.005286 -0.002678 0.009518 0.000000 0.000018 0.000000
# 4 0.000000 0.000000 0.000000 0.038580 0.000000 -0.007786
# 5 -0.001453 -0.001885 0.000018 0.000000 0.028745 0.000000
# 6 0.000000 0.000000 0.000000 -0.007786 0.000000 0.035953
#
#
# Mechanical properties :
#
#
# Convention : Reuss Voigt Hill
#
# Bulk Modulus (GPa) = 41.90382 63.92173 52.91278
# Shear Modulus (GPa) = 25.03562 29.55911 27.29737
#
# Velocity S-wave (km/s) = 3.56019 3.86847 3.71753
# Velocity P-wave (km/s) = 6.17372 7.23294 6.72422
#
# Compressibility (1/GPa) = 0.02386417
#
# Stress axis : x y z
#
# Youngs Moduli (GPa) = 64.63998 32.06651 105.06220
#
# Poissons Ratio (x) = 0.26266 0.55531
# Poissons Ratio (y) = 0.52947 0.28137
# Poissons Ratio (z) = 0.34166 0.08588
#
# Static dielectric constant tensor:
#      x y z
#    x 3.759390 0.000000 -0.038530 
#    y 0.000000 3.462250 0.000000 
#    z -0.038530 0.000000 3.989920 
# 
# 
# High freq. dielectric constant tensor:
#      x y z
#    x 1.774800 0.000000 0.000310 
#    y 0.000000 1.734820 0.000000 
#    z 0.000310 0.000000 1.789390 
# 
# From -- ./inp_files/249704.got.cif
#   From: 2010.06.25/outbox.cif.g09.slc.cpg/sg12_125_cif.got.tgz:249704.got - 2010.06.28 00:19:55.
