data_PCOD8093311
_publ_section_title
;
Structure prediction by ZEFSAII (Michael W. Deem and Ramdas Pophale) SiO2 
 PCOD8093311
Probable space group: C 2/M
;
_chemical_formula_sum "Si O2"
_cell_formula_units_Z 56
_cell_length_a 29.439177
_cell_length_b 18.107905
_cell_length_c 8.374391
_cell_angle_alpha 90.000000
_cell_angle_beta 38.120666
_cell_angle_gamma 90.000000
_cell_volume 2755.860466
_symmetry_space_group_name_H-M "C 2/M"
_symmetry_group_IT_number 12
_symmetry_cell_setting 'monoclinic'
loop_
_space_group_symop_operation_xyz
x,y,z
-x,y,-z
-x,-y,-z
x,-y,z
1/2+x,1/2+y,z
1/2-x,1/2+y,-z
1/2-x,1/2-y,-z
1/2+x,1/2-y,z
loop_
_atom_site_type_symbol
_atom_site_label
_atom_site_fract_x
_atom_site_fract_y
_atom_site_fract_z
Si Si1 0.658805 0.671156 0.022800
Si Si2 0.295579 0.914095 0.751060
Si Si3 0.034511 0.082941 0.229096
Si Si4 0.766100 0.914713 0.728001
Si Si5 0.812632 0.697953 0.257654
Si Si6 0.905615 0.833740 0.448519
Si Si7 0.917372 0.324898 0.259564
O O1 0.611918 0.625101 0.023245
O O2 0.624907 0.669864 0.289885
O O3 0.739974 0.634923 0.797747
O O4 0.657373 0.756744 0.977442
O O5 0.377048 0.884376 0.485454
O O6 0.288140 0.000000 0.724951
O O7 0.277589 0.902335 0.986273
O O8 0.000000 0.082820 0.500000
O O9 0.982886 0.122853 0.241223
O O10 0.048162 0.000000 0.131524
O O11 0.719234 0.879636 0.714731
O O12 0.846630 0.877675 0.505801
O O13 0.777045 0.000000 0.659650
O O14 0.750000 0.750000 0.500000
O O15 0.877419 0.681119 0.200632
O O16 0.919359 0.753541 0.340793
O O17 0.000000 0.353197 0.000000
#
# Coordination Sequence:
#
# PCOD8093311 Si02
#       7
#     8   8   8   8   8   8   8
#     4  10  19  35  61  87 117 156 199 244 285 348
#     4  10  21  39  62  88 114 154 207 252 295 346
#     4   9  17  30  53  88 122 149 183 231 286 344
#     4  10  21  39  65  90 116 151 198 251 300 351
#     4  12  22  39  59  87 121 153 193 241 294 356
#     4  10  19  36  60  87 119 158 196 236 292 353
#     4  12  25  40  59  84 122 160 196 244 295 354
#
# _framework density 20.320332000000001
#
# number of rings (size 3 to 8) (size 9 to 14) (size 15 to 20)
#    0.000    1.571    2.857    2.571    0.000    6.571 
#    0.000    2.143    0.000    3.429    0.000    0.000 
#    0.000    0.000    0.000    0.000    0.000    0.000 
#
# Total GULP energy -347269.387605 kJ/mol
# GULP energy per Si atom -12402.478129 kJ/mol
# Density = 2.027408 g / cm^3
# Si number density = 20.320332 Si / 1000 Ang^3
#
#
#
# Elastic Constant Matrix: (Units=GPa)
#
#
# Indices 1 2 3 4 5 6 
#
# 1 109.7568 23.2795 21.4288 0.0000 -21.5738 0.0000
# 2 23.2795 69.3482 11.5852 0.0000 0.6586 0.0000
# 3 21.4288 11.5852 62.1991 0.0000 -28.0609 0.0000
# 4 0.0000 0.0000 0.0000 13.2639 0.0000 0.7661
# 5 -21.5738 0.6586 -28.0609 0.0000 23.9837 0.0000
# 6 0.0000 0.0000 0.0000 0.7661 0.0000 36.0907
#
#
#
# Elastic Compliance Matrix: (Units=1/GPa)
#
#
# Indices 1 2 3 4 5 6 
#
# 1 0.012541 -0.004982 0.003724 0.000000 0.015775 0.000000
# 2 -0.004982 0.017572 -0.008040 0.000000 -0.014371 0.000000
# 3 0.003724 -0.008040 0.037917 0.000000 0.047934 0.000000
# 4 0.000000 0.000000 0.000000 0.075485 0.000000 -0.001602
# 5 0.015775 -0.014371 0.047934 0.000000 0.112363 0.000000
# 6 0.000000 0.000000 0.000000 -0.001602 0.000000 0.027742
#
#
# Mechanical properties :
#
#
# Convention : Reuss Voigt Hill
#
# Bulk Modulus (GPa) = 20.22845 39.32121 29.77483
# Shear Modulus (GPa) = 15.68906 27.00172 21.34539
#
# Velocity S-wave (km/s) = 2.78166 3.64923 3.24457
# Velocity P-wave (km/s) = 4.50480 6.09496 5.35919
#
# Compressibility (1/GPa) = 0.04943533
#
# Stress axis : x y z
#
# Youngs Moduli (GPa) = 79.73556 56.90878 26.37342
#
# Poissons Ratio (x) = 0.28352 -0.09822
# Poissons Ratio (y) = 0.39724 0.21204
# Poissons Ratio (z) = -0.29695 0.45753
#
# Static dielectric constant tensor:
#      x y z
#    x 3.789140 0.000000 -0.113330 
#    y 0.000000 3.878700 0.000000 
#    z -0.113330 0.000000 3.736640 
# 
# 
# High freq. dielectric constant tensor:
#      x y z
#    x 1.796760 0.000000 0.000120 
#    y 0.000000 1.794390 0.000000 
#    z 0.000120 0.000000 1.788880 
# 
# From -- ./inp_files/75996.got.cif
#   From: 2010.06.25/outbox.cif.g09.slc.cpg/sg12_38_cif.got.tgz:75996.got - 2010.06.28 00:19:55.
