data_PCOD8093790
_publ_section_title
;
Structure prediction by ZEFSAII (Michael W. Deem and Ramdas Pophale) SiO2 
 PCOD8093790
Probable space group: C 2/M
;
_chemical_formula_sum "Si O2"
_cell_formula_units_Z 56
_cell_length_a 10.013223
_cell_length_b 14.429660
_cell_length_c 22.284545
_cell_angle_alpha 90.000000
_cell_angle_beta 59.850798
_cell_angle_gamma 90.000000
_cell_volume 2784.258026
_symmetry_space_group_name_H-M "C 2/M"
_symmetry_group_IT_number 12
_symmetry_cell_setting 'monoclinic'
loop_
_space_group_symop_operation_xyz
x,y,z
-x,y,-z
-x,-y,-z
x,-y,z
1/2+x,1/2+y,z
1/2-x,1/2+y,-z
1/2-x,1/2-y,-z
1/2+x,1/2-y,z
loop_
_atom_site_type_symbol
_atom_site_label
_atom_site_fract_x
_atom_site_fract_y
_atom_site_fract_z
Si Si1 0.528747 0.892015 0.061183
Si Si2 0.060714 0.208464 0.734546
Si Si3 0.206609 0.895285 0.524484
Si Si4 0.805542 0.401680 0.631247
Si Si5 0.707258 0.241001 0.825786
Si Si6 0.073414 0.717633 0.605595
Si Si7 0.666670 0.607892 0.935595
O O1 0.406295 0.840168 0.129379
O O2 0.703467 0.869546 0.043356
O O3 0.492996 0.000000 0.075061
O O4 0.500000 0.857200 0.000000
O O5 0.128719 0.110557 0.694774
O O6 0.160970 0.235846 0.769097
O O7 0.096172 0.279371 0.672036
O O8 0.880451 0.201126 0.790363
O O9 0.318520 0.901587 0.556446
O O10 0.078619 0.817645 0.570426
O O11 0.303850 0.857216 0.446464
O O12 0.140566 0.000000 0.525449
O O13 0.868323 0.500000 0.641268
O O14 0.901090 0.316423 0.634425
O O15 0.694957 0.332295 0.869767
O O16 0.673255 0.500000 0.915362
O O17 0.500000 0.633965 0.000000
#
# Coordination Sequence:
#
# PCOD8093790 Si02
#       7
#     8   8   8   8   8   8   8
#     4  10  23  42  65  94 126 161 203 255 311 363
#     4  11  24  39  59  90 124 166 206 250 305 368
#     4   9  19  35  61  91 117 158 211 261 313 369
#     4  10  20  37  63  91 120 159 211 258 305 370
#     4  12  23  42  64  89 126 168 208 249 308 367
#     4  10  19  36  59  88 126 157 204 260 314 361
#     4  10  23  42  65  94 125 160 208 258 303 361
#
# _framework density 20.113078000000002
#
# number of rings (size 3 to 8) (size 9 to 14) (size 15 to 20)
#    0.000    1.714    2.857    1.286    2.000    3.429 
#    0.000    1.429    0.000   19.714    0.000    0.000 
#    0.000    0.000    0.000    0.000    0.000    0.000 
#
# Total GULP energy -346991.538643 kJ/mol
# GULP energy per Si atom -12392.554952 kJ/mol
# Density = 2.006730 g / cm^3
# Si number density = 20.113078 Si / 1000 Ang^3
#
#
#
# Elastic Constant Matrix: (Units=GPa)
#
#
# Indices 1 2 3 4 5 6 
#
# 1 113.9892 49.9736 48.7373 0.0000 -4.2181 0.0000
# 2 49.9736 123.7570 52.0338 0.0000 -6.3924 0.0000
# 3 48.7373 52.0338 113.4678 0.0000 1.1595 0.0000
# 4 0.0000 0.0000 0.0000 11.1078 0.0000 -5.1985
# 5 -4.2181 -6.3924 1.1595 0.0000 38.5308 0.0000
# 6 0.0000 0.0000 0.0000 -5.1985 0.0000 27.9062
#
#
#
# Elastic Compliance Matrix: (Units=1/GPa)
#
#
# Indices 1 2 3 4 5 6 
#
# 1 0.011736 -0.003185 -0.003589 0.000000 0.000864 0.000000
# 2 -0.003185 0.011001 -0.003693 0.000000 0.001588 0.000000
# 3 -0.003589 -0.003693 0.012062 0.000000 -0.001369 0.000000
# 4 0.000000 0.000000 0.000000 0.098625 0.000000 0.018372
# 5 0.000864 0.001588 -0.001369 0.000000 0.026352 0.000000
# 6 0.000000 0.000000 0.000000 0.018372 0.000000 0.039257
#
#
# Mechanical properties :
#
#
# Convention : Reuss Voigt Hill
#
# Bulk Modulus (GPa) = 72.12575 72.52262 72.32418
# Shear Modulus (GPa) = 22.26280 28.87356 25.56818
#
# Velocity S-wave (km/s) = 3.33059 3.79299 3.56929
# Velocity P-wave (km/s) = 7.12239 7.43761 7.28171
#
# Compressibility (1/GPa) = 0.01386467
#
# Stress axis : x y z
#
# Youngs Moduli (GPa) = 85.21027 90.89813 82.90422
#
# Poissons Ratio (x) = 0.28954 0.29753
# Poissons Ratio (y) = 0.27142 0.30617
# Poissons Ratio (z) = 0.30581 0.33569
#
# Static dielectric constant tensor:
#      x y z
#    x 3.728620 0.000000 0.026080 
#    y 0.000000 3.803730 0.000000 
#    z 0.026080 0.000000 3.796210 
# 
# 
# High freq. dielectric constant tensor:
#      x y z
#    x 1.780360 0.000000 0.000170 
#    y 0.000000 1.786190 0.000000 
#    z 0.000170 0.000000 1.793490 
# 
# From -- ./inp_files/332829.got.cif
#   From: 2010.06.25/outbox.cif.g09.slc.cpg/sg12_167_cif.got.tgz:332829.got - 2010.06.28 00:19:55.
