data_PCOD8093318
_publ_section_title
;
Structure prediction by ZEFSAII (Michael W. Deem and Ramdas Pophale) SiO2 
 PCOD8093318
Probable space group: C 2/M
;
_chemical_formula_sum "Si O2"
_cell_formula_units_Z 48
_cell_length_a 13.121944
_cell_length_b 14.338283
_cell_length_c 15.617076
_cell_angle_alpha 90.000000
_cell_angle_beta 121.201380
_cell_angle_gamma 90.000000
_cell_volume 2513.273874
_symmetry_space_group_name_H-M "C 2/M"
_symmetry_group_IT_number 12
_symmetry_cell_setting 'monoclinic'
loop_
_space_group_symop_operation_xyz
x,y,z
-x,y,-z
-x,-y,-z
x,-y,z
1/2+x,1/2+y,z
1/2-x,1/2+y,-z
1/2-x,1/2-y,-z
1/2+x,1/2-y,z
loop_
_atom_site_type_symbol
_atom_site_label
_atom_site_fract_x
_atom_site_fract_y
_atom_site_fract_z
Si Si1 0.677246 0.793773 0.891862
Si Si2 0.465053 0.723815 0.309927
Si Si3 0.784868 0.758867 0.768334
Si Si4 0.021532 0.394241 0.108254
Si Si5 0.326315 0.607027 0.631385
Si Si6 0.073009 0.605861 0.445727
O O1 0.577741 0.722384 0.808841
O O2 0.768146 0.814712 0.852178
O O3 0.603980 0.882193 0.895953
O O4 0.750000 0.750000 0.000000
O O5 0.345070 0.715901 0.315596
O O6 0.555903 0.639734 0.369526
O O7 0.529315 0.823740 0.353914
O O8 0.877103 0.674398 0.812894
O O9 0.825195 0.833519 0.717040
O O10 0.065744 0.500000 0.140157
O O11 0.000000 0.370891 0.000000
O O12 0.337452 0.500000 0.662679
O O13 0.212237 0.624354 0.522701
O O14 0.051346 0.500000 0.404100
O O15 0.000000 0.624606 0.500000
#
# Coordination Sequence:
#
# PCOD8093318 Si02
#       6
#     8   8   8   8   8   8
#     4  10  20  36  59  82 115 149 190 239 281 336
#     4  10  21  35  60  84 115 153 188 237 295 341
#     4  10  20  37  58  82 110 154 191 236 286 346
#     4  11  21  36  59  84 114 154 193 235 292 346
#     4  11  22  38  59  86 117 153 193 243 297 346
#     4  10  19  35  61  88 116 151 197 241 287 346
#
# _framework density 19.098595
#
# number of rings (size 3 to 8) (size 9 to 14) (size 15 to 20)
#    1.000    0.667    5.000    0.500    0.000    2.000 
#    0.000    0.833    0.000    2.000    0.000    0.000 
#    0.000    0.000    0.000    0.000    0.000    0.000 
#
# Total GULP energy -297318.197793 kJ/mol
# GULP energy per Si atom -12388.258241 kJ/mol
# Density = 1.905513 g / cm^3
# Si number density = 19.098595 Si / 1000 Ang^3
#
#
#
# Elastic Constant Matrix: (Units=GPa)
#
#
# Indices 1 2 3 4 5 6 
#
# 1 72.9586 46.3900 24.2926 0.0000 15.9029 0.0000
# 2 46.3900 111.4570 61.0806 0.0000 24.1137 0.0000
# 3 24.2926 61.0806 101.5174 0.0000 21.4691 0.0000
# 4 0.0000 0.0000 0.0000 28.8752 0.0000 0.6697
# 5 15.9029 24.1137 21.4691 0.0000 27.4196 0.0000
# 6 0.0000 0.0000 0.0000 0.6697 0.0000 25.9639
#
#
#
# Elastic Compliance Matrix: (Units=1/GPa)
#
#
# Indices 1 2 3 4 5 6 
#
# 1 0.019256 -0.007373 0.000981 0.000000 -0.005453 0.000000
# 2 -0.007373 0.017268 -0.007572 0.000000 -0.004981 0.000000
# 3 0.000981 -0.007572 0.015440 0.000000 -0.006000 0.000000
# 4 0.000000 0.000000 0.000000 0.034653 0.000000 -0.000894
# 5 -0.005453 -0.004981 -0.006000 0.000000 0.048711 0.000000
# 6 0.000000 0.000000 0.000000 -0.000894 0.000000 0.038538
#
#
# Mechanical properties :
#
#
# Convention : Reuss Voigt Hill
#
# Bulk Modulus (GPa) = 41.60170 61.05107 51.32639
# Shear Modulus (GPa) = 23.83160 26.72975 25.28067
#
# Velocity S-wave (km/s) = 3.53628 3.74514 3.64221
# Velocity P-wave (km/s) = 6.20513 7.12299 6.67984
#
# Compressibility (1/GPa) = 0.02403748
#
# Stress axis : x y z
#
# Youngs Moduli (GPa) = 51.93168 57.91053 64.76499
#
# Poissons Ratio (x) = 0.42696 -0.06355
# Poissons Ratio (y) = 0.38288 0.49040
# Poissons Ratio (z) = -0.05096 0.43850
#
# Static dielectric constant tensor:
#      x y z
#    x 3.756270 0.000000 0.218990 
#    y 0.000000 3.324300 0.000000 
#    z 0.218990 0.000000 3.498150 
# 
# 
# High freq. dielectric constant tensor:
#      x y z
#    x 1.748690 0.000000 0.012280 
#    y 0.000000 1.715070 0.000000 
#    z 0.012280 0.000000 1.743700 
# 
# From -- ./inp_files/309537.got.cif
#   From: 2010.06.25/outbox.cif.g09.slc.cpg/sg12_155_cif.got.tgz:309537.got - 2010.06.28 00:19:55.
