data_PCOD8093241
_publ_section_title
;
Structure prediction by ZEFSAII (Michael W. Deem and Ramdas Pophale) SiO2 
 PCOD8093241
Probable space group: C 2/M
;
_chemical_formula_sum "Si O2"
_cell_formula_units_Z 48
_cell_length_a 28.839849
_cell_length_b 10.271349
_cell_length_c 26.114605
_cell_angle_alpha 90.000000
_cell_angle_beta 20.119698
_cell_angle_gamma 90.000000
_cell_volume 2660.972069
_symmetry_space_group_name_H-M "C 2/M"
_symmetry_group_IT_number 12
_symmetry_cell_setting 'monoclinic'
loop_
_space_group_symop_operation_xyz
x,y,z
-x,y,-z
-x,-y,-z
x,-y,z
1/2+x,1/2+y,z
1/2-x,1/2+y,-z
1/2-x,1/2-y,-z
1/2+x,1/2-y,z
loop_
_atom_site_type_symbol
_atom_site_label
_atom_site_fract_x
_atom_site_fract_y
_atom_site_fract_z
Si Si1 0.458699 0.500000 0.775335
Si Si2 0.477174 0.000000 0.740572
Si Si3 0.364483 0.240571 0.026352
Si Si4 0.658655 0.857498 0.842770
Si Si5 0.164508 0.344186 0.724840
Si Si6 0.646952 0.741381 0.560620
Si Si7 0.696092 0.000000 0.980430
Si Si8 0.290505 0.500000 0.048175
O O1 0.542388 0.629076 0.680432
O O2 0.336063 0.500000 0.864018
O O3 0.410214 0.500000 0.883592
O O4 0.568507 0.875374 0.635325
O O5 0.353921 0.000000 0.829105
O O6 0.427085 0.000000 0.851336
O O7 0.308334 0.232874 0.142914
O O8 0.305637 0.127064 0.052430
O O9 0.306799 0.375156 0.066527
O O10 0.526253 0.231745 0.856596
O O11 0.717456 0.808010 0.727282
O O12 0.718112 0.000000 0.793731
O O13 0.500000 0.869065 0.000000
O O14 0.139799 0.500000 0.745055
O O15 0.277205 0.292167 0.570198
O O16 0.750000 0.750000 0.500000
#
# Coordination Sequence:
#
# PCOD8093241 Si02
#       8
#     4   4   8   8   8   8   4   4
#     4  11  23  38  53  83 109 150 195 227 267 326
#     4  11  25  40  53  81 119 152 185 229 283 326
#     4  11  19  35  60  87 110 146 187 229 282 330
#     4   8  15  31  56  86 110 137 183 238 282 316
#     4  10  19  35  60  88 115 141 182 241 283 322
#     4  12  23  37  59  83 115 150 184 225 281 341
#     4  11  20  36  62  77 107 149 197 235 262 319
#     4  11  24  38  54  81 119 151 185 231 272 337
#
# _framework density 18.038522
#
# number of rings (size 3 to 8) (size 9 to 14) (size 15 to 20)
#    0.000    1.500    2.500    5.500    0.000    3.333 
#    0.000    4.583    0.000    6.000    0.000    0.000 
#    0.000    0.000    0.000    0.000    0.000    0.000 
#
# Total GULP energy -297566.819772 kJ/mol
# GULP energy per Si atom -12398.617491 kJ/mol
# Density = 1.799747 g / cm^3
# Si number density = 18.038522 Si / 1000 Ang^3
#
#
#
# Elastic Constant Matrix: (Units=GPa)
#
#
# Indices 1 2 3 4 5 6 
#
# 1 134.5987 62.1557 54.7465 -0.0004 30.9971 0.0002
# 2 62.1557 136.7657 39.0962 0.0002 8.3185 0.0008
# 3 54.7465 39.0962 86.5613 -0.0003 18.4001 0.0008
# 4 -0.0004 0.0002 -0.0003 35.0842 0.0010 -5.7732
# 5 30.9971 8.3185 18.4001 0.0010 27.2886 -0.0003
# 6 0.0002 0.0008 0.0008 -5.7732 -0.0003 34.2669
#
#
#
# Elastic Compliance Matrix: (Units=1/GPa)
#
#
# Indices 1 2 3 4 5 6 
#
# 1 0.013854 -0.004353 -0.004358 0.000000 -0.011471 0.000000
# 2 -0.004353 0.009763 -0.002422 0.000000 0.003601 0.000000
# 3 -0.004358 -0.002422 0.016568 0.000000 -0.005483 0.000000
# 4 0.000000 0.000000 0.000000 0.029316 -0.000002 0.004939
# 5 -0.011471 0.003601 -0.005483 -0.000002 0.052275 0.000000
# 6 0.000000 0.000000 0.000000 0.004939 0.000000 0.030015
#
#
# Mechanical properties :
#
#
# Convention : Reuss Voigt Hill
#
# Bulk Modulus (GPa) = 55.80348 74.43584 65.11966
# Shear Modulus (GPa) = 27.77332 32.78975 30.28153
#
# Velocity S-wave (km/s) = 3.92812 4.26815 4.10166
# Velocity P-wave (km/s) = 7.18167 8.10210 7.65573
#
# Compressibility (1/GPa) = 0.01792003
#
# Stress axis : x y z
#
# Youngs Moduli (GPa) = 72.18341 102.42395 60.35687
#
# Poissons Ratio (x) = 0.44582 0.26301
# Poissons Ratio (y) = 0.31419 0.14621
# Poissons Ratio (z) = 0.31454 0.24811
#
# Static dielectric constant tensor:
#      x y z
#    x 3.692140 0.000000 0.259110 
#    y 0.000000 3.296020 0.000000 
#    z 0.259110 0.000000 3.335160 
# 
# 
# High freq. dielectric constant tensor:
#      x y z
#    x 1.714850 0.000000 0.012130 
#    y 0.000000 1.696220 0.000000 
#    z 0.012130 0.000000 1.684510 
# 
# From -- ./inp_files/351917.got.cif
#   From: 2010.06.25/outbox.cif.g09.slc.cpg/sg12_176_cif.got.tgz:351917.got - 2010.06.28 00:19:55.
