data_PCOD8093081
_publ_section_title
;
Structure prediction by ZEFSAII (Michael W. Deem and Ramdas Pophale) SiO2 
 PCOD8093081
Probable space group: C 2/M
;
_chemical_formula_sum "Si O2"
_cell_formula_units_Z 64
_cell_length_a 15.129750
_cell_length_b 18.078314
_cell_length_c 12.591163
_cell_angle_alpha 90.000000
_cell_angle_beta 119.423344
_cell_angle_gamma 90.000000
_cell_volume 2999.718658
_symmetry_space_group_name_H-M "C 2/M"
_symmetry_group_IT_number 12
_symmetry_cell_setting 'monoclinic'
loop_
_space_group_symop_operation_xyz
x,y,z
-x,y,-z
-x,-y,-z
x,-y,z
1/2+x,1/2+y,z
1/2-x,1/2+y,-z
1/2-x,1/2-y,-z
1/2+x,1/2-y,z
loop_
_atom_site_type_symbol
_atom_site_label
_atom_site_fract_x
_atom_site_fract_y
_atom_site_fract_z
Si Si1 0.676139 0.419891 0.996415
Si Si2 0.489068 0.161217 0.231571
Si Si3 0.333493 0.916271 0.275678
Si Si4 0.866438 0.582000 0.978004
Si Si5 0.394509 0.587417 0.486056
Si Si6 0.999247 0.807168 0.118355
Si Si7 0.820803 0.587667 0.718506
Si Si8 0.154522 0.913741 0.303276
O O1 0.619956 0.500000 0.970043
O O2 0.749195 0.420636 0.938645
O O3 0.601792 0.353830 0.928921
O O4 0.741988 0.407318 0.139621
O O5 0.422660 0.141912 0.298256
O O6 0.501021 0.248173 0.215473
O O7 0.600208 0.125531 0.316654
O O8 0.432984 0.131140 0.094326
O O9 0.276640 0.900834 0.355121
O O10 0.378658 0.000000 0.297467
O O11 0.914283 0.500000 0.010805
O O12 0.865847 0.613253 0.858376
O O13 0.500000 0.621151 0.500000
O O14 0.399614 0.500000 0.477624
O O15 0.294419 0.617250 0.365149
O O16 0.379100 0.610594 0.599088
O O17 0.093463 0.863107 0.184390
O O18 0.000000 0.771871 0.000000
O O19 0.822557 0.500000 0.702828
O O20 0.129204 0.000000 0.268010
#
# Coordination Sequence:
#
# PCOD8093081 Si02
#       8
#     8   8   8   8   8   8   8   8
#     4   9  18  32  51  80 113 151 197 236 284 345
#     4  11  22  36  53  85 124 157 193 234 286 351
#     4   9  18  36  59  82 113 156 197 239 285 340
#     4   9  18  32  55  85 116 153 191 232 287 347
#     4   9  20  38  62  91 116 141 190 254 300 338
#     4  12  23  34  52  86 122 157 195 234 296 349
#     4  10  19  35  59  85 114 152 194 239 290 346
#     4  10  21  39  61  83 113 150 196 250 296 342
#
# _framework density 21.335335000000001
#
# number of rings (size 3 to 8) (size 9 to 14) (size 15 to 20)
#    0.000    2.125    1.250    3.375    1.750    3.500 
#    2.250    1.250    0.000    3.000    0.000    0.000 
#    0.000    0.000    0.000    0.000    0.000    0.125 
#
# Total GULP energy -396510.515440 kJ/mol
# GULP energy per Si atom -12390.953608 kJ/mol
# Density = 2.128677 g / cm^3
# Si number density = 21.335335 Si / 1000 Ang^3
#
#
#
# Elastic Constant Matrix: (Units=GPa)
#
#
# Indices 1 2 3 4 5 6 
#
# 1 168.3374 40.6896 26.9780 0.0000 -0.0867 0.0000
# 2 40.6896 65.7010 11.7858 0.0000 5.4295 0.0000
# 3 26.9780 11.7858 29.6904 0.0000 1.9337 0.0000
# 4 0.0000 0.0000 0.0000 15.1764 0.0000 -6.5943
# 5 -0.0867 5.4295 1.9337 0.0000 33.5021 0.0000
# 6 0.0000 0.0000 0.0000 -6.5943 0.0000 8.1091
#
#
#
# Elastic Compliance Matrix: (Units=1/GPa)
#
#
# Indices 1 2 3 4 5 6 
#
# 1 0.007777 -0.003895 -0.005584 0.000000 0.000974 0.000000
# 2 -0.003895 0.018515 -0.003628 0.000000 -0.002801 0.000000
# 3 -0.005584 -0.003628 0.040309 0.000000 -0.001753 0.000000
# 4 0.000000 0.000000 0.000000 0.101896 0.000000 0.082861
# 5 0.000974 -0.002801 -0.001753 0.000000 0.030407 0.000000
# 6 0.000000 0.000000 0.000000 0.082861 0.000000 0.190699
#
#
# Mechanical properties :
#
#
# Convention : Reuss Voigt Hill
#
# Bulk Modulus (GPa) = 24.76029 46.95952 35.85990
# Shear Modulus (GPa) = 11.64741 23.64255 17.64498
#
# Velocity S-wave (km/s) = 2.33903 3.33249 2.87893
# Velocity P-wave (km/s) = 4.35032 6.07168 5.28160
#
# Compressibility (1/GPa) = 0.04038725
#
# Stress axis : x y z
#
# Youngs Moduli (GPa) = 128.57699 54.00950 24.80839
#
# Poissons Ratio (x) = 0.21039 0.13853
# Poissons Ratio (y) = 0.50087 0.09000
# Poissons Ratio (z) = 0.71797 0.19593
#
# Static dielectric constant tensor:
#      x y z
#    x 4.362720 0.000000 -0.110090 
#    y 0.000000 3.533630 0.000000 
#    z -0.110090 0.000000 3.607780 
# 
# 
# High freq. dielectric constant tensor:
#      x y z
#    x 1.860730 0.000000 -0.000260 
#    y 0.000000 1.802760 0.000000 
#    z -0.000260 0.000000 1.802810 
# 
# From -- ./inp_files/216383.got.cif
#   From: 2010.06.25/outbox.cif.g09.slc.cpg/sg12_109_cif.got.tgz:216383.got - 2010.06.28 00:19:55.
