data_PCOD8093115
_publ_section_title
;
Structure prediction by ZEFSAII (Michael W. Deem and Ramdas Pophale) SiO2 
 PCOD8093115
Probable space group: C 2/M
;
_chemical_formula_sum "Si O2"
_cell_formula_units_Z 64
_cell_length_a 23.390366
_cell_length_b 19.193024
_cell_length_c 19.473280
_cell_angle_alpha 90.000000
_cell_angle_beta 22.547581
_cell_angle_gamma 90.000000
_cell_volume 3352.191932
_symmetry_space_group_name_H-M "C 2/M"
_symmetry_group_IT_number 12
_symmetry_cell_setting 'monoclinic'
loop_
_space_group_symop_operation_xyz
x,y,z
-x,y,-z
-x,-y,-z
x,-y,z
1/2+x,1/2+y,z
1/2-x,1/2+y,-z
1/2-x,1/2-y,-z
1/2+x,1/2-y,z
loop_
_atom_site_type_symbol
_atom_site_label
_atom_site_fract_x
_atom_site_fract_y
_atom_site_fract_z
Si Si1 0.268187 0.346615 0.925802
Si Si2 0.657959 0.080623 0.495774
Si Si3 0.450972 0.676859 0.478341
Si Si4 0.523158 0.168338 0.399711
Si Si5 0.982293 0.579110 0.204480
Si Si6 0.669660 0.302609 0.996548
Si Si7 0.376314 0.164395 0.193283
Si Si8 0.927323 0.176023 0.152859
O O1 0.421358 0.351893 0.713668
O O2 0.317110 0.351182 0.951062
O O3 0.168865 0.277646 0.021636
O O4 0.155888 0.408963 0.031621
O O5 0.515527 0.111277 0.614107
O O6 0.627543 0.092213 0.609666
O O7 0.800457 0.121200 0.310731
O O8 0.677782 0.000000 0.455596
O O9 0.500000 0.656301 0.500000
O O10 0.429629 0.760213 0.494017
O O11 0.291232 0.639996 0.640977
O O12 0.500000 0.134933 0.500000
O O13 0.694681 0.187776 0.205372
O O14 0.969102 0.500000 0.193155
O O15 0.924940 0.630375 0.210000
O O16 0.529858 0.324608 0.106517
O O17 0.365388 0.246883 0.212720
O O18 0.500000 0.142448 0.000000
O O19 0.000000 0.151904 0.000000
#
# Coordination Sequence:
#
# PCOD8093115 Si02
#       8
#     8   8   8   8   8   8   8   8
#     4  10  20  37  59  89 118 155 201 254 305 362
#     4  11  24  41  58  86 127 167 205 250 309 367
#     4  10  21  35  62  95 122 149 195 258 307 354
#     4  10  19  35  59  86 120 155 198 250 295 360
#     4  11  24  43  63  88 127 167 204 251 311 375
#     4  10  20  34  59  90 117 149 205 254 306 354
#     4  11  23  39  65  95 124 162 204 254 313 367
#     4  11  23  38  62  92 124 163 208 264 305 362
#
# _framework density 19.091985000000001
#
# number of rings (size 3 to 8) (size 9 to 14) (size 15 to 20)
#    0.000    1.500    3.750    1.500    8.750    1.250 
#    0.000    1.875    0.000    1.500    0.000    0.000 
#    0.000    0.000    0.000    0.000    0.000    0.000 
#
# Total GULP energy -396770.683815 kJ/mol
# GULP energy per Si atom -12399.083869 kJ/mol
# Density = 1.904853 g / cm^3
# Si number density = 19.091985 Si / 1000 Ang^3
#
#
#
# Elastic Constant Matrix: (Units=GPa)
#
#
# Indices 1 2 3 4 5 6 
#
# 1 83.6252 -0.0174 28.5537 -0.0057 8.8080 0.0024
# 2 -0.0174 36.4792 23.6088 -0.0090 12.9630 0.0042
# 3 28.5537 23.6088 97.4882 -0.0084 2.6377 0.0026
# 4 -0.0057 -0.0090 -0.0084 19.9723 0.0048 1.9581
# 5 8.8080 12.9630 2.6377 0.0048 32.9488 -0.0018
# 6 0.0024 0.0042 0.0026 1.9581 -0.0018 10.0833
#
#
#
# Elastic Compliance Matrix: (Units=1/GPa)
#
#
# Indices 1 2 3 4 5 6 
#
# 1 0.014385 0.005472 -0.005388 0.000006 -0.005567 -0.000007
# 2 0.005472 0.040334 -0.010925 0.000021 -0.016457 -0.000022
# 3 -0.005388 -0.010925 0.014357 -0.000002 0.004589 0.000003
# 4 0.000006 0.000021 -0.000002 0.051041 -0.000018 -0.009912
# 5 -0.005567 -0.016457 0.004589 -0.000018 0.037946 0.000017
# 6 -0.000007 -0.000022 0.000003 -0.009912 0.000017 0.101099
#
#
# Mechanical properties :
#
#
# Convention : Reuss Voigt Hill
#
# Bulk Modulus (GPa) = 21.09936 35.76476 28.43206
# Shear Modulus (GPa) = 16.85529 23.63072 20.24301
#
# Velocity S-wave (km/s) = 2.97450 3.52196 3.25974
# Velocity P-wave (km/s) = 4.78249 5.94243 5.39373
#
# Compressibility (1/GPa) = 0.04739480
#
# Stress axis : x y z
#
# Youngs Moduli (GPa) = 69.51525 24.79285 69.65066
#
# Poissons Ratio (x) = -0.13567 0.37527
# Poissons Ratio (y) = -0.38040 0.76095
# Poissons Ratio (z) = 0.37454 0.27087
#
# Static dielectric constant tensor:
#      x y z
#    x 3.592940 -0.000010 0.058190 
#    y -0.000010 3.219330 0.000020 
#    z 0.058190 0.000020 3.587380 
# 
# 
# High freq. dielectric constant tensor:
#      x y z
#    x 1.757570 0.000000 0.004950 
#    y 0.000000 1.706630 0.000000 
#    z 0.004950 0.000000 1.753430 
# 
# From -- ./inp_files/326080.got.cif
#   From: 2010.06.25/outbox.cif.g09.slc.cpg/sg12_164_cif.got.tgz:326080.got - 2010.06.28 00:19:55.
