data_PCOD8093685
_publ_section_title
;
Structure prediction by ZEFSAII (Michael W. Deem and Ramdas Pophale) SiO2 
 PCOD8093685
Probable space group: C 2/M
;
_chemical_formula_sum "Si O2"
_cell_formula_units_Z 44
_cell_length_a 21.345130
_cell_length_b 17.320177
_cell_length_c 17.800323
_cell_angle_alpha 90.000000
_cell_angle_beta 160.238609
_cell_angle_gamma 90.000000
_cell_volume 2224.995308
_symmetry_space_group_name_H-M "C 2/M"
_symmetry_group_IT_number 12
_symmetry_cell_setting 'monoclinic'
loop_
_space_group_symop_operation_xyz
x,y,z
-x,y,-z
-x,-y,-z
x,-y,z
1/2+x,1/2+y,z
1/2-x,1/2+y,-z
1/2-x,1/2-y,-z
1/2+x,1/2-y,z
loop_
_atom_site_type_symbol
_atom_site_label
_atom_site_fract_x
_atom_site_fract_y
_atom_site_fract_z
Si Si1 0.343450 0.086739 0.173615
Si Si2 0.105919 0.358520 0.346843
Si Si3 0.511234 0.689707 0.809906
Si Si4 0.500000 0.843968 0.500000
Si Si5 0.168634 0.743945 0.134435
Si Si6 0.586902 0.915736 0.016192
O O1 0.512025 0.090357 0.305151
O O2 0.415220 0.104927 0.338401
O O3 0.266265 0.000000 0.088118
O O4 0.176252 0.141968 0.955564
O O5 0.326924 0.362093 0.605195
O O6 0.031563 0.271303 0.277701
O O7 0.065349 0.392678 0.218454
O O8 0.585396 0.703118 0.976328
O O9 0.347426 0.788242 0.367879
O O10 0.230637 0.656736 0.178457
O O11 0.000000 0.732504 0.000000
O O12 0.676335 0.000000 0.096436
O O13 0.500000 0.924213 0.000000
#
# Coordination Sequence:
#
# PCOD8093685 Si02
#       6
#     8   8   8   4   8   8
#     4  11  22  35  54  81 112 141 174 218 266 314
#     4  10  19  36  59  78 104 144 180 215 263 316
#     4   9  20  35  55  81 106 138 182 221 255 311
#     4  10  21  36  53  76 106 142 180 216 255 306
#     4   9  17  33  55  76 102 138 177 214 257 312
#     4   9  18  33  53  78 106 133 168 219 271 314
#
# _framework density 19.775324000000001
#
# number of rings (size 3 to 8) (size 9 to 14) (size 15 to 20)
#    0.000    2.364    0.000    2.455    0.000    2.909 
#    0.000    0.455    0.000   10.364    0.000    0.000 
#    0.000    0.000    0.000    0.000    0.000    0.000 
#
# Total GULP energy -272561.444314 kJ/mol
# GULP energy per Si atom -12389.156560 kJ/mol
# Density = 1.973031 g / cm^3
# Si number density = 19.775324 Si / 1000 Ang^3
#
#
#
# Elastic Constant Matrix: (Units=GPa)
#
#
# Indices 1 2 3 4 5 6 
#
# 1 70.6122 29.3332 25.7607 0.0022 1.3784 -0.0006
# 2 29.3332 115.5590 36.0659 0.0209 1.9980 0.0191
# 3 25.7607 36.0659 68.6296 0.0197 11.5441 0.0210
# 4 0.0022 0.0209 0.0197 25.4283 0.0131 25.5291
# 5 1.3784 1.9980 11.5441 0.0131 21.6442 0.0138
# 6 -0.0006 0.0191 0.0210 25.5291 0.0138 61.6636
#
#
#
# Elastic Compliance Matrix: (Units=1/GPa)
#
#
# Indices 1 2 3 4 5 6 
#
# 1 0.017214 -0.002730 -0.005366 0.000003 0.002018 0.000001
# 2 -0.002730 0.010875 -0.004999 -0.000006 0.001836 0.000001
# 3 -0.005366 -0.004999 0.020958 -0.000005 -0.010375 -0.000001
# 4 0.000003 -0.000006 -0.000005 0.067299 -0.000020 -0.027862
# 5 0.002018 0.001836 -0.010375 -0.000020 0.051437 0.000000
# 6 0.000001 0.000001 -0.000001 -0.027862 0.000000 0.027752
#
#
# Mechanical properties :
#
#
# Convention : Reuss Voigt Hill
#
# Bulk Modulus (GPa) = 43.75206 48.56894 46.16050
# Shear Modulus (GPa) = 21.80130 32.65662 27.22896
#
# Velocity S-wave (km/s) = 3.32392 4.06813 3.71471
# Velocity P-wave (km/s) = 6.07485 6.83227 6.46466
#
# Compressibility (1/GPa) = 0.02285607
#
# Stress axis : x y z
#
# Youngs Moduli (GPa) = 58.09168 91.95406 47.71536
#
# Poissons Ratio (x) = 0.25100 0.25606
# Poissons Ratio (y) = 0.15857 0.23854
# Poissons Ratio (z) = 0.31175 0.45970
#
# Static dielectric constant tensor:
#      x y z
#    x 4.107140 0.000010 0.480180 
#    y 0.000010 4.031550 0.000000 
#    z 0.480180 0.000000 3.929590 
# 
# 
# High freq. dielectric constant tensor:
#      x y z
#    x 1.758850 0.000000 -0.012050 
#    y 0.000000 1.783890 0.000000 
#    z -0.012050 0.000000 1.753720 
# 
# From -- ./inp_files/285444.got.cif
#   From: 2010.06.25/outbox.cif.g09.slc.cpg/sg12_143_cif.got.tgz:285444.got - 2010.06.28 00:19:55.
