data_PCOD8093612
_publ_section_title
;
Structure prediction by ZEFSAII (Michael W. Deem and Ramdas Pophale) SiO2 
 PCOD8093612
Probable space group: C 2/M
;
_chemical_formula_sum "Si O2"
_cell_formula_units_Z 56
_cell_length_a 19.136337
_cell_length_b 8.526624
_cell_length_c 25.044815
_cell_angle_alpha 90.000000
_cell_angle_beta 45.379212
_cell_angle_gamma 90.000000
_cell_volume 2908.668244
_symmetry_space_group_name_H-M "C 2/M"
_symmetry_group_IT_number 12
_symmetry_cell_setting 'monoclinic'
loop_
_space_group_symop_operation_xyz
x,y,z
-x,y,-z
-x,-y,-z
x,-y,z
1/2+x,1/2+y,z
1/2-x,1/2+y,-z
1/2-x,1/2-y,-z
1/2+x,1/2-y,z
loop_
_atom_site_type_symbol
_atom_site_label
_atom_site_fract_x
_atom_site_fract_y
_atom_site_fract_z
Si Si1 0.546439 0.170739 0.322254
Si Si2 0.744085 0.314195 0.762857
Si Si3 0.560796 0.171708 0.189978
Si Si4 0.336854 0.187433 0.417552
Si Si5 0.859567 0.815465 0.289663
Si Si6 0.108598 0.184092 0.931308
Si Si7 0.246926 0.680553 0.943510
O O1 0.646036 0.260847 0.287402
O O2 0.546453 0.147056 0.259527
O O3 0.439683 0.252717 0.389119
O O4 0.546369 0.000000 0.350637
O O5 0.751075 0.500000 0.769240
O O6 0.714683 0.272551 0.718330
O O7 0.665194 0.245748 0.848469
O O8 0.462027 0.238729 0.216944
O O9 0.644626 0.299816 0.137656
O O10 0.585554 0.000000 0.151083
O O11 0.250000 0.250000 0.500000
O O12 0.319146 0.248078 0.366927
O O13 0.338985 0.000000 0.415295
O O14 0.873842 0.000000 0.287813
O O15 0.170702 0.219060 0.950466
O O16 0.097650 0.000000 0.928927
O O17 0.000000 0.257548 0.000000
O O18 0.215580 0.500000 0.959533
O O19 0.250000 0.750000 0.000000
#
# Coordination Sequence:
#
# PCOD8093612 Si02
#       7
#     8   8   8   8   8   8   8
#     4   8  15  31  57  81 103 140 186 222 268 331
#     4   9  17  33  56  83 114 149 189 231 276 340
#     4  10  19  36  58  79 108 147 189 237 284 337
#     4  10  20  36  59  84 113 148 188 236 286 340
#     4  10  20  33  56  88 118 148 187 230 276 340
#     4  10  21  38  60  84 115 155 193 237 295 349
#     4  12  25  39  56  80 110 147 195 248 298 348
#
# _framework density 19.252797999999999
#
# number of rings (size 3 to 8) (size 9 to 14) (size 15 to 20)
#    0.000    2.143    1.429    3.429    2.000    0.286 
#    0.000    2.143    0.000    4.286    0.000    0.000 
#    0.000    0.000    0.000    0.000    0.000    0.000 
#
# Total GULP energy -346937.826240 kJ/mol
# GULP energy per Si atom -12390.636651 kJ/mol
# Density = 1.920898 g / cm^3
# Si number density = 19.252798 Si / 1000 Ang^3
#
#
#
# Elastic Constant Matrix: (Units=GPa)
#
#
# Indices 1 2 3 4 5 6 
#
# 1 153.4930 17.5357 76.5085 0.0001 -18.0345 -0.0006
# 2 17.5357 43.4020 15.4618 0.0003 -1.6829 -0.0027
# 3 76.5085 15.4618 123.6152 0.0000 -25.3018 -0.0002
# 4 0.0001 0.0003 0.0000 22.0270 0.0000 2.3718
# 5 -18.0345 -1.6829 -25.3018 0.0000 30.9406 0.0000
# 6 -0.0006 -0.0027 -0.0002 2.3718 0.0000 23.9614
#
#
#
# Elastic Compliance Matrix: (Units=1/GPa)
#
#
# Indices 1 2 3 4 5 6 
#
# 1 0.009585 -0.001877 -0.005494 0.000000 0.000991 0.000000
# 2 -0.001877 0.024532 -0.002231 -0.000001 -0.001584 0.000003
# 3 -0.005494 -0.002231 0.013318 0.000000 0.007567 0.000000
# 4 0.000000 -0.000001 0.000000 0.045888 0.000000 -0.004542
# 5 0.000991 -0.001584 0.007567 0.000000 0.039000 0.000000
# 6 0.000000 0.000003 0.000000 -0.004542 0.000000 0.042183
#
#
# Mechanical properties :
#
#
# Convention : Reuss Voigt Hill
#
# Bulk Modulus (GPa) = 35.42302 59.94691 47.68497
# Shear Modulus (GPa) = 24.61592 29.45272 27.03432
#
# Velocity S-wave (km/s) = 3.57958 3.91550 3.75130
# Velocity P-wave (km/s) = 5.96015 7.18650 6.60186
#
# Compressibility (1/GPa) = 0.02823023
#
# Stress axis : x y z
#
# Youngs Moduli (GPa) = 104.33466 40.76296 75.08518
#
# Poissons Ratio (x) = 0.07650 0.41255
# Poissons Ratio (y) = 0.19580 0.16753
# Poissons Ratio (z) = 0.57326 0.09095
#
# Static dielectric constant tensor:
#      x y z
#    x 3.607020 0.000000 -0.169900 
#    y 0.000000 3.465240 0.000000 
#    z -0.169900 0.000000 3.403920 
# 
# 
# High freq. dielectric constant tensor:
#      x y z
#    x 1.755820 0.000000 -0.015360 
#    y 0.000000 1.722740 0.000000 
#    z -0.015360 0.000000 1.742080 
# 
# From -- ./inp_files/342201.got.cif
#   From: 2010.06.25/outbox.cif.g09.slc.cpg/sg12_172_cif.got.tgz:342201.got - 2010.06.28 00:19:55.
