data_PCOD8093218
_publ_section_title
;
Structure prediction by ZEFSAII (Michael W. Deem and Ramdas Pophale) SiO2 
 PCOD8093218
Probable space group: C 2/M
;
_chemical_formula_sum "Si O2"
_cell_formula_units_Z 48
_cell_length_a 13.621022
_cell_length_b 18.267114
_cell_length_c 12.156804
_cell_angle_alpha 90.000000
_cell_angle_beta 50.220802
_cell_angle_gamma 90.000000
_cell_volume 2324.619574
_symmetry_space_group_name_H-M "C 2/M"
_symmetry_group_IT_number 12
_symmetry_cell_setting 'monoclinic'
loop_
_space_group_symop_operation_xyz
x,y,z
-x,y,-z
-x,-y,-z
x,-y,z
1/2+x,1/2+y,z
1/2-x,1/2+y,-z
1/2-x,1/2-y,-z
1/2+x,1/2-y,z
loop_
_atom_site_type_symbol
_atom_site_label
_atom_site_fract_x
_atom_site_fract_y
_atom_site_fract_z
Si Si1 0.014567 0.864336 0.114283
Si Si2 0.198913 0.140699 0.567110
Si Si3 0.361456 0.417044 0.610645
Si Si4 0.943826 0.280662 0.423363
Si Si5 0.611396 0.214742 0.101347
Si Si6 0.754221 0.414291 0.082878
O O1 0.019429 0.774930 0.109736
O O2 0.890345 0.891654 0.271966
O O3 0.139694 0.900551 0.078648
O O4 0.000000 0.892594 0.000000
O O5 0.212799 0.087099 0.451853
O O6 0.133799 0.213299 0.568364
O O7 0.342151 0.153014 0.508852
O O8 0.500000 0.378139 0.500000
O O9 0.383683 0.500000 0.630907
O O10 0.286133 0.382768 0.767948
O O11 0.000000 0.260501 0.500000
O O12 0.060968 0.301644 0.260032
O O13 0.621374 0.135145 0.035678
O O14 0.750000 0.250000 0.000000
O O15 0.793117 0.500000 0.054752
#
# Coordination Sequence:
#
# PCOD8093218 Si02
#       6
#     8   8   8   8   8   8
#     4  10  21  35  57  90 122 152 193 244 301 356
#     4  10  21  35  58  89 116 150 190 245 292 348
#     4  10  19  35  60  86 116 148 191 245 292 345
#     4  10  22  36  59  85 117 155 193 239 295 350
#     4   9  21  37  55  83 115 157 193 242 289 351
#     4  10  21  37  61  87 116 159 199 244 299 346
#
# _framework density 20.648540000000001
#
# number of rings (size 3 to 8) (size 9 to 14) (size 15 to 20)
#    0.000    2.167    1.667    0.500    9.333    3.000 
#    0.000    0.833    0.000    3.500    0.000    0.000 
#    0.000    0.000    0.000    0.000    0.000    0.000 
#
# Total GULP energy -297432.324598 kJ/mol
# GULP energy per Si atom -12393.013525 kJ/mol
# Density = 2.060154 g / cm^3
# Si number density = 20.648540 Si / 1000 Ang^3
#
#
#
# Elastic Constant Matrix: (Units=GPa)
#
#
# Indices 1 2 3 4 5 6 
#
# 1 63.0948 -1.8588 38.6727 0.0000 16.8666 0.0000
# 2 -1.8588 68.4357 28.9659 0.0000 1.8701 0.0000
# 3 38.6727 28.9659 155.8381 0.0000 21.7621 0.0000
# 4 0.0000 0.0000 0.0000 18.4530 0.0000 5.8238
# 5 16.8666 1.8701 21.7621 0.0000 39.5006 0.0000
# 6 0.0000 0.0000 0.0000 5.8238 0.0000 18.4524
#
#
#
# Elastic Compliance Matrix: (Units=1/GPa)
#
#
# Indices 1 2 3 4 5 6 
#
# 1 0.020500 0.002725 -0.004716 0.000000 -0.006284 0.000000
# 2 0.002725 0.016255 -0.003713 0.000000 0.000113 0.000000
# 3 -0.004716 -0.003713 0.008636 0.000000 -0.002568 0.000000
# 4 0.000000 0.000000 0.000000 0.060187 0.000000 -0.018996
# 5 -0.006284 0.000113 -0.002568 0.000000 0.029409 0.000000
# 6 0.000000 0.000000 0.000000 -0.018996 0.000000 0.060189
#
#
# Mechanical properties :
#
#
# Convention : Reuss Voigt Hill
#
# Bulk Modulus (GPa) = 29.42775 46.54759 37.98767
# Shear Modulus (GPa) = 22.94499 30.05377 26.49938
#
# Velocity S-wave (km/s) = 3.33711 3.81923 3.58628
# Velocity P-wave (km/s) = 5.39732 6.48386 5.96538
#
# Compressibility (1/GPa) = 0.03398154
#
# Stress axis : x y z
#
# Youngs Moduli (GPa) = 48.78053 61.52014 115.79278
#
# Poissons Ratio (x) = -0.16762 0.54610
# Poissons Ratio (y) = -0.13291 0.42996
# Poissons Ratio (z) = 0.23006 0.22844
#
# Static dielectric constant tensor:
#      x y z
#    x 3.542030 0.000000 -0.038820 
#    y 0.000000 3.799190 0.000000 
#    z -0.038820 0.000000 4.153290 
# 
# 
# High freq. dielectric constant tensor:
#      x y z
#    x 1.778680 0.000000 0.009410 
#    y 0.000000 1.783820 0.000000 
#    z 0.009410 0.000000 1.823110 
# 
# From -- ./inp_files/146922.got.cif
#   From: 2010.06.25/outbox.cif.g09.slc.cpg/sg12_74_cif.got.tgz:146922.got - 2010.06.28 00:19:55.
