data_PCOD8093297
_publ_section_title
;
Structure prediction by ZEFSAII (Michael W. Deem and Ramdas Pophale) SiO2 
 PCOD8093297
Probable space group: C 2/M
;
_chemical_formula_sum "Si O2"
_cell_formula_units_Z 48
_cell_length_a 12.137354
_cell_length_b 14.356007
_cell_length_c 15.776705
_cell_angle_alpha 90.000000
_cell_angle_beta 60.755411
_cell_angle_gamma 90.000000
_cell_volume 2398.614198
_symmetry_space_group_name_H-M "C 2/M"
_symmetry_group_IT_number 12
_symmetry_cell_setting 'monoclinic'
loop_
_space_group_symop_operation_xyz
x,y,z
-x,y,-z
-x,-y,-z
x,-y,z
1/2+x,1/2+y,z
1/2-x,1/2+y,-z
1/2-x,1/2-y,-z
1/2+x,1/2-y,z
loop_
_atom_site_type_symbol
_atom_site_label
_atom_site_fract_x
_atom_site_fract_y
_atom_site_fract_z
Si Si1 0.436736 0.249680 0.113544
Si Si2 0.645502 0.647653 0.456345
Si Si3 0.264590 0.395588 0.754400
Si Si4 0.541206 0.744814 0.247052
Si Si5 0.278591 0.670290 0.394628
Si Si6 0.768846 0.394171 0.767780
O O1 0.358534 0.157934 0.167507
O O2 0.546454 0.260621 0.142637
O O3 0.347208 0.340637 0.143948
O O4 0.500000 0.234349 0.000000
O O5 0.500000 0.619778 0.500000
O O6 0.727368 0.601508 0.350828
O O7 0.696504 0.611307 0.528814
O O8 0.659704 0.760149 0.449726
O O9 0.258961 0.500000 0.792543
O O10 0.388508 0.344956 0.742652
O O11 0.397021 0.738662 0.331258
O O12 0.601850 0.840939 0.257753
O O13 0.252036 0.602601 0.325846
O O14 0.775286 0.500000 0.799107
#
# Coordination Sequence:
#
# PCOD8093297 Si02
#       6
#     8   8   8   8   8   8
#     4  10  23  44  64  84 116 157 196 244 303 355
#     4  11  19  35  60  89 121 160 201 238 288 342
#     4  11  23  38  59  92 120 152 201 245 291 347
#     4  10  19  41  59  84 117 159 190 247 294 350
#     4  10  19  35  61  84 123 165 198 233 290 348
#     4  10  21  37  60  91 120 153 197 244 294 349
#
# _framework density 20.011555999999999
#
# number of rings (size 3 to 8) (size 9 to 14) (size 15 to 20)
#    0.000    1.667    6.667    0.000    0.000    7.667 
#    0.000    1.667    0.000    4.500    0.000    0.000 
#    0.000    0.000    0.000    0.000    0.000    0.000 
#
# Total GULP energy -297551.145950 kJ/mol
# GULP energy per Si atom -12397.964415 kJ/mol
# Density = 1.996601 g / cm^3
# Si number density = 20.011556 Si / 1000 Ang^3
#
#
#
# Elastic Constant Matrix: (Units=GPa)
#
#
# Indices 1 2 3 4 5 6 
#
# 1 76.7343 30.9422 28.8897 0.0000 12.7279 0.0000
# 2 30.9422 140.0140 24.5730 0.0000 -0.4552 0.0000
# 3 28.8897 24.5730 135.7176 0.0000 18.2411 0.0000
# 4 0.0000 0.0000 0.0000 8.5696 0.0000 3.1391
# 5 12.7279 -0.4552 18.2411 0.0000 26.0894 0.0000
# 6 0.0000 0.0000 0.0000 3.1391 0.0000 5.6952
#
#
#
# Elastic Compliance Matrix: (Units=1/GPa)
#
#
# Indices 1 2 3 4 5 6 
#
# 1 0.016174 -0.003250 -0.001972 0.000000 -0.006569 0.000000
# 2 -0.003250 0.008062 -0.001104 0.000000 0.002498 0.000000
# 3 -0.001972 -0.001104 0.008676 0.000000 -0.005124 0.000000
# 4 0.000000 0.000000 0.000000 0.146212 0.000000 -0.080588
# 5 -0.006569 0.002498 -0.005124 0.000000 0.045160 0.000000
# 6 0.000000 0.000000 0.000000 -0.080588 0.000000 0.220004
#
#
# Mechanical properties :
#
#
# Convention : Reuss Voigt Hill
#
# Bulk Modulus (GPa) = 49.35183 57.91952 53.63567
# Shear Modulus (GPa) = 10.78299 25.94157 18.36228
#
# Velocity S-wave (km/s) = 2.32381 3.60436 3.03245
# Velocity P-wave (km/s) = 5.64936 6.80645 6.25472
#
# Compressibility (1/GPa) = 0.02026268
#
# Stress axis : x y z
#
# Youngs Moduli (GPa) = 61.82654 124.03665 115.25486
#
# Poissons Ratio (x) = 0.40309 0.22725
# Poissons Ratio (y) = 0.20092 0.12720
# Poissons Ratio (z) = 0.12190 0.13690
#
# Static dielectric constant tensor:
#      x y z
#    x 3.815630 0.000000 0.236110 
#    y 0.000000 3.312870 0.000000 
#    z 0.236110 0.000000 3.584390 
# 
# 
# High freq. dielectric constant tensor:
#      x y z
#    x 1.787470 0.000000 0.011620 
#    y 0.000000 1.757280 0.000000 
#    z 0.011620 0.000000 1.772360 
# 
# From -- ./inp_files/204860.got.cif
#   From: 2010.06.25/outbox.cif.g09.slc.cpg/sg12_103_cif.got.tgz:204860.got - 2010.06.28 00:19:55.
