data_PCOD8093423
_publ_section_title
;
Structure prediction by ZEFSAII (Michael W. Deem and Ramdas Pophale) SiO2 
 PCOD8093423
Probable space group: C 2/M
;
_chemical_formula_sum "Si O2"
_cell_formula_units_Z 40
_cell_length_a 17.962345
_cell_length_b 16.624565
_cell_length_c 9.140538
_cell_angle_alpha 90.000000
_cell_angle_beta 136.143980
_cell_angle_gamma 90.000000
_cell_volume 1891.138706
_symmetry_space_group_name_H-M "C 2/M"
_symmetry_group_IT_number 12
_symmetry_cell_setting 'monoclinic'
loop_
_space_group_symop_operation_xyz
x,y,z
-x,y,-z
-x,-y,-z
x,-y,z
1/2+x,1/2+y,z
1/2-x,1/2+y,-z
1/2-x,1/2-y,-z
1/2+x,1/2-y,z
loop_
_atom_site_type_symbol
_atom_site_label
_atom_site_fract_x
_atom_site_fract_y
_atom_site_fract_z
Si Si1 0.037748 0.198233 0.817478
Si Si2 0.598978 0.840669 0.728878
Si Si3 0.209109 0.092143 0.171020
Si Si4 0.098721 0.353368 0.049996
Si Si5 0.295180 0.664486 0.523428
O O1 0.078302 0.244910 0.728576
O O2 0.912762 0.177083 0.622588
O O3 0.097493 0.114234 0.932979
O O4 0.068746 0.257663 0.997317
O O5 0.500000 0.878642 0.500000
O O6 0.703255 0.849257 0.776861
O O7 0.606663 0.888004 0.895288
O O8 0.202057 0.105229 0.334408
O O9 0.236971 0.000000 0.177820
O O10 0.212562 0.372151 0.287589
O O11 0.000000 0.394507 0.000000
O O12 0.250000 0.750000 0.500000
#
# Coordination Sequence:
#
# PCOD8093423 Si02
#       5
#     8   8   8   8   8
#     4  10  22  36  64  94 121 164 211 261 302 367
#     4  10  22  40  65  96 124 164 216 265 309 366
#     4  12  25  41  62  95 136 168 201 256 327 384
#     4  10  19  35  64  95 118 155 209 268 305 350
#     4  12  19  38  65  94 124 161 217 262 304 369
#
# _framework density 21.151278000000001
#
# number of rings (size 3 to 8) (size 9 to 14) (size 15 to 20)
#    1.200    0.000    4.000    3.600    0.000    2.000 
#    0.000    1.000    0.000    6.600    0.000    0.000 
#    0.000    0.000    0.000    0.000    0.000    0.000 
#
# Total GULP energy -247846.466005 kJ/mol
# GULP energy per Si atom -12392.323300 kJ/mol
# Density = 2.110314 g / cm^3
# Si number density = 21.151278 Si / 1000 Ang^3
#
#
#
# Elastic Constant Matrix: (Units=GPa)
#
#
# Indices 1 2 3 4 5 6 
#
# 1 101.7909 38.6655 59.6971 0.0000 17.0340 0.0000
# 2 38.6655 60.2620 32.5056 0.0000 1.7110 0.0000
# 3 59.6971 32.5056 160.7983 0.0000 25.6913 0.0000
# 4 0.0000 0.0000 0.0000 11.8139 0.0000 -6.8231
# 5 17.0340 1.7110 25.6913 0.0000 43.2188 0.0000
# 6 0.0000 0.0000 0.0000 -6.8231 0.0000 8.7729
#
#
#
# Elastic Compliance Matrix: (Units=1/GPa)
#
#
# Indices 1 2 3 4 5 6 
#
# 1 0.015560 -0.007948 -0.003581 0.000000 -0.003690 0.000000
# 2 -0.007948 0.022793 -0.002225 0.000000 0.003553 0.000000
# 3 -0.003581 -0.002225 0.008573 0.000000 -0.003597 0.000000
# 4 0.000000 0.000000 0.000000 0.153675 0.000000 0.119521
# 5 -0.003690 0.003553 -0.003597 0.000000 0.026590 0.000000
# 6 0.000000 0.000000 0.000000 0.119521 0.000000 0.206945
#
#
# Mechanical properties :
#
#
# Convention : Reuss Voigt Hill
#
# Bulk Modulus (GPa) = 51.49371 64.95418 58.22394
# Shear Modulus (GPa) = 10.68115 25.55997 18.12056
#
# Velocity S-wave (km/s) = 2.24963 3.48003 2.93014
# Velocity P-wave (km/s) = 5.58087 6.85007 6.24778
#
# Compressibility (1/GPa) = 0.01941985
#
# Stress axis : x y z
#
# Youngs Moduli (GPa) = 64.26544 43.87363 116.64966
#
# Poissons Ratio (x) = 0.34870 0.41769
# Poissons Ratio (y) = 0.51077 0.25949
# Poissons Ratio (z) = 0.23012 0.09760
#
# Static dielectric constant tensor:
#      x y z
#    x 3.099190 0.000000 -0.995780 
#    y 0.000000 3.154410 0.000000 
#    z -0.995780 0.000000 2.541890 
# 
# 
# High freq. dielectric constant tensor:
#      x y z
#    x 1.835140 0.000000 0.004430 
#    y 0.000000 1.766750 0.000000 
#    z 0.004430 0.000000 1.843700 
# 
# From -- ./inp_files/75516.got.cif
#   From: 2010.06.25/outbox.cif.g09.slc.cpg/sg12_38_cif.got.tgz:75516.got - 2010.06.28 00:19:55.
