data_PCOD8093911
_publ_section_title
;
Structure prediction by ZEFSAII (Michael W. Deem and Ramdas Pophale) SiO2 
 PCOD8093911
Probable space group: C 2/M
;
_chemical_formula_sum "Si O2"
_cell_formula_units_Z 56
_cell_length_a 19.462226
_cell_length_b 29.940082
_cell_length_c 8.867609
_cell_angle_alpha 90.000000
_cell_angle_beta 32.832122
_cell_angle_gamma 90.000000
_cell_volume 2801.528376
_symmetry_space_group_name_H-M "C 2/M"
_symmetry_group_IT_number 12
_symmetry_cell_setting 'monoclinic'
loop_
_space_group_symop_operation_xyz
x,y,z
-x,y,-z
-x,-y,-z
x,-y,z
1/2+x,1/2+y,z
1/2-x,1/2+y,-z
1/2-x,1/2-y,-z
1/2+x,1/2-y,z
loop_
_atom_site_type_symbol
_atom_site_label
_atom_site_fract_x
_atom_site_fract_y
_atom_site_fract_z
Si Si1 0.636915 0.904314 0.315930
Si Si2 0.726841 0.733447 0.374551
Si Si3 0.357340 0.151731 0.204850
Si Si4 0.862520 0.500000 0.679461
Si Si5 0.478763 0.327733 0.366441
Si Si6 0.760714 0.169762 0.266883
Si Si7 0.636147 0.500000 0.332171
Si Si8 0.287071 0.406923 0.736517
O O1 0.500000 0.898605 0.500000
O O2 0.648515 0.952161 0.387032
O O3 0.655689 0.862691 0.389921
O O4 0.739983 0.903802 0.994060
O O5 0.750000 0.750000 0.500000
O O6 0.833941 0.695326 0.139011
O O7 0.588005 0.713057 0.599040
O O8 0.738476 0.778788 0.255177
O O9 0.253821 0.160568 0.527878
O O10 0.325456 0.105930 0.174231
O O11 0.500000 0.149935 0.000000
O O12 0.000000 0.500000 0.500000
O O13 0.752503 0.500000 0.004309
O O14 0.500000 0.312641 0.500000
O O15 0.397749 0.372118 0.510829
O O16 0.602010 0.342728 0.047171
O O17 0.500000 0.500000 0.500000
O O18 0.654044 0.456012 0.403834
#
# Coordination Sequence:
#
# PCOD8093911 Si02
#       8
#     8   8   8   4   8   8   4   8
#     4  10  19  36  60  88 122 153 202 251 302 364
#     4   9  23  38  58  84 115 163 206 243 304 370
#     4  10  22  41  61  84 120 162 209 249 299 366
#     4   8  18  34  57  88 117 157 198 244 299 367
#     4  11  22  40  60  88 127 151 209 259 303 363
#     4  11  23  37  62  87 115 166 199 249 312 353
#     4  10  20  34  66  91 120 164 201 241 313 381
#     4  10  21  39  59  91 121 159 200 251 305 363
#
# _framework density 19.989090000000001
#
# number of rings (size 3 to 8) (size 9 to 14) (size 15 to 20)
#    0.000    2.000    1.429    1.286    6.000    5.714 
#    0.000    1.071    0.000    0.857    0.000    0.000 
#    0.000    0.000    0.000    0.000    0.000    0.000 
#
# Total GULP energy -346867.601036 kJ/mol
# GULP energy per Si atom -12388.128608 kJ/mol
# Density = 1.994359 g / cm^3
# Si number density = 19.989090 Si / 1000 Ang^3
#
#
#
# Elastic Constant Matrix: (Units=GPa)
#
#
# Indices 1 2 3 4 5 6 
#
# 1 89.2347 68.2047 13.2687 0.0000 -15.5028 0.0000
# 2 68.2047 189.7237 19.8568 0.0000 -15.6155 0.0000
# 3 13.2687 19.8568 71.0050 0.0000 -13.4907 -0.0001
# 4 0.0000 0.0000 0.0000 21.3041 0.0000 -0.3161
# 5 -15.5028 -15.6155 -13.4907 0.0000 30.7292 0.0000
# 6 0.0000 0.0000 -0.0001 -0.3161 0.0000 16.9517
#
#
#
# Elastic Compliance Matrix: (Units=1/GPa)
#
#
# Indices 1 2 3 4 5 6 
#
# 1 0.016307 -0.005373 -0.000546 0.000000 0.005257 0.000000
# 2 -0.005373 0.007351 -0.000935 0.000000 0.000614 0.000000
# 3 -0.000546 -0.000935 0.015606 0.000000 0.006101 0.000000
# 4 0.000000 0.000000 0.000000 0.046952 0.000000 0.000875
# 5 0.005257 0.000614 0.006101 0.000000 0.038185 0.000000
# 6 0.000000 0.000000 0.000000 0.000875 0.000000 0.059008
#
#
# Mechanical properties :
#
#
# Convention : Reuss Voigt Hill
#
# Bulk Modulus (GPa) = 39.12812 61.40264 50.26538
# Shear Modulus (GPa) = 24.31488 30.37253 27.34370
#
# Velocity S-wave (km/s) = 3.49149 3.90225 3.70257
# Velocity P-wave (km/s) = 5.98926 7.14760 6.59391
#
# Compressibility (1/GPa) = 0.02555706
#
# Stress axis : x y z
#
# Youngs Moduli (GPa) = 61.32210 136.04234 64.07733
#
# Poissons Ratio (x) = 0.73090 0.03499
# Poissons Ratio (y) = 0.32946 0.05991
# Poissons Ratio (z) = 0.03348 0.12719
#
# Static dielectric constant tensor:
#      x y z
#    x 3.664520 0.000000 -0.071750 
#    y 0.000000 4.622550 0.000000 
#    z -0.071750 0.000000 3.622540 
# 
# 
# High freq. dielectric constant tensor:
#      x y z
#    x 1.757890 0.000000 -0.024250 
#    y 0.000000 1.802750 0.000000 
#    z -0.024250 0.000000 1.769780 
# 
# From -- ./inp_files/91577.got.cif
#   From: 2010.06.25/outbox.cif.g09.slc.cpg/sg12_46_cif.got.tgz:91577.got - 2010.06.28 00:19:55.
