data_PCOD8093457
_publ_section_title
;
Structure prediction by ZEFSAII (Michael W. Deem and Ramdas Pophale) SiO2 
 PCOD8093457
Probable space group: C 2/M
;
_chemical_formula_sum "Si O2"
_cell_formula_units_Z 48
_cell_length_a 18.157767
_cell_length_b 15.159584
_cell_length_c 23.195237
_cell_angle_alpha 90.000000
_cell_angle_beta 23.374717
_cell_angle_gamma 90.000000
_cell_volume 2533.131124
_symmetry_space_group_name_H-M "C 2/M"
_symmetry_group_IT_number 12
_symmetry_cell_setting 'monoclinic'
loop_
_space_group_symop_operation_xyz
x,y,z
-x,y,-z
-x,-y,-z
x,-y,z
1/2+x,1/2+y,z
1/2-x,1/2+y,-z
1/2-x,1/2-y,-z
1/2+x,1/2-y,z
loop_
_atom_site_type_symbol
_atom_site_label
_atom_site_fract_x
_atom_site_fract_y
_atom_site_fract_z
Si Si1 0.857192 0.775283 0.728761
Si Si2 0.837446 0.784709 0.573908
Si Si3 0.850007 0.597558 0.204563
Si Si4 0.336699 0.401016 0.161802
Si Si5 0.994662 0.828311 0.161172
Si Si6 0.271981 0.167984 0.056671
O O1 0.705135 0.833106 0.804709
O O2 0.819352 0.672213 0.740528
O O3 0.845004 0.799471 0.804272
O O4 0.065014 0.801359 0.558069
O O5 0.738896 0.872785 0.670148
O O6 0.685122 0.708954 0.676572
O O7 0.000000 0.752092 0.500000
O O8 0.774684 0.500000 0.244677
O O9 0.074573 0.592718 0.042747
O O10 0.252853 0.500000 0.215103
O O11 0.423923 0.395185 0.163259
O O12 0.500000 0.383930 0.000000
O O13 0.127789 0.872010 0.113561
O O14 0.111270 0.751102 0.048371
#
# Coordination Sequence:
#
# PCOD8093457 Si02
#       6
#     8   8   8   8   8   8
#     4  11  19  36  55  84 114 145 188 229 272 337
#     4   9  18  33  57  78 114 140 183 225 276 335
#     4  10  20  35  57  83 111 147 184 225 277 334
#     4  11  20  34  58  83 109 144 192 237 272 322
#     4  10  19  36  53  82 106 149 183 228 283 324
#     4  10  20  33  57  77 115 143 184 231 276 325
#
# _framework density 18.948881
#
# number of rings (size 3 to 8) (size 9 to 14) (size 15 to 20)
#    0.000    1.833    6.667    0.500    0.000    5.667 
#    0.000    1.667    0.000    0.000    0.000    4.667 
#    0.000    0.000    0.000    0.000    0.000    0.000 
#
# Total GULP energy -297426.086463 kJ/mol
# GULP energy per Si atom -12392.753603 kJ/mol
# Density = 1.890575 g / cm^3
# Si number density = 18.948881 Si / 1000 Ang^3
#
#
#
# Elastic Constant Matrix: (Units=GPa)
#
#
# Indices 1 2 3 4 5 6 
#
# 1 77.3918 13.2026 39.4967 0.0256 13.6352 0.0083
# 2 13.2026 87.0775 8.9294 -0.0403 3.5511 -0.0060
# 3 39.4967 8.9294 108.2750 -0.1255 19.3157 -0.0042
# 4 0.0256 -0.0403 -0.1255 11.8885 0.0122 0.0641
# 5 13.6352 3.5511 19.3157 0.0122 25.3160 -0.0053
# 6 0.0083 -0.0060 -0.0042 0.0641 -0.0053 10.6573
#
#
#
# Elastic Compliance Matrix: (Units=1/GPa)
#
#
# Indices 1 2 3 4 5 6 
#
# 1 0.016671 -0.001810 -0.005065 -0.000090 -0.004861 -0.000018
# 2 -0.001810 0.011802 -0.000222 0.000042 -0.000511 0.000007
# 3 -0.005065 -0.000222 0.012281 0.000147 -0.006611 0.000005
# 4 -0.000090 0.000042 0.000147 0.084119 -0.000110 -0.000506
# 5 -0.004861 -0.000511 -0.006611 -0.000110 0.047235 0.000025
# 6 -0.000018 0.000007 0.000005 -0.000506 0.000025 0.093836
#
#
# Mechanical properties :
#
#
# Convention : Reuss Voigt Hill
#
# Bulk Modulus (GPa) = 37.64940 44.00018 40.82479
# Shear Modulus (GPa) = 17.30149 23.64673 20.47411
#
# Velocity S-wave (km/s) = 3.02497 3.53643 3.29065
# Velocity P-wave (km/s) = 5.66680 6.32028 6.00244
#
# Compressibility (1/GPa) = 0.02656085
#
# Stress axis : x y z
#
# Youngs Moduli (GPa) = 59.98284 84.73084 81.42466
#
# Poissons Ratio (x) = 0.15337 0.41243
# Poissons Ratio (y) = 0.10858 0.01805
# Poissons Ratio (z) = 0.30382 0.01879
#
# Static dielectric constant tensor:
#      x y z
#    x 3.508240 0.000000 0.084400 
#    y 0.000000 3.240710 0.000110 
#    z 0.084400 0.000110 3.785050 
# 
# 
# High freq. dielectric constant tensor:
#      x y z
#    x 1.718510 0.000000 0.011990 
#    y 0.000000 1.710790 0.000010 
#    z 0.011990 0.000010 1.743440 
# 
# From -- ./inp_files/366359.got.cif
#   From: 2010.06.25/outbox.cif.g09.slc.cpg/sg12_184_cif.got.tgz:366359.got - 2010.06.28 00:19:55.
