data_PCOD8093366
_publ_section_title
;
Structure prediction by ZEFSAII (Michael W. Deem and Ramdas Pophale) SiO2 
 PCOD8093366
Probable space group: C 2/M
;
_chemical_formula_sum "Si O2"
_cell_formula_units_Z 44
_cell_length_a 12.767762
_cell_length_b 15.525458
_cell_length_c 31.582931
_cell_angle_alpha 90.000000
_cell_angle_beta 159.605735
_cell_angle_gamma 90.000000
_cell_volume 2181.661066
_symmetry_space_group_name_H-M "C 2/M"
_symmetry_group_IT_number 12
_symmetry_cell_setting 'monoclinic'
loop_
_space_group_symop_operation_xyz
x,y,z
-x,y,-z
-x,-y,-z
x,-y,z
1/2+x,1/2+y,z
1/2-x,1/2+y,-z
1/2-x,1/2-y,-z
1/2+x,1/2-y,z
loop_
_atom_site_type_symbol
_atom_site_label
_atom_site_fract_x
_atom_site_fract_y
_atom_site_fract_z
Si Si1 0.851787 0.830176 0.219134
Si Si2 0.748634 0.854959 0.792850
Si Si3 0.871032 0.500000 0.765989
Si Si4 0.820311 0.176509 0.113325
Si Si5 0.210655 0.356220 0.944322
Si Si6 0.142925 0.000000 0.363764
Si Si7 0.695307 0.000000 0.359139
O O1 0.884486 0.742680 0.259190
O O2 0.947949 0.805029 0.208255
O O3 0.502819 0.857364 0.094760
O O4 0.059647 0.910756 0.309416
O O5 0.937615 0.876975 0.821855
O O6 0.464882 0.915000 0.685455
O O7 0.956373 0.878248 0.912526
O O8 0.539211 0.500000 0.661089
O O9 0.790820 0.500000 0.686386
O O10 0.075182 0.418993 0.857389
O O11 0.755883 0.263411 0.063424
O O12 0.500000 0.127780 0.000000
O O13 0.500000 0.000000 0.500000
O O14 0.000000 0.000000 0.500000
#
# Coordination Sequence:
#
# PCOD8093366 Si02
#       7
#     8   8   4   8   8   4   4
#     4  10  20  37  60  92 126 155 193 250 304 365
#     4  11  22  38  63  91 128 160 197 249 305 366
#     4  10  23  40  64  85 117 164 201 255 305 347
#     4  11  18  33  61  93 130 155 177 243 318 376
#     4  10  19  35  61  97 123 150 198 241 313 377
#     4  10  24  43  63  86 115 160 220 255 280 349
#     4  12  29  45  57  84 122 164 217 251 280 354
#
# _framework density 20.168118
#
# number of rings (size 3 to 8) (size 9 to 14) (size 15 to 20)
#    0.000    1.455    3.636    2.727    0.000    3.636 
#    0.000    0.909    0.000    8.727    0.000    0.000 
#    0.000    0.000    0.000    0.000    0.000    0.000 
#
# Total GULP energy -272571.966190 kJ/mol
# GULP energy per Si atom -12389.634827 kJ/mol
# Density = 2.012221 g / cm^3
# Si number density = 20.168118 Si / 1000 Ang^3
#
#
#
# Elastic Constant Matrix: (Units=GPa)
#
#
# Indices 1 2 3 4 5 6 
#
# 1 149.0184 27.9566 53.8198 -0.0023 -1.2776 0.0026
# 2 27.9566 89.2690 64.2228 0.0027 6.3384 0.0008
# 3 53.8198 64.2228 135.8309 -0.0037 10.4065 0.0143
# 4 -0.0023 0.0027 -0.0037 24.4753 0.0033 11.4470
# 5 -1.2776 6.3384 10.4065 0.0033 24.4298 -0.0029
# 6 0.0026 0.0008 0.0143 11.4470 -0.0029 22.9450
#
#
#
# Elastic Compliance Matrix: (Units=1/GPa)
#
#
# Indices 1 2 3 4 5 6 
#
# 1 0.007916 -0.000381 -0.003097 -0.000001 0.001832 0.000002
# 2 -0.000381 0.017020 -0.007811 -0.000006 -0.001108 0.000007
# 3 -0.003097 -0.007811 0.012549 0.000008 -0.003481 -0.000012
# 4 -0.000001 -0.000006 0.000008 0.053292 -0.000012 -0.026587
# 5 0.001832 -0.001108 -0.003481 -0.000012 0.042800 0.000013
# 6 0.000002 0.000007 -0.000012 -0.026587 0.000013 0.056846
#
#
# Mechanical properties :
#
#
# Convention : Reuss Voigt Hill
#
# Bulk Modulus (GPa) = 67.08443 74.01300 70.54872
# Shear Modulus (GPa) = 22.93888 29.57797 26.25843
#
# Velocity S-wave (km/s) = 3.37617 3.83374 3.61221
# Velocity P-wave (km/s) = 6.96655 7.50829 7.24249
#
# Compressibility (1/GPa) = 0.01490659
#
# Stress axis : x y z
#
# Youngs Moduli (GPa) = 126.32268 58.75491 79.68763
#
# Poissons Ratio (x) = 0.02241 0.24676
# Poissons Ratio (y) = 0.04818 0.62246
# Poissons Ratio (z) = 0.39118 0.45895
#
# Static dielectric constant tensor:
#      x y z
#    x 4.087300 -0.000010 0.225460 
#    y -0.000010 3.737810 -0.000030 
#    z 0.225460 -0.000030 3.379420 
# 
# 
# High freq. dielectric constant tensor:
#      x y z
#    x 1.807310 0.000000 0.013110 
#    y 0.000000 1.784380 0.000000 
#    z 0.013110 0.000000 1.751230 
# 
# From -- ./inp_files/374408.got.cif
#   From: 2010.06.25/outbox.cif.g09.slc.cpg/sg12_188_cif.got.tgz:374408.got - 2010.06.28 00:19:55.
