data_PCOD8093859
_publ_section_title
;
Structure prediction by ZEFSAII (Michael W. Deem and Ramdas Pophale) SiO2 
 PCOD8093859
Probable space group: C 2/M
;
_chemical_formula_sum "Si O2"
_cell_formula_units_Z 56
_cell_length_a 14.450600
_cell_length_b 8.358119
_cell_length_c 26.091720
_cell_angle_alpha 90.000000
_cell_angle_beta 64.551563
_cell_angle_gamma 90.000000
_cell_volume 2845.585200
_symmetry_space_group_name_H-M "C 2/M"
_symmetry_group_IT_number 12
_symmetry_cell_setting 'monoclinic'
loop_
_space_group_symop_operation_xyz
x,y,z
-x,y,-z
-x,-y,-z
x,-y,z
1/2+x,1/2+y,z
1/2-x,1/2+y,-z
1/2-x,1/2-y,-z
1/2+x,1/2-y,z
loop_
_atom_site_type_symbol
_atom_site_label
_atom_site_fract_x
_atom_site_fract_y
_atom_site_fract_z
Si Si1 0.240936 0.684142 0.059023
Si Si2 0.777663 0.689167 0.651432
Si Si3 0.031156 0.818359 0.136391
Si Si4 0.792984 0.309966 0.436541
Si Si5 0.987715 0.311537 0.650196
Si Si6 0.066379 0.686617 0.740326
Si Si7 0.569132 0.815202 0.936031
O O1 0.274540 0.500000 0.051807
O O2 0.126623 0.699716 0.107623
O O3 0.312822 0.787988 0.078622
O O4 0.250000 0.750000 0.000000
O O5 0.767959 0.500000 0.661823
O O6 0.775487 0.731393 0.591857
O O7 0.883884 0.758408 0.650030
O O8 0.685504 0.776664 0.702563
O O9 0.972593 0.788655 0.202975
O O10 0.953645 0.789640 0.108236
O O11 0.070283 0.000000 0.125513
O O12 0.785493 0.500000 0.433202
O O13 0.750000 0.250000 0.500000
O O14 0.910925 0.250299 0.403821
O O15 0.983848 0.500000 0.646198
O O16 0.998531 0.261937 0.707223
O O17 0.054034 0.500000 0.755346
O O18 0.547362 0.000000 0.928906
O O19 0.500000 0.756194 0.000000
#
# Coordination Sequence:
#
# PCOD8093859 Si02
#       7
#     8   8   8   8   8   8   8
#     4  12  24  40  62  88 118 153 191 236 291 354
#     4  10  19  36  60  85 112 150 197 243 291 347
#     4  12  25  41  62  89 120 156 198 244 297 357
#     4  10  20  36  55  83 119 157 196 239 290 344
#     4   8  18  36  59  81 111 154 194 233 288 348
#     4  10  21  40  60  83 116 152 192 242 295 349
#     4  11  23  40  63  88 116 151 193 239 292 353
#
# _framework density 19.679608999999999
#
# number of rings (size 3 to 8) (size 9 to 14) (size 15 to 20)
#    0.000    1.571    1.429    5.143    0.000    2.286 
#    0.000   15.714    0.000    0.000    0.000    0.000 
#    0.000    0.000    0.000    0.000    0.000    0.000 
#
# Total GULP energy -347297.203122 kJ/mol
# GULP energy per Si atom -12403.471540 kJ/mol
# Density = 1.963482 g / cm^3
# Si number density = 19.679609 Si / 1000 Ang^3
#
#
#
# Elastic Constant Matrix: (Units=GPa)
#
#
# Indices 1 2 3 4 5 6 
#
# 1 159.9168 14.7178 57.4839 0.0000 5.9067 0.0000
# 2 14.7178 67.1097 18.4429 0.0000 4.4542 0.0000
# 3 57.4839 18.4429 130.9755 0.0000 11.8542 0.0000
# 4 0.0000 0.0000 0.0000 29.7178 0.0000 -0.2512
# 5 5.9067 4.4542 11.8542 0.0000 20.5281 0.0000
# 6 0.0000 0.0000 0.0000 -0.2512 0.0000 30.3655
#
#
#
# Elastic Compliance Matrix: (Units=1/GPa)
#
#
# Indices 1 2 3 4 5 6 
#
# 1 0.007463 -0.000759 -0.003154 0.000000 -0.000161 0.000000
# 2 -0.000759 0.015674 -0.001673 0.000000 -0.002216 0.000000
# 3 -0.003154 -0.001673 0.009644 0.000000 -0.004298 0.000000
# 4 0.000000 0.000000 0.000000 0.033652 0.000000 0.000278
# 5 -0.000161 -0.002216 -0.004298 0.000000 0.051723 0.000000
# 6 0.000000 0.000000 0.000000 0.000278 0.000000 0.032934
#
#
# Mechanical properties :
#
#
# Convention : Reuss Voigt Hill
#
# Bulk Modulus (GPa) = 46.27855 59.92125 53.09990
# Shear Modulus (GPa) = 29.50439 33.94611 31.72525
#
# Velocity S-wave (km/s) = 3.87620 4.15774 4.01944
# Velocity P-wave (km/s) = 6.60305 7.31872 6.97007
#
# Compressibility (1/GPa) = 0.02160828
#
# Stress axis : x y z
#
# Youngs Moduli (GPa) = 133.99859 63.79816 103.69299
#
# Poissons Ratio (x) = 0.04844 0.32703
# Poissons Ratio (y) = 0.10173 0.17351
# Poissons Ratio (z) = 0.42261 0.10676
#
# Static dielectric constant tensor:
#      x y z
#    x 3.715550 0.000000 0.118720 
#    y 0.000000 7.135460 0.000000 
#    z 0.118720 0.000000 3.499990 
# 
# 
# High freq. dielectric constant tensor:
#      x y z
#    x 1.774850 0.000000 0.002140 
#    y 0.000000 1.766980 0.000000 
#    z 0.002140 0.000000 1.764850 
# 
# From -- ./inp_files/359641.got.cif
#   From: 2010.06.25/outbox.cif.g09.slc.cpg/sg12_180_cif.got.tgz:359641.got - 2010.06.28 00:19:55.
