data_PCOD8093786
_publ_section_title
;
Structure prediction by ZEFSAII (Michael W. Deem and Ramdas Pophale) SiO2 
 PCOD8093786
Probable space group: C 2/M
;
_chemical_formula_sum "Si O2"
_cell_formula_units_Z 56
_cell_length_a 12.226150
_cell_length_b 20.138587
_cell_length_c 11.992972
_cell_angle_alpha 90.000000
_cell_angle_beta 73.461398
_cell_angle_gamma 90.000000
_cell_volume 2830.712226
_symmetry_space_group_name_H-M "C 2/M"
_symmetry_group_IT_number 12
_symmetry_cell_setting 'monoclinic'
loop_
_space_group_symop_operation_xyz
x,y,z
-x,y,-z
-x,-y,-z
x,-y,z
1/2+x,1/2+y,z
1/2-x,1/2+y,-z
1/2-x,1/2-y,-z
1/2+x,1/2-y,z
loop_
_atom_site_type_symbol
_atom_site_label
_atom_site_fract_x
_atom_site_fract_y
_atom_site_fract_z
Si Si1 0.334292 0.925687 0.824119
Si Si2 0.457171 0.574966 0.887765
Si Si3 0.990671 0.334503 0.665454
Si Si4 0.308232 0.924669 0.077356
Si Si5 0.686130 0.808454 0.456539
Si Si6 0.847533 0.159562 0.226355
Si Si7 0.424828 0.797235 0.130900
O O1 0.432522 0.905548 0.707555
O O2 0.220987 0.882397 0.844857
O O3 0.297103 0.000000 0.808518
O O4 0.377285 0.918715 0.939994
O O5 0.486476 0.500000 0.841682
O O6 0.323952 0.588478 0.910005
O O7 0.526561 0.628533 0.793324
O O8 0.500000 0.587574 0.000000
O O9 0.114047 0.347973 0.572340
O O10 0.996380 0.298003 0.782329
O O11 0.907979 0.289136 0.611162
O O12 0.354530 0.866753 0.144896
O O13 0.326510 0.000000 0.121017
O O14 0.750000 0.750000 0.500000
O O15 0.786233 0.848375 0.364961
O O16 0.843452 0.234278 0.177811
O O17 0.500000 0.783589 0.000000
#
# Coordination Sequence:
#
# PCOD8093786 Si02
#       7
#     8   8   8   8   8   8   8
#     4  10  20  38  61  89 125 168 210 254 306 380
#     4  10  19  36  59  87 125 167 210 254 310 380
#     4  10  22  41  62  90 120 162 213 253 308 372
#     4  10  22  38  59  87 129 177 205 241 317 393
#     4  10  21  43  62  83 123 167 211 251 308 376
#     4  11  22  36  60  92 123 159 208 265 317 362
#     4  12  24  37  58  96 134 159 201 264 319 377
#
# _framework density 19.783007999999999
#
# number of rings (size 3 to 8) (size 9 to 14) (size 15 to 20)
#    0.000    1.571    4.286    0.857    0.000    3.714 
#    0.000    6.429    0.000    0.000    0.000    2.000 
#    0.000    0.000    0.000    0.000    0.000    0.000 
#
# Total GULP energy -346890.225227 kJ/mol
# GULP energy per Si atom -12388.936615 kJ/mol
# Density = 1.973798 g / cm^3
# Si number density = 19.783008 Si / 1000 Ang^3
#
#
#
# Elastic Constant Matrix: (Units=GPa)
#
#
# Indices 1 2 3 4 5 6 
#
# 1 73.5261 47.4243 44.2727 0.0000 -4.2647 0.0000
# 2 47.4243 125.7923 37.7728 0.0000 -2.4762 0.0000
# 3 44.2727 37.7728 116.7416 0.0000 -13.1574 0.0000
# 4 0.0000 0.0000 0.0000 21.7205 0.0000 -4.9450
# 5 -4.2647 -2.4762 -13.1574 0.0000 41.0068 0.0000
# 6 0.0000 0.0000 0.0000 -4.9450 0.0000 35.5951
#
#
#
# Elastic Compliance Matrix: (Units=1/GPa)
#
#
# Indices 1 2 3 4 5 6 
#
# 1 0.021237 -0.006188 -0.006064 0.000000 -0.000111 0.000000
# 2 -0.006188 0.010614 -0.001129 0.000000 -0.000365 0.000000
# 3 -0.006064 -0.001129 0.011571 0.000000 0.003014 0.000000
# 4 0.000000 0.000000 0.000000 0.047543 0.000000 0.006605
# 5 -0.000111 -0.000365 0.003014 0.000000 0.025320 0.000000
# 6 0.000000 0.000000 0.000000 0.006605 0.000000 0.029011
#
#
# Mechanical properties :
#
#
# Convention : Reuss Voigt Hill
#
# Bulk Modulus (GPa) = 60.02328 63.88885 61.95607
# Shear Modulus (GPa) = 28.15158 32.10382 30.12770
#
# Velocity S-wave (km/s) = 3.77638 4.03277 3.90668
# Velocity P-wave (km/s) = 7.03004 7.35182 7.19273
#
# Compressibility (1/GPa) = 0.01666020
#
# Stress axis : x y z
#
# Youngs Moduli (GPa) = 47.08853 94.21391 86.42608
#
# Poissons Ratio (x) = 0.58295 0.52410
# Poissons Ratio (y) = 0.29136 0.09756
# Poissons Ratio (z) = 0.28555 0.10635
#
# Static dielectric constant tensor:
#      x y z
#    x 3.698780 0.000000 -0.199100 
#    y 0.000000 3.636070 0.000000 
#    z -0.199100 0.000000 3.897460 
# 
# 
# High freq. dielectric constant tensor:
#      x y z
#    x 1.774720 0.000000 -0.015460 
#    y 0.000000 1.755910 0.000000 
#    z -0.015460 0.000000 1.764980 
# 
# From -- ./inp_files/133890.got.cif
#   From: 2010.06.25/outbox.cif.g09.slc.cpg/sg12_67_cif.got.tgz:133890.got - 2010.06.28 00:19:55.
