data_PCOD8093585
_publ_section_title
;
Structure prediction by ZEFSAII (Michael W. Deem and Ramdas Pophale) SiO2 
 PCOD8093585
Probable space group: C 2/M
;
_chemical_formula_sum "Si O2"
_cell_formula_units_Z 60
_cell_length_a 23.366670
_cell_length_b 12.392988
_cell_length_c 22.275458
_cell_angle_alpha 90.000000
_cell_angle_beta 152.350226
_cell_angle_gamma 90.000000
_cell_volume 2993.498110
_symmetry_space_group_name_H-M "C 2/M"
_symmetry_group_IT_number 12
_symmetry_cell_setting 'monoclinic'
loop_
_space_group_symop_operation_xyz
x,y,z
-x,y,-z
-x,-y,-z
x,-y,z
1/2+x,1/2+y,z
1/2-x,1/2+y,-z
1/2-x,1/2-y,-z
1/2+x,1/2-y,z
loop_
_atom_site_type_symbol
_atom_site_label
_atom_site_fract_x
_atom_site_fract_y
_atom_site_fract_z
Si Si1 0.500000 0.735319 0.000000
Si Si2 0.668616 0.624879 0.060477
Si Si3 0.636866 0.877616 0.441527
Si Si4 0.927614 0.875393 0.162220
Si Si5 0.652419 0.762373 0.338312
Si Si6 0.094429 0.744314 0.745551
Si Si7 0.446934 0.376046 0.511678
Si Si8 0.843353 0.624027 0.772775
O O1 0.556741 0.662533 0.999481
O O2 0.610765 0.811087 0.126501
O O3 0.695092 0.500000 0.100046
O O4 0.790212 0.697205 0.184635
O O5 0.640017 0.640132 0.963777
O O6 0.678064 0.855205 0.411183
O O7 0.720417 0.799499 0.561154
O O8 0.491347 0.855528 0.313817
O O9 0.664541 0.000000 0.484812
O O10 0.859204 0.811438 0.152765
O O11 0.064625 0.828644 0.284492
O O12 0.935513 0.000000 0.187614
O O13 0.591505 0.821123 0.224407
O O14 0.009573 0.819446 0.625971
O O15 0.500000 0.324464 0.500000
O O16 0.486681 0.500000 0.553455
O O17 0.300657 0.363474 0.373310
O O18 0.883679 0.500000 0.817190
#
# Coordination Sequence:
#
# PCOD8093585 Si02
#       8
#     4   8   8   8   8   8   8   8
#     4  12  24  44  66  86 124 164 212 252 308 370
#     4  11  24  42  63  87 124 166 210 258 305 367
#     4  10  20  33  56  89 122 157 193 240 307 364
#     4  10  21  38  62  91 123 162 208 253 306 370
#     4  10  19  36  57  87 123 160 194 252 300 364
#     4  11  21  38  63  89 124 158 205 255 311 357
#     4  10  21  38  61  88 121 158 198 249 310 369
#     4  11  22  39  62  90 119 157 204 256 309 360
#
# _framework density 20.043441000000001
#
# number of rings (size 3 to 8) (size 9 to 14) (size 15 to 20)
#    0.000    1.467    2.667    3.200    0.000    0.000 
#    0.000    2.000    0.000    1.600    0.000    0.000 
#    0.000    0.000    0.000    0.000    0.000    0.000 
#
# Total GULP energy -371958.803298 kJ/mol
# GULP energy per Si atom -12398.626777 kJ/mol
# Density = 1.999782 g / cm^3
# Si number density = 20.043441 Si / 1000 Ang^3
#
#
#
# Elastic Constant Matrix: (Units=GPa)
#
#
# Indices 1 2 3 4 5 6 
#
# 1 89.0726 48.3049 21.8582 -0.0002 0.3802 -0.0002
# 2 48.3049 121.0877 39.4186 -0.0002 -2.3663 -0.0002
# 3 21.8582 39.4186 74.5725 -0.0002 -5.3142 -0.0003
# 4 -0.0002 -0.0002 -0.0002 28.5591 -0.0002 -0.9854
# 5 0.3802 -2.3663 -5.3142 -0.0002 34.9775 -0.0003
# 6 -0.0002 -0.0002 -0.0003 -0.9854 -0.0003 24.5070
#
#
#
# Elastic Compliance Matrix: (Units=1/GPa)
#
#
# Indices 1 2 3 4 5 6 
#
# 1 0.014471 -0.005302 -0.001492 0.000000 -0.000743 0.000000
# 2 -0.005302 0.011918 -0.004735 0.000000 0.000144 0.000000
# 3 -0.001492 -0.004735 0.016507 0.000000 0.002204 0.000000
# 4 0.000000 0.000000 0.000000 0.035064 0.000000 0.001410
# 5 -0.000743 0.000144 0.002204 0.000000 0.028942 0.000000
# 6 0.000000 0.000000 0.000000 0.001410 0.000000 0.040861
#
#
# Mechanical properties :
#
#
# Convention : Reuss Voigt Hill
#
# Bulk Modulus (GPa) = 50.40877 55.98847 53.19862
# Shear Modulus (GPa) = 28.17927 29.28545 28.73236
#
# Velocity S-wave (km/s) = 3.75361 3.82658 3.79027
# Velocity P-wave (km/s) = 6.63253 6.89332 6.76418
#
# Compressibility (1/GPa) = 0.01983782
#
# Stress axis : x y z
#
# Youngs Moduli (GPa) = 69.10217 83.90788 60.57917
#
# Poissons Ratio (x) = 0.44486 0.09040
# Poissons Ratio (y) = 0.36636 0.28687
# Poissons Ratio (z) = 0.10312 0.39734
#
# Static dielectric constant tensor:
#      x y z
#    x 3.641640 0.000000 -0.061080 
#    y 0.000000 3.608700 0.000000 
#    z -0.061080 0.000000 3.551610 
# 
# 
# High freq. dielectric constant tensor:
#      x y z
#    x 1.777010 0.000000 -0.002310 
#    y 0.000000 1.785070 0.000000 
#    z -0.002310 0.000000 1.779570 
# 
# From -- ./inp_files/325279.got.cif
#   From: 2010.06.25/outbox.cif.g09.slc.cpg/sg12_163_cif.got.tgz:325279.got - 2010.06.28 00:19:55.
