data_PCOD8093778
_publ_section_title
;
Structure prediction by ZEFSAII (Michael W. Deem and Ramdas Pophale) SiO2 
 PCOD8093778
Probable space group: C 2/M
;
_chemical_formula_sum "Si O2"
_cell_formula_units_Z 56
_cell_length_a 20.304367
_cell_length_b 7.726797
_cell_length_c 16.726762
_cell_angle_alpha 90.000000
_cell_angle_beta 93.350370
_cell_angle_gamma 90.000000
_cell_volume 2619.738330
_symmetry_space_group_name_H-M "C 2/M"
_symmetry_group_IT_number 12
_symmetry_cell_setting 'monoclinic'
loop_
_space_group_symop_operation_xyz
x,y,z
-x,y,-z
-x,-y,-z
x,-y,z
1/2+x,1/2+y,z
1/2-x,1/2+y,-z
1/2-x,1/2-y,-z
1/2+x,1/2-y,z
loop_
_atom_site_type_symbol
_atom_site_label
_atom_site_fract_x
_atom_site_fract_y
_atom_site_fract_z
Si Si1 0.926283 0.205674 0.516367
Si Si2 0.136201 0.202366 0.647532
Si Si3 0.240820 0.293959 0.245829
Si Si4 0.793681 0.802253 0.927380
Si Si5 0.036288 0.500000 0.883732
Si Si6 0.470833 0.692773 0.233439
Si Si7 0.896502 0.697186 0.690143
Si Si8 0.605767 0.000000 0.049190
O O1 0.876319 0.271348 0.443176
O O2 0.899782 0.291193 0.594997
O O3 0.000000 0.268832 0.500000
O O4 0.925786 0.000000 0.526105
O O5 0.200098 0.284282 0.695447
O O6 0.070266 0.246404 0.691628
O O7 0.148078 0.000000 0.643503
O O8 0.245209 0.500000 0.239279
O O9 0.247900 0.214185 0.157587
O O10 0.173355 0.233115 0.283156
O O11 0.818076 0.000000 0.939795
O O12 0.750000 0.750000 0.000000
O O13 0.855677 0.673760 0.923837
O O14 0.092688 0.500000 0.954247
O O15 0.048150 0.325009 0.836593
O O16 0.962364 0.500000 0.909646
O O17 0.451874 0.500000 0.202270
O O18 0.547312 0.691324 0.263127
O O19 0.907315 0.500000 0.718009
#
# Coordination Sequence:
#
# PCOD8093778 Si02
#       8
#     8   8   8   8   4   8   8   4
#     4  10  19  36  59  86 122 168 221 266 319 385
#     4   9  20  38  62  91 123 169 219 270 322 384
#     4  10  22  42  64  91 129 169 212 266 331 388
#     4  12  25  44  72  99 130 173 220 267 330 404
#     4  11  26  44  68  95 140 172 214 279 328 390
#     4  11  22  40  68  95 126 173 223 269 324 388
#     4  11  22  37  61  91 129 171 213 269 327 386
#     4  11  26  48  66 100 136 173 215 272 336 393
#
# _framework density 21.376180000000002
#
# number of rings (size 3 to 8) (size 9 to 14) (size 15 to 20)
#    0.000    1.429    3.571    1.286    2.000    4.286 
#    1.286    1.429    0.000    0.000    0.000    0.000 
#    0.000    0.000    0.000    0.000    0.000    0.000 
#
# Total GULP energy -347240.296035 kJ/mol
# GULP energy per Si atom -12401.439144 kJ/mol
# Density = 2.132753 g / cm^3
# Si number density = 21.376180 Si / 1000 Ang^3
#
#
#
# Elastic Constant Matrix: (Units=GPa)
#
#
# Indices 1 2 3 4 5 6 
#
# 1 90.7606 13.6586 23.8142 0.0000 11.5547 0.0000
# 2 13.6586 89.6776 20.6683 0.0000 3.2897 0.0000
# 3 23.8142 20.6683 124.1926 0.0000 11.9845 0.0000
# 4 0.0000 0.0000 0.0000 25.4959 0.0000 -6.0274
# 5 11.5547 3.2897 11.9845 0.0000 38.3297 0.0000
# 6 0.0000 0.0000 0.0000 -6.0274 0.0000 15.9946
#
#
#
# Elastic Compliance Matrix: (Units=1/GPa)
#
#
# Indices 1 2 3 4 5 6 
#
# 1 0.012067 -0.001312 -0.001810 0.000000 -0.002959 0.000000
# 2 -0.001312 0.011745 -0.001695 0.000000 -0.000082 0.000000
# 3 -0.001810 -0.001695 0.008882 0.000000 -0.002086 0.000000
# 4 0.000000 0.000000 0.000000 0.043058 0.000000 0.016226
# 5 -0.002959 -0.000082 -0.002086 0.000000 0.027641 0.000000
# 6 0.000000 0.000000 0.000000 0.016226 0.000000 0.068636
#
#
# Mechanical properties :
#
#
# Convention : Reuss Voigt Hill
#
# Bulk Modulus (GPa) = 43.36537 46.76811 45.06674
# Shear Modulus (GPa) = 26.40620 32.39668 29.40144
#
# Velocity S-wave (km/s) = 3.51851 3.89723 3.71270
# Velocity P-wave (km/s) = 6.06938 6.49441 6.28549
#
# Compressibility (1/GPa) = 0.02305987
#
# Stress axis : x y z
#
# Youngs Moduli (GPa) = 82.86995 85.14554 112.58131
#
# Poissons Ratio (x) = 0.11173 0.20377
# Poissons Ratio (y) = 0.10874 0.19082
# Poissons Ratio (z) = 0.14999 0.14432
#
# Static dielectric constant tensor:
#      x y z
#    x 3.936760 0.000000 0.116900 
#    y 0.000000 3.983520 0.000000 
#    z 0.116900 0.000000 4.117280 
# 
# 
# High freq. dielectric constant tensor:
#      x y z
#    x 1.835050 0.000000 0.002700 
#    y 0.000000 1.829700 0.000000 
#    z 0.002700 0.000000 1.851280 
# 
# From -- ./inp_files/231080.got.cif
#   From: 2010.06.25/outbox.cif.g09.slc.cpg/sg12_116_cif.got.tgz:231080.got - 2010.06.28 00:19:55.
