data_PCOD8093749
_publ_section_title
;
Structure prediction by ZEFSAII (Michael W. Deem and Ramdas Pophale) SiO2 
 PCOD8093749
Probable space group: C 2/M
;
_chemical_formula_sum "Si O2"
_cell_formula_units_Z 64
_cell_length_a 15.266541
_cell_length_b 9.015506
_cell_length_c 28.475223
_cell_angle_alpha 90.000000
_cell_angle_beta 57.924363
_cell_angle_gamma 90.000000
_cell_volume 3320.929048
_symmetry_space_group_name_H-M "C 2/M"
_symmetry_group_IT_number 12
_symmetry_cell_setting 'monoclinic'
loop_
_space_group_symop_operation_xyz
x,y,z
-x,y,-z
-x,-y,-z
x,-y,z
1/2+x,1/2+y,z
1/2-x,1/2+y,-z
1/2-x,1/2-y,-z
1/2+x,1/2-y,z
loop_
_atom_site_type_symbol
_atom_site_label
_atom_site_fract_x
_atom_site_fract_y
_atom_site_fract_z
Si Si1 0.007057 0.824372 0.865462
Si Si2 0.857454 0.176382 0.258959
Si Si3 0.856838 0.828504 0.675153
Si Si4 0.785318 0.331955 0.443775
Si Si5 0.916289 0.168398 0.558311
Si Si6 0.226395 0.823411 0.056269
Si Si7 0.437228 0.670401 0.336170
Si Si8 0.404553 0.673622 0.061177
O O1 0.888472 0.771809 0.896182
O O2 0.068002 0.761400 0.803058
O O3 0.063098 0.766969 0.896700
O O4 0.010003 0.000000 0.865410
O O5 0.743501 0.237225 0.281957
O O6 0.902295 0.234694 0.295811
O O7 0.853719 0.000000 0.259122
O O8 0.908305 0.761482 0.612642
O O9 0.939060 0.812532 0.693969
O O10 0.825642 0.000000 0.675687
O O11 0.811219 0.500000 0.449786
O O12 0.750000 0.250000 0.500000
O O13 0.696894 0.320314 0.430433
O O14 0.886644 0.258256 0.393426
O O15 0.000000 0.249598 0.500000
O O16 0.955218 0.000000 0.553379
O O17 0.305027 0.765941 0.073328
O O18 0.234780 0.000000 0.048978
O O19 0.250000 0.750000 0.000000
O O20 0.403061 0.500000 0.350722
O O21 0.376125 0.500000 0.069004
O O22 0.500000 0.706215 0.000000
#
# Coordination Sequence:
#
# PCOD8093749 Si02
#       8
#     8   8   8   8   8   8   8   8
#     4   9  20  38  58  81 117 159 192 230 293 353
#     4  10  21  39  60  83 114 153 194 237 283 339
#     4  10  20  37  59  82 111 150 190 233 285 342
#     4  11  21  34  55  82 114 149 186 233 286 344
#     4   9  17  31  52  77 106 141 179 219 275 338
#     4  11  21  36  59  88 120 155 196 241 292 349
#     4  10  21  37  59  83 112 149 189 232 286 343
#     4  10  19  36  59  83 115 159 198 237 293 348
#
# _framework density 19.271716000000001
#
# number of rings (size 3 to 8) (size 9 to 14) (size 15 to 20)
#    0.000    2.000    2.500    1.500    0.000    3.750 
#    0.000    3.125    0.000    1.875    0.000    0.000 
#    0.000    0.000    0.000    0.000    0.000    0.000 
#
# Total GULP energy -396801.571888 kJ/mol
# GULP energy per Si atom -12400.049122 kJ/mol
# Density = 1.922785 g / cm^3
# Si number density = 19.271716 Si / 1000 Ang^3
#
#
#
# Elastic Constant Matrix: (Units=GPa)
#
#
# Indices 1 2 3 4 5 6 
#
# 1 131.1918 38.7242 63.6962 0.0000 -4.7809 0.0000
# 2 38.7242 53.4686 38.7254 0.0000 -0.8279 0.0001
# 3 63.6962 38.7254 152.0114 0.0000 -6.7119 0.0000
# 4 0.0000 0.0000 0.0000 21.1415 0.0000 -3.9383
# 5 -4.7809 -0.8279 -6.7119 0.0000 33.2479 0.0000
# 6 0.0000 0.0001 0.0000 -3.9383 0.0000 31.4139
#
#
#
# Elastic Compliance Matrix: (Units=1/GPa)
#
#
# Indices 1 2 3 4 5 6 
#
# 1 0.010786 -0.005581 -0.003063 0.000000 0.000794 0.000000
# 2 -0.005581 0.025834 -0.004288 0.000000 -0.001025 0.000000
# 3 -0.003063 -0.004288 0.009010 0.000000 0.001272 0.000000
# 4 0.000000 0.000000 0.000000 0.048431 0.000000 0.006072
# 5 0.000794 -0.001025 0.001272 0.000000 0.030422 0.000000
# 6 0.000000 0.000000 0.000000 0.006072 0.000000 0.032594
#
#
# Mechanical properties :
#
#
# Convention : Reuss Voigt Hill
#
# Bulk Modulus (GPa) = 50.58941 68.77371 59.68156
# Shear Modulus (GPa) = 26.38093 30.19573 28.28833
#
# Velocity S-wave (km/s) = 3.70387 3.96263 3.83543
# Velocity P-wave (km/s) = 6.67826 7.52997 7.11686
#
# Compressibility (1/GPa) = 0.01976698
#
# Stress axis : x y z
#
# Youngs Moduli (GPa) = 92.71569 38.70807 110.98388
#
# Poissons Ratio (x) = 0.21603 0.33990
# Poissons Ratio (y) = 0.51745 0.47591
# Poissons Ratio (z) = 0.28395 0.16598
#
# Static dielectric constant tensor:
#      x y z
#    x 3.875520 0.000000 0.055470 
#    y 0.000000 3.260070 0.000000 
#    z 0.055470 0.000000 3.712770 
# 
# 
# High freq. dielectric constant tensor:
#      x y z
#    x 1.762970 0.000000 0.001710 
#    y 0.000000 1.718510 0.000000 
#    z 0.001710 0.000000 1.752350 
# 
# From -- ./inp_files/375066.got.cif
#   From: 2010.06.25/outbox.cif.g09.slc.cpg/sg12_188_cif.got.tgz:375066.got - 2010.06.28 00:19:55.
