data_PCOD8093012
_publ_section_title
;
Structure prediction by ZEFSAII (Michael W. Deem and Ramdas Pophale) SiO2 
 PCOD8093012
Probable space group: C 2/M
;
_chemical_formula_sum "Si O2"
_cell_formula_units_Z 48
_cell_length_a 22.028809
_cell_length_b 13.052406
_cell_length_c 10.044745
_cell_angle_alpha 90.000000
_cell_angle_beta 63.902665
_cell_angle_gamma 90.000000
_cell_volume 2593.701994
_symmetry_space_group_name_H-M "C 2/M"
_symmetry_group_IT_number 12
_symmetry_cell_setting 'monoclinic'
loop_
_space_group_symop_operation_xyz
x,y,z
-x,y,-z
-x,-y,-z
x,-y,z
1/2+x,1/2+y,z
1/2-x,1/2+y,-z
1/2-x,1/2-y,-z
1/2+x,1/2-y,z
loop_
_atom_site_type_symbol
_atom_site_label
_atom_site_fract_x
_atom_site_fract_y
_atom_site_fract_z
Si Si1 0.416042 0.119354 0.313542
Si Si2 0.331924 0.202679 0.167646
Si Si3 0.130664 0.884286 0.022829
Si Si4 0.423700 0.773644 0.579632
Si Si5 0.437269 0.191482 0.856577
Si Si6 0.813725 0.884818 0.745016
O O1 0.359414 0.182910 0.289021
O O2 0.410520 0.146893 0.473791
O O3 0.489064 0.148315 0.181973
O O4 0.402558 0.000000 0.307847
O O5 0.257441 0.160141 0.229378
O O6 0.331673 0.325376 0.135565
O O7 0.381696 0.145160 0.012632
O O8 0.063720 0.817058 0.125947
O O9 0.180984 0.882695 0.100211
O O10 0.110632 0.000000 0.001226
O O11 0.500000 0.729496 0.500000
O O12 0.414680 0.835607 0.727286
O O13 0.372654 0.679205 0.617068
O O14 0.820288 0.000000 0.684725
#
# Coordination Sequence:
#
# PCOD8093012 Si02
#       6
#     8   8   8   8   8   8
#     4  11  22  37  53  79 117 148 178 224 279 323
#     4  10  20  34  57  86 112 141 178 230 271 324
#     4   8  17  34  55  80 110 141 176 222 271 314
#     4   9  20  38  56  78 109 145 187 225 266 323
#     4   8  19  35  58  81 109 143 182 226 262 322
#     4  10  19  35  59  82 110 143 182 228 273 321
#
# _framework density 18.506367999999998
#
# number of rings (size 3 to 8) (size 9 to 14) (size 15 to 20)
#    1.000    1.667    0.000    1.500    0.000    6.000 
#    0.000    5.833    0.000    0.000    0.000    0.000 
#    0.000    0.000    0.000    0.000    0.000    0.000 
#
# Total GULP energy -297394.478958 kJ/mol
# GULP energy per Si atom -12391.436623 kJ/mol
# Density = 1.846425 g / cm^3
# Si number density = 18.506368 Si / 1000 Ang^3
#
#
#
# Elastic Constant Matrix: (Units=GPa)
#
#
# Indices 1 2 3 4 5 6 
#
# 1 90.9765 46.9875 43.5365 0.0000 -2.5134 0.0000
# 2 46.9875 81.8035 21.3200 0.0000 4.4225 0.0000
# 3 43.5365 21.3200 52.7855 0.0000 -1.0141 0.0000
# 4 0.0000 0.0000 0.0000 26.7924 0.0000 -1.3418
# 5 -2.5134 4.4225 -1.0141 0.0000 23.9932 0.0000
# 6 0.0000 0.0000 0.0000 -1.3418 0.0000 21.9451
#
#
#
# Elastic Compliance Matrix: (Units=1/GPa)
#
#
# Indices 1 2 3 4 5 6 
#
# 1 0.023418 -0.009644 -0.015350 0.000000 0.003582 0.000000
# 2 -0.009644 0.017818 0.000675 0.000000 -0.004266 0.000000
# 3 -0.015350 0.000675 0.031325 0.000000 -0.000409 0.000000
# 4 0.000000 0.000000 0.000000 0.037439 0.000000 0.002289
# 5 0.003582 -0.004266 -0.000409 0.000000 0.042823 0.000000
# 6 0.000000 0.000000 0.000000 0.002289 0.000000 0.045708
#
#
# Mechanical properties :
#
#
# Convention : Reuss Voigt Hill
#
# Bulk Modulus (GPa) = 41.80126 49.91706 45.85916
# Shear Modulus (GPa) = 19.59689 22.12757 20.86223
#
# Velocity S-wave (km/s) = 3.25765 3.46160 3.36117
# Velocity P-wave (km/s) = 6.06516 6.55808 6.31643
#
# Compressibility (1/GPa) = 0.02392273
#
# Stress axis : x y z
#
# Youngs Moduli (GPa) = 42.70303 56.12161 31.92372
#
# Poissons Ratio (x) = 0.54123 0.49004
# Poissons Ratio (y) = 0.41182 -0.02156
# Poissons Ratio (z) = 0.65551 -0.03790
#
# Static dielectric constant tensor:
#      x y z
#    x 3.322430 0.000000 0.082060 
#    y 0.000000 3.275470 0.000000 
#    z 0.082060 0.000000 3.324880 
# 
# 
# High freq. dielectric constant tensor:
#      x y z
#    x 1.716430 0.000000 0.006600 
#    y 0.000000 1.701050 0.000000 
#    z 0.006600 0.000000 1.703470 
# 
# From -- ./inp_files/164699.got.cif
#   From: 2010.06.25/outbox.cif.g09.slc.cpg/sg12_83_cif.got.tgz:164699.got - 2010.06.28 00:19:55.
