data_PCOD8093965
_publ_section_title
;
Structure prediction by ZEFSAII (Michael W. Deem and Ramdas Pophale) SiO2 
 PCOD8093965
Probable space group: C 2/M
;
_chemical_formula_sum "Si O2"
_cell_formula_units_Z 48
_cell_length_a 20.556013
_cell_length_b 8.843388
_cell_length_c 21.089841
_cell_angle_alpha 90.000000
_cell_angle_beta 41.397761
_cell_angle_gamma 90.000000
_cell_volume 2535.233314
_symmetry_space_group_name_H-M "C 2/M"
_symmetry_group_IT_number 12
_symmetry_cell_setting 'monoclinic'
loop_
_space_group_symop_operation_xyz
x,y,z
-x,y,-z
-x,-y,-z
x,-y,z
1/2+x,1/2+y,z
1/2-x,1/2+y,-z
1/2-x,1/2-y,-z
1/2+x,1/2-y,z
loop_
_atom_site_type_symbol
_atom_site_label
_atom_site_fract_x
_atom_site_fract_y
_atom_site_fract_z
Si Si1 0.952588 0.175339 0.745777
Si Si2 0.902946 0.679403 0.037935
Si Si3 0.841598 0.823125 0.467528
Si Si4 0.644293 0.821379 0.066994
Si Si5 0.298356 0.321511 0.751620
Si Si6 0.389798 0.821297 0.565247
O O1 0.931905 0.271574 0.823541
O O2 0.879892 0.227248 0.743122
O O3 0.063101 0.210877 0.644450
O O4 0.935238 0.000000 0.774192
O O5 0.907245 0.500000 0.036018
O O6 0.807090 0.733842 0.146127
O O7 0.898040 0.736494 0.969190
O O8 0.000000 0.748983 0.000000
O O9 0.750000 0.750000 0.500000
O O10 0.853233 0.751720 0.527586
O O11 0.823985 0.000000 0.488780
O O12 0.656903 0.000000 0.058150
O O13 0.750000 0.750000 0.000000
O O14 0.302449 0.500000 0.735550
O O15 0.317058 0.232945 0.673319
O O16 0.500000 0.765028 0.500000
O O17 0.384941 0.000000 0.562045
#
# Coordination Sequence:
#
# PCOD8093965 Si02
#       6
#     8   8   8   8   8   8
#     4  10  21  38  60  88 118 153 197 245 297 359
#     4   9  19  36  57  84 116 149 190 238 287 345
#     4  11  24  42  63  87 123 160 199 249 307 366
#     4  11  21  35  59  88 118 154 199 246 293 352
#     4  10  19  36  61  86 116 155 199 240 293 356
#     4  11  23  38  60  91 122 153 201 252 297 356
#
# _framework density 18.933168999999999
#
# number of rings (size 3 to 8) (size 9 to 14) (size 15 to 20)
#    0.000    1.667    3.333    1.500    0.000    4.000 
#    0.000    1.667    0.000    3.500    0.000    0.000 
#    0.000    0.000    0.000    0.000    0.000    0.000 
#
# Total GULP energy -297703.642802 kJ/mol
# GULP energy per Si atom -12404.318450 kJ/mol
# Density = 1.889008 g / cm^3
# Si number density = 18.933169 Si / 1000 Ang^3
#
#
#
# Elastic Constant Matrix: (Units=GPa)
#
#
# Indices 1 2 3 4 5 6 
#
# 1 182.3020 60.8129 88.3003 0.0000 3.7156 -0.0001
# 2 60.8129 62.4447 60.4444 -0.0002 3.8737 0.0001
# 3 88.3003 60.4444 137.2871 0.0000 14.5147 -0.0001
# 4 0.0000 -0.0002 0.0000 34.7014 0.0000 5.0029
# 5 3.7156 3.8737 14.5147 0.0000 38.5123 0.0000
# 6 -0.0001 0.0001 -0.0001 5.0029 0.0000 30.3838
#
#
#
# Elastic Compliance Matrix: (Units=1/GPa)
#
#
# Indices 1 2 3 4 5 6 
#
# 1 0.008958 -0.005414 -0.003483 0.000000 0.000993 0.000000
# 2 -0.005414 0.031314 -0.010443 0.000000 0.001308 0.000000
# 3 -0.003483 -0.010443 0.014555 0.000000 -0.004099 0.000000
# 4 0.000000 0.000000 0.000000 0.029518 0.000000 -0.004860
# 5 0.000993 0.001308 -0.004099 0.000000 0.027283 0.000000
# 6 0.000000 0.000000 0.000000 -0.004860 0.000000 0.033713
#
#
# Mechanical properties :
#
#
# Convention : Reuss Voigt Hill
#
# Bulk Modulus (GPa) = 61.92929 89.01656 75.47293
# Shear Modulus (GPa) = 26.39851 32.21793 29.30822
#
# Velocity S-wave (km/s) = 3.73808 4.12960 3.93871
# Velocity P-wave (km/s) = 7.17018 8.35801 7.78678
#
# Compressibility (1/GPa) = 0.01614745
#
# Stress axis : x y z
#
# Youngs Moduli (GPa) = 111.62768 31.93434 68.70358
#
# Poissons Ratio (x) = 0.17291 0.23929
# Poissons Ratio (y) = 0.60441 0.71746
# Poissons Ratio (z) = 0.38879 0.33348
#
# Static dielectric constant tensor:
#      x y z
#    x 3.619880 0.000000 0.011410 
#    y 0.000000 3.342480 0.000000 
#    z 0.011410 0.000000 3.658110 
# 
# 
# High freq. dielectric constant tensor:
#      x y z
#    x 1.741800 0.000000 0.004470 
#    y 0.000000 1.722640 0.000000 
#    z 0.004470 0.000000 1.750210 
# 
# From -- ./inp_files/244756.got.cif
#   From: 2010.06.25/outbox.cif.g09.slc.cpg/sg12_123_cif.got.tgz:244756.got - 2010.06.28 00:19:55.
