data_PCOD8093202
_publ_section_title
;
Structure prediction by ZEFSAII (Michael W. Deem and Ramdas Pophale) SiO2 
 PCOD8093202
Probable space group: C 2/M
;
_chemical_formula_sum "Si O2"
_cell_formula_units_Z 64
_cell_length_a 24.852205
_cell_length_b 8.964056
_cell_length_c 28.940045
_cell_angle_alpha 90.000000
_cell_angle_beta 30.627799
_cell_angle_gamma 90.000000
_cell_volume 3284.565351
_symmetry_space_group_name_H-M "C 2/M"
_symmetry_group_IT_number 12
_symmetry_cell_setting 'monoclinic'
loop_
_space_group_symop_operation_xyz
x,y,z
-x,y,-z
-x,-y,-z
x,-y,z
1/2+x,1/2+y,z
1/2-x,1/2+y,-z
1/2-x,1/2-y,-z
1/2+x,1/2-y,z
loop_
_atom_site_type_symbol
_atom_site_label
_atom_site_fract_x
_atom_site_fract_y
_atom_site_fract_z
Si Si1 0.550519 0.831633 0.342677
Si Si2 0.083733 0.678121 0.476456
Si Si3 0.225006 0.168680 0.786594
Si Si4 0.655742 0.323070 0.000555
Si Si5 0.199366 0.676119 0.712135
Si Si6 0.982810 0.326911 0.824922
Si Si7 0.394415 0.167424 0.049434
Si Si8 0.386778 0.173951 0.801581
O O1 0.455037 0.764464 0.444000
O O2 0.648614 0.828490 0.305777
O O3 0.573781 0.750026 0.276055
O O4 0.520104 0.000000 0.352555
O O5 0.093568 0.500000 0.467133
O O6 0.198169 0.747449 0.384763
O O7 0.000000 0.734330 0.500000
O O8 0.180040 0.268928 0.778547
O O9 0.191740 0.234754 0.860342
O O10 0.182598 0.000000 0.812184
O O11 0.647800 0.500000 0.005448
O O12 0.580766 0.249427 0.017075
O O13 0.774273 0.262714 0.902632
O O14 0.612267 0.265007 0.081447
O O15 0.214964 0.500000 0.700898
O O16 0.098204 0.724697 0.756516
O O17 0.963778 0.500000 0.850642
O O18 0.974840 0.297250 0.775802
O O19 0.351717 0.000000 0.072820
O O20 0.500000 0.163547 0.000000
O O21 0.368162 0.000000 0.805923
#
# Coordination Sequence:
#
# PCOD8093202 Si02
#       8
#     8   8   8   8   8   8   8   8
#     4   9  17  33  58  85 108 134 180 233 280 329
#     4  10  19  35  60  86 111 144 185 232 285 339
#     4  11  20  35  58  82 110 144 187 233 277 332
#     4  11  21  35  59  86 110 143 195 245 279 323
#     4  11  23  37  54  82 118 153 186 226 283 345
#     4  10  22  39  57  78 113 156 191 229 283 339
#     4  11  23  36  50  76 117 156 186 222 280 346
#     4   9  18  36  60  83 109 147 193 236 279 331
#
# _framework density 19.485074000000001
#
# number of rings (size 3 to 8) (size 9 to 14) (size 15 to 20)
#    0.000    1.750    2.500    2.625    0.000    5.250 
#    0.000    1.250    0.000    0.000    0.000    0.000 
#    0.000    0.000    0.000    0.000    0.000    0.000 
#
# Total GULP energy -396719.027707 kJ/mol
# GULP energy per Si atom -12397.469616 kJ/mol
# Density = 1.944072 g / cm^3
# Si number density = 19.485074 Si / 1000 Ang^3
#
#
#
# Elastic Constant Matrix: (Units=GPa)
#
#
# Indices 1 2 3 4 5 6 
#
# 1 116.8996 25.6823 44.7055 0.0173 9.2324 -0.0458
# 2 25.6823 52.0918 30.1602 0.0394 3.7713 -0.1314
# 3 44.7055 30.1602 104.1306 -0.0056 14.1056 -0.0259
# 4 0.0173 0.0394 -0.0056 26.5416 0.0039 2.6461
# 5 9.2324 3.7713 14.1056 0.0039 26.6614 0.0099
# 6 -0.0458 -0.1314 -0.0259 2.6461 0.0099 18.9867
#
#
#
# Elastic Compliance Matrix: (Units=1/GPa)
#
#
# Indices 1 2 3 4 5 6 
#
# 1 0.010691 -0.003150 -0.003486 -0.000003 -0.001412 0.000000
# 2 -0.003150 0.023996 -0.005694 -0.000051 0.000709 0.000157
# 3 -0.003486 -0.005694 0.013440 0.000017 -0.005098 -0.000029
# 4 -0.000003 -0.000051 0.000017 0.038208 -0.000005 -0.005325
# 5 -0.001412 0.000709 -0.005098 -0.000005 0.040593 -0.000026
# 6 0.000000 0.000157 -0.000029 -0.005325 -0.000026 0.053412
#
#
# Mechanical properties :
#
#
# Convention : Reuss Voigt Hill
#
# Bulk Modulus (GPa) = 42.61424 52.69090 47.65257
# Shear Modulus (GPa) = 23.49387 25.94286 24.71836
#
# Velocity S-wave (km/s) = 3.47614 3.65282 3.56558
# Velocity P-wave (km/s) = 6.16677 6.70009 6.43895
#
# Compressibility (1/GPa) = 0.02346634
#
# Stress axis : x y z
#
# Youngs Moduli (GPa) = 93.53484 41.67431 74.40666
#
# Poissons Ratio (x) = 0.13129 0.25940
# Poissons Ratio (y) = 0.29466 0.42364
# Poissons Ratio (z) = 0.32608 0.23727
#
# Static dielectric constant tensor:
#      x y z
#    x 3.627550 -0.000060 0.196570 
#    y -0.000060 3.376370 -0.000010 
#    z 0.196570 -0.000010 3.728010 
# 
# 
# High freq. dielectric constant tensor:
#      x y z
#    x 1.759960 0.000000 0.011720 
#    y 0.000000 1.733810 0.000000 
#    z 0.011720 0.000000 1.758390 
# 
# From -- ./inp_files/238745.got.cif
#   From: 2010.06.25/outbox.cif.g09.slc.cpg/sg12_120_cif.got.tgz:238745.got - 2010.06.28 00:19:55.
