data_PCOD8093938
_publ_section_title
;
Structure prediction by ZEFSAII (Michael W. Deem and Ramdas Pophale) SiO2 
 PCOD8093938
Probable space group: C 2/M
;
_chemical_formula_sum "Si O2"
_cell_formula_units_Z 64
_cell_length_a 31.779010
_cell_length_b 17.617280
_cell_length_c 12.105602
_cell_angle_alpha 90.000000
_cell_angle_beta 28.866725
_cell_angle_gamma 90.000000
_cell_volume 3271.970403
_symmetry_space_group_name_H-M "C 2/M"
_symmetry_group_IT_number 12
_symmetry_cell_setting 'monoclinic'
loop_
_space_group_symop_operation_xyz
x,y,z
-x,y,-z
-x,-y,-z
x,-y,z
1/2+x,1/2+y,z
1/2-x,1/2+y,-z
1/2-x,1/2-y,-z
1/2+x,1/2-y,z
loop_
_atom_site_type_symbol
_atom_site_label
_atom_site_fract_x
_atom_site_fract_y
_atom_site_fract_z
Si Si1 0.185355 0.314040 0.190944
Si Si2 0.453158 0.700293 0.498690
Si Si3 0.232769 0.914328 0.562407
Si Si4 0.176471 0.583257 0.876436
Si Si5 0.098362 0.793643 0.798538
Si Si6 0.701318 0.413163 0.207575
Si Si7 0.603115 0.766297 0.017901
Si Si8 0.787242 0.304260 0.620262
O O1 0.091016 0.281847 0.370605
O O2 0.180034 0.327670 0.334346
O O3 0.250000 0.250000 0.000000
O O4 0.217262 0.391629 0.060158
O O5 0.500000 0.667682 0.500000
O O6 0.383466 0.639209 0.614509
O O7 0.524480 0.714423 0.240602
O O8 0.297341 0.912347 0.311082
O O9 0.145207 0.869163 0.734429
O O10 0.282036 0.877661 0.553831
O O11 0.206338 0.000000 0.654385
O O12 0.137606 0.500000 0.994535
O O13 0.263641 0.597840 0.748554
O O14 0.101930 0.646993 0.066877
O O15 0.101309 0.731393 0.889304
O O16 0.146553 0.757883 0.582147
O O17 0.000000 0.816946 0.000000
O O18 0.674534 0.500000 0.245338
O O19 0.693161 0.732015 0.854136
#
# Coordination Sequence:
#
# PCOD8093938 Si02
#       8
#     8   8   8   8   8   8   8   8
#     4  10  21  37  61  83 116 154 201 246 293 356
#     4  11  22  36  58  91 117 155 199 249 295 355
#     4  10  21  37  59  85 117 158 194 238 298 355
#     4  10  19  36  61  83 112 155 201 243 289 354
#     4  11  22  34  57  88 118 154 196 249 296 349
#     4  10  22  39  60  88 121 160 198 242 305 362
#     4  11  19  35  58  82 117 151 200 243 297 351
#     4  11  20  39  58  85 117 157 204 249 295 353
#
# _framework density 19.560078000000001
#
# number of rings (size 3 to 8) (size 9 to 14) (size 15 to 20)
#    0.000    1.500    2.500    5.250    1.750    1.000 
#    0.000    3.125    0.000    5.250    0.000    0.000 
#    0.000    0.000    0.000    0.000    0.000    0.000 
#
# Total GULP energy -396677.252132 kJ/mol
# GULP energy per Si atom -12396.164129 kJ/mol
# Density = 1.951556 g / cm^3
# Si number density = 19.560078 Si / 1000 Ang^3
#
#
#
# Elastic Constant Matrix: (Units=GPa)
#
#
# Indices 1 2 3 4 5 6 
#
# 1 72.8479 43.4503 3.4175 0.0000 12.7423 0.0000
# 2 43.4503 129.7678 37.4869 0.0000 2.3828 0.0000
# 3 3.4175 37.4869 83.4053 0.0000 4.9169 0.0000
# 4 0.0000 0.0000 0.0000 22.5127 0.0000 -3.2446
# 5 12.7423 2.3828 4.9169 0.0000 28.1346 0.0000
# 6 0.0000 0.0000 0.0000 -3.2446 0.0000 24.7260
#
#
#
# Elastic Compliance Matrix: (Units=1/GPa)
#
#
# Indices 1 2 3 4 5 6 
#
# 1 0.019395 -0.007186 0.002947 0.000000 -0.008691 0.000000
# 2 -0.007186 0.011518 -0.005069 0.000000 0.003165 0.000000
# 3 0.002947 -0.005069 0.014348 0.000000 -0.003413 0.000000
# 4 0.000000 0.000000 0.000000 0.045276 0.000000 0.005941
# 5 -0.008691 0.003165 -0.003413 0.000000 0.039808 0.000000
# 6 0.000000 0.000000 0.000000 0.005941 0.000000 0.041223
#
#
# Mechanical properties :
#
#
# Convention : Reuss Voigt Hill
#
# Bulk Modulus (GPa) = 37.52821 50.52560 44.02690
# Shear Modulus (GPa) = 25.11728 28.51909 26.81819
#
# Velocity S-wave (km/s) = 3.58733 3.82255 3.70681
# Velocity P-wave (km/s) = 6.03211 6.73570 6.39359
#
# Compressibility (1/GPa) = 0.02664662
#
# Stress axis : x y z
#
# Youngs Moduli (GPa) = 51.55912 86.81760 69.69397
#
# Poissons Ratio (x) = 0.62387 -0.20542
# Poissons Ratio (y) = 0.37050 0.35329
# Poissons Ratio (z) = -0.15197 0.44009
#
# Static dielectric constant tensor:
#      x y z
#    x 3.666470 0.000000 0.092650 
#    y 0.000000 3.738780 0.000000 
#    z 0.092650 0.000000 3.673150 
# 
# 
# High freq. dielectric constant tensor:
#      x y z
#    x 1.770960 0.000000 0.010390 
#    y 0.000000 1.750600 0.000000 
#    z 0.010390 0.000000 1.749900 
# 
# From -- ./inp_files/190031.got.cif
#   From: 2010.06.25/outbox.cif.g09.slc.cpg/sg12_96_cif.got.tgz:190031.got - 2010.06.28 00:19:55.
