data_PCOD8093042
_publ_section_title
;
Structure prediction by ZEFSAII (Michael W. Deem and Ramdas Pophale) SiO2 
 PCOD8093042
Probable space group: C 2/M
;
_chemical_formula_sum "Si O2"
_cell_formula_units_Z 48
_cell_length_a 10.153670
_cell_length_b 29.821484
_cell_length_c 19.635534
_cell_angle_alpha 90.000000
_cell_angle_beta 26.396929
_cell_angle_gamma 90.000000
_cell_volume 2643.333362
_symmetry_space_group_name_H-M "C 2/M"
_symmetry_group_IT_number 12
_symmetry_cell_setting 'monoclinic'
loop_
_space_group_symop_operation_xyz
x,y,z
-x,y,-z
-x,-y,-z
x,-y,z
1/2+x,1/2+y,z
1/2-x,1/2+y,-z
1/2-x,1/2-y,-z
1/2+x,1/2-y,z
loop_
_atom_site_type_symbol
_atom_site_label
_atom_site_fract_x
_atom_site_fract_y
_atom_site_fract_z
Si Si1 0.596576 0.051234 0.879720
Si Si2 0.451164 0.627001 0.334548
Si Si3 0.579187 0.799443 0.887206
Si Si4 0.997700 0.051627 0.079058
Si Si5 0.478825 0.696534 0.086725
Si Si6 0.680337 0.875900 0.311653
O O1 0.862472 0.082882 0.733409
O O2 0.708584 0.000000 0.825509
O O3 0.500000 0.064920 0.000000
O O4 0.326479 0.059611 0.954178
O O5 0.635632 0.671879 0.267564
O O6 0.363535 0.626722 0.296261
O O7 0.168146 0.624854 0.513962
O O8 0.650533 0.746797 0.850251
O O9 0.500000 0.814472 0.000000
O O10 0.305306 0.809880 0.965445
O O11 0.763511 0.079368 0.231923
O O12 0.900445 0.000000 0.130602
O O13 0.000000 0.067766 0.000000
O O14 0.247185 0.667375 0.235587
O O15 0.500000 0.679287 0.000000
#
# Coordination Sequence:
#
# PCOD8093042 Si02
#       6
#     8   8   8   8   8   8
#     4  10  19  35  59  84 108 144 192 228 263 324
#     4  11  22  35  57  83 117 149 179 231 284 328
#     4  10  19  37  60  80 106 146 189 229 272 326
#     4  10  21  38  60  84 113 148 186 230 275 324
#     4  10  21  36  59  83 105 141 190 234 272 324
#     4  11  22  36  55  85 116 148 183 227 283 334
#
# _framework density 18.158891000000001
#
# number of rings (size 3 to 8) (size 9 to 14) (size 15 to 20)
#    0.000    1.667    3.333    2.000    0.000    1.333 
#    0.000    5.000    0.000    3.000    0.000    0.000 
#    0.000    0.000    0.000    0.000    0.000    0.000 
#
# Total GULP energy -297682.223062 kJ/mol
# GULP energy per Si atom -12403.425961 kJ/mol
# Density = 1.811756 g / cm^3
# Si number density = 18.158891 Si / 1000 Ang^3
#
#
#
# Elastic Constant Matrix: (Units=GPa)
#
#
# Indices 1 2 3 4 5 6 
#
# 1 118.0919 35.4592 56.1898 -0.0072 6.5417 0.0260
# 2 35.4592 116.0886 85.4640 0.0015 -0.1797 -0.0018
# 3 56.1898 85.4640 142.3667 -0.0198 1.9006 0.0145
# 4 -0.0072 0.0015 -0.0198 10.9133 0.0108 20.2584
# 5 6.5417 -0.1797 1.9006 0.0108 24.9861 -0.0362
# 6 0.0260 -0.0018 0.0145 20.2584 -0.0362 -65.0531
#
#
#
# Elastic Compliance Matrix: (Units=1/GPa)
#
#
# Indices 1 2 3 4 5 6 
#
# 1 0.010581 -0.000333 -0.003944 -0.000004 -0.002473 0.000003
# 2 -0.000333 0.015463 -0.009163 -0.000009 0.000895 -0.000006
# 3 -0.003944 -0.009163 0.014083 0.000013 -0.000105 0.000006
# 4 -0.000004 -0.000009 0.000013 0.058065 0.000001 0.018082
# 5 -0.002473 0.000895 -0.000105 0.000001 0.040684 -0.000023
# 6 0.000003 -0.000006 0.000006 0.018082 -0.000023 -0.009741
#
#
# Mechanical properties :
#
#
# Convention : Reuss Voigt Hill
#
# Bulk Modulus (GPa) = 75.48228 81.19702 78.33965
# Shear Modulus (GPa) = 31.16620 7.46487 19.31553
#
# Velocity S-wave (km/s) = 4.14733 2.02973 3.26497
# Velocity P-wave (km/s) = 8.03689 7.09259 7.57946
#
# Compressibility (1/GPa) = 0.01324814
#
# Stress axis : x y z
#
# Youngs Moduli (GPa) = 94.50694 64.67012 71.00868
#
# Poissons Ratio (x) = 0.02151 0.28003
# Poissons Ratio (y) = 0.03144 0.65067
# Poissons Ratio (z) = 0.37269 0.59259
#
# Static dielectric constant tensor:
#      x y z
#    x 3.494190 0.000000 -0.018750 
#    y 0.000000 3.498830 0.000000 
#    z -0.018750 0.000000 3.128170 
# 
# 
# High freq. dielectric constant tensor:
#      x y z
#    x 1.713510 0.000000 -0.003620 
#    y 0.000000 1.719320 0.000000 
#    z -0.003620 0.000000 1.683110 
# 
# From -- ./inp_files/53842.got.cif
#   From: 2010.06.25/outbox.cif.g09.slc.cpg/sg12_27_cif.got.tgz:53842.got - 2010.06.28 00:19:55.
