data_PCOD8093995
_publ_section_title
;
Structure prediction by ZEFSAII (Michael W. Deem and Ramdas Pophale) SiO2 
 PCOD8093995
Probable space group: C 2/M
;
_chemical_formula_sum "Si O2"
_cell_formula_units_Z 64
_cell_length_a 22.533309
_cell_length_b 8.448087
_cell_length_c 20.107319
_cell_angle_alpha 90.000000
_cell_angle_beta 126.385494
_cell_angle_gamma 90.000000
_cell_volume 3081.464309
_symmetry_space_group_name_H-M "C 2/M"
_symmetry_group_IT_number 12
_symmetry_cell_setting 'monoclinic'
loop_
_space_group_symop_operation_xyz
x,y,z
-x,y,-z
-x,-y,-z
x,-y,z
1/2+x,1/2+y,z
1/2-x,1/2+y,-z
1/2-x,1/2-y,-z
1/2+x,1/2-y,z
loop_
_atom_site_type_symbol
_atom_site_label
_atom_site_fract_x
_atom_site_fract_y
_atom_site_fract_z
Si Si1 0.163248 0.816140 0.766018
Si Si2 0.647643 0.183141 0.463180
Si Si3 0.488056 0.185374 0.318889
Si Si4 0.821470 0.684333 0.081895
Si Si5 0.276198 0.182693 0.622015
Si Si6 0.944311 0.315114 0.906337
Si Si7 0.476183 0.684383 0.165790
Si Si8 0.207315 0.182277 0.227463
O O1 0.081370 0.761994 0.688680
O O2 0.185860 0.712986 0.844605
O O3 0.222102 0.784942 0.747546
O O4 0.161762 0.000000 0.784262
O O5 0.560483 0.216340 0.411569
O O6 0.674036 0.234537 0.407302
O O7 0.690391 0.283138 0.547602
O O8 0.666602 0.000000 0.487505
O O9 0.499626 0.265372 0.255099
O O10 0.474429 0.000000 0.298243
O O11 0.831451 0.500000 0.073564
O O12 0.890460 0.777644 0.097001
O O13 0.750000 0.750000 0.000000
O O14 0.304692 0.285820 0.702535
O O15 0.286454 0.000000 0.647337
O O16 0.930835 0.500000 0.907253
O O17 0.865449 0.229849 0.862203
O O18 0.976031 0.282837 0.854559
O O19 0.000000 0.249817 0.000000
O O20 0.491470 0.500000 0.164727
O O21 0.224536 0.000000 0.225898
#
# Coordination Sequence:
#
# PCOD8093995 Si02
#       8
#     8   8   8   8   8   8   8   8
#     4  11  23  40  60  85 117 155 201 247 299 358
#     4   9  19  35  59  90 124 157 195 245 296 349
#     4  10  19  36  61  88 120 157 199 246 298 351
#     4  11  22  38  60  85 114 150 195 246 298 348
#     4  10  20  36  60  91 124 160 199 240 294 356
#     4  11  25  43  62  85 116 154 197 244 297 354
#     4  11  22  37  58  86 118 151 194 242 292 351
#     4  12  25  42  63  86 120 159 199 245 298 361
#
# _framework density 20.769347
#
# number of rings (size 3 to 8) (size 9 to 14) (size 15 to 20)
#    0.000    1.375    0.000    7.875    1.750    3.500 
#    0.000    0.625    0.000    3.750    0.000    0.000 
#    0.000    0.000    0.000    0.000    0.000    0.000 
#
# Total GULP energy -396965.691416 kJ/mol
# GULP energy per Si atom -12405.177857 kJ/mol
# Density = 2.072208 g / cm^3
# Si number density = 20.769347 Si / 1000 Ang^3
#
#
#
# Elastic Constant Matrix: (Units=GPa)
#
#
# Indices 1 2 3 4 5 6 
#
# 1 82.7871 11.8628 29.7471 0.0000 14.5552 0.0000
# 2 11.8628 85.9857 27.4666 0.0000 8.1838 0.0000
# 3 29.7471 27.4666 86.5000 0.0000 25.6788 0.0000
# 4 0.0000 0.0000 0.0000 34.1613 0.0000 4.2319
# 5 14.5552 8.1838 25.6788 0.0000 30.3208 0.0000
# 6 0.0000 0.0000 0.0000 4.2319 0.0000 32.3322
#
#
#
# Elastic Compliance Matrix: (Units=1/GPa)
#
#
# Indices 1 2 3 4 5 6 
#
# 1 0.014077 -0.000439 -0.003648 0.000000 -0.003550 0.000000
# 2 -0.000439 0.012956 -0.003991 0.000000 0.000094 0.000000
# 3 -0.003648 -0.003991 0.017690 0.000000 -0.012154 0.000000
# 4 0.000000 0.000000 0.000000 0.029755 0.000000 -0.003895
# 5 -0.003550 0.000094 -0.012154 0.000000 0.044952 0.000000
# 6 0.000000 0.000000 0.000000 -0.003895 0.000000 0.031439
#
#
# Mechanical properties :
#
#
# Convention : Reuss Voigt Hill
#
# Bulk Modulus (GPa) = 35.00393 43.71397 39.35895
# Shear Modulus (GPa) = 28.32086 31.77596 30.04841
#
# Velocity S-wave (km/s) = 3.69669 3.91569 3.80777
# Velocity P-wave (km/s) = 5.92544 6.44489 6.19062
#
# Compressibility (1/GPa) = 0.02856822
#
# Stress axis : x y z
#
# Youngs Moduli (GPa) = 71.03837 77.18242 56.52759
#
# Poissons Ratio (x) = 0.03388 0.20620
# Poissons Ratio (y) = 0.03119 0.22559
# Poissons Ratio (z) = 0.25914 0.30803
#
# Static dielectric constant tensor:
#      x y z
#    x 3.745510 0.000000 0.265040 
#    y 0.000000 3.760490 0.000000 
#    z 0.265040 0.000000 3.758150 
# 
# 
# High freq. dielectric constant tensor:
#      x y z
#    x 1.808900 0.000000 0.020500 
#    y 0.000000 1.821850 0.000000 
#    z 0.020500 0.000000 1.807280 
# 
# From -- ./inp_files/320051.got.cif
#   From: 2010.06.25/outbox.cif.g09.slc.cpg/sg12_161_cif.got.tgz:320051.got - 2010.06.28 00:19:55.
