data_PCOD8093472
_publ_section_title
;
Structure prediction by ZEFSAII (Michael W. Deem and Ramdas Pophale) SiO2 
 PCOD8093472
Probable space group: C 2/M
;
_chemical_formula_sum "Si O2"
_cell_formula_units_Z 44
_cell_length_a 18.334599
_cell_length_b 25.125873
_cell_length_c 8.511164
_cell_angle_alpha 90.000000
_cell_angle_beta 34.087597
_cell_angle_gamma 90.000000
_cell_volume 2197.485141
_symmetry_space_group_name_H-M "C 2/M"
_symmetry_group_IT_number 12
_symmetry_cell_setting 'monoclinic'
loop_
_space_group_symop_operation_xyz
x,y,z
-x,y,-z
-x,-y,-z
x,-y,z
1/2+x,1/2+y,z
1/2-x,1/2+y,-z
1/2-x,1/2-y,-z
1/2+x,1/2-y,z
loop_
_atom_site_type_symbol
_atom_site_label
_atom_site_fract_x
_atom_site_fract_y
_atom_site_fract_z
Si Si1 0.857452 0.135319 0.233638
Si Si2 0.863414 0.251834 0.171358
Si Si3 0.249167 0.348314 0.771472
Si Si4 0.115347 0.441063 0.181030
Si Si5 0.846724 0.941979 0.002551
Si Si6 0.500000 0.376703 0.500000
O O1 0.876925 0.189990 0.096772
O O2 0.785261 0.141834 0.526162
O O3 0.783103 0.092682 0.257001
O O4 0.000000 0.110055 0.000000
O O5 0.750000 0.250000 0.500000
O O6 0.824665 0.290912 0.095864
O O7 0.000000 0.272284 0.000000
O O8 0.372908 0.343021 0.669575
O O9 0.147238 0.395159 0.997345
O O10 0.081535 0.500000 0.167072
O O11 0.000000 0.421286 0.500000
O O12 0.243381 0.448966 0.051968
O O13 0.970746 0.912551 0.704868
O O14 0.889834 0.000000 0.988343
#
# Coordination Sequence:
#
# PCOD8093472 Si02
#       6
#     8   8   8   8   8   4
#     4  10  19  36  57  84 116 145 187 243 289 339
#     4   9  20  37  61  83 115 156 193 239 300 344
#     4  10  20  36  62  85 112 158 195 238 291 351
#     4   9  20  38  56  78 117 157 191 237 293 345
#     4  10  20  34  56  82 114 151 186 234 291 345
#     4  10  19  36  54  84 122 146 189 230 290 350
#
# _framework density 20.02289
#
# number of rings (size 3 to 8) (size 9 to 14) (size 15 to 20)
#    0.000    2.364    1.818    0.273    0.000    4.727 
#    0.000    3.636    4.000    3.818    0.000    0.000 
#    0.000    0.000    0.000    0.000    0.000    0.000 
#
# Total GULP energy -272550.364986 kJ/mol
# GULP energy per Si atom -12388.652954 kJ/mol
# Density = 1.997732 g / cm^3
# Si number density = 20.022890 Si / 1000 Ang^3
#
#
#
# Elastic Constant Matrix: (Units=GPa)
#
#
# Indices 1 2 3 4 5 6 
#
# 1 63.4397 64.0039 22.6945 0.0000 4.5571 0.0000
# 2 64.0039 146.0719 37.2051 0.0000 9.6229 0.0000
# 3 22.6945 37.2051 88.0170 0.0000 -2.7066 0.0000
# 4 0.0000 0.0000 0.0000 25.7183 0.0000 10.7096
# 5 4.5571 9.6229 -2.7066 0.0000 32.4091 0.0000
# 6 0.0000 0.0000 0.0000 10.7096 0.0000 38.0901
#
#
#
# Elastic Compliance Matrix: (Units=1/GPa)
#
#
# Indices 1 2 3 4 5 6 
#
# 1 0.028689 -0.011918 -0.002381 0.000000 -0.000694 0.000000
# 2 -0.011918 0.012840 -0.002427 0.000000 -0.002339 0.000000
# 3 -0.002381 -0.002427 0.013067 0.000000 0.002146 0.000000
# 4 0.000000 0.000000 0.000000 0.044039 0.000000 -0.012382
# 5 -0.000694 -0.002339 0.002146 0.000000 0.031827 0.000000
# 6 0.000000 0.000000 0.000000 -0.012382 0.000000 0.029735
#
#
# Mechanical properties :
#
#
# Convention : Reuss Voigt Hill
#
# Bulk Modulus (GPa) = 47.29227 60.59286 53.94256
# Shear Modulus (GPa) = 24.91320 30.81851 27.86586
#
# Velocity S-wave (km/s) = 3.53120 3.92747 3.73460
# Velocity P-wave (km/s) = 6.34793 7.13402 6.75242
#
# Compressibility (1/GPa) = 0.02114511
#
# Stress axis : x y z
#
# Youngs Moduli (GPa) = 34.85662 77.87926 76.52891
#
# Poissons Ratio (x) = 0.92820 0.18218
# Poissons Ratio (y) = 0.41544 0.18570
# Poissons Ratio (z) = 0.08298 0.18898
#
# Static dielectric constant tensor:
#      x y z
#    x 3.482440 0.000000 -0.169380 
#    y 0.000000 4.560680 0.000000 
#    z -0.169380 0.000000 3.750130 
# 
# 
# High freq. dielectric constant tensor:
#      x y z
#    x 1.755380 0.000000 -0.009420 
#    y 0.000000 1.789060 0.000000 
#    z -0.009420 0.000000 1.775670 
# 
# From -- ./inp_files/79004.got.cif
#   From: 2010.06.25/outbox.cif.g09.slc.cpg/sg12_40_cif.got.tgz:79004.got - 2010.06.28 00:19:55.
