data_PCOD8093486
_publ_section_title
;
Structure prediction by ZEFSAII (Michael W. Deem and Ramdas Pophale) SiO2 
 PCOD8093486
Probable space group: C 2/M
;
_chemical_formula_sum "Si O2"
_cell_formula_units_Z 56
_cell_length_a 13.804908
_cell_length_b 17.129068
_cell_length_c 14.539247
_cell_angle_alpha 90.000000
_cell_angle_beta 117.716539
_cell_angle_gamma 90.000000
_cell_volume 3043.544917
_symmetry_space_group_name_H-M "C 2/M"
_symmetry_group_IT_number 12
_symmetry_cell_setting 'monoclinic'
loop_
_space_group_symop_operation_xyz
x,y,z
-x,y,-z
-x,-y,-z
x,-y,z
1/2+x,1/2+y,z
1/2-x,1/2+y,-z
1/2-x,1/2-y,-z
1/2+x,1/2-y,z
loop_
_atom_site_type_symbol
_atom_site_label
_atom_site_fract_x
_atom_site_fract_y
_atom_site_fract_z
Si Si1 0.531842 0.162851 0.258687
Si Si2 0.322423 0.000000 0.917078
Si Si3 0.096718 0.776642 0.684020
Si Si4 0.229657 0.812428 0.568218
Si Si5 0.765592 0.161893 0.100198
Si Si6 0.008221 0.500000 0.847563
Si Si7 0.069830 0.756974 0.946733
Si Si8 0.948342 0.914764 0.576114
O O1 0.468021 0.196484 0.320349
O O2 0.661192 0.159717 0.332910
O O3 0.490058 0.076103 0.216771
O O4 0.510980 0.222557 0.165799
O O5 0.240194 0.072389 0.873143
O O6 0.402217 0.000000 0.865319
O O7 0.384375 0.000000 0.041785
O O8 0.142275 0.774089 0.600637
O O9 0.198832 0.785153 0.798024
O O10 0.015770 0.850738 0.664470
O O11 0.250000 0.750000 0.500000
O O12 0.176472 0.886801 0.493872
O O13 0.853437 0.173684 0.057089
O O14 0.644447 0.185775 0.015112
O O15 0.000000 0.791704 0.000000
O O16 0.000000 0.924711 0.500000
O O17 0.948188 0.000000 0.625792
#
# Coordination Sequence:
#
# PCOD8093486 Si02
#       8
#     8   4   8   8   8   4   8   8
#     4  11  22  36  56  83 112 146 188 229 287 333
#     4  11  20  36  53  85 117 143 186 239 282 332
#     4  10  21  37  57  81 113 145 183 232 280 337
#     4  11  21  36  59  82 106 148 189 231 279 332
#     4  10  21  33  56  84 111 147 177 228 283 334
#     4  11  22  34  58  82 115 149 185 241 284 331
#     4  10  19  36  55  80 112 146 184 222 274 346
#     4   9  19  35  54  79 108 138 178 232 281 321
#
# _framework density 18.399598000000001
#
# number of rings (size 3 to 8) (size 9 to 14) (size 15 to 20)
#    0.000    1.714    2.857    2.571    2.000    0.000 
#    0.000    0.357    1.571    0.857    0.000    0.000 
#    0.000    0.000    0.000    0.000    0.000    0.000 
#
# Total GULP energy -347191.298809 kJ/mol
# GULP energy per Si atom -12399.689243 kJ/mol
# Density = 1.835772 g / cm^3
# Si number density = 18.399598 Si / 1000 Ang^3
#
#
#
# Elastic Constant Matrix: (Units=GPa)
#
#
# Indices 1 2 3 4 5 6 
#
# 1 93.6707 42.8497 23.0518 0.0000 -5.2559 0.0000
# 2 42.8497 111.4448 14.9585 0.0000 -5.1635 0.0000
# 3 23.0518 14.9585 66.4312 0.0000 10.9028 0.0000
# 4 0.0000 0.0000 0.0000 29.1823 0.0000 0.9413
# 5 -5.2559 -5.1635 10.9028 0.0000 34.1979 0.0000
# 6 0.0000 0.0000 0.0000 0.9413 0.0000 13.6734
#
#
#
# Elastic Compliance Matrix: (Units=1/GPa)
#
#
# Indices 1 2 3 4 5 6 
#
# 1 0.014031 -0.004691 -0.004274 0.000000 0.002811 0.000000
# 2 -0.004691 0.010977 -0.001053 0.000000 0.001272 0.000000
# 3 -0.004274 -0.001053 0.017841 0.000000 -0.006504 0.000000
# 4 0.000000 0.000000 0.000000 0.034344 0.000000 -0.002364
# 5 0.002811 0.001272 -0.006504 0.000000 0.031939 0.000000
# 6 0.000000 0.000000 0.000000 -0.002364 0.000000 0.073298
#
#
# Mechanical properties :
#
#
# Convention : Reuss Voigt Hill
#
# Bulk Modulus (GPa) = 43.83346 48.14073 45.98709
# Shear Modulus (GPa) = 23.80178 28.12318 25.96248
#
# Velocity S-wave (km/s) = 3.60057 3.91380 3.76045
# Velocity P-wave (km/s) = 6.41563 6.82969 6.62589
#
# Compressibility (1/GPa) = 0.02281362
#
# Stress axis : x y z
#
# Youngs Moduli (GPa) = 71.27049 91.10026 56.05178
#
# Poissons Ratio (x) = 0.42735 0.23956
# Poissons Ratio (y) = 0.33433 0.05901
# Poissons Ratio (z) = 0.30460 0.09590
#
# Static dielectric constant tensor:
#      x y z
#    x 3.308100 0.000000 0.046190 
#    y 0.000000 3.475420 0.000000 
#    z 0.046190 0.000000 3.418410 
# 
# 
# High freq. dielectric constant tensor:
#      x y z
#    x 1.701250 0.000000 0.015610 
#    y 0.000000 1.697950 0.000000 
#    z 0.015610 0.000000 1.723790 
# 
# From -- ./inp_files/215872.got.cif
#   From: 2010.06.25/outbox.cif.g09.slc.cpg/sg12_108_cif.got.tgz:215872.got - 2010.06.28 00:19:55.
