data_PCOD8093061
_publ_section_title
;
Structure prediction by ZEFSAII (Michael W. Deem and Ramdas Pophale) SiO2 
 PCOD8093061
Probable space group: C 2/M
;
_chemical_formula_sum "Si O2"
_cell_formula_units_Z 64
_cell_length_a 33.217301
_cell_length_b 9.065349
_cell_length_c 13.844039
_cell_angle_alpha 90.000000
_cell_angle_beta 52.976942
_cell_angle_gamma 90.000000
_cell_volume 3328.346573
_symmetry_space_group_name_H-M "C 2/M"
_symmetry_group_IT_number 12
_symmetry_cell_setting 'monoclinic'
loop_
_space_group_symop_operation_xyz
x,y,z
-x,y,-z
-x,-y,-z
x,-y,z
1/2+x,1/2+y,z
1/2-x,1/2+y,-z
1/2-x,1/2-y,-z
1/2+x,1/2-y,z
loop_
_atom_site_type_symbol
_atom_site_label
_atom_site_fract_x
_atom_site_fract_y
_atom_site_fract_z
Si Si1 0.293284 0.673728 0.499159
Si Si2 0.638674 0.668277 0.226835
Si Si3 0.998597 0.674973 0.210164
Si Si4 0.034655 0.675022 0.363973
Si Si5 0.392954 0.174593 0.280793
Si Si6 0.404464 0.173385 0.041962
Si Si7 0.180086 0.828813 0.960426
Si Si8 0.276443 0.330643 0.746163
O O1 0.292738 0.500000 0.479372
O O2 0.250000 0.750000 0.500000
O O3 0.347074 0.739140 0.393930
O O4 0.283281 0.710262 0.624902
O O5 0.619599 0.500000 0.251194
O O6 0.591248 0.774478 0.299396
O O7 0.671146 0.699588 0.275330
O O8 0.672285 0.704319 0.084624
O O9 0.997060 0.500000 0.213922
O O10 0.943709 0.733186 0.258953
O O11 0.012975 0.738472 0.294621
O O12 0.040489 0.728140 0.072505
O O13 0.034437 0.500000 0.362445
O O14 0.000000 0.737007 0.500000
O O15 0.396879 0.217859 0.163345
O O16 0.385028 0.000000 0.305760
O O17 0.362155 0.248474 0.039794
O O18 0.399014 0.000000 0.034348
O O19 0.234780 0.772551 0.852885
O O20 0.176716 0.000000 0.941098
O O21 0.259488 0.500000 0.783350
#
# Coordination Sequence:
#
# PCOD8093061 Si02
#       8
#     8   8   8   8   8   8   8   8
#     4  11  24  42  61  84 114 150 190 231 284 342
#     4  10  22  40  59  84 116 150 189 233 283 340
#     4   9  18  35  57  84 116 149 189 233 276 332
#     4  10  21  36  58  88 118 150 190 235 282 333
#     4  10  21  36  59  87 114 149 194 238 280 332
#     4  10  19  35  59  84 114 155 193 229 281 338
#     4  11  22  36  58  88 116 145 187 238 288 335
#     4  10  23  41  60  81 111 151 192 232 281 344
#
# _framework density 19.228767000000001
#
# number of rings (size 3 to 8) (size 9 to 14) (size 15 to 20)
#    0.000    1.875    1.250    2.250    1.750    7.250 
#    0.000    1.250    0.000    1.500    0.000    0.000 
#    0.000    0.000    0.000    0.000    0.000    0.000 
#
# Total GULP energy -396906.139434 kJ/mol
# GULP energy per Si atom -12403.316857 kJ/mol
# Density = 1.918500 g / cm^3
# Si number density = 19.228767 Si / 1000 Ang^3
#
#
#
# Elastic Constant Matrix: (Units=GPa)
#
#
# Indices 1 2 3 4 5 6 
#
# 1 113.7750 13.4060 24.9436 0.0000 10.0114 0.0000
# 2 13.4060 13.0636 12.5592 0.0000 6.3166 0.0000
# 3 24.9436 12.5592 91.5025 0.0000 6.0545 0.0000
# 4 0.0000 0.0000 0.0000 26.9628 0.0000 -5.7589
# 5 10.0114 6.3166 6.0545 0.0000 33.6795 0.0000
# 6 0.0000 0.0000 0.0000 -5.7589 0.0000 26.9099
#
#
#
# Elastic Compliance Matrix: (Units=1/GPa)
#
#
# Indices 1 2 3 4 5 6 
#
# 1 0.010227 -0.008432 -0.001552 0.000000 -0.001179 0.000000
# 2 -0.008432 0.102778 -0.010827 0.000000 -0.014823 0.000000
# 3 -0.001552 -0.010827 0.012826 0.000000 0.000187 0.000000
# 4 0.000000 0.000000 0.000000 0.038865 0.000000 0.008317
# 5 -0.001179 -0.014823 0.000187 0.000000 0.032789 0.000000
# 6 0.000000 0.000000 0.000000 0.008317 0.000000 0.038941
#
#
# Mechanical properties :
#
#
# Convention : Reuss Voigt Hill
#
# Bulk Modulus (GPa) = 11.87552 35.57319 23.72436
# Shear Modulus (GPa) = 16.33355 28.67260 22.50308
#
# Velocity S-wave (km/s) = 2.91767 3.86571 3.42465
# Velocity P-wave (km/s) = 4.18804 6.20202 5.29173
#
# Compressibility (1/GPa) = 0.08420682
#
# Stress axis : x y z
#
# Youngs Moduli (GPa) = 97.78057 9.72968 77.96885
#
# Poissons Ratio (x) = 0.08204 0.12105
# Poissons Ratio (y) = 0.82450 0.84420
# Poissons Ratio (z) = 0.15180 0.10535
#
# Static dielectric constant tensor:
#      x y z
#    x 3.749140 0.000000 0.075410 
#    y 0.000000 3.357090 0.000000 
#    z 0.075410 0.000000 3.786100 
# 
# 
# High freq. dielectric constant tensor:
#      x y z
#    x 1.764540 0.000000 0.002530 
#    y 0.000000 1.729230 0.000000 
#    z 0.002530 0.000000 1.762170 
# 
# From -- ./inp_files/249742.got.cif
#   From: 2010.06.25/outbox.cif.g09.slc.cpg/sg12_125_cif.got.tgz:249742.got - 2010.06.28 00:19:55.
