data_PCOD8093397
_publ_section_title
;
Structure prediction by ZEFSAII (Michael W. Deem and Ramdas Pophale) SiO2 
 PCOD8093397
Probable space group: C 2/M
;
_chemical_formula_sum "Si O2"
_cell_formula_units_Z 24
_cell_length_a 5.155783
_cell_length_b 25.269519
_cell_length_c 9.773256
_cell_angle_alpha 90.000000
_cell_angle_beta 105.038132
_cell_angle_gamma 90.000000
_cell_volume 1229.694154
_symmetry_space_group_name_H-M "C 2/M"
_symmetry_group_IT_number 12
_symmetry_cell_setting 'monoclinic'
loop_
_space_group_symop_operation_xyz
x,y,z
-x,y,-z
-x,-y,-z
x,-y,z
1/2+x,1/2+y,z
1/2-x,1/2+y,-z
1/2-x,1/2-y,-z
1/2+x,1/2-y,z
loop_
_atom_site_type_symbol
_atom_site_label
_atom_site_fract_x
_atom_site_fract_y
_atom_site_fract_z
Si Si1 0.413702 0.376309 0.278985
Si Si2 0.000000 0.900104 0.000000
Si Si3 0.000000 0.786080 0.500000
Si Si4 0.115686 0.439611 0.739667
O O1 0.388786 0.364507 0.111551
O O2 0.428541 0.321142 0.358705
O O3 0.685587 0.410780 0.342478
O O4 0.165753 0.409932 0.299770
O O5 0.242163 0.936816 0.090842
O O6 0.750000 0.750000 0.500000
O O7 0.068896 0.500000 0.689985
#
# Coordination Sequence:
#
# PCOD8093397 Si02
#       4
#     8   4   4   8
#     4  10  22  38  60  91 118 156 201 245 282 354
#     4   8  21  34  62  88 134 148 196 228 287 346
#     4  12  26  48  67  78 109 162 208 256 316 344
#     4  10  19  35  62  94 129 162 184 224 292 360
#
# _framework density 19.517049
#
# number of rings (size 3 to 8) (size 9 to 14) (size 15 to 20)
#    2.000    0.000    0.000    4.500    0.000    1.333 
#    0.000    6.667    0.000    0.000    0.000    0.000 
#    0.000    0.000    0.000    0.000    0.000    0.000 
#
# Total GULP energy -148663.604608 kJ/mol
# GULP energy per Si atom -12388.633717 kJ/mol
# Density = 1.947263 g / cm^3
# Si number density = 19.517049 Si / 1000 Ang^3
#
#
#
# Elastic Constant Matrix: (Units=GPa)
#
#
# Indices 1 2 3 4 5 6 
#
# 1 188.9760 89.7535 33.0985 0.0000 -26.7346 0.0000
# 2 89.7535 161.9294 57.1398 0.0000 -12.8677 0.0000
# 3 33.0985 57.1398 63.7471 0.0000 -9.5159 0.0000
# 4 0.0000 0.0000 0.0000 32.7120 0.0000 -4.0635
# 5 -26.7346 -12.8677 -9.5159 0.0000 11.5672 0.0000
# 6 0.0000 0.0000 0.0000 -4.0635 0.0000 42.7382
#
#
#
# Elastic Compliance Matrix: (Units=1/GPa)
#
#
# Indices 1 2 3 4 5 6 
#
# 1 0.009871 -0.004604 0.001872 0.000000 0.019234 0.000000
# 2 -0.004604 0.011333 -0.008521 0.000000 -0.005043 0.000000
# 3 0.001872 -0.008521 0.024605 0.000000 0.015090 0.000000
# 4 0.000000 0.000000 0.000000 0.030935 0.000000 0.002941
# 5 0.019234 -0.005043 0.015090 0.000000 0.137710 0.000000
# 6 0.000000 0.000000 0.000000 0.002941 0.000000 0.023678
#
#
# Mechanical properties :
#
#
# Convention : Reuss Voigt Hill
#
# Bulk Modulus (GPa) = 42.90901 86.07069 64.48985
# Shear Modulus (GPa) = 18.62844 33.04753 25.83798
#
# Velocity S-wave (km/s) = 3.09280 4.11939 3.64245
# Velocity P-wave (km/s) = 5.89805 8.17446 7.12772
#
# Compressibility (1/GPa) = 0.02330513
#
# Stress axis : x y z
#
# Youngs Moduli (GPa) = 101.30385 88.23501 40.64152
#
# Poissons Ratio (x) = 0.40621 -0.07610
# Poissons Ratio (y) = 0.46637 0.34631
# Poissons Ratio (z) = -0.18968 0.75186
#
# Static dielectric constant tensor:
#      x y z
#    x 3.632860 0.000000 -0.078070 
#    y 0.000000 3.304010 0.000000 
#    z -0.078070 0.000000 3.443670 
# 
# 
# High freq. dielectric constant tensor:
#      x y z
#    x 1.779170 0.000000 -0.006150 
#    y 0.000000 1.731300 0.000000 
#    z -0.006150 0.000000 1.753400 
# 
# From -- ./inp_files/33792.got.cif
#   From: 2010.06.25/outbox.cif.g09.slc.cpg/sg12_17_cif.got.tgz:33792.got - 2010.06.28 00:19:55.
