data_PCOD8093520
_publ_section_title
;
Structure prediction by ZEFSAII (Michael W. Deem and Ramdas Pophale) SiO2 
 PCOD8093520
Probable space group: C 2/M
;
_chemical_formula_sum "Si O2"
_cell_formula_units_Z 56
_cell_length_a 9.351279
_cell_length_b 30.386421
_cell_length_c 11.068882
_cell_angle_alpha 90.000000
_cell_angle_beta 111.913768
_cell_angle_gamma 90.000000
_cell_volume 2917.989293
_symmetry_space_group_name_H-M "C 2/M"
_symmetry_group_IT_number 12
_symmetry_cell_setting 'monoclinic'
loop_
_space_group_symop_operation_xyz
x,y,z
-x,y,-z
-x,-y,-z
x,-y,z
1/2+x,1/2+y,z
1/2-x,1/2+y,-z
1/2-x,1/2-y,-z
1/2+x,1/2-y,z
loop_
_atom_site_type_symbol
_atom_site_label
_atom_site_fract_x
_atom_site_fract_y
_atom_site_fract_z
Si Si1 0.891215 0.615482 0.180870
Si Si2 0.840273 0.848161 0.748612
Si Si3 0.324401 0.616787 0.111164
Si Si4 0.163598 0.768191 0.090436
Si Si5 0.609258 0.049494 0.150510
Si Si6 0.345048 0.819336 0.778087
Si Si7 0.164950 0.795480 0.498336
O O1 0.807925 0.619042 0.286480
O O2 0.009684 0.574381 0.222172
O O3 0.988074 0.658499 0.171882
O O4 0.747712 0.609576 0.043299
O O5 0.774512 0.811826 0.824559
O O6 0.859640 0.826286 0.625168
O O7 0.991713 0.876212 0.833137
O O8 0.270420 0.574920 0.176260
O O9 0.257210 0.661002 0.147372
O O10 0.139514 0.731905 0.186617
O O11 0.250000 0.750000 0.000000
O O12 0.000000 0.785852 0.000000
O O13 0.648017 0.000000 0.204266
O O14 0.500000 0.050510 0.000000
O O15 0.262324 0.824620 0.622826
O O16 0.250000 0.750000 0.500000
O O17 0.000000 0.782675 0.500000
#
# Coordination Sequence:
#
# PCOD8093520 Si02
#       7
#     8   8   8   8   8   8   8
#     4  10  21  34  58  87 113 145 182 236 284 341
#     4  12  23  37  54  80 118 152 192 239 288 323
#     4  10  19  36  56  85 118 144 186 236 284 340
#     4  12  23  32  51  76 106 146 188 229 281 330
#     4   8  16  34  60  87 117 150 180 216 282 363
#     4  11  21  38  54  75 108 151 200 236 277 325
#     4  12  27  42  55  73 109 158 206 251 272 325
#
# _framework density 19.191299000000001
#
# number of rings (size 3 to 8) (size 9 to 14) (size 15 to 20)
#    0.000    1.286    2.857    6.000    2.000    0.000 
#    0.000    0.714    0.000    3.429    0.000   16.000 
#    0.000    0.000    0.000    0.000    0.000    0.000 
#
# Total GULP energy -346940.611801 kJ/mol
# GULP energy per Si atom -12390.736136 kJ/mol
# Density = 1.914762 g / cm^3
# Si number density = 19.191299 Si / 1000 Ang^3
#
#
#
# Elastic Constant Matrix: (Units=GPa)
#
#
# Indices 1 2 3 4 5 6 
#
# 1 121.3143 50.9142 14.7638 0.0000 -16.4414 0.0000
# 2 50.9142 110.8637 14.6672 0.0000 -1.6909 0.0000
# 3 14.7638 14.6672 58.5894 0.0000 -4.8710 0.0000
# 4 0.0000 0.0000 0.0000 7.1146 0.0000 7.1268
# 5 -16.4414 -1.6909 -4.8710 0.0000 21.9462 0.0000
# 6 0.0000 0.0000 0.0000 7.1268 0.0000 10.1055
#
#
#
# Elastic Compliance Matrix: (Units=1/GPa)
#
#
# Indices 1 2 3 4 5 6 
#
# 1 0.011582 -0.005066 -0.000979 0.000000 0.008069 0.000000
# 2 -0.005066 0.011546 -0.001890 0.000000 -0.003326 0.000000
# 3 -0.000979 -0.001890 0.018048 0.000000 0.003126 0.000000
# 4 0.000000 0.000000 0.000000 0.478820 0.000000 -0.337682
# 5 0.008069 -0.003326 0.003126 0.000000 0.052049 0.000000
# 6 0.000000 0.000000 0.000000 -0.337682 0.000000 0.337102
#
#
# Mechanical properties :
#
#
# Convention : Reuss Voigt Hill
#
# Bulk Modulus (GPa) = 39.51940 50.16200 44.84070
# Shear Modulus (GPa) = 5.35645 21.86139 13.60892
#
# Velocity S-wave (km/s) = 1.67247 3.37876 2.66582
# Velocity P-wave (km/s) = 4.93625 6.43553 5.73509
#
# Compressibility (1/GPa) = 0.02530403
#
# Stress axis : x y z
#
# Youngs Moduli (GPa) = 86.33951 86.60835 55.40824
#
# Poissons Ratio (x) = 0.43880 0.05427
# Poissons Ratio (y) = 0.43744 0.10474
# Poissons Ratio (z) = 0.08456 0.16371
#
# Static dielectric constant tensor:
#      x y z
#    x 3.642110 0.000000 -0.029700 
#    y 0.000000 3.508470 0.000000 
#    z -0.029700 0.000000 3.407300 
# 
# 
# High freq. dielectric constant tensor:
#      x y z
#    x 1.765910 0.000000 -0.004900 
#    y 0.000000 1.721220 0.000000 
#    z -0.004900 0.000000 1.716680 
# 
# From -- ./inp_files/125352.got.cif
#   From: 2010.06.25/outbox.cif.g09.slc.cpg/sg12_63_cif.got.tgz:125352.got - 2010.06.28 00:19:55.
