data_PCOD8093196
_publ_section_title
;
Structure prediction by ZEFSAII (Michael W. Deem and Ramdas Pophale) SiO2 
 PCOD8093196
Probable space group: C 2/M
;
_chemical_formula_sum "Si O2"
_cell_formula_units_Z 64
_cell_length_a 28.650864
_cell_length_b 9.384802
_cell_length_c 24.582587
_cell_angle_alpha 90.000000
_cell_angle_beta 150.375635
_cell_angle_gamma 90.000000
_cell_volume 3267.316469
_symmetry_space_group_name_H-M "C 2/M"
_symmetry_group_IT_number 12
_symmetry_cell_setting 'monoclinic'
loop_
_space_group_symop_operation_xyz
x,y,z
-x,y,-z
-x,-y,-z
x,-y,z
1/2+x,1/2+y,z
1/2-x,1/2+y,-z
1/2-x,1/2-y,-z
1/2+x,1/2-y,z
loop_
_atom_site_type_symbol
_atom_site_label
_atom_site_fract_x
_atom_site_fract_y
_atom_site_fract_z
Si Si1 0.198108 0.164967 0.400697
Si Si2 0.043795 0.666270 0.986388
Si Si3 0.978455 0.831862 0.540476
Si Si4 0.294591 0.164360 0.385852
Si Si5 0.495429 0.333671 0.156565
Si Si6 0.143459 0.658927 0.748121
Si Si7 0.209691 0.166473 0.009957
Si Si8 0.208609 0.842917 0.187781
O O1 0.250000 0.250000 0.500000
O O2 0.244427 0.209452 0.390581
O O3 0.085758 0.199389 0.286333
O O4 0.214885 0.000000 0.429569
O O5 0.043159 0.500000 0.973066
O O6 0.988494 0.746258 0.882590
O O7 0.150284 0.723021 0.097164
O O8 0.000000 0.705104 0.000000
O O9 0.880690 0.768433 0.461755
O O10 0.000000 0.789271 0.500000
O O11 0.057633 0.769627 0.661456
O O12 0.975321 0.000000 0.544851
O O13 0.216594 0.187928 0.259878
O O14 0.328963 0.000000 0.421315
O O15 0.491695 0.500000 0.137442
O O16 0.398486 0.285659 0.087890
O O17 0.105920 0.500000 0.724219
O O18 0.186804 0.660291 0.731521
O O19 0.224676 0.705426 0.872471
O O20 0.212494 0.000000 0.999440
O O21 0.250000 0.250000 0.000000
O O22 0.163155 0.000000 0.131443
#
# Coordination Sequence:
#
# PCOD8093196 Si02
#       8
#     8   8   8   8   8   8   8   8
#     4  10  23  42  65  90 118 154 201 253 300 351
#     4  11  23  35  53  88 127 158 191 240 302 358
#     4  11  23  36  55  87 124 162 199 244 303 360
#     4  10  21  38  61  89 118 157 205 247 295 357
#     4  10  21  42  66  87 115 155 205 248 288 354
#     4  10  20  37  60  85 115 156 200 243 292 351
#     4  10  22  40  62  90 120 154 199 245 293 350
#     4  10  19  35  60  85 115 155 196 242 293 349
#
# _framework density 19.58794
#
# number of rings (size 3 to 8) (size 9 to 14) (size 15 to 20)
#    0.000    1.750    2.500    1.500    0.000    6.500 
#    0.000    2.500    0.000    0.000    0.000    0.000 
#    0.000    0.000    0.000    0.000    0.000    0.000 
#
# Total GULP energy -396811.237474 kJ/mol
# GULP energy per Si atom -12400.351171 kJ/mol
# Density = 1.954336 g / cm^3
# Si number density = 19.587940 Si / 1000 Ang^3
#
#
#
# Elastic Constant Matrix: (Units=GPa)
#
#
# Indices 1 2 3 4 5 6 
#
# 1 100.2873 48.6321 52.9869 0.0000 -5.5972 0.0000
# 2 48.6321 73.5101 57.6916 0.0000 -0.1175 0.0000
# 3 52.9869 57.6916 129.8008 0.0000 1.3835 0.0000
# 4 0.0000 0.0000 0.0000 30.9843 0.0000 -4.2074
# 5 -5.5972 -0.1175 1.3835 0.0000 32.2304 0.0000
# 6 0.0000 0.0000 0.0000 -4.2074 0.0000 33.6173
#
#
#
# Elastic Compliance Matrix: (Units=1/GPa)
#
#
# Indices 1 2 3 4 5 6 
#
# 1 0.015509 -0.008084 -0.002768 0.000000 0.002783 0.000000
# 2 -0.008084 0.025111 -0.007851 0.000000 -0.000975 0.000000
# 3 -0.002768 -0.007851 0.012334 0.000000 -0.001039 0.000000
# 4 0.000000 0.000000 0.000000 0.032832 0.000000 0.004109
# 5 0.002783 -0.000975 -0.001039 0.000000 0.031551 0.000000
# 6 0.000000 0.000000 0.000000 0.004109 0.000000 0.030261
#
#
# Mechanical properties :
#
#
# Convention : Reuss Voigt Hill
#
# Bulk Modulus (GPa) = 64.30748 69.13549 66.72149
# Shear Modulus (GPa) = 26.28996 28.98558 27.63777
#
# Velocity S-wave (km/s) = 3.66751 3.85095 3.76035
# Velocity P-wave (km/s) = 7.12991 7.42594 7.27943
#
# Compressibility (1/GPa) = 0.01555029
#
# Stress axis : x y z
#
# Youngs Moduli (GPa) = 64.47865 39.82278 81.07388
#
# Poissons Ratio (x) = 0.32191 0.22440
# Poissons Ratio (y) = 0.52122 0.63649
# Poissons Ratio (z) = 0.17847 0.31264
#
# Static dielectric constant tensor:
#      x y z
#    x 3.591070 0.000000 0.022680 
#    y 0.000000 3.469710 0.000000 
#    z 0.022680 0.000000 3.542490 
# 
# 
# High freq. dielectric constant tensor:
#      x y z
#    x 1.758730 0.000000 0.002650 
#    y 0.000000 1.756720 0.000000 
#    z 0.002650 0.000000 1.766480 
# 
# From -- ./inp_files/353586.got.cif
#   From: 2010.06.25/outbox.cif.g09.slc.cpg/sg12_177_cif.got.tgz:353586.got - 2010.06.28 00:19:55.
