data_PCOD8093674
_publ_section_title
;
Structure prediction by ZEFSAII (Michael W. Deem and Ramdas Pophale) SiO2 
 PCOD8093674
Probable space group: C 2/M
;
_chemical_formula_sum "Si O2"
_cell_formula_units_Z 64
_cell_length_a 9.030279
_cell_length_b 25.707864
_cell_length_c 15.399161
_cell_angle_alpha 90.000000
_cell_angle_beta 115.977471
_cell_angle_gamma 90.000000
_cell_volume 3213.717190
_symmetry_space_group_name_H-M "C 2/M"
_symmetry_group_IT_number 12
_symmetry_cell_setting 'monoclinic'
loop_
_space_group_symop_operation_xyz
x,y,z
-x,y,-z
-x,-y,-z
x,-y,z
1/2+x,1/2+y,z
1/2-x,1/2+y,-z
1/2-x,1/2-y,-z
1/2+x,1/2-y,z
loop_
_atom_site_type_symbol
_atom_site_label
_atom_site_fract_x
_atom_site_fract_y
_atom_site_fract_z
Si Si1 0.609840 0.103578 0.195327
Si Si2 0.285640 0.938537 0.070702
Si Si3 0.795374 0.905344 0.763201
Si Si4 0.557855 0.060035 0.365985
Si Si5 0.366479 0.556840 0.147263
Si Si6 0.825221 0.137150 0.487450
Si Si7 0.910112 0.189298 0.688289
Si Si8 0.759715 0.298115 0.698564
O O1 0.466080 0.084731 0.093142
O O2 0.607329 0.066212 0.278441
O O3 0.783785 0.096864 0.192050
O O4 0.601627 0.164141 0.222467
O O5 0.235474 0.905326 0.141819
O O6 0.291786 0.000000 0.094340
O O7 0.162288 0.926247 0.960335
O O8 0.629301 0.919245 0.667865
O O9 0.875035 0.850452 0.757340
O O10 0.939680 0.947063 0.782135
O O11 0.686584 0.092229 0.457929
O O12 0.567729 0.000000 0.396355
O O13 0.286586 0.500000 0.140228
O O14 0.829856 0.165230 0.581200
O O15 0.779440 0.181095 0.406907
O O16 0.000000 0.112615 0.500000
O O17 0.823881 0.240779 0.700986
O O18 0.100795 0.201972 0.720219
#
# Coordination Sequence:
#
# PCOD8093674 Si02
#       8
#     8   8   8   8   8   8   8   8
#     4  10  19  36  58  90 119 150 196 243 286 349
#     4  10  21  36  59  89 120 160 196 234 289 344
#     4  11  22  37  56  86 125 152 198 239 291 348
#     4  10  21  38  59  85 125 166 192 228 292 352
#     4  11  20  35  60  89 120 154 196 241 286 346
#     4   9  21  41  61  90 120 147 198 246 289 345
#     4  11  23  40  62  88 111 156 196 246 301 344
#     4  10  22  39  63  87 115 149 195 246 300 349
#
# _framework density 19.914632999999998
#
# number of rings (size 3 to 8) (size 9 to 14) (size 15 to 20)
#    0.000    1.750    1.250    4.125    5.250    2.750 
#    0.000    2.500    0.000    4.500    0.000    0.000 
#    0.000    0.000    0.000    0.000    0.000    0.000 
#
# Total GULP energy -396654.493113 kJ/mol
# GULP energy per Si atom -12395.452910 kJ/mol
# Density = 1.986931 g / cm^3
# Si number density = 19.914633 Si / 1000 Ang^3
#
#
#
# Elastic Constant Matrix: (Units=GPa)
#
#
# Indices 1 2 3 4 5 6 
#
# 1 110.8752 53.8389 35.3366 0.0000 5.4910 0.0000
# 2 53.8389 114.4747 43.6640 0.0000 3.5937 0.0000
# 3 35.3366 43.6640 62.7599 0.0000 3.6064 0.0000
# 4 0.0000 0.0000 0.0000 20.2225 0.0000 -3.7212
# 5 5.4910 3.5937 3.6064 0.0000 31.7580 0.0000
# 6 0.0000 0.0000 0.0000 -3.7212 0.0000 34.9564
#
#
#
# Elastic Compliance Matrix: (Units=1/GPa)
#
#
# Indices 1 2 3 4 5 6 
#
# 1 0.012422 -0.004306 -0.003929 0.000000 -0.001214 0.000000
# 2 -0.004306 0.013389 -0.006891 0.000000 0.000012 0.000000
# 3 -0.003929 -0.006891 0.023007 0.000000 -0.001154 0.000000
# 4 0.000000 0.000000 0.000000 0.050438 0.000000 0.005369
# 5 -0.001214 0.000012 -0.001154 0.000000 0.031828 0.000000
# 6 0.000000 0.000000 0.000000 0.005369 0.000000 0.029179
#
#
# Mechanical properties :
#
#
# Convention : Reuss Voigt Hill
#
# Bulk Modulus (GPa) = 53.86239 61.53208 57.69723
# Shear Modulus (GPa) = 25.41910 27.73872 26.57891
#
# Velocity S-wave (km/s) = 3.57655 3.73618 3.65724
# Velocity P-wave (km/s) = 6.64538 7.04110 6.84610
#
# Compressibility (1/GPa) = 0.01856583
#
# Stress axis : x y z
#
# Youngs Moduli (GPa) = 80.50127 74.68962 43.46550
#
# Poissons Ratio (x) = 0.32158 0.17077
# Poissons Ratio (y) = 0.34660 0.29954
# Poissons Ratio (z) = 0.31628 0.51472
#
# Static dielectric constant tensor:
#      x y z
#    x 3.923390 0.000000 0.188750 
#    y 0.000000 3.440680 0.000000 
#    z 0.188750 0.000000 3.546190 
# 
# 
# High freq. dielectric constant tensor:
#      x y z
#    x 1.793530 0.000000 0.000810 
#    y 0.000000 1.763370 0.000000 
#    z 0.000810 0.000000 1.762800 
# 
# From -- ./inp_files/199888.got.cif
#   From: 2010.06.25/outbox.cif.g09.slc.cpg/sg12_100_cif.got.tgz:199888.got - 2010.06.28 00:19:55.
