data_PCOD8093232
_publ_section_title
;
Structure prediction by ZEFSAII (Michael W. Deem and Ramdas Pophale) SiO2 
 PCOD8093232
Probable space group: C 2/M
;
_chemical_formula_sum "Si O2"
_cell_formula_units_Z 64
_cell_length_a 29.208218
_cell_length_b 8.990342
_cell_length_c 12.415313
_cell_angle_alpha 90.000000
_cell_angle_beta 89.146865
_cell_angle_gamma 90.000000
_cell_volume 3259.798843
_symmetry_space_group_name_H-M "C 2/M"
_symmetry_group_IT_number 12
_symmetry_cell_setting 'monoclinic'
loop_
_space_group_symop_operation_xyz
x,y,z
-x,y,-z
-x,-y,-z
x,-y,z
1/2+x,1/2+y,z
1/2-x,1/2+y,-z
1/2-x,1/2-y,-z
1/2+x,1/2-y,z
loop_
_atom_site_type_symbol
_atom_site_label
_atom_site_fract_x
_atom_site_fract_y
_atom_site_fract_z
Si Si1 0.739157 0.822945 0.614341
Si Si2 0.977112 0.668534 0.615717
Si Si3 0.104995 0.168674 0.470959
Si Si4 0.602608 0.677024 0.110471
Si Si5 0.499934 0.324513 0.182439
Si Si6 0.827912 0.168457 0.715209
Si Si7 0.862631 0.674174 0.324717
Si Si8 0.912566 0.675908 0.103777
O O1 0.750000 0.750000 0.500000
O O2 0.776390 0.766994 0.703110
O O3 0.689936 0.773828 0.662184
O O4 0.742252 0.000000 0.599501
O O5 0.970607 0.500000 0.655901
O O6 0.928752 0.749613 0.610049
O O7 0.009047 0.756346 0.698816
O O8 0.000000 0.675771 0.500000
O O9 0.153010 0.178053 0.407430
O O10 0.106921 0.246192 0.586262
O O11 0.088406 0.000000 0.487961
O O12 0.606264 0.500000 0.097411
O O13 0.551171 0.721153 0.146837
O O14 0.639319 0.743989 0.195942
O O15 0.614035 0.758410 0.998098
O O16 0.492500 0.500000 0.182960
O O17 0.462643 0.251919 0.104790
O O18 0.825003 0.000000 0.754458
O O19 0.867927 0.500000 0.345024
O O20 0.881954 0.720221 0.207935
O O21 0.918555 0.500000 0.093582
#
# Coordination Sequence:
#
# PCOD8093232 Si02
#       8
#     8   8   8   8   8   8   8   8
#     4  10  19  35  60  87 115 149 186 229 285 343
#     4  11  23  36  51  78 118 157 189 228 284 344
#     4  11  20  34  57  84 113 148 190 233 280 338
#     4  10  21  40  61  82 111 147 192 242 288 333
#     4  11  22  38  60  85 111 147 196 243 285 335
#     4   9  18  35  58  85 113 141 179 232 285 332
#     4  10  22  38  56  83 120 155 186 232 290 344
#     4  11  24  40  56  81 117 154 194 236 285 341
#
# _framework density 19.633113000000002
#
# number of rings (size 3 to 8) (size 9 to 14) (size 15 to 20)
#    0.000    1.625    2.500    2.625    0.000    7.500 
#    0.000    1.250    0.000    0.000    0.000    0.000 
#    0.000    0.000    0.000    0.000    0.000    0.000 
#
# Total GULP energy -396750.368603 kJ/mol
# GULP energy per Si atom -12398.449019 kJ/mol
# Density = 1.958843 g / cm^3
# Si number density = 19.633113 Si / 1000 Ang^3
#
#
#
# Elastic Constant Matrix: (Units=GPa)
#
#
# Indices 1 2 3 4 5 6 
#
# 1 89.6153 22.0859 39.1425 0.0000 15.7692 0.0000
# 2 22.0859 49.3017 35.6068 0.0000 3.5671 0.0000
# 3 39.1425 35.6068 124.8891 0.0000 18.4916 0.0000
# 4 0.0000 0.0000 0.0000 33.6307 0.0000 1.6613
# 5 15.7692 3.5671 18.4916 0.0000 27.7452 0.0000
# 6 0.0000 0.0000 0.0000 1.6613 0.0000 20.5421
#
#
#
# Elastic Compliance Matrix: (Units=1/GPa)
#
#
# Indices 1 2 3 4 5 6 
#
# 1 0.014302 -0.004253 -0.002383 0.000000 -0.005994 0.000000
# 2 -0.004253 0.026883 -0.006854 0.000000 0.003529 0.000000
# 3 -0.002383 -0.006854 0.011513 0.000000 -0.005438 0.000000
# 4 0.000000 0.000000 0.000000 0.029854 0.000000 -0.002414
# 5 -0.005994 0.003529 -0.005438 0.000000 0.042620 0.000000
# 6 0.000000 0.000000 0.000000 -0.002414 0.000000 0.048876
#
#
# Mechanical properties :
#
#
# Convention : Reuss Voigt Hill
#
# Bulk Modulus (GPa) = 38.88058 50.83074 44.85566
# Shear Modulus (GPa) = 23.85489 27.51500 25.68494
#
# Velocity S-wave (km/s) = 3.48951 3.74767 3.62089
# Velocity P-wave (km/s) = 6.00684 6.68380 6.35434
#
# Compressibility (1/GPa) = 0.02571978
#
# Stress axis : x y z
#
# Youngs Moduli (GPa) = 69.91872 37.19777 86.85645
#
# Poissons Ratio (x) = 0.15819 0.20695
# Poissons Ratio (y) = 0.29734 0.59534
# Poissons Ratio (z) = 0.16659 0.25497
#
# Static dielectric constant tensor:
#      x y z
#    x 3.865780 0.000000 0.222370 
#    y 0.000000 3.480900 0.000000 
#    z 0.222370 0.000000 3.645610 
# 
# 
# High freq. dielectric constant tensor:
#      x y z
#    x 1.765300 0.000000 0.011910 
#    y 0.000000 1.752730 0.000000 
#    z 0.011910 0.000000 1.765100 
# 
# From -- ./inp_files/187528.got.cif
#   From: 2010.06.25/outbox.cif.g09.slc.cpg/sg12_94_cif.got.tgz:187528.got - 2010.06.28 00:19:55.
