data_PCOD8093031
_publ_section_title
;
Structure prediction by ZEFSAII (Michael W. Deem and Ramdas Pophale) SiO2 
 PCOD8093031
Probable space group: C 2/M
;
_chemical_formula_sum "Si O2"
_cell_formula_units_Z 52
_cell_length_a 11.072643
_cell_length_b 22.121941
_cell_length_c 18.604508
_cell_angle_alpha 90.000000
_cell_angle_beta 143.748964
_cell_angle_gamma 90.000000
_cell_volume 2694.749450
_symmetry_space_group_name_H-M "C 2/M"
_symmetry_group_IT_number 12
_symmetry_cell_setting 'monoclinic'
loop_
_space_group_symop_operation_xyz
x,y,z
-x,y,-z
-x,-y,-z
x,-y,z
1/2+x,1/2+y,z
1/2-x,1/2+y,-z
1/2-x,1/2-y,-z
1/2+x,1/2-y,z
loop_
_atom_site_type_symbol
_atom_site_label
_atom_site_fract_x
_atom_site_fract_y
_atom_site_fract_z
Si Si1 0.668563 0.203877 0.178363
Si Si2 0.688305 0.500000 0.827299
Si Si3 0.049961 0.500000 0.902558
Si Si4 0.432874 0.307625 0.540404
Si Si5 0.907626 0.128151 0.184518
Si Si6 0.708243 0.178712 0.567184
Si Si7 0.816938 0.373324 0.069652
Si Si8 0.000000 0.194722 0.000000
O O1 0.722045 0.159814 0.137764
O O2 0.507670 0.170610 0.151579
O O3 0.564507 0.264841 0.099321
O O4 0.872296 0.217219 0.321793
O O5 0.552564 0.560707 0.764887
O O6 0.812561 0.500000 0.811753
O O7 0.832147 0.500000 0.965768
O O8 0.102726 0.441516 0.879705
O O9 0.500000 0.345215 0.500000
O O10 0.310270 0.250633 0.449503
O O11 0.284852 0.345342 0.524335
O O12 0.116785 0.165351 0.290841
O O13 0.844285 0.127177 0.072163
O O14 0.500000 0.149639 0.500000
O O15 0.693504 0.348378 0.078300
#
# Coordination Sequence:
#
# PCOD8093031 Si02
#       8
#     8   4   4   8   8   8   8   4
#     4  11  21  36  56  84 118 149 192 230 291 345
#     4   9  16  32  61  86 100 140 201 244 279 319
#     4   9  18  35  60  80 110 149 197 236 277 338
#     4   9  20  35  55  78 106 155 198 229 267 347
#     4  10  19  35  59  83 111 147 193 242 281 334
#     4   9  19  33  51  78 108 148 185 231 282 332
#     4  11  22  37  54  87 118 153 190 238 289 345
#     4  12  26  31  50  89 126 160 168 230 300 366
#
# _framework density 19.296783999999999
#
# number of rings (size 3 to 8) (size 9 to 14) (size 15 to 20)
#    0.000    2.000    3.077    0.462    4.308    4.000 
#    0.000    0.385    0.000    0.000    0.000   15.615 
#    0.000    0.000    0.000    0.000    0.000    0.000 
#
# Total GULP energy -322223.869398 kJ/mol
# GULP energy per Si atom -12393.225746 kJ/mol
# Density = 1.925286 g / cm^3
# Si number density = 19.296784 Si / 1000 Ang^3
#
#
#
# Elastic Constant Matrix: (Units=GPa)
#
#
# Indices 1 2 3 4 5 6 
#
# 1 113.8498 24.0546 19.5871 -0.0147 25.3081 -0.0139
# 2 24.0546 99.6342 24.7930 -0.0041 12.1765 -0.0061
# 3 19.5871 24.7930 73.1913 0.0351 16.0033 0.0261
# 4 -0.0147 -0.0041 0.0351 15.6611 0.0080 4.9910
# 5 25.3081 12.1765 16.0033 0.0080 32.2433 0.0059
# 6 -0.0139 -0.0061 0.0261 4.9910 0.0059 4.9801
#
#
#
# Elastic Compliance Matrix: (Units=1/GPa)
#
#
# Indices 1 2 3 4 5 6 
#
# 1 0.010930 -0.001521 -0.000740 0.000003 -0.007637 0.000038
# 2 -0.001521 0.011366 -0.003102 0.000001 -0.001559 0.000027
# 3 -0.000740 -0.003102 0.016297 -0.000012 -0.006337 -0.000072
# 4 0.000003 0.000001 -0.000012 0.093817 -0.000003 -0.094023
# 5 -0.007637 -0.001559 -0.006337 -0.000003 0.040742 -0.000035
# 6 0.000038 0.000027 -0.000072 -0.094023 -0.000035 0.295031
#
#
# Mechanical properties :
#
#
# Convention : Reuss Voigt Hill
#
# Bulk Modulus (GPa) = 35.88522 47.06051 41.47287
# Shear Modulus (GPa) = 10.24171 25.12626 17.68399
#
# Velocity S-wave (km/s) = 2.30629 3.61237 3.03053
# Velocity P-wave (km/s) = 5.07236 6.46836 5.81242
#
# Compressibility (1/GPa) = 0.02786662
#
# Stress axis : x y z
#
# Youngs Moduli (GPa) = 91.49168 87.97793 61.36017
#
# Poissons Ratio (x) = 0.13384 0.04539
# Poissons Ratio (y) = 0.13919 0.19036
# Poissons Ratio (z) = 0.06768 0.27294
#
# Static dielectric constant tensor:
#      x y z
#    x 3.948770 -0.000010 0.147600 
#    y -0.000010 3.467640 -0.000020 
#    z 0.147600 -0.000020 3.313460 
# 
# 
# High freq. dielectric constant tensor:
#      x y z
#    x 1.756990 0.000000 0.014050 
#    y 0.000000 1.717500 0.000000 
#    z 0.014050 0.000000 1.733400 
# 
# From -- ./inp_files/306953.got.cif
#   From: 2010.06.25/outbox.cif.g09.slc.cpg/sg12_154_cif.got.tgz:306953.got - 2010.06.28 00:19:55.
