data_PCOD8093291
_publ_section_title
;
Structure prediction by ZEFSAII (Michael W. Deem and Ramdas Pophale) SiO2 
 PCOD8093291
Probable space group: C 2/M
;
_chemical_formula_sum "Si O2"
_cell_formula_units_Z 64
_cell_length_a 18.742593
_cell_length_b 9.297709
_cell_length_c 29.655027
_cell_angle_alpha 90.000000
_cell_angle_beta 39.503255
_cell_angle_gamma 90.000000
_cell_volume 3287.338314
_symmetry_space_group_name_H-M "C 2/M"
_symmetry_group_IT_number 12
_symmetry_cell_setting 'monoclinic'
loop_
_space_group_symop_operation_xyz
x,y,z
-x,y,-z
-x,-y,-z
x,-y,z
1/2+x,1/2+y,z
1/2-x,1/2+y,-z
1/2-x,1/2-y,-z
1/2+x,1/2-y,z
loop_
_atom_site_type_symbol
_atom_site_label
_atom_site_fract_x
_atom_site_fract_y
_atom_site_fract_z
Si Si1 0.540216 0.831600 0.298738
Si Si2 0.642697 0.663952 0.068875
Si Si3 0.592858 0.337345 0.840528
Si Si4 0.782051 0.331926 0.439238
Si Si5 0.833108 0.163564 0.840661
Si Si6 0.687944 0.828761 0.311227
Si Si7 0.368801 0.664247 0.571433
Si Si8 0.622460 0.662583 0.928469
O O1 0.409185 0.793647 0.364178
O O2 0.591308 0.749561 0.231285
O O3 0.597665 0.780348 0.317429
O O4 0.561886 0.000000 0.280293
O O5 0.662738 0.500000 0.043399
O O6 0.530464 0.735156 0.101234
O O7 0.613913 0.671703 0.135803
O O8 0.750000 0.750000 0.000000
O O9 0.572831 0.500000 0.834072
O O10 0.688595 0.268026 0.762254
O O11 0.645005 0.332881 0.864531
O O12 0.767562 0.500000 0.456037
O O13 0.750000 0.250000 0.500000
O O14 0.699788 0.282071 0.438964
O O15 0.711177 0.232742 0.907788
O O16 0.821009 0.000000 0.829488
O O17 0.660263 0.763318 0.372580
O O18 0.687722 0.000000 0.315218
O O19 0.500000 0.680675 0.500000
O O20 0.335886 0.500000 0.598434
O O21 0.636005 0.500000 0.940818
O O22 0.500000 0.722155 0.000000
#
# Coordination Sequence:
#
# PCOD8093291 Si02
#       8
#     8   8   8   8   8   8   8   8
#     4  10  21  39  60  83 114 151 196 238 275 333
#     4  10  22  39  57  80 111 147 190 237 287 343
#     4   9  18  35  56  80 110 145 189 235 276 326
#     4  10  22  39  61  89 119 153 191 233 278 333
#     4  11  23  36  55  85 118 149 185 237 296 344
#     4  10  20  36  60  84 110 147 192 240 275 321
#     4  10  22  39  58  85 122 154 181 224 283 340
#     4  10  19  35  61  84 107 149 196 235 281 337
#
# _framework density 19.468637999999999
#
# number of rings (size 3 to 8) (size 9 to 14) (size 15 to 20)
#    0.000    2.000    1.250    1.875    1.750    4.000 
#    0.000    1.250    0.000    0.000    0.000    0.000 
#    0.000    0.000    0.000    0.000    0.000    0.000 
#
# Total GULP energy -396766.159087 kJ/mol
# GULP energy per Si atom -12398.942471 kJ/mol
# Density = 1.942433 g / cm^3
# Si number density = 19.468638 Si / 1000 Ang^3
#
#
#
# Elastic Constant Matrix: (Units=GPa)
#
#
# Indices 1 2 3 4 5 6 
#
# 1 111.7300 29.3515 40.7636 0.0001 -9.5859 0.0000
# 2 29.3515 54.0180 39.3326 0.0000 -0.8613 -0.0007
# 3 40.7636 39.3326 106.4694 -0.0002 -4.0999 -0.0006
# 4 0.0001 0.0000 -0.0002 31.7469 0.0001 6.3136
# 5 -9.5859 -0.8613 -4.0999 0.0001 39.5528 0.0004
# 6 0.0000 -0.0007 -0.0006 6.3136 0.0004 22.7176
#
#
#
# Elastic Compliance Matrix: (Units=1/GPa)
#
#
# Indices 1 2 3 4 5 6 
#
# 1 0.011208 -0.004096 -0.002688 0.000000 0.002349 0.000000
# 2 -0.004096 0.026828 -0.008392 0.000000 -0.001278 0.000001
# 3 -0.002688 -0.008392 0.013544 0.000000 0.000570 0.000000
# 4 0.000000 0.000000 0.000000 0.033342 0.000000 -0.009266
# 5 0.002349 -0.001278 0.000570 0.000000 0.025883 0.000000
# 6 0.000000 0.000001 0.000000 -0.009266 0.000000 0.046594
#
#
# Mechanical properties :
#
#
# Convention : Reuss Voigt Hill
#
# Bulk Modulus (GPa) = 47.10581 54.56809 50.83695
# Shear Modulus (GPa) = 25.66389 29.65476 27.65933
#
# Velocity S-wave (km/s) = 3.63466 3.90706 3.77332
# Velocity P-wave (km/s) = 6.47014 6.96011 6.71959
#
# Compressibility (1/GPa) = 0.02122880
#
# Stress axis : x y z
#
# Youngs Moduli (GPa) = 89.22061 37.27449 73.83537
#
# Poissons Ratio (x) = 0.15266 0.19845
# Poissons Ratio (y) = 0.36541 0.61964
# Poissons Ratio (z) = 0.23980 0.31281
#
# Static dielectric constant tensor:
#      x y z
#    x 3.771060 0.000000 -0.191520 
#    y 0.000000 3.381000 0.000000 
#    z -0.191520 0.000000 3.617050 
# 
# 
# High freq. dielectric constant tensor:
#      x y z
#    x 1.771260 0.000000 -0.005430 
#    y 0.000000 1.732340 0.000000 
#    z -0.005430 0.000000 1.771970 
# 
# From -- ./inp_files/378225.got.cif
#   From: 2010.06.25/outbox.cif.g09.slc.cpg/sg12_190_cif.got.tgz:378225.got - 2010.06.28 00:19:55.
