data_PCOD8093747
_publ_section_title
;
Structure prediction by ZEFSAII (Michael W. Deem and Ramdas Pophale) SiO2 
 PCOD8093747
Probable space group: C 2/M
;
_chemical_formula_sum "Si O2"
_cell_formula_units_Z 56
_cell_length_a 27.270966
_cell_length_b 9.079652
_cell_length_c 17.371293
_cell_angle_alpha 90.000000
_cell_angle_beta 139.882656
_cell_angle_gamma 90.000000
_cell_volume 2771.578442
_symmetry_space_group_name_H-M "C 2/M"
_symmetry_group_IT_number 12
_symmetry_cell_setting 'monoclinic'
loop_
_space_group_symop_operation_xyz
x,y,z
-x,y,-z
-x,-y,-z
x,-y,z
1/2+x,1/2+y,z
1/2-x,1/2+y,-z
1/2-x,1/2-y,-z
1/2+x,1/2-y,z
loop_
_atom_site_type_symbol
_atom_site_label
_atom_site_fract_x
_atom_site_fract_y
_atom_site_fract_z
Si Si1 0.083243 0.329402 0.567602
Si Si2 0.829155 0.172161 0.618274
Si Si3 0.194554 0.325813 0.831804
Si Si4 0.562124 0.670925 0.393839
Si Si5 0.915760 0.172451 0.875762
Si Si6 0.085438 0.326077 0.830527
Si Si7 0.147053 0.172549 0.038048
O O1 0.097608 0.500000 0.563584
O O2 0.137505 0.269485 0.698874
O O3 0.105103 0.228568 0.521013
O O4 0.000000 0.302958 0.500000
O O5 0.750000 0.250000 0.500000
O O6 0.886738 0.202405 0.618517
O O7 0.872329 0.235840 0.747397
O O8 0.811047 0.000000 0.607750
O O9 0.200004 0.500000 0.835601
O O10 0.162428 0.276293 0.876755
O O11 0.275987 0.259935 0.905828
O O12 0.541230 0.500000 0.375695
O O13 0.486294 0.767882 0.301975
O O14 0.860025 0.208476 0.880291
O O15 0.927268 0.000000 0.875269
O O16 0.000000 0.237900 0.000000
O O17 0.079577 0.500000 0.829403
O O18 0.081713 0.254173 0.910821
O O19 0.137454 0.000000 0.012352
#
# Coordination Sequence:
#
# PCOD8093747 Si02
#       7
#     8   8   8   8   8   8   8
#     4  10  19  36  59  83 114 153 194 236 282 347
#     4  10  23  41  62  90 121 155 197 249 302 356
#     4   9  19  34  54  82 114 149 192 233 280 348
#     4  11  23  38  58  86 118 152 194 241 290 347
#     4   9  18  36  61  85 112 151 198 242 288 350
#     4  11  21  37  57  82 116 153 191 235 290 353
#     4  10  20  35  58  84 110 146 193 241 289 345
#
# _framework density 20.205093000000002
#
# number of rings (size 3 to 8) (size 9 to 14) (size 15 to 20)
#    0.000    2.000    1.429    2.143    2.000    3.714 
#    0.000    2.143    0.000    1.714    0.000    0.000 
#    0.000    0.000    0.000    0.000    0.000    0.000 
#
# Total GULP energy -347022.236630 kJ/mol
# GULP energy per Si atom -12393.651308 kJ/mol
# Density = 2.015911 g / cm^3
# Si number density = 20.205093 Si / 1000 Ang^3
#
#
#
# Elastic Constant Matrix: (Units=GPa)
#
#
# Indices 1 2 3 4 5 6 
#
# 1 106.9788 49.6926 48.8052 0.0000 -18.0288 0.0000
# 2 49.6926 50.6306 26.3313 0.0000 -7.3379 0.0000
# 3 48.8052 26.3313 117.6625 0.0000 -17.2090 0.0000
# 4 0.0000 0.0000 0.0000 28.0919 0.0000 -2.0182
# 5 -18.0288 -7.3379 -17.2090 0.0000 40.4267 0.0000
# 6 0.0000 0.0000 0.0000 -2.0182 0.0000 23.2008
#
#
#
# Elastic Compliance Matrix: (Units=1/GPa)
#
#
# Indices 1 2 3 4 5 6 
#
# 1 0.019421 -0.016514 -0.003766 0.000000 0.004060 0.000000
# 2 -0.016514 0.036556 -0.001533 0.000000 -0.001382 0.000000
# 3 -0.003766 -0.001533 0.010790 0.000000 0.002635 0.000000
# 4 0.000000 0.000000 0.000000 0.035821 0.000000 0.003116
# 5 0.004060 -0.001382 0.002635 0.000000 0.027418 0.000000
# 6 0.000000 0.000000 0.000000 0.003116 0.000000 0.043373
#
#
# Mechanical properties :
#
#
# Convention : Reuss Voigt Hill
#
# Bulk Modulus (GPa) = 43.21502 58.32557 50.77030
# Shear Modulus (GPa) = 22.25002 28.37339 25.31170
#
# Velocity S-wave (km/s) = 3.32205 3.75142 3.54324
# Velocity P-wave (km/s) = 6.01243 6.90606 6.47468
#
# Compressibility (1/GPa) = 0.02314010
#
# Stress axis : x y z
#
# Youngs Moduli (GPa) = 51.49038 27.35520 92.68258
#
# Poissons Ratio (x) = 0.45175 0.34906
# Poissons Ratio (y) = 0.85032 0.14208
# Poissons Ratio (z) = 0.19392 0.04193
#
# Static dielectric constant tensor:
#      x y z
#    x 3.827630 0.000000 -0.039760 
#    y 0.000000 3.268450 0.000000 
#    z -0.039760 0.000000 4.016220 
# 
# 
# High freq. dielectric constant tensor:
#      x y z
#    x 1.799400 0.000000 -0.009240 
#    y 0.000000 1.749200 0.000000 
#    z -0.009240 0.000000 1.803420 
# 
# From -- ./inp_files/292573.got.cif
#   From: 2010.06.25/outbox.cif.g09.slc.cpg/sg12_147_cif.got.tgz:292573.got - 2010.06.28 00:19:55.
