data_PCOD8093593
_publ_section_title
;
Structure prediction by ZEFSAII (Michael W. Deem and Ramdas Pophale) SiO2 
 PCOD8093593
Probable space group: C 2/M
;
_chemical_formula_sum "Si O2"
_cell_formula_units_Z 40
_cell_length_a 18.092679
_cell_length_b 18.605293
_cell_length_c 7.576270
_cell_angle_alpha 90.000000
_cell_angle_beta 130.561934
_cell_angle_gamma 90.000000
_cell_volume 1937.487735
_symmetry_space_group_name_H-M "C 2/M"
_symmetry_group_IT_number 12
_symmetry_cell_setting 'monoclinic'
loop_
_space_group_symop_operation_xyz
x,y,z
-x,y,-z
-x,-y,-z
x,-y,z
1/2+x,1/2+y,z
1/2-x,1/2+y,-z
1/2-x,1/2-y,-z
1/2+x,1/2-y,z
loop_
_atom_site_type_symbol
_atom_site_label
_atom_site_fract_x
_atom_site_fract_y
_atom_site_fract_z
Si Si1 0.609985 0.382176 0.665010
Si Si2 0.295315 0.351373 0.841000
Si Si3 0.092134 0.718937 0.536021
Si Si4 0.650694 0.779236 0.257448
Si Si5 0.248756 0.420741 0.407293
O O1 0.500000 0.410092 0.500000
O O2 0.617976 0.297983 0.639596
O O3 0.665160 0.425959 0.600687
O O4 0.659219 0.397363 0.930705
O O5 0.184320 0.331458 0.718221
O O6 0.364836 0.279300 0.922024
O O7 0.296034 0.400399 0.668238
O O8 0.069093 0.720234 0.286779
O O9 0.000000 0.687643 0.500000
O O10 0.750000 0.750000 0.500000
O O11 0.668553 0.861262 0.220182
O O12 0.200094 0.500000 0.344340
#
# Coordination Sequence:
#
# PCOD8093593 Si02
#       5
#     8   8   8   8   8
#     4  11  21  33  54  82 111 141 184 225 267 319
#     4  10  19  36  58  75 112 146 181 225 271 313
#     4   9  16  31  55  85 106 131 177 227 275 314
#     4   8  15  33  54  77 105 139 180 224 268 314
#     4  10  20  36  54  78 113 148 181 219 269 329
#
# _framework density 20.645292000000001
#
# number of rings (size 3 to 8) (size 9 to 14) (size 15 to 20)
#    0.000    2.800    6.000    0.600    0.000    2.000 
#    0.000    1.000    0.000    9.600    0.000    5.600 
#    0.000    0.800    0.000    0.000    0.000    0.000 
#
# Total GULP energy -247839.598385 kJ/mol
# GULP energy per Si atom -12391.979919 kJ/mol
# Density = 2.059830 g / cm^3
# Si number density = 20.645292 Si / 1000 Ang^3
#
#
#
# Elastic Constant Matrix: (Units=GPa)
#
#
# Indices 1 2 3 4 5 6 
#
# 1 153.2485 25.7208 31.5228 0.0000 -16.2569 0.0000
# 2 25.7208 99.3250 10.8288 0.0000 -7.9967 0.0000
# 3 31.5228 10.8288 53.2212 0.0000 -15.5979 0.0000
# 4 0.0000 0.0000 0.0000 2.2345 0.0000 1.6295
# 5 -16.2569 -7.9967 -15.5979 0.0000 23.6730 0.0000
# 6 0.0000 0.0000 0.0000 1.6295 0.0000 1.8228
#
#
#
# Elastic Compliance Matrix: (Units=1/GPa)
#
#
# Indices 1 2 3 4 5 6 
#
# 1 0.007764 -0.001420 -0.003579 0.000000 0.002494 0.000000
# 2 -0.001420 0.010687 -0.000696 0.000000 0.002177 0.000000
# 3 -0.003579 -0.000696 0.025111 0.000000 0.013852 0.000000
# 4 0.000000 0.000000 0.000000 1.285596 0.000000 -1.149252
# 5 0.002494 0.002177 0.013852 0.000000 0.053818 0.000000
# 6 0.000000 0.000000 0.000000 -1.149252 0.000000 1.575972
#
#
# Mechanical properties :
#
#
# Convention : Reuss Voigt Hill
#
# Bulk Modulus (GPa) = 31.08163 49.10439 40.09301
# Shear Modulus (GPa) = 1.67726 21.39422 11.53574
#
# Velocity S-wave (km/s) = 0.90232 3.22262 2.36637
# Velocity P-wave (km/s) = 4.02161 6.13868 5.18926
#
# Compressibility (1/GPa) = 0.03217335
#
# Stress axis : x y z
#
# Youngs Moduli (GPa) = 128.79294 93.57456 39.82377
#
# Poissons Ratio (x) = 0.13284 0.14253
# Poissons Ratio (y) = 0.18284 0.02770
# Poissons Ratio (z) = 0.46094 0.06509
#
# Static dielectric constant tensor:
#      x y z
#    x 4.218850 0.000000 -0.439280 
#    y 0.000000 3.629580 0.000000 
#    z -0.439280 0.000000 3.524770 
# 
# 
# High freq. dielectric constant tensor:
#      x y z
#    x 1.818020 0.000000 -0.027850 
#    y 0.000000 1.778810 0.000000 
#    z -0.027850 0.000000 1.776130 
# 
# From -- ./inp_files/74708.got.cif
#   From: 2010.06.25/outbox.cif.g09.slc.cpg/sg12_38_cif.got.tgz:74708.got - 2010.06.28 00:19:55.
