data_PCOD8093337
_publ_section_title
;
Structure prediction by ZEFSAII (Michael W. Deem and Ramdas Pophale) SiO2 
 PCOD8093337
Probable space group: C 2/M
;
_chemical_formula_sum "Si O2"
_cell_formula_units_Z 64
_cell_length_a 14.386789
_cell_length_b 13.296319
_cell_length_c 17.774052
_cell_angle_alpha 90.000000
_cell_angle_beta 92.958548
_cell_angle_gamma 90.000000
_cell_volume 3395.490389
_symmetry_space_group_name_H-M "C 2/M"
_symmetry_group_IT_number 12
_symmetry_cell_setting 'monoclinic'
loop_
_space_group_symop_operation_xyz
x,y,z
-x,y,-z
-x,-y,-z
x,-y,z
1/2+x,1/2+y,z
1/2-x,1/2+y,-z
1/2-x,1/2-y,-z
1/2+x,1/2-y,z
loop_
_atom_site_type_symbol
_atom_site_label
_atom_site_fract_x
_atom_site_fract_y
_atom_site_fract_z
Si Si1 0.831208 0.269097 0.825768
Si Si2 0.315829 0.385485 0.440845
Si Si3 0.823049 0.884720 0.265936
Si Si4 0.126199 0.312181 0.489037
Si Si5 0.034887 0.269050 0.775252
Si Si6 0.180376 0.615034 0.871905
Si Si7 0.462916 0.115940 0.379706
Si Si8 0.898499 0.614974 0.973138
O O1 0.774280 0.336511 0.764397
O O2 0.771386 0.169957 0.842563
O O3 0.851513 0.326065 0.903521
O O4 0.928627 0.242212 0.789904
O O5 0.336860 0.500000 0.467261
O O6 0.340726 0.370202 0.354877
O O7 0.208470 0.357651 0.443722
O O8 0.371258 0.308166 0.496391
O O9 0.909540 0.835468 0.225815
O O10 0.819782 0.000000 0.242057
O O11 0.127462 0.370736 0.570117
O O12 0.038546 0.329275 0.433424
O O13 0.082408 0.339504 0.839518
O O14 0.047774 0.328153 0.698441
O O15 0.187544 0.500000 0.845381
O O16 0.175242 0.623176 0.961795
O O17 0.486348 0.000000 0.365549
O O18 0.912630 0.500000 0.948068
O O19 0.000000 0.659741 0.000000
#
# Coordination Sequence:
#
# PCOD8093337 Si02
#       8
#     8   8   8   8   8   8   8   8
#     4  11  22  36  62  87 117 152 196 232 283 339
#     4  10  19  36  57  77 110 148 183 234 289 342
#     4  10  22  39  58  84 116 151 193 238 288 340
#     4  10  20  34  55  81 107 137 188 235 286 341
#     4  11  22  38  58  86 115 154 192 239 284 345
#     4  10  22  39  59  86 120 153 189 236 286 338
#     4  11  21  35  55  81 110 142 185 239 290 335
#     4  10  19  35  61  90 117 149 190 236 283 331
#
# _framework density 18.84853
#
# number of rings (size 3 to 8) (size 9 to 14) (size 15 to 20)
#    0.000    1.625    2.500    3.375    0.000    3.000 
#    0.000    1.875    0.000    0.375    0.000    0.000 
#    0.000    0.000    0.000    0.000    0.000    0.000 
#
# Total GULP energy -396737.097793 kJ/mol
# GULP energy per Si atom -12398.034306 kJ/mol
# Density = 1.880563 g / cm^3
# Si number density = 18.848530 Si / 1000 Ang^3
#
#
#
# Elastic Constant Matrix: (Units=GPa)
#
#
# Indices 1 2 3 4 5 6 
#
# 1 93.9224 41.9645 5.5650 0.0000 -9.9397 0.0000
# 2 41.9645 95.3362 15.9140 0.0000 -16.7445 0.0000
# 3 5.5650 15.9140 41.6988 0.0000 -8.9326 0.0000
# 4 0.0000 0.0000 0.0000 27.4130 0.0000 -3.9726
# 5 -9.9397 -16.7445 -8.9326 0.0000 16.8445 0.0000
# 6 0.0000 0.0000 0.0000 -3.9726 0.0000 11.7403
#
#
#
# Elastic Compliance Matrix: (Units=1/GPa)
#
#
# Indices 1 2 3 4 5 6 
#
# 1 0.013370 -0.005536 0.000947 0.000000 0.002889 0.000000
# 2 -0.005536 0.015220 -0.002853 0.000000 0.010350 0.000000
# 3 0.000947 -0.002853 0.027590 0.000000 0.012354 0.000000
# 4 0.000000 0.000000 0.000000 0.038360 0.000000 0.012980
# 5 0.002889 0.010350 0.012354 0.000000 0.077911 0.000000
# 6 0.000000 0.000000 0.000000 0.012980 0.000000 0.089569
#
#
# Mechanical properties :
#
#
# Convention : Reuss Voigt Hill
#
# Bulk Modulus (GPa) = 24.21433 39.76048 31.98741
# Shear Modulus (GPa) = 17.20167 22.36714 19.78441
#
# Velocity S-wave (km/s) = 3.02425 3.44856 3.24335
# Velocity P-wave (km/s) = 5.00694 6.08254 5.57076
#
# Compressibility (1/GPa) = 0.04129786
#
# Stress axis : x y z
#
# Youngs Moduli (GPa) = 74.79357 65.70294 36.24463
#
# Poissons Ratio (x) = 0.36373 -0.03433
# Poissons Ratio (y) = 0.41405 0.10339
# Poissons Ratio (z) = -0.07085 0.18742
#
# Static dielectric constant tensor:
#      x y z
#    x 3.524730 0.000000 -0.196520 
#    y 0.000000 3.493840 0.000000 
#    z -0.196520 0.000000 3.619050 
# 
# 
# High freq. dielectric constant tensor:
#      x y z
#    x 1.729120 0.000000 -0.007440 
#    y 0.000000 1.731900 0.000000 
#    z -0.007440 0.000000 1.740980 
# 
# From -- ./inp_files/269319.got.cif
#   From: 2010.06.25/outbox.cif.g09.slc.cpg/sg12_135_cif.got.tgz:269319.got - 2010.06.28 00:19:55.
