data_PCOD8093278
_publ_section_title
;
Structure prediction by ZEFSAII (Michael W. Deem and Ramdas Pophale) SiO2 
 PCOD8093278
Probable space group: C 2/M
;
_chemical_formula_sum "Si O2"
_cell_formula_units_Z 64
_cell_length_a 16.522834
_cell_length_b 18.073994
_cell_length_c 25.183596
_cell_angle_alpha 90.000000
_cell_angle_beta 154.412591
_cell_angle_gamma 90.000000
_cell_volume 3248.082927
_symmetry_space_group_name_H-M "C 2/M"
_symmetry_group_IT_number 12
_symmetry_cell_setting 'monoclinic'
loop_
_space_group_symop_operation_xyz
x,y,z
-x,y,-z
-x,-y,-z
x,-y,z
1/2+x,1/2+y,z
1/2-x,1/2+y,-z
1/2-x,1/2-y,-z
1/2+x,1/2-y,z
loop_
_atom_site_type_symbol
_atom_site_label
_atom_site_fract_x
_atom_site_fract_y
_atom_site_fract_z
Si Si1 0.903695 0.336061 0.327335
Si Si2 0.317678 0.308794 0.422389
Si Si3 0.187888 0.160736 0.387837
Si Si4 0.559820 0.667077 0.660464
Si Si5 0.716019 0.586810 0.119157
Si Si6 0.249697 0.413507 0.978389
Si Si7 0.842521 0.586437 0.760857
Si Si8 0.138040 0.913899 0.252137
O O1 0.858933 0.249384 0.297917
O O2 0.848339 0.372830 0.239286
O O3 0.791656 0.369962 0.309979
O O4 0.123948 0.348542 0.466723
O O5 0.500000 0.275713 0.500000
O O6 0.179903 0.240699 0.354057
O O7 0.385834 0.346627 0.517449
O O8 0.220267 0.370681 0.329138
O O9 0.173425 0.096846 0.335461
O O10 0.009777 0.152359 0.321148
O O11 0.728660 0.611341 0.745651
O O12 0.751031 0.500000 0.146712
O O13 0.771791 0.617424 0.094131
O O14 0.500000 0.607170 0.000000
O O15 0.283982 0.500000 0.993249
O O16 0.062144 0.395828 0.900761
O O17 0.432590 0.380951 0.115931
O O18 0.809610 0.500000 0.730690
O O19 0.156948 0.000000 0.249198
#
# Coordination Sequence:
#
# PCOD8093278 Si02
#       8
#     8   8   8   8   8   8   8   8
#     4  11  21  38  62  86 117 158 190 235 299 355
#     4   9  18  36  60  83 115 151 191 242 302 347
#     4  11  23  38  58  84 121 163 194 229 284 354
#     4  10  23  39  56  84 121 157 195 240 286 341
#     4  10  19  35  60  91 122 149 187 249 304 341
#     4   9  20  37  59  85 115 154 190 235 301 346
#     4  10  21  39  63  85 111 153 203 248 290 340
#     4  11  22  39  60  86 120 155 192 236 289 352
#
# _framework density 19.70393
#
# number of rings (size 3 to 8) (size 9 to 14) (size 15 to 20)
#    0.000    1.875    1.250    4.500    3.500    4.250 
#    0.000    4.375    0.000    2.250    0.000    0.000 
#    0.000    0.000    0.000    0.000    0.000    0.000 
#
# Total GULP energy -396813.495161 kJ/mol
# GULP energy per Si atom -12400.421724 kJ/mol
# Density = 1.965908 g / cm^3
# Si number density = 19.703930 Si / 1000 Ang^3
#
#
#
# Elastic Constant Matrix: (Units=GPa)
#
#
# Indices 1 2 3 4 5 6 
#
# 1 124.8245 34.6338 39.1623 0.0077 14.7448 0.0000
# 2 34.6338 69.2261 49.9776 0.0063 10.8684 -0.0022
# 3 39.1623 49.9776 82.6960 -0.0033 3.4140 -0.0003
# 4 0.0077 0.0063 -0.0033 9.3185 0.0000 -3.6633
# 5 14.7448 10.8684 3.4140 0.0000 32.7028 -0.0006
# 6 0.0000 -0.0022 -0.0003 -3.6633 -0.0006 21.2563
#
#
#
# Elastic Compliance Matrix: (Units=1/GPa)
#
#
# Indices 1 2 3 4 5 6 
#
# 1 0.010052 -0.002034 -0.003386 -0.000009 -0.003502 -0.000002
# 2 -0.002034 0.027704 -0.015504 -0.000023 -0.006671 -0.000002
# 3 -0.003386 -0.015504 0.022889 0.000023 0.004290 0.000003
# 4 -0.000009 -0.000023 0.000023 0.115112 0.000010 0.019839
# 5 -0.003502 -0.006671 0.004290 0.000010 0.033927 0.000002
# 6 -0.000002 -0.000002 0.000003 0.019839 0.000002 0.050464
#
#
# Mechanical properties :
#
#
# Convention : Reuss Voigt Hill
#
# Bulk Modulus (GPa) = 53.20485 58.25490 55.72987
# Shear Modulus (GPa) = 16.22002 22.85372 19.53687
#
# Velocity S-wave (km/s) = 2.87224 3.40936 3.15226
# Velocity P-wave (km/s) = 6.16931 6.71771 6.44934
#
# Compressibility (1/GPa) = 0.01879528
#
# Stress axis : x y z
#
# Youngs Moduli (GPa) = 99.48460 36.09642 43.68959
#
# Poissons Ratio (x) = 0.07344 0.14794
# Poissons Ratio (y) = 0.20239 0.67736
# Poissons Ratio (z) = 0.33687 0.55963
#
# Static dielectric constant tensor:
#      x y z
#    x 3.705700 0.000000 0.002670 
#    y 0.000000 3.396210 -0.000030 
#    z 0.002670 -0.000030 3.639020 
# 
# 
# High freq. dielectric constant tensor:
#      x y z
#    x 1.776820 0.000000 0.004590 
#    y 0.000000 1.749660 0.000000 
#    z 0.004590 0.000000 1.761830 
# 
# From -- ./inp_files/340877.got.cif
#   From: 2010.06.25/outbox.cif.g09.slc.cpg/sg12_171_cif.got.tgz:340877.got - 2010.06.28 00:19:55.
