data_PCOD8093441
_publ_section_title
;
Structure prediction by ZEFSAII (Michael W. Deem and Ramdas Pophale) SiO2 
 PCOD8093441
Probable space group: C 2/M
;
_chemical_formula_sum "Si O2"
_cell_formula_units_Z 52
_cell_length_a 20.889135
_cell_length_b 11.620418
_cell_length_c 12.726421
_cell_angle_alpha 90.000000
_cell_angle_beta 119.142793
_cell_angle_gamma 90.000000
_cell_volume 2698.149623
_symmetry_space_group_name_H-M "C 2/M"
_symmetry_group_IT_number 12
_symmetry_cell_setting 'monoclinic'
loop_
_space_group_symop_operation_xyz
x,y,z
-x,y,-z
-x,-y,-z
x,-y,z
1/2+x,1/2+y,z
1/2-x,1/2+y,-z
1/2-x,1/2-y,-z
1/2+x,1/2-y,z
loop_
_atom_site_type_symbol
_atom_site_label
_atom_site_fract_x
_atom_site_fract_y
_atom_site_fract_z
Si Si1 0.825520 0.794371 0.511062
Si Si2 0.629387 0.500000 0.306810
Si Si3 0.197680 0.868603 0.739453
Si Si4 0.963311 0.364153 0.581327
Si Si5 0.532780 0.500000 0.850811
Si Si6 0.805068 0.242912 0.950345
Si Si7 0.837095 0.000000 0.893880
Si Si8 0.419187 0.268408 0.203360
O O1 0.750000 0.750000 0.500000
O O2 0.860538 0.885908 0.617599
O O3 0.808139 0.858847 0.389448
O O4 0.883829 0.692939 0.536013
O O5 0.551584 0.500000 0.186224
O O6 0.679723 0.500000 0.244049
O O7 0.280618 0.831316 0.839388
O O8 0.140854 0.783265 0.751973
O O9 0.183944 0.000000 0.763229
O O10 0.951482 0.500000 0.579162
O O11 0.000000 0.327600 0.500000
O O12 0.019516 0.323977 0.716349
O O13 0.545677 0.392181 0.785448
O O14 0.579368 0.500000 0.995572
O O15 0.797952 0.112968 0.904892
O O16 0.750000 0.250000 0.000000
O O17 0.884453 0.273347 0.063794
#
# Coordination Sequence:
#
# PCOD8093441 Si02
#       8
#     8   4   8   8   4   8   4   8
#     4  12  26  41  61  90 127 168 213 257 316 386
#     4  12  23  39  64  89 115 171 205 251 325 366
#     4  11  21  38  61  89 123 161 210 260 313 367
#     4  11  24  42  63  90 126 169 212 266 320 378
#     4  10  19  35  66  91 115 151 196 267 308 365
#     4   9  21  36  60  89 123 162 197 259 317 367
#     4  10  21  40  56  92 129 152 207 256 309 377
#     4  10  19  38  62  92 120 153 207 262 316 364
#
# _framework density 19.272466999999999
#
# number of rings (size 3 to 8) (size 9 to 14) (size 15 to 20)
#    0.000    1.385    4.615    1.154    4.308    0.615 
#    5.538    2.308    0.000    0.000    0.000    4.308 
#    0.000    0.000    0.000    0.000    0.000    0.000 
#
# Total GULP energy -322275.074266 kJ/mol
# GULP energy per Si atom -12395.195164 kJ/mol
# Density = 1.922860 g / cm^3
# Si number density = 19.272467 Si / 1000 Ang^3
#
#
#
# Elastic Constant Matrix: (Units=GPa)
#
#
# Indices 1 2 3 4 5 6 
#
# 1 93.8714 47.0905 39.4615 0.0000 6.4857 0.0000
# 2 47.0905 103.6727 54.7563 0.0000 6.8098 0.0000
# 3 39.4615 54.7563 123.0418 0.0000 -1.4160 0.0000
# 4 0.0000 0.0000 0.0000 33.2442 0.0000 1.4938
# 5 6.4857 6.8098 -1.4160 0.0000 32.0033 0.0000
# 6 0.0000 0.0000 0.0000 1.4938 0.0000 28.2152
#
#
#
# Elastic Compliance Matrix: (Units=1/GPa)
#
#
# Indices 1 2 3 4 5 6 
#
# 1 0.014355 -0.005165 -0.002327 0.000000 -0.001913 0.000000
# 2 -0.005165 0.014750 -0.004934 0.000000 -0.002310 0.000000
# 3 -0.002327 -0.004934 0.011092 0.000000 0.002012 0.000000
# 4 0.000000 0.000000 0.000000 0.030152 0.000000 -0.001596
# 5 -0.001913 -0.002310 0.002012 0.000000 0.032215 0.000000
# 6 0.000000 0.000000 0.000000 -0.001596 0.000000 0.035526
#
#
# Mechanical properties :
#
#
# Convention : Reuss Voigt Hill
#
# Bulk Modulus (GPa) = 65.17212 67.02250 66.09731
# Shear Modulus (GPa) = 29.75173 30.64438 30.19806
#
# Velocity S-wave (km/s) = 3.93331 3.99188 3.96270
# Velocity P-wave (km/s) = 7.38360 7.48990 7.43694
#
# Compressibility (1/GPa) = 0.01534398
#
# Stress axis : x y z
#
# Youngs Moduli (GPa) = 69.66453 67.79825 90.15140
#
# Poissons Ratio (x) = 0.35021 0.20978
# Poissons Ratio (y) = 0.35985 0.44479
# Poissons Ratio (z) = 0.16211 0.33451
#
# Static dielectric constant tensor:
#      x y z
#    x 3.478470 0.000000 0.256010 
#    y 0.000000 3.498640 0.000000 
#    z 0.256010 0.000000 3.967890 
# 
# 
# High freq. dielectric constant tensor:
#      x y z
#    x 1.734270 0.000000 0.005070 
#    y 0.000000 1.746140 0.000000 
#    z 0.005070 0.000000 1.768930 
# 
# From -- ./inp_files/165809.got.cif
#   From: 2010.06.25/outbox.cif.g09.slc.cpg/sg12_83_cif.got.tgz:165809.got - 2010.06.28 00:19:55.
