data_PCOD8093124
_publ_section_title
;
Structure prediction by ZEFSAII (Michael W. Deem and Ramdas Pophale) SiO2 
 PCOD8093124
Probable space group: C 2/M
;
_chemical_formula_sum "Si O2"
_cell_formula_units_Z 64
_cell_length_a 9.500782
_cell_length_b 17.211014
_cell_length_c 32.661644
_cell_angle_alpha 90.000000
_cell_angle_beta 37.187707
_cell_angle_gamma 90.000000
_cell_volume 3228.111837
_symmetry_space_group_name_H-M "C 2/M"
_symmetry_group_IT_number 12
_symmetry_cell_setting 'monoclinic'
loop_
_space_group_symop_operation_xyz
x,y,z
-x,y,-z
-x,-y,-z
x,-y,z
1/2+x,1/2+y,z
1/2-x,1/2+y,-z
1/2-x,1/2-y,-z
1/2+x,1/2-y,z
loop_
_atom_site_type_symbol
_atom_site_label
_atom_site_fract_x
_atom_site_fract_y
_atom_site_fract_z
Si Si1 0.750009 0.278506 0.847081
Si Si2 0.743443 0.732136 0.243641
Si Si3 0.404056 0.333960 0.425375
Si Si4 0.667095 0.193840 0.615004
Si Si5 0.072624 0.411291 0.566192
Si Si6 0.929738 0.682746 0.969783
Si Si7 0.961814 0.088169 0.329462
Si Si8 0.475455 0.589362 0.958220
O O1 0.673773 0.270645 0.817790
O O2 0.661220 0.199556 0.889916
O O3 0.643916 0.356472 0.891909
O O4 0.027607 0.281526 0.782565
O O5 0.575298 0.792022 0.305614
O O6 0.620881 0.647880 0.266834
O O7 0.293805 0.260677 0.427641
O O8 0.625403 0.308189 0.400681
O O9 0.200861 0.365282 0.500804
O O10 0.484891 0.396950 0.372879
O O11 0.653567 0.113757 0.592863
O O12 0.142202 0.500000 0.544789
O O13 0.799900 0.396506 0.624448
O O14 0.750000 0.750000 0.000000
O O15 0.797357 0.602229 0.990218
O O16 0.000000 0.684702 0.000000
O O17 0.041013 0.000000 0.301799
O O18 0.542812 0.500000 0.934332
O O19 0.500000 0.611856 0.000000
#
# Coordination Sequence:
#
# PCOD8093124 Si02
#       8
#     8   8   8   8   8   8   8   8
#     4  11  20  36  60  84 112 152 196 231 269 335
#     4  11  22  37  57  82 114 154 197 230 271 336
#     4  11  22  38  61  85 110 144 191 243 298 354
#     4  11  23  39  57  83 117 151 190 239 289 341
#     4  11  23  39  59  83 111 145 190 245 303 354
#     4  10  19  35  59  87 116 147 187 234 284 327
#     4  10  22  40  59  82 115 150 188 239 292 341
#     4  10  21  38  60  90 123 150 185 238 291 329
#
# _framework density 19.825831000000001
#
# number of rings (size 3 to 8) (size 9 to 14) (size 15 to 20)
#    0.000    1.375    0.000    9.000    0.000    5.250 
#    0.000    1.250    0.000    3.000    0.000    0.000 
#    0.000    0.000    0.000    0.000    0.000    0.000 
#
# Total GULP energy -396800.983061 kJ/mol
# GULP energy per Si atom -12400.030721 kJ/mol
# Density = 1.978071 g / cm^3
# Si number density = 19.825831 Si / 1000 Ang^3
#
#
#
# Elastic Constant Matrix: (Units=GPa)
#
#
# Indices 1 2 3 4 5 6 
#
# 1 101.0368 37.2352 9.5825 0.0067 10.3578 -0.0049
# 2 37.2352 65.8222 37.6100 -0.0006 3.0565 0.0035
# 3 9.5825 37.6100 81.1398 -0.0031 8.3709 -0.0127
# 4 0.0067 -0.0006 -0.0031 30.2807 -0.0022 0.2208
# 5 10.3578 3.0565 8.3709 -0.0022 38.6536 0.0090
# 6 -0.0049 0.0035 -0.0127 0.2208 0.0090 27.9157
#
#
#
# Elastic Compliance Matrix: (Units=1/GPa)
#
#
# Indices 1 2 3 4 5 6 
#
# 1 0.013321 -0.009087 0.003000 -0.000003 -0.003501 0.000006
# 2 -0.009087 0.026872 -0.011676 0.000002 0.002839 -0.000011
# 3 0.003000 -0.011676 0.017767 0.000001 -0.003728 0.000011
# 4 -0.000003 0.000002 0.000001 0.033026 0.000002 -0.000261
# 5 -0.003501 0.002839 -0.003728 0.000002 0.027392 -0.000012
# 6 0.000006 -0.000011 0.000011 -0.000261 -0.000012 0.035824
#
#
# Mechanical properties :
#
#
# Convention : Reuss Voigt Hill
#
# Bulk Modulus (GPa) = 44.57434 46.31712 45.44573
# Shear Modulus (GPa) = 25.35431 30.27473 27.81452
#
# Velocity S-wave (km/s) = 3.57998 3.91197 3.74965
# Velocity P-wave (km/s) = 6.29445 6.61947 6.45901
#
# Compressibility (1/GPa) = 0.02243443
#
# Stress axis : x y z
#
# Youngs Moduli (GPa) = 75.07190 37.21290 56.28525
#
# Poissons Ratio (x) = 0.33815 -0.16886
# Poissons Ratio (y) = 0.68218 0.65717
# Poissons Ratio (z) = -0.22522 0.43448
#
# Static dielectric constant tensor:
#      x y z
#    x 3.855770 -0.000010 -0.041680 
#    y -0.000010 3.720710 0.000050 
#    z -0.041680 0.000050 3.661460 
# 
# 
# High freq. dielectric constant tensor:
#      x y z
#    x 1.788970 0.000000 -0.000190 
#    y 0.000000 1.762140 0.000000 
#    z -0.000190 0.000000 1.773270 
# 
# From -- ./inp_files/300794.got.cif
#   From: 2010.06.25/outbox.cif.g09.slc.cpg/sg12_151_cif.got.tgz:300794.got - 2010.06.28 00:19:55.
