data_PCOD8093439
_publ_section_title
;
Structure prediction by ZEFSAII (Michael W. Deem and Ramdas Pophale) SiO2 
 PCOD8093439
Probable space group: C 2/M
;
_chemical_formula_sum "Si O2"
_cell_formula_units_Z 52
_cell_length_a 20.329770
_cell_length_b 11.662456
_cell_length_c 21.151701
_cell_angle_alpha 90.000000
_cell_angle_beta 26.524153
_cell_angle_gamma 90.000000
_cell_volume 2239.557517
_symmetry_space_group_name_H-M "C 2/M"
_symmetry_group_IT_number 12
_symmetry_cell_setting 'monoclinic'
loop_
_space_group_symop_operation_xyz
x,y,z
-x,y,-z
-x,-y,-z
x,-y,z
1/2+x,1/2+y,z
1/2-x,1/2+y,-z
1/2-x,1/2-y,-z
1/2+x,1/2-y,z
loop_
_atom_site_type_symbol
_atom_site_label
_atom_site_fract_x
_atom_site_fract_y
_atom_site_fract_z
Si Si1 0.332297 0.367998 0.998654
Si Si2 0.748987 0.751635 0.813075
Si Si3 0.361975 0.000000 0.074491
Si Si4 0.925135 0.500000 0.220395
Si Si5 0.929482 0.236311 0.429890
Si Si6 0.830756 0.630996 0.624462
Si Si7 0.484559 0.205225 0.775838
Si Si8 0.602481 0.500000 0.474283
O O1 0.371916 0.500000 0.972459
O O2 0.360820 0.306052 0.041809
O O3 0.165838 0.354122 0.117554
O O4 0.447040 0.314902 0.850654
O O5 0.736037 0.888989 0.827047
O O6 0.724235 0.702664 0.763546
O O7 0.909847 0.711791 0.695355
O O8 0.500000 0.000000 0.000000
O O9 0.423618 0.000000 0.949850
O O10 0.776367 0.500000 0.305194
O O11 0.919195 0.612928 0.268910
O O12 0.812925 0.313075 0.570000
O O13 0.908802 0.250090 0.372353
O O14 0.929835 0.106802 0.453323
O O15 0.777998 0.500000 0.668401
O O16 0.000000 0.643358 0.500000
O O17 0.500000 0.500000 0.500000
#
# Coordination Sequence:
#
# PCOD8093439 Si02
#       8
#     8   8   4   4   8   8   8   4
#     4  10  19  35  65  98 137 176 221 271 326 412
#     4  10  20  38  62  97 130 168 231 277 338 404
#     4  12  27  40  64  94 134 185 221 289 354 401
#     4  12  26  46  68  97 145 175 229 292 337 415
#     4  10  23  37  67  95 130 176 221 283 324 410
#     4   9  18  33  57  92 128 167 222 275 324 386
#     4  10  22  39  64 101 135 180 226 268 340 404
#     4  12  27  46  71  98 133 179 236 290 348 403
#
# _framework density 23.218872999999999
#
# number of rings (size 3 to 8) (size 9 to 14) (size 15 to 20)
#    0.000    1.692    2.308    2.308    6.462    2.462 
#    0.000    0.385    0.000    3.692    0.000    0.000 
#    0.000    0.000    0.000    0.000    0.000    0.000 
#
# Total GULP energy -322360.339420 kJ/mol
# GULP energy per Si atom -12398.474593 kJ/mol
# Density = 2.316603 g / cm^3
# Si number density = 23.218873 Si / 1000 Ang^3
#
#
#
# Elastic Constant Matrix: (Units=GPa)
#
#
# Indices 1 2 3 4 5 6 
#
# 1 75.0032 54.7874 62.8201 -0.0011 33.1397 0.0011
# 2 54.7874 205.3179 59.3468 0.0051 48.2074 -0.0027
# 3 62.8201 59.3468 101.9536 0.0078 43.8873 -0.0051
# 4 -0.0011 0.0051 0.0078 34.2990 -0.0027 18.7816
# 5 33.1397 48.2074 43.8873 -0.0027 57.6550 0.0012
# 6 0.0011 -0.0027 -0.0051 18.7816 0.0012 16.7716
#
#
#
# Elastic Compliance Matrix: (Units=1/GPa)
#
#
# Indices 1 2 3 4 5 6 
#
# 1 0.029435 -0.002738 -0.015239 0.000021 -0.003030 -0.000031
# 2 -0.002738 0.006603 -0.000680 -0.000005 -0.003429 0.000007
# 3 -0.015239 -0.000680 0.023171 -0.000028 -0.008310 0.000040
# 4 0.000021 -0.000005 -0.000028 0.075378 0.000019 -0.084412
# 5 -0.003030 -0.003429 -0.008310 0.000019 0.028279 -0.000026
# 6 -0.000031 0.000007 0.000040 -0.084412 -0.000026 0.154153
#
#
# Mechanical properties :
#
#
# Convention : Reuss Voigt Hill
#
# Bulk Modulus (GPa) = 45.67306 81.79816 63.73561
# Shear Modulus (GPa) = 13.82619 35.43313 24.62966
#
# Velocity S-wave (km/s) = 2.44288 3.91071 3.26046
# Velocity P-wave (km/s) = 5.26025 7.46305 6.45629
#
# Compressibility (1/GPa) = 0.02189475
#
# Stress axis : x y z
#
# Youngs Moduli (GPa) = 33.97308 151.44685 43.15747
#
# Poissons Ratio (x) = 0.41473 0.65766
# Poissons Ratio (y) = 0.09303 0.02935
# Poissons Ratio (z) = 0.51770 0.10299
#
# Static dielectric constant tensor:
#      x y z
#    x 4.110050 0.000000 0.453530 
#    y 0.000000 3.987230 0.000000 
#    z 0.453530 0.000000 4.491000 
# 
# 
# High freq. dielectric constant tensor:
#      x y z
#    x 1.901590 0.000000 0.026960 
#    y 0.000000 1.920810 0.000000 
#    z 0.026960 0.000000 1.919070 
# 
# From -- ./inp_files/321562.got.cif
#   From: 2010.06.25/outbox.cif.g09.slc.cpg/sg12_161_cif.got.tgz:321562.got - 2010.06.28 00:19:55.
