data_PCOD8093920
_publ_section_title
;
Structure prediction by ZEFSAII (Michael W. Deem and Ramdas Pophale) SiO2 
 PCOD8093920
Probable space group: C 2/M
;
_chemical_formula_sum "Si O2"
_cell_formula_units_Z 52
_cell_length_a 7.580880
_cell_length_b 21.124981
_cell_length_c 18.096939
_cell_angle_alpha 90.000000
_cell_angle_beta 127.565532
_cell_angle_gamma 90.000000
_cell_volume 2297.238705
_symmetry_space_group_name_H-M "C 2/M"
_symmetry_group_IT_number 12
_symmetry_cell_setting 'monoclinic'
loop_
_space_group_symop_operation_xyz
x,y,z
-x,y,-z
-x,-y,-z
x,-y,z
1/2+x,1/2+y,z
1/2-x,1/2+y,-z
1/2-x,1/2-y,-z
1/2+x,1/2-y,z
loop_
_atom_site_type_symbol
_atom_site_label
_atom_site_fract_x
_atom_site_fract_y
_atom_site_fract_z
Si Si1 0.942413 0.574803 0.126457
Si Si2 0.179960 0.428908 0.481308
Si Si3 0.880924 0.573233 0.277938
Si Si4 0.000000 0.261116 0.500000
Si Si5 0.230696 0.321999 0.021211
Si Si6 0.546421 0.328755 0.392131
Si Si7 0.920189 0.875800 0.207158
O O1 0.876983 0.500000 0.098856
O O2 0.917656 0.598940 0.204434
O O3 0.196070 0.583163 0.162335
O O4 0.766911 0.622110 0.040238
O O5 0.244747 0.500000 0.478709
O O6 0.420477 0.398984 0.565707
O O7 0.000000 0.426244 0.500000
O O8 0.064503 0.395641 0.379446
O O9 0.928673 0.500000 0.287167
O O10 0.635613 0.581085 0.250537
O O11 0.200865 0.305819 0.531040
O O12 0.904822 0.217784 0.407885
O O13 0.414524 0.333800 0.131063
O O14 0.250000 0.250000 0.000000
O O15 0.000000 0.331095 0.000000
O O16 0.450723 0.329111 0.285042
#
# Coordination Sequence:
#
# PCOD8093920 Si02
#       7
#     8   8   8   4   8   8   8
#     4  10  24  44  65  97 130 161 213 270 319 380
#     4  10  19  36  60  90 129 163 201 256 314 372
#     4  10  21  38  65  96 127 166 205 254 316 378
#     4  10  24  40  60  84 130 162 216 260 310 376
#     4  10  25  45  65  94 128 167 209 269 325 377
#     4  11  22  41  60  92 120 168 211 260 313 377
#     4  11  23  40  67  93 123 168 210 259 319 383
#
# _framework density 22.635873
#
# number of rings (size 3 to 8) (size 9 to 14) (size 15 to 20)
#    0.000    1.692    2.308    0.462    4.308    6.462 
#    2.769    1.923    0.000    0.000    0.000    0.000 
#    0.000    0.000    0.000    0.000    0.000    0.000 
#
# Total GULP energy -322118.812122 kJ/mol
# GULP energy per Si atom -12389.185082 kJ/mol
# Density = 2.258435 g / cm^3
# Si number density = 22.635873 Si / 1000 Ang^3
#
#
#
# Elastic Constant Matrix: (Units=GPa)
#
#
# Indices 1 2 3 4 5 6 
#
# 1 47.1162 1.6800 12.3678 0.0000 -14.9274 0.0000
# 2 1.6800 100.1492 55.1981 0.0000 -14.8402 0.0000
# 3 12.3678 55.1981 177.2443 0.0000 -32.2405 0.0000
# 4 0.0000 0.0000 0.0000 26.8860 0.0000 -7.6391
# 5 -14.9274 -14.8402 -32.2405 0.0000 36.8412 0.0000
# 6 0.0000 0.0000 0.0000 -7.6391 0.0000 13.8052
#
#
#
# Elastic Compliance Matrix: (Units=1/GPa)
#
#
# Indices 1 2 3 4 5 6 
#
# 1 0.024476 0.001231 -0.000235 0.000000 0.010208 0.000000
# 2 0.001231 0.012225 -0.003457 0.000000 0.002398 0.000000
# 3 -0.000235 -0.003457 0.007688 0.000000 0.005240 0.000000
# 4 0.000000 0.000000 0.000000 0.044133 0.000000 0.024421
# 5 0.010208 0.002398 0.005240 0.000000 0.036832 0.000000
# 6 0.000000 0.000000 0.000000 0.024421 0.000000 0.085950
#
#
# Mechanical properties :
#
#
# Convention : Reuss Voigt Hill
#
# Bulk Modulus (GPa) = 25.33641 51.44459 38.39050
# Shear Modulus (GPa) = 21.79790 32.52406 27.16098
#
# Velocity S-wave (km/s) = 3.10656 3.79468 3.46773
# Velocity P-wave (km/s) = 4.90764 6.47887 5.74720
#
# Compressibility (1/GPa) = 0.03946889
#
# Stress axis : x y z
#
# Youngs Moduli (GPa) = 40.85653 81.79888 130.07135
#
# Poissons Ratio (x) = -0.10072 0.03051
# Poissons Ratio (y) = -0.05031 0.44964
# Poissons Ratio (z) = 0.00958 0.28277
#
# Static dielectric constant tensor:
#      x y z
#    x 3.703430 0.000000 1.430340 
#    y 0.000000 4.107780 0.000000 
#    z 1.430340 0.000000 -4.325860 
# 
# 
# High freq. dielectric constant tensor:
#      x y z
#    x 1.886920 0.000000 -0.017610 
#    y 0.000000 1.888340 0.000000 
#    z -0.017610 0.000000 1.899200 
# 
# From -- ./inp_files/258539.got.cif
#   From: 2010.06.25/outbox.cif.g09.slc.cpg/sg12_130_cif.got.tgz:258539.got - 2010.06.28 00:19:55.
