data_PCOD8093004
_publ_section_title
;
Structure prediction by ZEFSAII (Michael W. Deem and Ramdas Pophale) SiO2 
 PCOD8093004
Probable space group: C 2/M
;
_chemical_formula_sum "Si O2"
_cell_formula_units_Z 64
_cell_length_a 29.494620
_cell_length_b 9.170501
_cell_length_c 14.748492
_cell_angle_alpha 90.000000
_cell_angle_beta 60.550861
_cell_angle_gamma 90.000000
_cell_volume 3473.746733
_symmetry_space_group_name_H-M "C 2/M"
_symmetry_group_IT_number 12
_symmetry_cell_setting 'monoclinic'
loop_
_space_group_symop_operation_xyz
x,y,z
-x,y,-z
-x,-y,-z
x,-y,z
1/2+x,1/2+y,z
1/2-x,1/2+y,-z
1/2-x,1/2-y,-z
1/2+x,1/2-y,z
loop_
_atom_site_type_symbol
_atom_site_label
_atom_site_fract_x
_atom_site_fract_y
_atom_site_fract_z
Si Si1 0.779945 0.664150 0.895158
Si Si2 0.355165 0.669284 0.584099
Si Si3 0.024000 0.671452 0.219134
Si Si4 0.862242 0.827062 0.212290
Si Si5 0.083012 0.830796 0.659675
Si Si6 0.248920 0.667381 0.278411
Si Si7 0.550295 0.328872 0.010504
Si Si8 0.610500 0.170923 0.279053
O O1 0.782613 0.500000 0.927339
O O2 0.748932 0.677964 0.831984
O O3 0.838432 0.725186 0.825447
O O4 0.750000 0.750000 0.000000
O O5 0.349562 0.500000 0.613373
O O6 0.381564 0.694983 0.461899
O O7 0.297936 0.738781 0.634678
O O8 0.391911 0.744043 0.623399
O O9 0.019181 0.500000 0.207281
O O10 0.048539 0.742556 0.105893
O O11 0.060237 0.707260 0.269418
O O12 0.968689 0.737147 0.299056
O O13 0.885445 0.772224 0.284484
O O14 0.803603 0.766394 0.259998
O O15 0.860410 0.000000 0.211717
O O16 0.898981 0.773368 0.093961
O O17 0.067500 0.000000 0.687381
O O18 0.240949 0.500000 0.317164
O O19 0.552587 0.500000 0.030211
O O20 0.500000 0.291789 0.000000
O O21 0.615938 0.000000 0.296415
#
# Coordination Sequence:
#
# PCOD8093004 Si02
#       8
#     8   8   8   8   8   8   8   8
#     4   9  18  32  50  74 103 137 176 219 264 315
#     4  10  21  37  59  84 109 140 184 238 281 319
#     4  11  23  37  56  84 114 146 185 230 280 328
#     4   9  18  35  58  82 109 149 189 218 265 334
#     4  10  21  39  59  81 111 145 186 232 276 329
#     4   9  19  36  56  78 110 147 183 221 271 335
#     4  10  19  35  59  81 110 153 189 222 271 329
#     4   9  21  40  56  75 111 150 181 221 280 339
#
# _framework density 18.423911
#
# number of rings (size 3 to 8) (size 9 to 14) (size 15 to 20)
#    0.000    2.375    1.250    1.500    1.750    5.250 
#    0.000    3.750    0.000    0.000    0.000    0.000 
#    0.000    0.000    0.000    0.000    0.000    0.000 
#
# Total GULP energy -396834.890141 kJ/mol
# GULP energy per Si atom -12401.090317 kJ/mol
# Density = 1.838198 g / cm^3
# Si number density = 18.423911 Si / 1000 Ang^3
#
#
#
# Elastic Constant Matrix: (Units=GPa)
#
#
# Indices 1 2 3 4 5 6 
#
# 1 149.9579 49.0245 55.4064 0.0000 -13.6550 0.0000
# 2 49.0245 65.1347 48.8230 0.0000 -3.9538 0.0000
# 3 55.4064 48.8230 108.9028 0.0000 -11.1937 0.0000
# 4 0.0000 0.0000 0.0000 24.1617 0.0000 -0.2351
# 5 -13.6550 -3.9538 -11.1937 0.0000 10.8435 0.0000
# 6 0.0000 0.0000 0.0000 -0.2351 0.0000 24.0136
#
#
#
# Elastic Compliance Matrix: (Units=1/GPa)
#
#
# Indices 1 2 3 4 5 6 
#
# 1 0.009933 -0.005771 -0.001563 0.000000 0.008791 0.000000
# 2 -0.005771 0.026539 -0.009748 0.000000 -0.007654 0.000000
# 3 -0.001563 -0.009748 0.015416 0.000000 0.010392 0.000000
# 4 0.000000 0.000000 0.000000 0.041392 0.000000 0.000405
# 5 0.008791 -0.007654 0.010392 0.000000 0.111228 0.000000
# 6 0.000000 0.000000 0.000000 0.000405 0.000000 0.041647
#
#
# Mechanical properties :
#
#
# Convention : Reuss Voigt Hill
#
# Bulk Modulus (GPa) = 56.42243 70.05592 63.23917
# Shear Modulus (GPa) = 17.46857 23.18652 20.32754
#
# Velocity S-wave (km/s) = 3.08254 3.55139 3.32524
# Velocity P-wave (km/s) = 6.58486 7.41104 7.01013
#
# Compressibility (1/GPa) = 0.01772345
#
# Stress axis : x y z
#
# Youngs Moduli (GPa) = 100.67212 37.68006 64.86743
#
# Poissons Ratio (x) = 0.21747 0.10137
# Poissons Ratio (y) = 0.58102 0.63236
# Poissons Ratio (z) = 0.15732 0.36732
#
# Static dielectric constant tensor:
#      x y z
#    x 3.688760 0.000000 -0.004130 
#    y 0.000000 3.295570 0.000000 
#    z -0.004130 0.000000 3.353710 
# 
# 
# High freq. dielectric constant tensor:
#      x y z
#    x 1.723580 0.000000 -0.002090 
#    y 0.000000 1.698820 0.000000 
#    z -0.002090 0.000000 1.718350 
# 
# From -- ./inp_files/249028.got.cif
#   From: 2010.06.25/outbox.cif.g09.slc.cpg/sg12_125_cif.got.tgz:249028.got - 2010.06.28 00:19:55.
