data_PCOD8093779
_publ_section_title
;
Structure prediction by ZEFSAII (Michael W. Deem and Ramdas Pophale) SiO2 
 PCOD8093779
Probable space group: C 2/M
;
_chemical_formula_sum "Si O2"
_cell_formula_units_Z 64
_cell_length_a 10.021916
_cell_length_b 17.857319
_cell_length_c 31.029816
_cell_angle_alpha 90.000000
_cell_angle_beta 142.636628
_cell_angle_gamma 90.000000
_cell_volume 3370.081124
_symmetry_space_group_name_H-M "C 2/M"
_symmetry_group_IT_number 12
_symmetry_cell_setting 'monoclinic'
loop_
_space_group_symop_operation_xyz
x,y,z
-x,y,-z
-x,-y,-z
x,-y,z
1/2+x,1/2+y,z
1/2-x,1/2+y,-z
1/2-x,1/2-y,-z
1/2+x,1/2-y,z
loop_
_atom_site_type_symbol
_atom_site_label
_atom_site_fract_x
_atom_site_fract_y
_atom_site_fract_z
Si Si1 0.940031 0.586492 0.032533
Si Si2 0.923925 0.915035 0.683280
Si Si3 0.721860 0.172817 0.175185
Si Si4 0.494883 0.828519 0.448495
Si Si5 0.968307 0.845476 0.540700
Si Si6 0.960422 0.085822 0.941318
Si Si7 0.222838 0.915614 0.679908
Si Si8 0.440329 0.186302 0.187346
O O1 0.005600 0.500000 0.056785
O O2 0.064739 0.636018 0.099493
O O3 0.000000 0.613703 0.000000
O O4 0.679904 0.598017 0.970148
O O5 0.704763 0.865796 0.628627
O O6 0.104191 0.888250 0.763943
O O7 0.019475 0.907593 0.660038
O O8 0.863026 0.000000 0.679242
O O9 0.572356 0.201941 0.176733
O O10 0.863424 0.237396 0.189402
O O11 0.500000 0.847904 0.500000
O O12 0.716222 0.862680 0.486240
O O13 0.473532 0.740463 0.434446
O O14 0.000000 0.867899 0.500000
O O15 0.132799 0.897330 0.609656
O O16 0.772568 0.136417 0.873868
O O17 0.880367 0.000000 0.919631
O O18 0.000000 0.111976 0.000000
O O19 0.411549 0.857426 0.740406
O O20 0.318483 0.000000 0.705462
#
# Coordination Sequence:
#
# PCOD8093779 Si02
#       8
#     8   8   8   8   8   8   8   8
#     4  10  22  40  63  90 122 157 193 241 296 347
#     4  10  21  38  63  87 111 150 201 247 285 341
#     4  11  24  41  61  87 120 156 197 243 295 349
#     4  10  19  36  59  87 116 151 194 234 285 346
#     4  10  21  36  58  87 122 154 185 233 292 349
#     4  10  20  38  63  90 118 153 198 240 287 350
#     4  10  21  39  61  85 115 153 197 241 289 346
#     4  11  24  40  62  88 117 156 198 245 293 347
#
# _framework density 18.990642000000001
#
# number of rings (size 3 to 8) (size 9 to 14) (size 15 to 20)
#    0.000    1.750    2.500    1.500    1.750    3.000 
#    2.250    0.000    0.000    0.000    0.000    0.000 
#    0.000    0.000    0.000    0.000    0.000    0.000 
#
# Total GULP energy -396893.328239 kJ/mol
# GULP energy per Si atom -12402.916507 kJ/mol
# Density = 1.894742 g / cm^3
# Si number density = 18.990642 Si / 1000 Ang^3
#
#
#
# Elastic Constant Matrix: (Units=GPa)
#
#
# Indices 1 2 3 4 5 6 
#
# 1 107.5568 31.7489 39.1437 -0.0002 4.3752 0.0000
# 2 31.7489 79.2241 42.6119 0.0003 5.1629 0.0000
# 3 39.1437 42.6119 98.5120 0.0004 3.6491 -0.0001
# 4 -0.0002 0.0003 0.0004 39.6970 -0.0001 3.8917
# 5 4.3752 5.1629 3.6491 -0.0001 23.2988 -0.0001
# 6 0.0000 0.0000 -0.0001 3.8917 -0.0001 29.5578
#
#
#
# Elastic Compliance Matrix: (Units=1/GPa)
#
#
# Indices 1 2 3 4 5 6 
#
# 1 0.011337 -0.002703 -0.003298 0.000000 -0.001013 0.000000
# 2 -0.002703 0.017246 -0.006299 0.000000 -0.002327 0.000000
# 3 -0.003298 -0.006299 0.014194 0.000000 -0.000208 0.000000
# 4 0.000000 0.000000 0.000000 0.025520 0.000000 -0.003360
# 5 -0.001013 -0.002327 -0.000208 0.000000 0.043659 0.000000
# 6 0.000000 0.000000 0.000000 -0.003360 0.000000 0.034274
#
#
# Mechanical properties :
#
#
# Convention : Reuss Voigt Hill
#
# Bulk Modulus (GPa) = 55.01935 56.92244 55.97090
# Shear Modulus (GPa) = 28.26621 29.96328 29.11475
#
# Velocity S-wave (km/s) = 3.86220 3.97645 3.91974
# Velocity P-wave (km/s) = 6.99453 7.14996 7.07267
#
# Compressibility (1/GPa) = 0.01817542
#
# Stress axis : x y z
#
# Youngs Moduli (GPa) = 88.20828 57.98562 70.45272
#
# Poissons Ratio (x) = 0.15676 0.23234
# Poissons Ratio (y) = 0.23846 0.44380
# Poissons Ratio (z) = 0.29089 0.36527
#
# Static dielectric constant tensor:
#      x y z
#    x 3.557560 0.000000 0.031700 
#    y 0.000000 3.443670 0.000000 
#    z 0.031700 0.000000 3.470690 
# 
# 
# High freq. dielectric constant tensor:
#      x y z
#    x 1.738620 0.000000 0.003260 
#    y 0.000000 1.736050 0.000000 
#    z 0.003260 0.000000 1.748340 
# 
# From -- ./inp_files/373021.got.cif
#   From: 2010.06.25/outbox.cif.g09.slc.cpg/sg12_187_cif.got.tgz:373021.got - 2010.06.28 00:19:55.
