data_PCOD8093466
_publ_section_title
;
Structure prediction by ZEFSAII (Michael W. Deem and Ramdas Pophale) SiO2 
 PCOD8093466
Probable space group: C 2/M
;
_chemical_formula_sum "Si O2"
_cell_formula_units_Z 56
_cell_length_a 14.023865
_cell_length_b 26.862984
_cell_length_c 11.645866
_cell_angle_alpha 90.000000
_cell_angle_beta 35.833427
_cell_angle_gamma 90.000000
_cell_volume 2568.439270
_symmetry_space_group_name_H-M "C 2/M"
_symmetry_group_IT_number 12
_symmetry_cell_setting 'monoclinic'
loop_
_space_group_symop_operation_xyz
x,y,z
-x,y,-z
-x,-y,-z
x,-y,z
1/2+x,1/2+y,z
1/2-x,1/2+y,-z
1/2-x,1/2-y,-z
1/2+x,1/2-y,z
loop_
_atom_site_type_symbol
_atom_site_label
_atom_site_fract_x
_atom_site_fract_y
_atom_site_fract_z
Si Si1 0.250770 0.941669 0.322479
Si Si2 0.242036 0.300481 0.938504
Si Si3 0.113111 0.443190 0.049914
Si Si4 0.080803 0.143680 0.620577
Si Si5 0.318115 0.270774 0.628027
Si Si6 0.230899 0.341863 0.348953
Si Si7 0.613488 0.130963 0.232253
O O1 0.420604 0.934495 0.222705
O O2 0.111545 0.907070 0.517183
O O3 0.196445 0.000000 0.380405
O O4 0.281614 0.922898 0.161287
O O5 0.396709 0.337660 0.795411
O O6 0.200865 0.287862 0.846982
O O7 0.250000 0.250000 0.000000
O O8 0.098079 0.330184 0.140997
O O9 0.156993 0.500000 0.015868
O O10 0.165865 0.420533 0.121122
O O11 0.194629 0.187782 0.458126
O O12 0.129409 0.134888 0.706654
O O13 0.500000 0.265796 0.500000
O O14 0.266415 0.217283 0.631057
O O15 0.251258 0.353492 0.192482
O O16 0.064338 0.369932 0.540999
#
# Coordination Sequence:
#
# PCOD8093466 Si02
#       7
#     8   8   8   8   8   8   8
#     4   9  18  36  60  91 123 150 197 262 310 354
#     4  11  22  39  58  82 121 158 194 247 300 358
#     4   9  18  35  62  91 119 154 201 255 306 360
#     4  11  22  36  59  88 116 161 205 238 306 369
#     4  10  19  36  54  78 115 149 189 247 296 346
#     4  11  21  37  56  81 119 160 201 247 291 362
#     4  11  20  37  58  79 121 157 196 247 302 346
#
# _framework density 21.803124
#
# number of rings (size 3 to 8) (size 9 to 14) (size 15 to 20)
#    0.000    1.714    4.286    3.000    0.000    0.571 
#    0.000    4.286    0.000    5.571    0.000    2.000 
#    0.000    0.000    0.000    0.000    0.000    0.000 
#
# Total GULP energy -346946.159352 kJ/mol
# GULP energy per Si atom -12390.934263 kJ/mol
# Density = 2.175350 g / cm^3
# Si number density = 21.803124 Si / 1000 Ang^3
#
#
#
# Elastic Constant Matrix: (Units=GPa)
#
#
# Indices 1 2 3 4 5 6 
#
# 1 59.6577 26.3619 18.1841 0.0000 19.8033 0.0000
# 2 26.3619 92.5859 36.2210 0.0000 8.7415 0.0000
# 3 18.1841 36.2210 63.0129 0.0000 15.0386 0.0000
# 4 0.0000 0.0000 0.0000 44.4141 0.0000 8.6569
# 5 19.8033 8.7415 15.0386 0.0000 30.6019 0.0000
# 6 0.0000 0.0000 0.0000 8.6569 0.0000 30.5815
#
#
#
# Elastic Compliance Matrix: (Units=1/GPa)
#
#
# Indices 1 2 3 4 5 6 
#
# 1 0.023778 -0.005253 -0.000598 0.000000 -0.013593 0.000000
# 2 -0.005253 0.015095 -0.007866 0.000000 0.002953 0.000000
# 3 -0.000598 -0.007866 0.022584 0.000000 -0.008464 0.000000
# 4 0.000000 0.000000 0.000000 0.023830 0.000000 -0.006746
# 5 -0.013593 0.002953 -0.008464 0.000000 0.044790 0.000000
# 6 0.000000 0.000000 0.000000 -0.006746 0.000000 0.034609
#
#
# Mechanical properties :
#
#
# Convention : Reuss Voigt Hill
#
# Bulk Modulus (GPa) = 29.39184 41.86563 35.62873
# Shear Modulus (GPa) = 24.57479 30.08547 27.33013
#
# Velocity S-wave (km/s) = 3.36091 3.71869 3.54432
# Velocity P-wave (km/s) = 5.34516 6.13853 5.75553
#
# Compressibility (1/GPa) = 0.03402305
#
# Stress axis : x y z
#
# Youngs Moduli (GPa) = 42.05576 66.24807 44.27949
#
# Poissons Ratio (x) = 0.34799 0.02649
# Poissons Ratio (y) = 0.22091 0.34829
# Poissons Ratio (z) = 0.02516 0.52108
#
# Static dielectric constant tensor:
#      x y z
#    x 3.692370 0.000000 0.598170 
#    y 0.000000 4.576890 0.000000 
#    z 0.598170 0.000000 4.150170 
# 
# 
# High freq. dielectric constant tensor:
#      x y z
#    x 1.838580 0.000000 0.026620 
#    y 0.000000 1.848960 0.000000 
#    z 0.026620 0.000000 1.853560 
# 
# From -- ./inp_files/149449.got.cif
#   From: 2010.06.25/outbox.cif.g09.slc.cpg/sg12_75_cif.got.tgz:149449.got - 2010.06.28 00:19:55.
