data_PCOD8093651
_publ_section_title
;
Structure prediction by ZEFSAII (Michael W. Deem and Ramdas Pophale) SiO2 
 PCOD8093651
Probable space group: C 2/M
;
_chemical_formula_sum "Si O2"
_cell_formula_units_Z 48
_cell_length_a 12.882213
_cell_length_b 23.552496
_cell_length_c 8.841354
_cell_angle_alpha 90.000000
_cell_angle_beta 88.973450
_cell_angle_gamma 90.000000
_cell_volume 2682.109377
_symmetry_space_group_name_H-M "C 2/M"
_symmetry_group_IT_number 12
_symmetry_cell_setting 'monoclinic'
loop_
_space_group_symop_operation_xyz
x,y,z
-x,y,-z
-x,-y,-z
x,-y,z
1/2+x,1/2+y,z
1/2-x,1/2+y,-z
1/2-x,1/2-y,-z
1/2+x,1/2-y,z
loop_
_atom_site_type_symbol
_atom_site_label
_atom_site_fract_x
_atom_site_fract_y
_atom_site_fract_z
Si Si1 0.105528 0.168178 0.745834
Si Si2 0.147044 0.061127 0.240353
Si Si3 0.500000 0.401276 0.000000
Si Si4 0.500000 0.403067 0.500000
Si Si5 0.027446 0.711794 0.674858
Si Si6 0.321183 0.204452 0.834615
Si Si7 0.726233 0.175269 0.826597
O O1 0.077053 0.138252 0.902740
O O2 0.076897 0.133903 0.598596
O O3 0.042316 0.226231 0.743707
O O4 0.228936 0.176727 0.740113
O O5 0.078789 0.061334 0.394997
O O6 0.220079 0.115529 0.214971
O O7 0.207509 0.000000 0.238285
O O8 0.067202 0.058624 0.104314
O O9 0.133454 0.677792 0.706088
O O10 0.000000 0.712956 0.500000
O O11 0.929752 0.683978 0.762688
O O12 0.309200 0.273048 0.816095
O O13 0.321570 0.180435 0.004798
#
# Coordination Sequence:
#
# PCOD8093651 Si02
#       7
#     8   8   4   4   8   8   8
#     4  10  20  33  56  84 119 145 182 227 282 342
#     4  11  22  38  58  84 114 152 193 232 278 330
#     4  10  19  36  58  84 112 146 187 232 278 334
#     4  10  21  34  56  86 118 148 177 230 288 338
#     4  11  23  33  54  85 120 151 181 225 284 354
#     4  10  20  36  57  84 114 148 185 227 288 340
#     4  10  22  36  58  83 112 150 188 237 278 332
#
# _framework density 17.896363000000001
#
# number of rings (size 3 to 8) (size 9 to 14) (size 15 to 20)
#    0.000    1.667    2.500    3.000    7.000    1.333 
#    0.000    0.000    0.000    2.500    0.000    0.000 
#    0.000    0.000    0.000    0.000    0.000    0.000 
#
# Total GULP energy -297449.671365 kJ/mol
# GULP energy per Si atom -12393.736307 kJ/mol
# Density = 1.785563 g / cm^3
# Si number density = 17.896363 Si / 1000 Ang^3
#
#
#
# Elastic Constant Matrix: (Units=GPa)
#
#
# Indices 1 2 3 4 5 6 
#
# 1 86.6132 36.4224 28.4820 0.0000 -2.5357 0.0000
# 2 36.4224 115.7348 27.9393 0.0000 -5.4696 0.0000
# 3 28.4820 27.9393 81.1893 0.0000 -3.7877 0.0000
# 4 0.0000 0.0000 0.0000 14.6796 0.0000 2.6779
# 5 -2.5357 -5.4696 -3.7877 0.0000 27.7598 0.0000
# 6 0.0000 0.0000 0.0000 2.6779 0.0000 21.4901
#
#
#
# Elastic Compliance Matrix: (Units=1/GPa)
#
#
# Indices 1 2 3 4 5 6 
#
# 1 0.014297 -0.003583 -0.003779 0.000000 0.000084 0.000000
# 2 -0.003583 0.010378 -0.002248 0.000000 0.001411 0.000000
# 3 -0.003779 -0.002248 0.014472 0.000000 0.001186 0.000000
# 4 0.000000 0.000000 0.000000 0.069707 0.000000 -0.008686
# 5 0.000084 0.001411 0.001186 0.000000 0.036471 0.000000
# 6 0.000000 0.000000 0.000000 -0.008686 0.000000 0.047615
#
#
# Mechanical properties :
#
#
# Convention : Reuss Voigt Hill
#
# Bulk Modulus (GPa) = 50.18562 52.13607 51.16085
# Shear Modulus (GPa) = 22.85171 25.49879 24.17525
#
# Velocity S-wave (km/s) = 3.57724 3.77875 3.67937
# Velocity P-wave (km/s) = 6.72052 6.94508 6.83372
#
# Compressibility (1/GPa) = 0.01992603
#
# Stress axis : x y z
#
# Youngs Moduli (GPa) = 69.94237 96.36172 69.10115
#
# Poissons Ratio (x) = 0.34530 0.26111
# Poissons Ratio (y) = 0.25063 0.15536
# Poissons Ratio (z) = 0.26429 0.21665
#
# Static dielectric constant tensor:
#      x y z
#    x 3.257480 0.000000 0.209680 
#    y 0.000000 3.105640 0.000000 
#    z 0.209680 0.000000 3.479890 
# 
# 
# High freq. dielectric constant tensor:
#      x y z
#    x 1.688690 0.000000 0.008190 
#    y 0.000000 1.663560 0.000000 
#    z 0.008190 0.000000 1.710000 
# 
# From -- ./inp_files/50743.got.cif
#   From: 2010.06.25/outbox.cif.g09.slc.cpg/sg12_26_cif.got.tgz:50743.got - 2010.06.28 00:19:55.
