data_PCOD8093077
_publ_section_title
;
Structure prediction by ZEFSAII (Michael W. Deem and Ramdas Pophale) SiO2 
 PCOD8093077
Probable space group: C 2/M
;
_chemical_formula_sum "Si O2"
_cell_formula_units_Z 64
_cell_length_a 30.533657
_cell_length_b 8.996381
_cell_length_c 16.187933
_cell_angle_alpha 90.000000
_cell_angle_beta 47.139546
_cell_angle_gamma 90.000000
_cell_volume 3259.488692
_symmetry_space_group_name_H-M "C 2/M"
_symmetry_group_IT_number 12
_symmetry_cell_setting 'monoclinic'
loop_
_space_group_symop_operation_xyz
x,y,z
-x,y,-z
-x,-y,-z
x,-y,z
1/2+x,1/2+y,z
1/2-x,1/2+y,-z
1/2-x,1/2-y,-z
1/2+x,1/2-y,z
loop_
_atom_site_type_symbol
_atom_site_label
_atom_site_fract_x
_atom_site_fract_y
_atom_site_fract_z
Si Si1 0.508481 0.327436 0.749249
Si Si2 0.617250 0.676382 0.156017
Si Si3 0.544418 0.824418 0.872471
Si Si4 0.337065 0.676032 0.729665
Si Si5 0.297737 0.829731 0.077390
Si Si6 0.229860 0.324641 0.442207
Si Si7 0.829117 0.329875 0.218323
Si Si8 0.877476 0.172847 0.500738
O O1 0.503206 0.500000 0.778552
O O2 0.445272 0.261886 0.799226
O O3 0.529075 0.244315 0.804504
O O4 0.554732 0.301936 0.615076
O O5 0.617302 0.500000 0.154193
O O6 0.626162 0.735002 0.238277
O O7 0.672514 0.732224 0.031400
O O8 0.611052 0.776714 0.812784
O O9 0.538359 0.000000 0.872606
O O10 0.500000 0.763339 0.000000
O O11 0.336331 0.500000 0.729897
O O12 0.268778 0.733244 0.820804
O O13 0.369639 0.732490 0.604547
O O14 0.337426 0.815614 0.109319
O O15 0.295330 0.000000 0.050320
O O16 0.229321 0.500000 0.453435
O O17 0.250000 0.250000 0.500000
O O18 0.275030 0.276689 0.312439
O O19 0.163716 0.268880 0.506754
O O20 0.813247 0.500000 0.262453
O O21 0.858794 0.000000 0.517917
#
# Coordination Sequence:
#
# PCOD8093077 Si02
#       8
#     8   8   8   8   8   8   8   8
#     4  10  22  37  56  83 115 150 189 235 285 337
#     4  10  21  36  55  85 117 148 190 238 287 337
#     4  10  21  37  58  82 110 150 194 232 274 333
#     4   9  18  35  60  84 112 149 190 237 285 337
#     4  10  19  35  59  85 113 150 189 231 289 344
#     4  12  24  37  56  83 113 146 185 229 280 336
#     4  10  20  36  58  83 112 145 187 233 280 335
#     4  10  20  39  61  81 112 152 191 235 284 336
#
# _framework density 19.634981
#
# number of rings (size 3 to 8) (size 9 to 14) (size 15 to 20)
#    0.000    1.875    1.250    3.000    0.000    5.750 
#    0.000    3.125    0.000    0.000    0.000    2.625 
#    0.000    0.000    0.000    0.000    0.000    0.000 
#
# Total GULP energy -396873.963655 kJ/mol
# GULP energy per Si atom -12402.311364 kJ/mol
# Density = 1.959029 g / cm^3
# Si number density = 19.634981 Si / 1000 Ang^3
#
#
#
# Elastic Constant Matrix: (Units=GPa)
#
#
# Indices 1 2 3 4 5 6 
#
# 1 127.2148 21.2668 41.6001 -0.0003 9.1682 0.0000
# 2 21.2668 47.8099 20.2034 -0.0029 1.5904 0.0017
# 3 41.6001 20.2034 113.3614 -0.0003 5.3905 0.0000
# 4 -0.0003 -0.0029 -0.0003 24.9277 0.0001 0.6263
# 5 9.1682 1.5904 5.3905 0.0001 34.9431 0.0001
# 6 0.0000 0.0017 0.0000 0.6263 0.0001 24.4540
#
#
#
# Elastic Compliance Matrix: (Units=1/GPa)
#
#
# Indices 1 2 3 4 5 6 
#
# 1 0.009416 -0.002924 -0.002844 0.000000 -0.001899 0.000000
# 2 -0.002924 0.023533 -0.003130 0.000003 0.000179 -0.000002
# 3 -0.002844 -0.003130 0.010457 0.000000 -0.000725 0.000000
# 4 0.000000 0.000003 0.000000 0.040142 0.000000 -0.001028
# 5 -0.001899 0.000179 -0.000725 0.000000 0.029220 0.000000
# 6 0.000000 -0.000002 0.000000 -0.001028 0.000000 0.040919
#
#
# Mechanical properties :
#
#
# Convention : Reuss Voigt Hill
#
# Bulk Modulus (GPa) = 39.04433 50.50298 44.77366
# Shear Modulus (GPa) = 27.77466 30.55269 29.16368
#
# Velocity S-wave (km/s) = 3.76513 3.94894 3.85813
# Velocity P-wave (km/s) = 6.23136 6.82414 6.53448
#
# Compressibility (1/GPa) = 0.02561191
#
# Stress axis : x y z
#
# Youngs Moduli (GPa) = 106.19809 42.49311 95.62680
#
# Poissons Ratio (x) = 0.12423 0.27198
# Poissons Ratio (y) = 0.31047 0.29929
# Poissons Ratio (z) = 0.30205 0.13299
#
# Static dielectric constant tensor:
#      x y z
#    x 3.843380 0.000000 0.034680 
#    y 0.000000 3.372100 0.000000 
#    z 0.034680 0.000000 3.707630 
# 
# 
# High freq. dielectric constant tensor:
#      x y z
#    x 1.776330 0.000000 0.003700 
#    y 0.000000 1.736100 0.000000 
#    z 0.003700 0.000000 1.774380 
# 
# From -- ./inp_files/249736.got.cif
#   From: 2010.06.25/outbox.cif.g09.slc.cpg/sg12_125_cif.got.tgz:249736.got - 2010.06.28 00:19:55.
