data_PCOD8093574
_publ_section_title
;
Structure prediction by ZEFSAII (Michael W. Deem and Ramdas Pophale) SiO2 
 PCOD8093574
Probable space group: C 2/M
;
_chemical_formula_sum "Si O2"
_cell_formula_units_Z 48
_cell_length_a 19.611678
_cell_length_b 13.102565
_cell_length_c 25.209418
_cell_angle_alpha 90.000000
_cell_angle_beta 159.160402
_cell_angle_gamma 90.000000
_cell_volume 2304.530214
_symmetry_space_group_name_H-M "C 2/M"
_symmetry_group_IT_number 12
_symmetry_cell_setting 'monoclinic'
loop_
_space_group_symop_operation_xyz
x,y,z
-x,y,-z
-x,-y,-z
x,-y,z
1/2+x,1/2+y,z
1/2-x,1/2+y,-z
1/2-x,1/2-y,-z
1/2+x,1/2-y,z
loop_
_atom_site_type_symbol
_atom_site_label
_atom_site_fract_x
_atom_site_fract_y
_atom_site_fract_z
Si Si1 0.373081 0.619742 0.277424
Si Si2 0.932648 0.386780 0.146353
Si Si3 0.413598 0.281369 0.885134
Si Si4 0.287401 0.293161 0.104296
Si Si5 0.161771 0.182350 0.571756
Si Si6 0.282206 0.108110 0.347519
O O1 0.332505 0.500000 0.254200
O O2 0.200441 0.680119 0.179682
O O3 0.388344 0.648641 0.226393
O O4 0.572970 0.650212 0.450841
O O5 0.901401 0.500000 0.147278
O O6 0.920836 0.302007 0.184137
O O7 0.148245 0.383831 0.277963
O O8 0.759148 0.369093 0.978291
O O9 0.281825 0.359859 0.758142
O O10 0.500000 0.336488 0.000000
O O11 0.580040 0.250012 0.966925
O O12 0.241170 0.299556 0.627585
O O13 0.000000 0.167586 0.500000
O O14 0.500000 0.081694 0.500000
O O15 0.180392 0.000000 0.290798
#
# Coordination Sequence:
#
# PCOD8093574 Si02
#       6
#     8   8   8   8   8   8
#     4  11  22  38  64  92 125 160 199 255 310 353
#     4  11  23  41  63  86 122 163 202 252 306 359
#     4  10  20  37  59  91 124 151 199 255 295 363
#     4  10  23  40  57  89 125 159 203 245 296 372
#     4  11  21  40  62  95 121 152 205 260 297 366
#     4  10  19  36  57  83 120 159 196 245 301 348
#
# _framework density 20.82854
#
# number of rings (size 3 to 8) (size 9 to 14) (size 15 to 20)
#    0.000    1.500    5.000    1.000    0.000    8.000 
#    0.000    4.167    0.000    0.000    0.000    0.000 
#    0.000    0.000    0.000    0.000    0.000    0.000 
#
# Total GULP energy -297385.184693 kJ/mol
# GULP energy per Si atom -12391.049362 kJ/mol
# Density = 2.078113 g / cm^3
# Si number density = 20.828540 Si / 1000 Ang^3
#
#
#
# Elastic Constant Matrix: (Units=GPa)
#
#
# Indices 1 2 3 4 5 6 
#
# 1 60.7436 41.0038 31.8968 -0.0038 -13.5062 0.0013
# 2 41.0038 150.7352 53.1533 -0.0214 -5.9028 0.0027
# 3 31.8968 53.1533 109.9233 -0.0354 -30.7969 0.0385
# 4 -0.0038 -0.0214 -0.0354 28.0434 -0.0249 -8.8583
# 5 -13.5062 -5.9028 -30.7969 -0.0249 35.7108 0.0166
# 6 0.0013 0.0027 0.0385 -8.8583 0.0166 29.7897
#
#
#
# Elastic Compliance Matrix: (Units=1/GPa)
#
#
# Indices 1 2 3 4 5 6 
#
# 1 0.022371 -0.004967 -0.002570 0.000001 0.005423 0.000000
# 2 -0.004967 0.009296 -0.004153 0.000000 -0.003924 0.000007
# 3 -0.002570 -0.004153 0.015014 0.000019 0.011290 -0.000019
# 4 0.000001 0.000000 0.000019 0.039356 0.000039 0.011703
# 5 0.005423 -0.003924 0.011290 0.000039 0.039142 -0.000025
# 6 0.000000 0.000007 -0.000019 0.011703 -0.000025 0.037049
#
#
# Mechanical properties :
#
#
# Convention : Reuss Voigt Hill
#
# Bulk Modulus (GPa) = 42.91677 63.72331 53.32004
# Shear Modulus (GPa) = 25.85652 31.73198 28.79425
#
# Velocity S-wave (km/s) = 3.52717 3.90742 3.72215
# Velocity P-wave (km/s) = 6.10225 7.14268 6.64287
#
# Compressibility (1/GPa) = 0.02330091
#
# Stress axis : x y z
#
# Youngs Moduli (GPa) = 44.70097 107.57212 66.60280
#
# Poissons Ratio (x) = 0.53428 0.17119
# Poissons Ratio (y) = 0.22202 0.27661
# Poissons Ratio (z) = 0.11490 0.44676
#
# Static dielectric constant tensor:
#      x y z
#    x 3.612090 -0.000050 -0.226240 
#    y -0.000050 3.901150 -0.000180 
#    z -0.226240 -0.000180 4.026070 
# 
# 
# High freq. dielectric constant tensor:
#      x y z
#    x 1.786060 0.000000 -0.011060 
#    y 0.000000 1.815540 -0.000010 
#    z -0.011060 -0.000010 1.830120 
# 
# From -- ./inp_files/366203.got.cif
#   From: 2010.06.25/outbox.cif.g09.slc.cpg/sg12_184_cif.got.tgz:366203.got - 2010.06.28 00:19:55.
