data_PCOD8093547
_publ_section_title
;
Structure prediction by ZEFSAII (Michael W. Deem and Ramdas Pophale) SiO2 
 PCOD8093547
Probable space group: C 2/M
;
_chemical_formula_sum "Si O2"
_cell_formula_units_Z 56
_cell_length_a 26.209055
_cell_length_b 14.476016
_cell_length_c 8.622451
_cell_angle_alpha 90.000000
_cell_angle_beta 57.884053
_cell_angle_gamma 90.000000
_cell_volume 2770.774762
_symmetry_space_group_name_H-M "C 2/M"
_symmetry_group_IT_number 12
_symmetry_cell_setting 'monoclinic'
loop_
_space_group_symop_operation_xyz
x,y,z
-x,y,-z
-x,-y,-z
x,-y,z
1/2+x,1/2+y,z
1/2-x,1/2+y,-z
1/2-x,1/2-y,-z
1/2+x,1/2-y,z
loop_
_atom_site_type_symbol
_atom_site_label
_atom_site_fract_x
_atom_site_fract_y
_atom_site_fract_z
Si Si1 0.148477 0.897403 0.468270
Si Si2 0.517656 0.105692 0.150165
Si Si3 0.631739 0.790454 0.884918
Si Si4 0.302787 0.099950 0.719796
Si Si5 0.597215 0.209893 0.592047
Si Si6 0.759037 0.339681 0.091554
Si Si7 0.320205 0.396600 0.236097
O O1 0.094936 0.820763 0.564838
O O2 0.194998 0.875156 0.255980
O O3 0.184757 0.895093 0.570642
O O4 0.120448 0.000000 0.486763
O O5 0.467763 0.162808 0.327691
O O6 0.523364 0.000000 0.202702
O O7 0.500000 0.105017 0.000000
O O8 0.579809 0.161733 0.071941
O O9 0.623131 0.816610 0.719024
O O10 0.696280 0.827272 0.835752
O O11 0.630271 0.678041 0.904175
O O12 0.357023 0.170729 0.609155
O O13 0.244283 0.136569 0.722891
O O14 0.321939 0.000000 0.622779
O O15 0.288045 0.087300 0.925812
O O16 0.750000 0.250000 0.000000
O O17 0.337166 0.500000 0.148450
#
# Coordination Sequence:
#
# PCOD8093547 Si02
#       7
#     8   8   8   8   8   8   8
#     4  10  20  34  54  79 109 140 177 222 272 322
#     4   9  19  35  56  81 107 139 181 227 271 315
#     4  10  20  35  56  78 109 144 181 221 269 323
#     4  11  21  33  52  78 109 142 179 222 272 323
#     4  10  19  36  57  79 105 142 184 226 268 316
#     4  12  21  34  52  80 113 146 175 219 270 326
#     4   9  18  33  53  80 107 138 177 223 272 322
#
# _framework density 20.210953
#
# number of rings (size 3 to 8) (size 9 to 14) (size 15 to 20)
#    0.000    1.857    2.857    1.714    0.000    4.000 
#    0.000    1.429    0.000    6.000    0.000    1.000 
#    0.000    0.000    0.000    0.000    0.000    0.000 
#
# Total GULP energy -347026.196376 kJ/mol
# GULP energy per Si atom -12393.792728 kJ/mol
# Density = 2.016495 g / cm^3
# Si number density = 20.210953 Si / 1000 Ang^3
#
#
#
# Elastic Constant Matrix: (Units=GPa)
#
#
# Indices 1 2 3 4 5 6 
#
# 1 29.9410 32.1946 17.5773 0.0000 -13.4203 0.0000
# 2 32.1946 155.5856 58.3330 0.0000 -30.1323 0.0000
# 3 17.5773 58.3330 83.9862 0.0000 -16.6589 0.0000
# 4 0.0000 0.0000 0.0000 31.1798 0.0000 -5.3586
# 5 -13.4203 -30.1323 -16.6589 0.0000 27.2236 0.0000
# 6 0.0000 0.0000 0.0000 -5.3586 0.0000 21.7622
#
#
#
# Elastic Compliance Matrix: (Units=1/GPa)
#
#
# Indices 1 2 3 4 5 6 
#
# 1 0.048451 -0.005909 -0.002954 0.000000 0.015536 0.000000
# 2 -0.005909 0.010655 -0.005010 0.000000 0.005814 0.000000
# 3 -0.002954 -0.005010 0.016635 0.000000 0.003178 0.000000
# 4 0.000000 0.000000 0.000000 0.033489 0.000000 0.008246
# 5 0.015536 0.005814 0.003178 0.000000 0.052771 0.000000
# 6 0.000000 0.000000 0.000000 0.008246 0.000000 0.047982
#
#
# Mechanical properties :
#
#
# Convention : Reuss Voigt Hill
#
# Bulk Modulus (GPa) = 20.83623 53.96919 37.40271
# Shear Modulus (GPa) = 19.70611 26.79364 23.24988
#
# Velocity S-wave (km/s) = 3.12592 3.64497 3.39538
# Velocity P-wave (km/s) = 4.83325 6.66898 5.82390
#
# Compressibility (1/GPa) = 0.04799333
#
# Stress axis : x y z
#
# Youngs Moduli (GPa) = 20.63940 93.85655 60.11347
#
# Poissons Ratio (x) = 0.55462 0.17759
# Poissons Ratio (y) = 0.12196 0.30118
# Poissons Ratio (z) = 0.06098 0.47024
#
# Static dielectric constant tensor:
#      x y z
#    x 3.415540 0.000000 0.075920 
#    y 0.000000 4.093870 0.000000 
#    z 0.075920 0.000000 3.647070 
# 
# 
# High freq. dielectric constant tensor:
#      x y z
#    x 1.751390 0.000000 0.008640 
#    y 0.000000 1.808520 0.000000 
#    z 0.008640 0.000000 1.773080 
# 
# From -- ./inp_files/86398.got.cif
#   From: 2010.06.25/outbox.cif.g09.slc.cpg/sg12_44_cif.got.tgz:86398.got - 2010.06.28 00:19:55.
