data_PCOD8093070
_publ_section_title
;
Structure prediction by ZEFSAII (Michael W. Deem and Ramdas Pophale) SiO2 
 PCOD8093070
Probable space group: C 2/M
;
_chemical_formula_sum "Si O2"
_cell_formula_units_Z 64
_cell_length_a 19.340212
_cell_length_b 9.291415
_cell_length_c 30.740188
_cell_angle_alpha 90.000000
_cell_angle_beta 37.720017
_cell_angle_gamma 90.000000
_cell_volume 3379.570519
_symmetry_space_group_name_H-M "C 2/M"
_symmetry_group_IT_number 12
_symmetry_cell_setting 'monoclinic'
loop_
_space_group_symop_operation_xyz
x,y,z
-x,y,-z
-x,-y,-z
x,-y,z
1/2+x,1/2+y,z
1/2-x,1/2+y,-z
1/2-x,1/2-y,-z
1/2+x,1/2-y,z
loop_
_atom_site_type_symbol
_atom_site_label
_atom_site_fract_x
_atom_site_fract_y
_atom_site_fract_z
Si Si1 0.233397 0.664472 0.704946
Si Si2 0.873593 0.670653 0.062467
Si Si3 0.990412 0.669867 0.794262
Si Si4 0.462135 0.838703 0.709885
Si Si5 0.786258 0.172450 0.937923
Si Si6 0.636766 0.837281 0.551746
Si Si7 0.541011 0.169814 0.431494
Si Si8 0.741216 0.663943 0.210644
O O1 0.265618 0.500000 0.678164
O O2 0.120297 0.713148 0.736871
O O3 0.337756 0.760558 0.637981
O O4 0.198876 0.680990 0.772806
O O5 0.880695 0.500000 0.061809
O O6 0.804392 0.716982 0.054046
O O7 0.814233 0.734167 0.135362
O O8 0.000000 0.736157 0.000000
O O9 0.970401 0.500000 0.813341
O O10 0.967980 0.715439 0.756094
O O11 0.909076 0.765770 0.864613
O O12 0.582441 0.829166 0.626597
O O13 0.378164 0.740433 0.724596
O O14 0.414764 0.000000 0.731908
O O15 0.792281 0.000000 0.940931
O O16 0.750000 0.250000 0.000000
O O17 0.750000 0.750000 0.500000
O O18 0.552217 0.774255 0.556882
O O19 0.667885 0.000000 0.523414
O O20 0.500000 0.212990 0.500000
O O21 0.557369 0.000000 0.418165
O O22 0.717024 0.500000 0.210488
#
# Coordination Sequence:
#
# PCOD8093070 Si02
#       8
#     8   8   8   8   8   8   8   8
#     4  10  22  37  59  87 113 148 190 236 282 332
#     4   9  19  35  58  84 110 145 187 230 274 323
#     4  10  22  39  59  85 116 149 188 233 284 338
#     4  10  20  37  59  81 113 149 183 233 289 334
#     4  11  23  39  60  85 116 152 189 231 282 337
#     4  10  22  38  57  83 113 149 190 232 285 338
#     4  10  22  40  58  80 114 152 189 234 286 340
#     4  10  19  35  59  85 109 140 191 236 273 329
#
# _framework density 18.937318000000001
#
# number of rings (size 3 to 8) (size 9 to 14) (size 15 to 20)
#    0.000    2.000    2.500    0.375    3.500    1.750 
#    0.000    0.000    0.000    1.875    0.000    0.000 
#    0.000    0.000    0.000    0.000    0.000    0.000 
#
# Total GULP energy -396768.814130 kJ/mol
# GULP energy per Si atom -12399.025442 kJ/mol
# Density = 1.889422 g / cm^3
# Si number density = 18.937318 Si / 1000 Ang^3
#
#
#
# Elastic Constant Matrix: (Units=GPa)
#
#
# Indices 1 2 3 4 5 6 
#
# 1 82.7608 33.7608 49.6715 0.0014 -7.4711 0.0116
# 2 33.7608 52.3239 43.0911 0.0030 -4.7339 0.0092
# 3 49.6715 43.0911 119.3232 -0.0005 -1.0055 -0.0009
# 4 0.0014 0.0030 -0.0005 33.0890 -0.0004 -2.7412
# 5 -7.4711 -4.7339 -1.0055 -0.0004 39.6759 0.0021
# 6 0.0116 0.0092 -0.0009 -2.7412 0.0021 25.7845
#
#
#
# Elastic Compliance Matrix: (Units=1/GPa)
#
#
# Indices 1 2 3 4 5 6 
#
# 1 0.018318 -0.007597 -0.004862 -0.000001 0.002420 -0.000006
# 2 -0.007597 0.030713 -0.007912 -0.000003 0.002034 -0.000008
# 3 -0.004862 -0.007912 0.013249 0.000002 -0.001524 0.000006
# 4 -0.000001 -0.000003 0.000002 0.030490 0.000000 0.003241
# 5 0.002420 0.002034 -0.001524 0.000000 0.025864 -0.000004
# 6 -0.000006 -0.000008 0.000006 0.003241 -0.000004 0.039128
#
#
# Mechanical properties :
#
#
# Convention : Reuss Voigt Hill
#
# Bulk Modulus (GPa) = 46.42625 56.38386 51.40506
# Shear Modulus (GPa) = 24.30932 28.23550 26.27241
#
# Velocity S-wave (km/s) = 3.58672 3.86553 3.72874
# Velocity P-wave (km/s) = 6.45924 7.05420 6.76326
#
# Compressibility (1/GPa) = 0.02153954
#
# Stress axis : x y z
#
# Youngs Moduli (GPa) = 54.59016 32.55935 75.47843
#
# Poissons Ratio (x) = 0.24734 0.36695
# Poissons Ratio (y) = 0.41471 0.59718
# Poissons Ratio (z) = 0.26540 0.25761
#
# Static dielectric constant tensor:
#      x y z
#    x 3.675630 -0.000010 0.153860 
#    y -0.000010 3.303740 -0.000010 
#    z 0.153860 -0.000010 3.580520 
# 
# 
# High freq. dielectric constant tensor:
#      x y z
#    x 1.745780 0.000000 0.007030 
#    y 0.000000 1.716160 0.000000 
#    z 0.007030 0.000000 1.744760 
# 
# From -- ./inp_files/378143.got.cif
#   From: 2010.06.25/outbox.cif.g09.slc.cpg/sg12_190_cif.got.tgz:378143.got - 2010.06.28 00:19:55.
