data_PCOD8093974
_publ_section_title
;
Structure prediction by ZEFSAII (Michael W. Deem and Ramdas Pophale) SiO2 
 PCOD8093974
Probable space group: C 2/M
;
_chemical_formula_sum "Si O2"
_cell_formula_units_Z 56
_cell_length_a 24.279442
_cell_length_b 8.428530
_cell_length_c 17.622339
_cell_angle_alpha 90.000000
_cell_angle_beta 53.070596
_cell_angle_gamma 90.000000
_cell_volume 2882.739659
_symmetry_space_group_name_H-M "C 2/M"
_symmetry_group_IT_number 12
_symmetry_cell_setting 'monoclinic'
loop_
_space_group_symop_operation_xyz
x,y,z
-x,y,-z
-x,-y,-z
x,-y,z
1/2+x,1/2+y,z
1/2-x,1/2+y,-z
1/2-x,1/2-y,-z
1/2+x,1/2-y,z
loop_
_atom_site_type_symbol
_atom_site_label
_atom_site_fract_x
_atom_site_fract_y
_atom_site_fract_z
Si Si1 0.416943 0.188441 0.448980
Si Si2 0.955044 0.685405 0.840709
Si Si3 0.183027 0.685644 0.777911
Si Si4 0.430010 0.314745 0.019055
Si Si5 0.831604 0.684466 0.664665
Si Si6 0.066711 0.815934 0.300531
Si Si7 0.109417 0.313435 0.693244
O O1 0.371396 0.245852 0.556979
O O2 0.491245 0.269200 0.392475
O O3 0.378606 0.246488 0.403121
O O4 0.428798 0.000000 0.439816
O O5 0.949251 0.500000 0.827754
O O6 0.921802 0.778259 0.797612
O O7 0.034194 0.741148 0.783826
O O8 0.916473 0.728086 0.950226
O O9 0.166136 0.500000 0.799713
O O10 0.135938 0.780836 0.875214
O O11 0.262086 0.716425 0.730550
O O12 0.165633 0.750272 0.706964
O O13 0.437212 0.500000 0.997387
O O14 0.500000 0.248501 0.000000
O O15 0.813418 0.500000 0.672556
O O16 0.877667 0.713960 0.699913
O O17 0.079704 0.000000 0.305313
O O18 0.113602 0.500000 0.688524
#
# Coordination Sequence:
#
# PCOD8093974 Si02
#       7
#     8   8   8   8   8   8   8
#     4   9  19  37  60  84 112 152 196 237 285 341
#     4  10  19  36  61  87 115 149 190 234 286 339
#     4  11  22  37  57  83 117 155 195 235 285 343
#     4  11  22  36  58  89 121 149 188 235 281 335
#     4  11  23  39  57  80 115 157 197 238 288 341
#     4  11  22  37  59  87 116 147 192 243 288 336
#     4   8  16  32  55  83 113 146 187 231 279 336
#
# _framework density 19.425967
#
# number of rings (size 3 to 8) (size 9 to 14) (size 15 to 20)
#    0.000    1.857    1.429    4.286    0.000    4.000 
#    0.000    1.429    0.000    0.000    0.000    0.000 
#    0.000    0.000    0.000    0.000    0.000    0.000 
#
# Total GULP energy -347231.325160 kJ/mol
# GULP energy per Si atom -12401.118756 kJ/mol
# Density = 1.938175 g / cm^3
# Si number density = 19.425967 Si / 1000 Ang^3
#
#
#
# Elastic Constant Matrix: (Units=GPa)
#
#
# Indices 1 2 3 4 5 6 
#
# 1 96.9813 3.6809 67.1004 0.0001 4.5585 0.0003
# 2 3.6809 45.9367 10.7570 0.0014 2.8286 0.0007
# 3 67.1004 10.7570 97.5628 0.0007 9.5668 -0.0003
# 4 0.0001 0.0014 0.0007 24.9568 -0.0008 -1.7127
# 5 4.5585 2.8286 9.5668 -0.0008 20.5455 0.0001
# 6 0.0003 0.0007 -0.0003 -1.7127 0.0001 26.0536
#
#
#
# Elastic Compliance Matrix: (Units=1/GPa)
#
#
# Indices 1 2 3 4 5 6 
#
# 1 0.019864 0.001575 -0.014022 0.000000 0.001905 0.000000
# 2 0.001575 0.022551 -0.003385 -0.000001 -0.001878 -0.000001
# 3 -0.014022 -0.003385 0.020869 -0.000001 -0.006140 0.000000
# 4 0.000000 -0.000001 -0.000001 0.040251 0.000002 0.002646
# 5 0.001905 -0.001878 -0.006140 0.000002 0.051367 0.000000
# 6 0.000000 -0.000001 0.000000 0.002646 0.000000 0.038556
#
#
# Mechanical properties :
#
#
# Convention : Reuss Voigt Hill
#
# Bulk Modulus (GPa) = 31.62695 44.83971 38.23333
# Shear Modulus (GPa) = 21.21672 24.90734 23.06203
#
# Velocity S-wave (km/s) = 3.30841 3.58462 3.44928
# Velocity P-wave (km/s) = 5.55969 6.34548 5.96554
#
# Compressibility (1/GPa) = 0.03161861
#
# Stress axis : x y z
#
# Youngs Moduli (GPa) = 50.34338 44.34338 47.91803
#
# Poissons Ratio (x) = -0.06982 0.67190
# Poissons Ratio (y) = -0.07927 0.16221
# Poissons Ratio (z) = 0.70591 0.15011
#
# Static dielectric constant tensor:
#      x y z
#    x 3.654890 0.000000 0.284400 
#    y 0.000000 3.350000 0.000000 
#    z 0.284400 0.000000 3.517330 
# 
# 
# High freq. dielectric constant tensor:
#      x y z
#    x 1.754020 0.000000 0.020480 
#    y 0.000000 1.748840 0.000000 
#    z 0.020480 0.000000 1.751670 
# 
# From -- ./inp_files/288245.got.cif
#   From: 2010.06.25/outbox.cif.g09.slc.cpg/sg12_145_cif.got.tgz:288245.got - 2010.06.28 00:19:55.
