data_PCOD8093501
_publ_section_title
;
Structure prediction by ZEFSAII (Michael W. Deem and Ramdas Pophale) SiO2 
 PCOD8093501
Probable space group: C 2/M
;
_chemical_formula_sum "Si O2"
_cell_formula_units_Z 56
_cell_length_a 27.630509
_cell_length_b 17.092990
_cell_length_c 6.955897
_cell_angle_alpha 90.000000
_cell_angle_beta 118.758863
_cell_angle_gamma 90.000000
_cell_volume 2879.966684
_symmetry_space_group_name_H-M "C 2/M"
_symmetry_group_IT_number 12
_symmetry_cell_setting 'monoclinic'
loop_
_space_group_symop_operation_xyz
x,y,z
-x,y,-z
-x,-y,-z
x,-y,z
1/2+x,1/2+y,z
1/2-x,1/2+y,-z
1/2-x,1/2-y,-z
1/2+x,1/2-y,z
loop_
_atom_site_type_symbol
_atom_site_label
_atom_site_fract_x
_atom_site_fract_y
_atom_site_fract_z
Si Si1 0.043345 0.913642 0.911898
Si Si2 0.829663 0.409813 0.528540
Si Si3 0.414043 0.796053 0.820759
Si Si4 0.762250 0.912362 0.341615
Si Si5 0.656780 0.657289 0.219943
Si Si6 0.251474 0.662835 0.920796
Si Si7 0.495554 0.252021 0.279222
O O1 0.028373 0.840698 0.745334
O O2 0.039935 0.000000 0.805250
O O3 0.105436 0.902045 0.107551
O O4 0.000000 0.910176 0.000000
O O5 0.834023 0.500000 0.471013
O O6 0.891195 0.377995 0.694883
O O7 0.795129 0.400463 0.657468
O O8 0.802840 0.358107 0.306894
O O9 0.362093 0.746549 0.795983
O O10 0.444981 0.747932 0.710591
O O11 0.455535 0.805498 0.080645
O O12 0.809204 0.858028 0.521381
O O13 0.783615 0.000000 0.408771
O O14 0.753705 0.895998 0.102198
O O15 0.694367 0.648345 0.103415
O O16 0.250000 0.750000 0.000000
O O17 0.500000 0.216352 0.500000
#
# Coordination Sequence:
#
# PCOD8093501 Si02
#       7
#     8   8   8   8   8   8   8
#     4  10  19  36  56  79 115 153 190 234 282 335
#     4  10  22  39  60  83 113 150 189 233 286 345
#     4  10  20  39  58  80 109 145 187 236 289 338
#     4  10  21  36  54  81 117 151 185 231 281 332
#     4  10  20  36  57  82 114 155 192 231 281 340
#     4  11  22  36  57  88 118 149 191 236 282 343
#     4  10  21  38  58  82 110 145 190 240 287 341
#
# _framework density 19.444668
#
# number of rings (size 3 to 8) (size 9 to 14) (size 15 to 20)
#    0.000    1.857    2.857    2.571    0.000   10.000 
#    0.000    1.429    0.000    0.857    0.000    0.000 
#    0.000    0.000    0.000    0.000    0.000    0.000 
#
# Total GULP energy -347128.549852 kJ/mol
# GULP energy per Si atom -12397.448209 kJ/mol
# Density = 1.940041 g / cm^3
# Si number density = 19.444668 Si / 1000 Ang^3
#
#
#
# Elastic Constant Matrix: (Units=GPa)
#
#
# Indices 1 2 3 4 5 6 
#
# 1 74.9094 36.1528 51.6037 0.0000 11.1782 0.0000
# 2 36.1528 95.1868 41.1376 0.0000 14.1898 0.0000
# 3 51.6037 41.1376 134.9599 0.0000 -8.8376 0.0000
# 4 0.0000 0.0000 0.0000 27.1429 0.0000 4.1926
# 5 11.1782 14.1898 -8.8376 0.0000 25.3674 0.0000
# 6 0.0000 0.0000 0.0000 4.1926 0.0000 19.8582
#
#
#
# Elastic Compliance Matrix: (Units=1/GPa)
#
#
# Indices 1 2 3 4 5 6 
#
# 1 0.022184 -0.003276 -0.008191 0.000000 -0.010796 0.000000
# 2 -0.003276 0.014539 -0.003701 0.000000 -0.007979 0.000000
# 3 -0.008191 -0.003701 0.012323 0.000000 0.009973 0.000000
# 4 0.000000 0.000000 0.000000 0.038084 0.000000 -0.008041
# 5 -0.010796 -0.007979 0.009973 0.000000 0.052115 0.000000
# 6 0.000000 0.000000 0.000000 -0.008041 0.000000 0.052055
#
#
# Mechanical properties :
#
#
# Convention : Reuss Voigt Hill
#
# Bulk Modulus (GPa) = 53.45034 62.53826 57.99430
# Shear Modulus (GPa) = 21.94200 26.21783 24.07992
#
# Velocity S-wave (km/s) = 3.36286 3.67595 3.52288
# Velocity P-wave (km/s) = 6.52890 7.08864 6.81452
#
# Compressibility (1/GPa) = 0.01870896
#
# Stress axis : x y z
#
# Youngs Moduli (GPa) = 45.07710 68.77986 81.15106
#
# Poissons Ratio (x) = 0.22536 0.66468
# Poissons Ratio (y) = 0.14769 0.30037
# Poissons Ratio (z) = 0.36921 0.25458
#
# Static dielectric constant tensor:
#      x y z
#    x 3.560150 0.000000 0.030420 
#    y 0.000000 3.577970 0.000000 
#    z 0.030420 0.000000 3.567620 
# 
# 
# High freq. dielectric constant tensor:
#      x y z
#    x 1.756880 0.000000 0.004160 
#    y 0.000000 1.747410 0.000000 
#    z 0.004160 0.000000 1.751950 
# 
# From -- ./inp_files/28831.got.cif
#   From: 2010.06.25/outbox.cif.g09.slc.cpg/sg12_15_cif.got.tgz:28831.got - 2010.06.28 00:19:55.
