data_PCOD8093361
_publ_section_title
;
Structure prediction by ZEFSAII (Michael W. Deem and Ramdas Pophale) SiO2 
 PCOD8093361
Probable space group: C 2/M
;
_chemical_formula_sum "Si O2"
_cell_formula_units_Z 48
_cell_length_a 17.839931
_cell_length_b 16.331949
_cell_length_c 12.449290
_cell_angle_alpha 90.000000
_cell_angle_beta 37.164215
_cell_angle_gamma 90.000000
_cell_volume 2191.218528
_symmetry_space_group_name_H-M "C 2/M"
_symmetry_group_IT_number 12
_symmetry_cell_setting 'monoclinic'
loop_
_space_group_symop_operation_xyz
x,y,z
-x,y,-z
-x,-y,-z
x,-y,z
1/2+x,1/2+y,z
1/2-x,1/2+y,-z
1/2-x,1/2-y,-z
1/2+x,1/2-y,z
loop_
_atom_site_type_symbol
_atom_site_label
_atom_site_fract_x
_atom_site_fract_y
_atom_site_fract_z
Si Si1 0.005701 0.407180 0.369440
Si Si2 0.359531 0.857982 0.177918
Si Si3 0.625860 0.403895 0.302261
Si Si4 0.786885 0.907421 0.023736
Si Si5 0.135212 0.164545 0.847510
Si Si6 0.298472 0.160758 0.474720
O O1 0.951105 0.500000 0.422603
O O2 0.930929 0.340908 0.384000
O O3 0.000000 0.378988 0.500000
O O4 0.141804 0.405346 0.163559
O O5 0.255793 0.885680 0.212420
O O6 0.367154 0.760719 0.170047
O O7 0.311710 0.890062 0.349110
O O8 0.500000 0.893537 0.000000
O O9 0.500000 0.365212 0.500000
O O10 0.608826 0.500000 0.317955
O O11 0.638529 0.371937 0.164798
O O12 0.805302 0.850293 0.105078
O O13 0.829570 0.000000 0.001512
O O14 0.206081 0.120200 0.667837
O O15 0.000000 0.125435 0.000000
O O16 0.250000 0.250000 0.500000
#
# Coordination Sequence:
#
# PCOD8093361 Si02
#       6
#     8   8   8   8   8   8
#     4  10  19  35  61  92 122 154 202 258 308 358
#     4  10  22  41  60  86 122 165 205 249 302 370
#     4  10  23  42  61  88 123 158 204 255 307 372
#     4  10  21  39  63  90 121 159 204 256 309 365
#     4  10  22  38  58  88 124 159 203 254 302 367
#     4  10  21  38  58  88 125 156 197 253 302 368
#
# _framework density 21.905619000000002
#
# number of rings (size 3 to 8) (size 9 to 14) (size 15 to 20)
#    0.000    2.000    1.667    1.000    2.333    2.000 
#    6.000    0.000    0.000    0.000    0.000    0.000 
#    0.000    0.000    0.000    0.000    0.000    0.000 
#
# Total GULP energy -297370.026428 kJ/mol
# GULP energy per Si atom -12390.417768 kJ/mol
# Density = 2.185576 g / cm^3
# Si number density = 21.905619 Si / 1000 Ang^3
#
#
#
# Elastic Constant Matrix: (Units=GPa)
#
#
# Indices 1 2 3 4 5 6 
#
# 1 133.5602 27.8146 69.1257 0.0000 11.0478 0.0000
# 2 27.8146 24.1057 17.2243 0.0000 0.2975 0.0000
# 3 69.1257 17.2243 192.2087 0.0000 23.3276 0.0000
# 4 0.0000 0.0000 0.0000 17.6480 0.0000 -5.0815
# 5 11.0478 0.2975 23.3276 0.0000 50.2309 0.0000
# 6 0.0000 0.0000 0.0000 -5.0815 0.0000 14.3812
#
#
#
# Elastic Compliance Matrix: (Units=1/GPa)
#
#
# Indices 1 2 3 4 5 6 
#
# 1 0.011418 -0.011026 -0.002990 0.000000 -0.001057 0.000000
# 2 -0.011026 0.055102 -0.001301 0.000000 0.002703 0.000000
# 3 -0.002990 -0.001301 0.006691 0.000000 -0.002442 0.000000
# 4 0.000000 0.000000 0.000000 0.063082 0.000000 0.022289
# 5 -0.001057 0.002703 -0.002442 0.000000 0.021259 0.000000
# 6 0.000000 0.000000 0.000000 0.022289 0.000000 0.077411
#
#
# Mechanical properties :
#
#
# Convention : Reuss Voigt Hill
#
# Bulk Modulus (GPa) = 23.48592 64.24487 43.86540
# Shear Modulus (GPa) = 17.87062 32.16601 25.01832
#
# Velocity S-wave (km/s) = 2.85932 3.83612 3.38316
# Velocity P-wave (km/s) = 4.65249 7.00091 5.94384
#
# Compressibility (1/GPa) = 0.04257870
#
# Stress axis : x y z
#
# Youngs Moduli (GPa) = 87.57723 18.14809 149.45510
#
# Poissons Ratio (x) = 0.20010 0.44689
# Poissons Ratio (y) = 0.96561 0.19438
# Poissons Ratio (z) = 0.26187 0.02360
#
# Static dielectric constant tensor:
#      x y z
#    x 3.954820 0.000000 0.181750 
#    y 0.000000 3.503450 0.000000 
#    z 0.181750 0.000000 4.872350 
# 
# 
# High freq. dielectric constant tensor:
#      x y z
#    x 1.864850 0.000000 0.010510 
#    y 0.000000 1.818310 0.000000 
#    z 0.010510 0.000000 1.889160 
# 
# From -- ./inp_files/147939.got.cif
#   From: 2010.06.25/outbox.cif.g09.slc.cpg/sg12_74_cif.got.tgz:147939.got - 2010.06.28 00:19:55.
