data_PCOD8093446
_publ_section_title
;
Structure prediction by ZEFSAII (Michael W. Deem and Ramdas Pophale) SiO2 
 PCOD8093446
Probable space group: C 2/M
;
_chemical_formula_sum "Si O2"
_cell_formula_units_Z 64
_cell_length_a 21.743846
_cell_length_b 23.586195
_cell_length_c 9.546648
_cell_angle_alpha 90.000000
_cell_angle_beta 51.060659
_cell_angle_gamma 90.000000
_cell_volume 3808.199381
_symmetry_space_group_name_H-M "C 2/M"
_symmetry_group_IT_number 12
_symmetry_cell_setting 'monoclinic'
loop_
_space_group_symop_operation_xyz
x,y,z
-x,y,-z
-x,-y,-z
x,-y,z
1/2+x,1/2+y,z
1/2-x,1/2+y,-z
1/2-x,1/2-y,-z
1/2+x,1/2-y,z
loop_
_atom_site_type_symbol
_atom_site_label
_atom_site_fract_x
_atom_site_fract_y
_atom_site_fract_z
Si Si1 0.271574 0.692928 0.307626
Si Si2 0.453066 0.063179 0.208463
Si Si3 0.926043 0.766540 0.193650
Si Si4 0.339718 0.842010 0.292440
Si Si5 0.677876 0.839728 0.206705
Si Si6 0.080685 0.764873 0.464011
Si Si7 0.742636 0.310245 0.194286
Si Si8 0.436782 0.063385 0.710778
O O1 0.358802 0.687378 0.246707
O O2 0.211571 0.692631 0.522115
O O3 0.243899 0.645916 0.232318
O O4 0.265030 0.751015 0.232220
O O5 0.374033 0.100233 0.307465
O O6 0.515632 0.090357 0.226909
O O7 0.427112 0.000000 0.295407
O O8 0.500000 0.059781 0.000000
O O9 0.909004 0.702952 0.159086
O O10 0.938634 0.764688 0.342842
O O11 0.000000 0.789081 0.000000
O O12 0.285926 0.856957 0.232407
O O13 0.612891 0.796169 0.363510
O O14 0.637493 0.898225 0.221548
O O15 0.722759 0.812828 0.010495
O O16 0.146594 0.813433 0.333175
O O17 0.000000 0.780278 0.500000
O O18 0.500000 0.060431 0.500000
O O19 0.404952 0.000000 0.791300
#
# Coordination Sequence:
#
# PCOD8093446 Si02
#       8
#     8   8   8   8   8   8   8   8
#     4  10  19  36  48  66 100 131 170 210 243 292
#     4  10  21  34  50  75 102 130 170 216 248 283
#     4  11  22  32  49  72  99 134 170 203 247 297
#     4  11  18  34  52  65  99 139 170 200 250 298
#     4  11  21  32  53  71  97 139 173 198 250 297
#     4  11  22  32  47  73 103 130 167 208 242 300
#     4  10  20  34  47  71  98 132 167 212 247 292
#     4  10  21  36  50  73 107 134 168 211 245 282
#
# _framework density 16.805841999999998
#
# number of rings (size 3 to 8) (size 9 to 14) (size 15 to 20)
#    0.000    1.500    3.750    4.500    7.000    0.000 
#    0.000    0.000    0.000    0.000    0.000    0.000 
#    0.000    6.000    0.000    0.000    0.000    0.000 
#
# Total GULP energy -396531.884231 kJ/mol
# GULP energy per Si atom -12391.621382 kJ/mol
# Density = 1.676759 g / cm^3
# Si number density = 16.805842 Si / 1000 Ang^3
#
#
#
# Elastic Constant Matrix: (Units=GPa)
#
#
# Indices 1 2 3 4 5 6 
#
# 1 156.6656 40.1634 44.9738 0.0000 2.5155 0.0000
# 2 40.1634 49.8948 12.3727 0.0000 -10.1571 0.0000
# 3 44.9738 12.3727 100.3059 0.0000 4.0769 0.0000
# 4 0.0000 0.0000 0.0000 15.2019 0.0000 -0.1766
# 5 2.5155 -10.1571 4.0769 0.0000 31.0735 0.0000
# 6 0.0000 0.0000 0.0000 -0.1766 0.0000 28.1515
#
#
#
# Elastic Compliance Matrix: (Units=1/GPa)
#
#
# Indices 1 2 3 4 5 6 
#
# 1 0.009149 -0.007135 -0.003114 0.000000 -0.002664 0.000000
# 2 -0.007135 0.027939 -0.000646 0.000000 0.009795 0.000000
# 3 -0.003114 -0.000646 0.011505 0.000000 -0.001468 0.000000
# 4 0.000000 0.000000 0.000000 0.065786 0.000000 0.000413
# 5 -0.002664 0.009795 -0.001468 0.000000 0.035792 0.000000
# 6 0.000000 0.000000 0.000000 0.000413 0.000000 0.035525
#
#
# Mechanical properties :
#
#
# Convention : Reuss Voigt Hill
#
# Bulk Modulus (GPa) = 37.30598 55.76513 46.53556
# Shear Modulus (GPa) = 23.10347 28.84248 25.97298
#
# Velocity S-wave (km/s) = 3.71176 4.14722 3.93552
# Velocity P-wave (km/s) = 6.37306 7.49577 6.95710
#
# Compressibility (1/GPa) = 0.02680535
#
# Stress axis : x y z
#
# Youngs Moduli (GPa) = 109.30544 35.79193 86.91982
#
# Poissons Ratio (x) = 0.25536 0.27064
# Poissons Ratio (y) = 0.77985 0.05611
# Poissons Ratio (z) = 0.34034 0.02310
#
# Static dielectric constant tensor:
#      x y z
#    x 3.853380 0.000000 0.150120 
#    y 0.000000 3.026420 0.000000 
#    z 0.150120 0.000000 3.197170 
# 
# 
# High freq. dielectric constant tensor:
#      x y z
#    x 1.665690 0.000000 0.020180 
#    y 0.000000 1.591430 0.000000 
#    z 0.020180 0.000000 1.656490 
# 
# From -- ./inp_files/78814.got.cif
#   From: 2010.06.25/outbox.cif.g09.slc.cpg/sg12_40_cif.got.tgz:78814.got - 2010.06.28 00:19:55.
