data_PCOD8093037
_publ_section_title
;
Structure prediction by ZEFSAII (Michael W. Deem and Ramdas Pophale) SiO2 
 PCOD8093037
Probable space group: C 2/M
;
_chemical_formula_sum "Si O2"
_cell_formula_units_Z 56
_cell_length_a 18.907118
_cell_length_b 9.078803
_cell_length_c 26.959739
_cell_angle_alpha 90.000000
_cell_angle_beta 41.251277
_cell_angle_gamma 90.000000
_cell_volume 3051.363182
_symmetry_space_group_name_H-M "C 2/M"
_symmetry_group_IT_number 12
_symmetry_cell_setting 'monoclinic'
loop_
_space_group_symop_operation_xyz
x,y,z
-x,y,-z
-x,-y,-z
x,-y,z
1/2+x,1/2+y,z
1/2-x,1/2+y,-z
1/2-x,1/2-y,-z
1/2+x,1/2-y,z
loop_
_atom_site_type_symbol
_atom_site_label
_atom_site_fract_x
_atom_site_fract_y
_atom_site_fract_z
Si Si1 0.860779 0.330112 0.437751
Si Si2 0.259325 0.172178 0.740996
Si Si3 0.032498 0.669698 0.429782
Si Si4 0.072329 0.325344 0.786497
Si Si5 0.674158 0.164944 0.076661
Si Si6 0.660973 0.166097 0.192442
Si Si7 0.047394 0.828317 0.703053
O O1 0.842729 0.500000 0.434527
O O2 0.750000 0.250000 0.500000
O O3 0.926939 0.309091 0.452952
O O4 0.925022 0.251391 0.361622
O O5 0.361814 0.233318 0.654780
O O6 0.152630 0.264395 0.785703
O O7 0.272322 0.198377 0.793228
O O8 0.241172 0.000000 0.739565
O O9 0.059025 0.500000 0.425245
O O10 0.000000 0.744597 0.500000
O O11 0.083651 0.500000 0.775346
O O12 0.949280 0.277499 0.861873
O O13 0.110130 0.247361 0.715512
O O14 0.724149 0.171447 0.106469
O O15 0.673671 0.000000 0.057099
O O16 0.750000 0.250000 0.000000
O O17 0.578276 0.298036 0.227224
O O18 0.608820 0.000000 0.224717
O O19 0.075579 0.000000 0.686789
#
# Coordination Sequence:
#
# PCOD8093037 Si02
#       7
#     8   8   8   8   8   8   8
#     4  11  22  37  55  78 111 147 186 240 291 337
#     4  10  19  35  59  83 112 151 191 230 279 339
#     4   9  19  35  55  79 110 148 187 231 281 328
#     4  10  22  38  56  83 117 148 181 232 287 332
#     4   9  19  36  59  83 113 147 184 227 280 335
#     4   9  18  36  58  82 112 148 182 226 282 333
#     4  11  21  35  56  80 105 144 194 237 277 335
#
# _framework density 18.352454000000002
#
# number of rings (size 3 to 8) (size 9 to 14) (size 15 to 20)
#    0.000    2.143    1.429    3.000    2.000    3.429 
#    0.000    0.714    0.000    6.429    0.000    0.000 
#    0.000    0.000    0.000    0.000    0.000    0.000 
#
# Total GULP energy -346909.153140 kJ/mol
# GULP energy per Si atom -12389.612612 kJ/mol
# Density = 1.831068 g / cm^3
# Si number density = 18.352454 Si / 1000 Ang^3
#
#
#
# Elastic Constant Matrix: (Units=GPa)
#
#
# Indices 1 2 3 4 5 6 
#
# 1 116.1781 51.5734 47.7743 0.0000 12.7624 0.0000
# 2 51.5734 89.1911 37.8534 0.0001 4.2328 -0.0003
# 3 47.7743 37.8534 91.5577 0.0000 17.2505 0.0000
# 4 0.0000 0.0001 0.0000 30.9192 0.0000 -1.9578
# 5 12.7624 4.2328 17.2505 0.0000 26.6590 0.0000
# 6 0.0000 -0.0003 0.0000 -1.9578 0.0000 30.3672
#
#
#
# Elastic Compliance Matrix: (Units=1/GPa)
#
#
# Indices 1 2 3 4 5 6 
#
# 1 0.013089 -0.005775 -0.003911 0.000000 -0.002818 0.000000
# 2 -0.005775 0.016212 -0.004243 0.000000 0.002936 0.000000
# 3 -0.003911 -0.004243 0.016214 0.000000 -0.007946 0.000000
# 4 0.000000 0.000000 0.000000 0.032475 0.000000 0.002094
# 5 -0.002818 0.002936 -0.007946 0.000000 0.043535 0.000000
# 6 0.000000 0.000000 0.000000 0.002094 0.000000 0.033065
#
#
# Mechanical properties :
#
#
# Convention : Reuss Voigt Hill
#
# Bulk Modulus (GPa) = 56.63157 63.48101 60.05629
# Shear Modulus (GPa) = 26.54854 28.23748 27.39301
#
# Velocity S-wave (km/s) = 3.80754 3.92678 3.86762
# Velocity P-wave (km/s) = 7.08904 7.43132 7.26220
#
# Compressibility (1/GPa) = 0.01765799
#
# Stress axis : x y z
#
# Youngs Moduli (GPa) = 76.40039 61.68133 61.67481
#
# Poissons Ratio (x) = 0.35620 0.24122
# Poissons Ratio (y) = 0.44119 0.26167
# Poissons Ratio (z) = 0.29882 0.26169
#
# Static dielectric constant tensor:
#      x y z
#    x 3.504370 0.000000 0.203620 
#    y 0.000000 3.252370 0.000000 
#    z 0.203620 0.000000 3.273730 
# 
# 
# High freq. dielectric constant tensor:
#      x y z
#    x 1.716770 0.000000 0.015760 
#    y 0.000000 1.699110 0.000000 
#    z 0.015760 0.000000 1.700090 
# 
# From -- ./inp_files/342329.got.cif
#   From: 2010.06.25/outbox.cif.g09.slc.cpg/sg12_172_cif.got.tgz:342329.got - 2010.06.28 00:19:55.
