data_PCOD8093226
_publ_section_title
;
Structure prediction by ZEFSAII (Michael W. Deem and Ramdas Pophale) SiO2 
 PCOD8093226
Probable space group: C 2/M
;
_chemical_formula_sum "Si O2"
_cell_formula_units_Z 48
_cell_length_a 20.412498
_cell_length_b 8.622175
_cell_length_c 14.867638
_cell_angle_alpha 90.000000
_cell_angle_beta 99.552956
_cell_angle_gamma 90.000000
_cell_volume 2580.419397
_symmetry_space_group_name_H-M "C 2/M"
_symmetry_group_IT_number 12
_symmetry_cell_setting 'monoclinic'
loop_
_space_group_symop_operation_xyz
x,y,z
-x,y,-z
-x,-y,-z
x,-y,z
1/2+x,1/2+y,z
1/2-x,1/2+y,-z
1/2-x,1/2-y,-z
1/2+x,1/2-y,z
loop_
_atom_site_type_symbol
_atom_site_label
_atom_site_fract_x
_atom_site_fract_y
_atom_site_fract_z
Si Si1 0.986350 0.816702 0.767971
Si Si2 0.812554 0.815553 0.566591
Si Si3 0.454999 0.181467 0.575668
Si Si4 0.661333 0.683328 0.230947
Si Si5 0.558689 0.819317 0.945490
Si Si6 0.307757 0.318237 0.954232
O O1 0.992697 0.766010 0.665988
O O2 0.914754 0.760620 0.787463
O O3 0.040687 0.727952 0.839733
O O4 0.996858 0.000000 0.778652
O O5 0.750000 0.750000 0.500000
O O6 0.881194 0.749026 0.542392
O O7 0.803853 0.760927 0.668812
O O8 0.815078 0.000000 0.559013
O O9 0.500000 0.216115 0.500000
O O10 0.448986 0.000000 0.594747
O O11 0.661827 0.500000 0.228500
O O12 0.696924 0.749433 0.149342
O O13 0.576000 0.000000 0.953729
O O14 0.500000 0.773636 0.000000
O O15 0.622116 0.721025 0.986892
O O16 0.298549 0.500000 0.949721
O O17 0.250000 0.250000 0.000000
#
# Coordination Sequence:
#
# PCOD8093226 Si02
#       6
#     8   8   8   8   8   8
#     4  10  19  35  60  87 112 148 193 234 281 335
#     4  10  20  37  60  86 111 147 193 236 283 337
#     4  10  21  38  59  85 118 153 185 230 289 340
#     4   8  17  34  57  80 108 146 185 228 282 336
#     4  11  22  36  58  88 116 147 191 237 277 335
#     4  11  22  39  58  81 115 153 190 233 287 339
#
# _framework density 18.601628000000002
#
# number of rings (size 3 to 8) (size 9 to 14) (size 15 to 20)
#    0.000    2.000    1.667    3.500    0.000    2.000 
#    3.000    2.500    0.000    0.000    0.000    0.000 
#    0.000    0.000    0.000    0.000    0.000    0.000 
#
# Total GULP energy -297574.811604 kJ/mol
# GULP energy per Si atom -12398.950483 kJ/mol
# Density = 1.855929 g / cm^3
# Si number density = 18.601628 Si / 1000 Ang^3
#
#
#
# Elastic Constant Matrix: (Units=GPa)
#
#
# Indices 1 2 3 4 5 6 
#
# 1 97.0975 28.3111 73.7356 0.0000 -4.6652 0.0000
# 2 28.3111 58.8039 31.7621 0.0000 -7.9411 0.0000
# 3 73.7356 31.7621 143.5894 0.0000 -3.6854 0.0000
# 4 0.0000 0.0000 0.0000 30.4704 0.0000 2.6775
# 5 -4.6652 -7.9411 -3.6854 0.0000 35.5538 0.0000
# 6 0.0000 0.0000 0.0000 2.6775 0.0000 32.5966
#
#
#
# Elastic Compliance Matrix: (Units=1/GPa)
#
#
# Indices 1 2 3 4 5 6 
#
# 1 0.017726 -0.004029 -0.008196 0.000000 0.000576 0.000000
# 2 -0.004029 0.020778 -0.002428 0.000000 0.003861 0.000000
# 3 -0.008196 -0.002428 0.011700 0.000000 -0.000405 0.000000
# 4 0.000000 0.000000 0.000000 0.033057 0.000000 -0.002715
# 5 0.000576 0.003861 -0.000405 0.000000 0.029022 0.000000
# 6 0.000000 0.000000 0.000000 -0.002715 0.000000 0.030901
#
#
# Mechanical properties :
#
#
# Convention : Reuss Voigt Hill
#
# Bulk Modulus (GPa) = 47.85403 63.01206 55.43305
# Shear Modulus (GPa) = 27.86173 30.76962 29.31567
#
# Velocity S-wave (km/s) = 3.87436 4.07152 3.97416
# Velocity P-wave (km/s) = 6.76726 7.48672 7.13606
#
# Compressibility (1/GPa) = 0.02089688
#
# Stress axis : x y z
#
# Youngs Moduli (GPa) = 56.41515 48.12715 85.46988
#
# Poissons Ratio (x) = 0.19390 0.70055
# Poissons Ratio (y) = 0.22730 0.20753
# Poissons Ratio (z) = 0.46240 0.11686
#
# Static dielectric constant tensor:
#      x y z
#    x 3.402040 0.000000 0.018120 
#    y 0.000000 3.392330 0.000000 
#    z 0.018120 0.000000 4.115500 
# 
# 
# High freq. dielectric constant tensor:
#      x y z
#    x 1.705480 0.000000 0.003540 
#    y 0.000000 1.723330 0.000000 
#    z 0.003540 0.000000 1.737050 
# 
# From -- ./inp_files/221628.got.cif
#   From: 2010.06.25/outbox.cif.g09.slc.cpg/sg12_111_cif.got.tgz:221628.got - 2010.06.28 00:19:55.
