data_PCOD8093691
_publ_section_title
;
Structure prediction by ZEFSAII (Michael W. Deem and Ramdas Pophale) SiO2 
 PCOD8093691
Probable space group: C 2/M
;
_chemical_formula_sum "Si O2"
_cell_formula_units_Z 56
_cell_length_a 21.088527
_cell_length_b 9.594619
_cell_length_c 27.704048
_cell_angle_alpha 90.000000
_cell_angle_beta 30.937028
_cell_angle_gamma 90.000000
_cell_volume 2881.782261
_symmetry_space_group_name_H-M "C 2/M"
_symmetry_group_IT_number 12
_symmetry_cell_setting 'monoclinic'
loop_
_space_group_symop_operation_xyz
x,y,z
-x,y,-z
-x,-y,-z
x,-y,z
1/2+x,1/2+y,z
1/2-x,1/2+y,-z
1/2-x,1/2-y,-z
1/2+x,1/2-y,z
loop_
_atom_site_type_symbol
_atom_site_label
_atom_site_fract_x
_atom_site_fract_y
_atom_site_fract_z
Si Si1 0.106822 0.341992 0.394054
Si Si2 0.875351 0.661530 0.774732
Si Si3 0.482882 0.657871 0.627897
Si Si4 0.257376 0.843141 0.448408
Si Si5 0.030303 0.339889 0.761744
Si Si6 0.618525 0.658579 0.785911
Si Si7 0.379288 0.334610 0.105194
O O1 0.081371 0.500000 0.392596
O O2 0.108724 0.237616 0.348007
O O3 0.243806 0.332503 0.326966
O O4 0.000000 0.294287 0.500000
O O5 0.893632 0.500000 0.747969
O O6 0.977963 0.756654 0.681291
O O7 0.739846 0.716149 0.847786
O O8 0.903524 0.679451 0.813680
O O9 0.436223 0.500000 0.666448
O O10 0.619857 0.658602 0.515843
O O11 0.250000 0.750000 0.500000
O O12 0.353924 0.787673 0.346023
O O13 0.295567 0.000000 0.438811
O O14 0.048431 0.500000 0.765255
O O15 0.025833 0.248857 0.813452
O O16 0.569934 0.500000 0.817141
O O17 0.621507 0.717181 0.838816
O O18 0.380861 0.500000 0.103687
O O19 0.500000 0.273143 0.000000
#
# Coordination Sequence:
#
# PCOD8093691 Si02
#       7
#     8   8   8   8   8   8   8
#     4  10  20  34  52  75 106 147 190 227 268 323
#     4  10  19  36  59  79 106 144 186 225 271 333
#     4  11  21  31  49  78 109 143 185 232 275 317
#     4  10  20  32  47  72 108 150 192 227 266 316
#     4  10  21  35  53  78 112 152 184 222 275 327
#     4  10  20  35  56  82 110 143 183 229 277 326
#     4   9  18  36  63  88 106 134 185 238 279 330
#
# _framework density 19.432417999999998
#
# number of rings (size 3 to 8) (size 9 to 14) (size 15 to 20)
#    0.000    2.000    2.857    1.286    0.000    2.571 
#    0.000    0.714    0.000    1.714    0.000    0.000 
#    0.000    0.000    0.000    0.000    0.000    0.000 
#
# Total GULP energy -347070.797063 kJ/mol
# GULP energy per Si atom -12395.385609 kJ/mol
# Density = 1.938819 g / cm^3
# Si number density = 19.432418 Si / 1000 Ang^3
#
#
#
# Elastic Constant Matrix: (Units=GPa)
#
#
# Indices 1 2 3 4 5 6 
#
# 1 138.9291 51.7901 41.0734 -0.0008 -3.5287 0.0023
# 2 51.7901 71.6046 14.4049 -0.0016 2.0583 0.0038
# 3 41.0734 14.4049 83.8131 -0.0002 -1.4160 0.0001
# 4 -0.0008 -0.0016 -0.0002 12.4223 0.0001 1.7064
# 5 -3.5287 2.0583 -1.4160 0.0001 20.8690 -0.0012
# 6 0.0023 0.0038 0.0001 1.7064 -0.0012 35.1762
#
#
#
# Elastic Compliance Matrix: (Units=1/GPa)
#
#
# Indices 1 2 3 4 5 6 
#
# 1 0.011241 -0.007352 -0.004206 0.000000 0.002341 0.000000
# 2 -0.007352 0.019327 0.000228 0.000002 -0.003134 -0.000002
# 3 -0.004206 0.000228 0.013957 0.000000 0.000213 0.000000
# 4 0.000000 0.000002 0.000000 0.081040 -0.000001 -0.003931
# 5 0.002341 -0.003134 0.000213 -0.000001 0.048637 0.000002
# 6 0.000000 -0.000002 0.000000 -0.003931 0.000002 0.028619
#
#
# Mechanical properties :
#
#
# Convention : Reuss Voigt Hill
#
# Bulk Modulus (GPa) = 45.73244 56.54262 51.13753
# Shear Modulus (GPa) = 21.48046 26.16543 23.82294
#
# Velocity S-wave (km/s) = 3.32835 3.67343 3.50514
# Velocity P-wave (km/s) = 6.19320 6.86675 6.53866
#
# Compressibility (1/GPa) = 0.02186631
#
# Stress axis : x y z
#
# Youngs Moduli (GPa) = 88.95665 51.74050 71.64959
#
# Poissons Ratio (x) = 0.38039 0.30135
# Poissons Ratio (y) = 0.65400 -0.01635
# Poissons Ratio (z) = 0.37414 -0.01180
#
# Static dielectric constant tensor:
#      x y z
#    x 3.495170 0.000000 -0.118080 
#    y 0.000000 3.381650 0.000000 
#    z -0.118080 0.000000 3.517000 
# 
# 
# High freq. dielectric constant tensor:
#      x y z
#    x 1.754540 0.000000 -0.011270 
#    y 0.000000 1.735750 0.000000 
#    z -0.011270 0.000000 1.730310 
# 
# From -- ./inp_files/231022.got.cif
#   From: 2010.06.25/outbox.cif.g09.slc.cpg/sg12_116_cif.got.tgz:231022.got - 2010.06.28 00:19:55.
