data_PCOD8093296
_publ_section_title
;
Structure prediction by ZEFSAII (Michael W. Deem and Ramdas Pophale) SiO2 
 PCOD8093296
Probable space group: C 2/M
;
_chemical_formula_sum "Si O2"
_cell_formula_units_Z 48
_cell_length_a 12.106798
_cell_length_b 14.363844
_cell_length_c 26.315219
_cell_angle_alpha 90.000000
_cell_angle_beta 148.561002
_cell_angle_gamma 90.000000
_cell_volume 2386.913147
_symmetry_space_group_name_H-M "C 2/M"
_symmetry_group_IT_number 12
_symmetry_cell_setting 'monoclinic'
loop_
_space_group_symop_operation_xyz
x,y,z
-x,y,-z
-x,-y,-z
x,-y,z
1/2+x,1/2+y,z
1/2-x,1/2+y,-z
1/2-x,1/2-y,-z
1/2+x,1/2-y,z
loop_
_atom_site_type_symbol
_atom_site_label
_atom_site_fract_x
_atom_site_fract_y
_atom_site_fract_z
Si Si1 0.904304 0.604891 0.256116
Si Si2 0.590385 0.757428 0.251063
Si Si3 0.568486 0.394672 0.738382
Si Si4 0.028845 0.246111 0.385375
Si Si5 0.980546 0.331648 0.101135
Si Si6 0.464340 0.647018 0.044134
O O1 0.989987 0.500000 0.293565
O O2 0.649109 0.604377 0.151687
O O3 0.994988 0.653017 0.241437
O O4 0.986235 0.659627 0.337371
O O5 0.499466 0.661186 0.237894
O O6 0.528153 0.764664 0.167913
O O7 0.845657 0.761405 0.356060
O O8 0.481866 0.500000 0.707553
O O9 0.469014 0.343440 0.650590
O O10 0.823528 0.399403 0.833257
O O11 0.250000 0.250000 0.500000
O O12 0.958389 0.259731 0.045490
O O13 0.764789 0.390333 0.025819
O O14 0.500000 0.616700 0.000000
#
# Coordination Sequence:
#
# PCOD8093296 Si02
#       6
#     8   8   8   8   8   8
#     4  11  23  38  59  93 123 153 200 248 294 351
#     4  10  19  41  59  84 117 159 192 249 297 354
#     4  10  21  37  60  90 117 152 200 246 294 351
#     4  10  23  44  64  84 116 157 196 246 309 360
#     4  10  19  35  61  84 122 166 199 238 291 348
#     4  11  19  35  60  89 122 164 204 238 292 347
#
# _framework density 20.109655
#
# number of rings (size 3 to 8) (size 9 to 14) (size 15 to 20)
#    0.000    1.667    6.667    0.000    0.000    7.667 
#    0.000    1.667    0.000    4.500    0.000    0.000 
#    0.000    0.000    0.000    0.000    0.000    0.000 
#
# Total GULP energy -297546.563058 kJ/mol
# GULP energy per Si atom -12397.773461 kJ/mol
# Density = 2.006389 g / cm^3
# Si number density = 20.109655 Si / 1000 Ang^3
#
#
#
# Elastic Constant Matrix: (Units=GPa)
#
#
# Indices 1 2 3 4 5 6 
#
# 1 77.6176 30.8504 29.3273 0.0000 12.8523 0.0001
# 2 30.8504 141.0272 24.5622 -0.0002 1.1526 0.0000
# 3 29.3273 24.5622 133.3687 -0.0007 16.2146 -0.0001
# 4 0.0000 -0.0002 -0.0007 11.7810 0.0001 3.1429
# 5 12.8523 1.1526 16.2146 0.0001 28.5925 0.0000
# 6 0.0001 0.0000 -0.0001 3.1429 0.0000 4.6511
#
#
#
# Elastic Compliance Matrix: (Units=1/GPa)
#
#
# Indices 1 2 3 4 5 6 
#
# 1 0.015889 -0.003039 -0.002235 0.000000 -0.005752 0.000000
# 2 -0.003039 0.007914 -0.000984 0.000000 0.001605 0.000000
# 3 -0.002235 -0.000984 0.008639 0.000001 -0.003855 0.000000
# 4 0.000000 0.000000 0.000001 0.103550 0.000000 -0.069973
# 5 -0.005752 0.001605 -0.003855 0.000000 0.039681 0.000000
# 6 0.000000 0.000000 0.000000 -0.069973 0.000000 0.262288
#
#
# Mechanical properties :
#
#
# Convention : Reuss Voigt Hill
#
# Bulk Modulus (GPa) = 50.18831 57.94369 54.06600
# Shear Modulus (GPa) = 10.93804 26.82316 18.88060
#
# Velocity S-wave (km/s) = 2.33474 3.65615 3.06744
# Velocity P-wave (km/s) = 5.68151 6.83371 6.28407
#
# Compressibility (1/GPa) = 0.01992496
#
# Stress axis : x y z
#
# Youngs Moduli (GPa) = 62.93811 126.35757 115.74871
#
# Poissons Ratio (x) = 0.38406 0.25867
# Poissons Ratio (y) = 0.19130 0.11393
# Poissons Ratio (z) = 0.14065 0.12438
#
# Static dielectric constant tensor:
#      x y z
#    x 3.821240 0.000000 0.263660 
#    y 0.000000 3.359580 0.000000 
#    z 0.263660 0.000000 3.600560 
# 
# 
# High freq. dielectric constant tensor:
#      x y z
#    x 1.790860 0.000000 0.013120 
#    y 0.000000 1.762650 0.000000 
#    z 0.013120 0.000000 1.776240 
# 
# From -- ./inp_files/204368.got.cif
#   From: 2010.06.25/outbox.cif.g09.slc.cpg/sg12_103_cif.got.tgz:204368.got - 2010.06.28 00:19:55.
