data_PCOD8093442
_publ_section_title
;
Structure prediction by ZEFSAII (Michael W. Deem and Ramdas Pophale) SiO2 
 PCOD8093442
Probable space group: C 2/M
;
_chemical_formula_sum "Si O2"
_cell_formula_units_Z 44
_cell_length_a 7.729147
_cell_length_b 30.729660
_cell_length_c 8.606174
_cell_angle_alpha 90.000000
_cell_angle_beta 102.789855
_cell_angle_gamma 90.000000
_cell_volume 1993.370587
_symmetry_space_group_name_H-M "C 2/M"
_symmetry_group_IT_number 12
_symmetry_cell_setting 'monoclinic'
loop_
_space_group_symop_operation_xyz
x,y,z
-x,y,-z
-x,-y,-z
x,-y,z
1/2+x,1/2+y,z
1/2-x,1/2+y,-z
1/2-x,1/2-y,-z
1/2+x,1/2-y,z
loop_
_atom_site_type_symbol
_atom_site_label
_atom_site_fract_x
_atom_site_fract_y
_atom_site_fract_z
Si Si1 0.756192 0.624773 0.199283
Si Si2 0.800383 0.047813 0.019732
Si Si3 0.070442 0.090187 0.666254
Si Si4 0.678713 0.681109 0.613102
Si Si5 0.707864 0.200795 0.027537
Si Si6 0.500000 0.837458 0.500000
O O1 0.579865 0.613361 0.258960
O O2 0.715546 0.667555 0.086297
O O3 0.919587 0.632731 0.347008
O O4 0.809087 0.584000 0.098201
O O5 0.805582 0.059698 0.203843
O O6 0.711822 0.000000 0.982129
O O7 0.000000 0.046341 0.000000
O O8 0.000000 0.063329 0.500000
O O9 0.184002 0.128582 0.610113
O O10 0.500000 0.700332 0.500000
O O11 0.849077 0.694481 0.542093
O O12 0.690815 0.695606 0.791305
O O13 0.500000 0.191361 0.000000
O O14 0.750000 0.250000 0.000000
#
# Coordination Sequence:
#
# PCOD8093442 Si02
#       6
#     8   8   8   8   8   4
#     4  11  22  40  65  92 133 173 218 275 330 389
#     4   9  19  35  62  97 131 172 219 269 330 397
#     4  10  19  35  66  94 126 174 216 269 331 391
#     4  11  23  43  70  99 132 175 225 272 338 397
#     4  12  28  45  68  98 131 176 227 275 334 402
#     4  12  22  40  69  98 130 178 216 282 333 392
#
# _framework density 22.073166000000001
#
# number of rings (size 3 to 8) (size 9 to 14) (size 15 to 20)
#    0.000    1.273    7.273    0.000    2.545    0.364 
#    1.636    2.273    2.000    4.909    0.000    0.000 
#    0.000    0.000    0.000    0.000    0.000    0.000 
#
# Total GULP energy -272684.306885 kJ/mol
# GULP energy per Si atom -12394.741222 kJ/mol
# Density = 2.202293 g / cm^3
# Si number density = 22.073166 Si / 1000 Ang^3
#
#
#
# Elastic Constant Matrix: (Units=GPa)
#
#
# Indices 1 2 3 4 5 6 
#
# 1 87.3772 13.0506 38.6398 0.0000 5.2662 0.0000
# 2 13.0506 119.6233 65.6917 0.0000 9.0701 0.0000
# 3 38.6398 65.6917 203.4497 0.0000 27.4005 0.0000
# 4 0.0000 0.0000 0.0000 17.7298 0.0000 -1.4603
# 5 5.2662 9.0701 27.4005 0.0000 41.5128 0.0000
# 6 0.0000 0.0000 0.0000 -1.4603 0.0000 9.6956
#
#
#
# Elastic Compliance Matrix: (Units=1/GPa)
#
#
# Indices 1 2 3 4 5 6 
#
# 1 0.012495 -0.000073 -0.002347 0.000000 -0.000020 0.000000
# 2 -0.000073 0.010162 -0.003259 0.000000 -0.000060 0.000000
# 3 -0.002347 -0.003259 0.006890 0.000000 -0.003538 0.000000
# 4 0.000000 0.000000 0.000000 0.057111 0.000000 0.008602
# 5 -0.000020 -0.000060 -0.003538 0.000000 0.026440 0.000000
# 6 0.000000 0.000000 0.000000 0.008602 0.000000 0.104435
#
#
# Mechanical properties :
#
#
# Convention : Reuss Voigt Hill
#
# Bulk Modulus (GPa) = 54.98019 71.69049 63.33534
# Shear Modulus (GPa) = 21.28091 33.32551 27.30321
#
# Velocity S-wave (km/s) = 3.10838 3.88980 3.52083
# Velocity P-wave (km/s) = 6.15182 7.26107 6.72934
#
# Compressibility (1/GPa) = 0.01818837
#
# Stress axis : x y z
#
# Youngs Moduli (GPa) = 80.03519 98.40672 145.14253
#
# Poissons Ratio (x) = 0.00717 0.34061
# Poissons Ratio (y) = 0.00583 0.47306
# Poissons Ratio (z) = 0.18782 0.32074
#
# Static dielectric constant tensor:
#      x y z
#    x 4.175130 0.000000 0.359070 
#    y 0.000000 4.057040 0.000000 
#    z 0.359070 0.000000 4.852910 
# 
# 
# High freq. dielectric constant tensor:
#      x y z
#    x 1.853270 0.000000 0.002310 
#    y 0.000000 1.838250 0.000000 
#    z 0.002310 0.000000 1.898180 
# 
# From -- ./inp_files/41683.got.cif
#   From: 2010.06.25/outbox.cif.g09.slc.cpg/sg12_21_cif.got.tgz:41683.got - 2010.06.28 00:19:55.
