data_PCOD8093696
_publ_section_title
;
Structure prediction by ZEFSAII (Michael W. Deem and Ramdas Pophale) SiO2 
 PCOD8093696
Probable space group: C 2/M
;
_chemical_formula_sum "Si O2"
_cell_formula_units_Z 56
_cell_length_a 14.355655
_cell_length_b 8.698404
_cell_length_c 24.657963
_cell_angle_alpha 90.000000
_cell_angle_beta 106.324730
_cell_angle_gamma 90.000000
_cell_volume 2954.935911
_symmetry_space_group_name_H-M "C 2/M"
_symmetry_group_IT_number 12
_symmetry_cell_setting 'monoclinic'
loop_
_space_group_symop_operation_xyz
x,y,z
-x,y,-z
-x,-y,-z
x,-y,z
1/2+x,1/2+y,z
1/2-x,1/2+y,-z
1/2-x,1/2-y,-z
1/2+x,1/2-y,z
loop_
_atom_site_type_symbol
_atom_site_label
_atom_site_fract_x
_atom_site_fract_y
_atom_site_fract_z
Si Si1 0.178815 0.182781 0.148906
Si Si2 0.342019 0.821583 0.451731
Si Si3 0.357436 0.318936 0.235310
Si Si4 0.059970 0.320578 0.644104
Si Si5 0.029985 0.818955 0.850064
Si Si6 0.120298 0.821829 0.432413
Si Si7 0.223870 0.181993 0.938187
O O1 0.256195 0.234608 0.206633
O O2 0.202183 0.252263 0.094100
O O3 0.073904 0.250588 0.149952
O O4 0.178290 0.000000 0.144526
O O5 0.385048 0.771200 0.401508
O O6 0.228657 0.782012 0.431680
O O7 0.395618 0.727170 0.507762
O O8 0.360731 0.000000 0.467097
O O9 0.339345 0.500000 0.227415
O O10 0.392690 0.276150 0.300412
O O11 0.438640 0.264242 0.205074
O O12 0.070444 0.500000 0.658588
O O13 0.947729 0.275389 0.618848
O O14 0.113846 0.767259 0.905796
O O15 0.019818 0.000000 0.848817
O O16 0.095224 0.000000 0.421793
O O17 0.234423 0.000000 0.940630
O O18 0.250000 0.250000 0.000000
#
# Coordination Sequence:
#
# PCOD8093696 Si02
#       7
#     8   8   8   8   8   8   8
#     4  10  19  36  59  80 103 140 181 217 261 314
#     4   9  20  37  54  74 105 140 171 209 264 325
#     4  10  21  38  55  77 107 138 175 221 264 309
#     4  11  22  36  54  77 105 139 175 213 262 318
#     4   8  18  36  57  76 104 144 178 210 262 320
#     4  10  20  35  55  78 103 134 173 217 263 314
#     4  10  20  36  55  82 115 146 179 219 261 306
#
# _framework density 18.951340999999999
#
# number of rings (size 3 to 8) (size 9 to 14) (size 15 to 20)
#    0.000    2.286    0.000    3.429    0.000    5.143 
#    0.000   17.143    0.000    0.000    0.000    0.000 
#    0.000    0.000    0.000    0.000    0.000    0.000 
#
# Total GULP energy -347249.109015 kJ/mol
# GULP energy per Si atom -12401.753893 kJ/mol
# Density = 1.890821 g / cm^3
# Si number density = 18.951341 Si / 1000 Ang^3
#
#
#
# Elastic Constant Matrix: (Units=GPa)
#
#
# Indices 1 2 3 4 5 6 
#
# 1 126.4207 30.0301 50.6544 0.0000 7.0561 0.0000
# 2 30.0301 57.5359 26.5263 0.0000 0.2951 0.0000
# 3 50.6544 26.5263 116.7213 0.0000 8.0294 0.0000
# 4 0.0000 0.0000 0.0000 36.8597 0.0000 1.5227
# 5 7.0561 0.2951 8.0294 0.0000 16.3537 0.0000
# 6 0.0000 0.0000 0.0000 1.5227 0.0000 28.3899
#
#
#
# Elastic Compliance Matrix: (Units=1/GPa)
#
#
# Indices 1 2 3 4 5 6 
#
# 1 0.010341 -0.003798 -0.003439 0.000000 -0.002705 0.000000
# 2 -0.003798 0.020866 -0.003292 0.000000 0.002878 0.000000
# 3 -0.003439 -0.003292 0.011076 0.000000 -0.003895 0.000000
# 4 0.000000 0.000000 0.000000 0.027190 0.000000 -0.001458
# 5 -0.002705 0.002878 -0.003895 0.000000 0.064176 0.000000
# 6 0.000000 0.000000 0.000000 -0.001458 0.000000 0.035302
#
#
# Mechanical properties :
#
#
# Convention : Reuss Voigt Hill
#
# Bulk Modulus (GPa) = 47.11281 57.23328 52.17305
# Shear Modulus (GPa) = 25.37012 29.21847 27.29430
#
# Velocity S-wave (km/s) = 3.66279 3.93079 3.79915
# Velocity P-wave (km/s) = 6.54232 7.13212 6.84358
#
# Compressibility (1/GPa) = 0.02122565
#
# Stress axis : x y z
#
# Youngs Moduli (GPa) = 96.70198 47.92556 90.28809
#
# Poissons Ratio (x) = 0.18203 0.31046
# Poissons Ratio (y) = 0.36729 0.29720
# Poissons Ratio (z) = 0.33251 0.15775
#
# Static dielectric constant tensor:
#      x y z
#    x 3.749430 0.000000 0.020120 
#    y 0.000000 3.392710 0.000000 
#    z 0.020120 0.000000 3.432830 
# 
# 
# High freq. dielectric constant tensor:
#      x y z
#    x 1.743890 0.000000 0.003200 
#    y 0.000000 1.733160 0.000000 
#    z 0.003200 0.000000 1.736800 
# 
# From -- ./inp_files/338147.got.cif
#   From: 2010.06.25/outbox.cif.g09.slc.cpg/sg12_170_cif.got.tgz:338147.got - 2010.06.28 00:19:55.
