data_PCOD8093914
_publ_section_title
;
Structure prediction by ZEFSAII (Michael W. Deem and Ramdas Pophale) SiO2 
 PCOD8093914
Probable space group: C 2/M
;
_chemical_formula_sum "Si O2"
_cell_formula_units_Z 48
_cell_length_a 23.955390
_cell_length_b 8.800397
_cell_length_c 11.411743
_cell_angle_alpha 90.000000
_cell_angle_beta 70.122191
_cell_angle_gamma 90.000000
_cell_volume 2262.451600
_symmetry_space_group_name_H-M "C 2/M"
_symmetry_group_IT_number 12
_symmetry_cell_setting 'monoclinic'
loop_
_space_group_symop_operation_xyz
x,y,z
-x,y,-z
-x,-y,-z
x,-y,z
1/2+x,1/2+y,z
1/2-x,1/2+y,-z
1/2-x,1/2-y,-z
1/2+x,1/2-y,z
loop_
_atom_site_type_symbol
_atom_site_label
_atom_site_fract_x
_atom_site_fract_y
_atom_site_fract_z
Si Si1 0.986542 0.672702 0.202895
Si Si2 0.664157 0.678325 0.301844
Si Si3 0.267306 0.321136 0.364112
Si Si4 0.630648 0.174416 0.842300
Si Si5 0.943996 0.827961 0.456549
Si Si6 0.889059 0.178033 0.907360
O O1 0.010186 0.500000 0.191156
O O2 0.939833 0.692360 0.130324
O O3 0.950905 0.710634 0.346372
O O4 0.041271 0.785230 0.148377
O O5 0.677751 0.500000 0.294502
O O6 0.723052 0.769513 0.292756
O O7 0.613861 0.721763 0.430938
O O8 0.642999 0.730675 0.188698
O O9 0.266427 0.500000 0.379437
O O10 0.250000 0.250000 0.500000
O O11 0.333017 0.268872 0.280241
O O12 0.650842 0.000000 0.820118
O O13 0.643210 0.235834 0.963526
O O14 0.000000 0.816287 0.500000
O O15 0.937663 0.000000 0.412992
O O16 0.882315 0.000000 0.932405
#
# Coordination Sequence:
#
# PCOD8093914 Si02
#       6
#     8   8   8   8   8   8
#     4  11  23  38  60  92 129 167 209 261 314 370
#     4  10  22  41  65  93 128 166 208 260 313 371
#     4  12  26  45  69  95 124 163 209 258 313 372
#     4  11  25  44  64  91 127 168 213 260 311 371
#     4  10  19  36  60  89 123 161 204 253 309 368
#     4  11  23  41  65  94 127 167 211 257 314 375
#
# _framework density 21.215924000000001
#
# number of rings (size 3 to 8) (size 9 to 14) (size 15 to 20)
#    0.000    1.167    1.667    4.500    0.000   10.333 
#    0.000    0.000    0.000    0.000    0.000    0.000 
#    0.000    0.000    0.000    0.000    0.000    0.000 
#
# Total GULP energy -297760.878860 kJ/mol
# GULP energy per Si atom -12406.703286 kJ/mol
# Density = 2.116764 g / cm^3
# Si number density = 21.215924 Si / 1000 Ang^3
#
#
#
# Elastic Constant Matrix: (Units=GPa)
#
#
# Indices 1 2 3 4 5 6 
#
# 1 86.5418 35.8666 22.9153 0.0000 2.4304 0.0000
# 2 35.8666 98.4504 41.3604 0.0000 8.7078 0.0000
# 3 22.9153 41.3604 112.8817 0.0000 10.4096 0.0000
# 4 0.0000 0.0000 0.0000 39.9520 0.0000 -0.9740
# 5 2.4304 8.7078 10.4096 0.0000 30.6311 0.0000
# 6 0.0000 0.0000 0.0000 -0.9740 0.0000 32.9246
#
#
#
# Elastic Compliance Matrix: (Units=1/GPa)
#
#
# Indices 1 2 3 4 5 6 
#
# 1 0.013741 -0.004567 -0.001172 0.000000 0.000606 0.000000
# 2 -0.004567 0.013641 -0.003868 0.000000 -0.002201 0.000000
# 3 -0.001172 -0.003868 0.010741 0.000000 -0.002457 0.000000
# 4 0.000000 0.000000 0.000000 0.025048 0.000000 0.000741
# 5 0.000606 -0.002201 -0.002457 0.000000 0.034059 0.000000
# 6 0.000000 0.000000 0.000000 0.000741 0.000000 0.030394
#
#
# Mechanical properties :
#
#
# Convention : Reuss Voigt Hill
#
# Bulk Modulus (GPa) = 52.88672 55.35094 54.11883
# Shear Modulus (GPa) = 32.64940 33.88363 33.26651
#
# Velocity S-wave (km/s) = 3.92715 4.00069 3.96409
# Velocity P-wave (km/s) = 6.74873 6.89106 6.82026
#
# Compressibility (1/GPa) = 0.01890834
#
# Stress axis : x y z
#
# Youngs Moduli (GPa) = 72.77313 73.30823 93.10469
#
# Poissons Ratio (x) = 0.33483 0.10911
# Poissons Ratio (y) = 0.33239 0.36013
# Poissons Ratio (z) = 0.08528 0.28355
#
# Static dielectric constant tensor:
#      x y z
#    x 3.911610 0.000000 -0.064050 
#    y 0.000000 3.767090 0.000000 
#    z -0.064050 0.000000 4.434760 
# 
# 
# High freq. dielectric constant tensor:
#      x y z
#    x 1.835390 0.000000 0.003510 
#    y 0.000000 1.830660 0.000000 
#    z 0.003510 0.000000 1.842510 
# 
# From -- ./inp_files/172868.got.cif
#   From: 2010.06.25/outbox.cif.g09.slc.cpg/sg12_87_cif.got.tgz:172868.got - 2010.06.28 00:19:55.
