data_PCOD8093932
_publ_section_title
;
Structure prediction by ZEFSAII (Michael W. Deem and Ramdas Pophale) SiO2 
 PCOD8093932
Probable space group: C 2/M
;
_chemical_formula_sum "Si O2"
_cell_formula_units_Z 48
_cell_length_a 9.595176
_cell_length_b 16.474599
_cell_length_c 29.418626
_cell_angle_alpha 90.000000
_cell_angle_beta 31.338741
_cell_angle_gamma 90.000000
_cell_volume 2418.657182
_symmetry_space_group_name_H-M "C 2/M"
_symmetry_group_IT_number 12
_symmetry_cell_setting 'monoclinic'
loop_
_space_group_symop_operation_xyz
x,y,z
-x,y,-z
-x,-y,-z
x,-y,z
1/2+x,1/2+y,z
1/2-x,1/2+y,-z
1/2-x,1/2-y,-z
1/2+x,1/2-y,z
loop_
_atom_site_type_symbol
_atom_site_label
_atom_site_fract_x
_atom_site_fract_y
_atom_site_fract_z
Si Si1 0.904152 0.149381 0.645558
Si Si2 0.742790 0.403559 0.902759
Si Si3 0.660840 0.906000 0.224341
Si Si4 0.761153 0.666115 0.703918
Si Si5 0.332549 0.593554 0.761598
Si Si6 0.292627 0.594330 0.519953
O O1 0.658697 0.105179 0.688615
O O2 0.842651 0.241989 0.673731
O O3 0.972003 0.103435 0.673525
O O4 0.156538 0.142694 0.541323
O O5 0.740236 0.500000 0.905229
O O6 0.711033 0.376043 0.859126
O O7 0.026833 0.373637 0.843661
O O8 0.500000 0.366329 0.000000
O O9 0.782895 0.851355 0.230428
O O10 0.726478 0.000000 0.215711
O O11 0.481596 0.648346 0.757011
O O12 0.989746 0.607734 0.620323
O O13 0.345041 0.500000 0.773223
O O14 0.500000 0.627321 0.500000
O O15 0.339488 0.500000 0.497722
#
# Coordination Sequence:
#
# PCOD8093932 Si02
#       6
#     8   8   8   8   8   8
#     4  11  22  38  56  80 112 154 192 229 280 340
#     4   8  16  34  61  88 112 145 188 229 274 340
#     4  10  19  36  61  82 109 152 194 225 276 346
#     4  12  23  36  55  86 117 145 187 244 287 319
#     4  10  21  36  57  83 114 145 185 237 285 329
#     4  11  22  37  59  80 108 151 201 237 270 330
#
# _framework density 19.845723
#
# number of rings (size 3 to 8) (size 9 to 14) (size 15 to 20)
#    0.000    1.667    1.667    5.500    0.000    0.667 
#    0.000    2.500    0.000   20.000    0.000    0.000 
#    0.000    0.000    0.000    0.000    0.000    0.167 
#
# Total GULP energy -297672.974699 kJ/mol
# GULP energy per Si atom -12403.040612 kJ/mol
# Density = 1.980055 g / cm^3
# Si number density = 19.845723 Si / 1000 Ang^3
#
#
#
# Elastic Constant Matrix: (Units=GPa)
#
#
# Indices 1 2 3 4 5 6 
#
# 1 133.5513 23.4859 59.8315 0.0070 6.2737 -0.0851
# 2 23.4859 71.1863 16.9163 -0.0067 4.2733 -0.0643
# 3 59.8315 16.9163 119.8302 0.0448 19.5005 0.2449
# 4 0.0070 -0.0067 0.0448 14.2207 -0.0450 3.0596
# 5 6.2737 4.2733 19.5005 -0.0450 26.3760 -0.0438
# 6 -0.0851 -0.0643 0.2449 3.0596 -0.0438 20.3571
#
#
#
# Elastic Compliance Matrix: (Units=1/GPa)
#
#
# Indices 1 2 3 4 5 6 
#
# 1 0.010023 -0.002227 -0.004958 -0.000006 0.001642 0.000099
# 2 -0.002227 0.015051 -0.000798 -0.000003 -0.001319 0.000045
# 3 -0.004958 -0.000798 0.012187 -0.000021 -0.007702 -0.000183
# 4 -0.000006 -0.000003 -0.000021 0.072670 0.000124 -0.010922
# 5 0.001642 -0.001319 -0.007702 0.000124 0.043431 0.000170
# 6 0.000099 0.000045 -0.000183 -0.010922 0.000170 0.050768
#
#
# Mechanical properties :
#
#
# Convention : Reuss Voigt Hill
#
# Bulk Modulus (GPa) = 46.95878 58.33725 52.64802
# Shear Modulus (GPa) = 22.00746 27.14635 24.57690
#
# Velocity S-wave (km/s) = 3.33367 3.70248 3.52291
# Velocity P-wave (km/s) = 6.20734 6.90920 6.56765
#
# Compressibility (1/GPa) = 0.02129527
#
# Stress axis : x y z
#
# Youngs Moduli (GPa) = 99.76586 66.43913 82.05460
#
# Poissons Ratio (x) = 0.14798 0.40681
# Poissons Ratio (y) = 0.22221 0.06550
# Poissons Ratio (z) = 0.49462 0.05303
#
# Static dielectric constant tensor:
#      x y z
#    x 3.696420 0.000000 0.165210 
#    y 0.000000 3.403350 0.000100 
#    z 0.165210 0.000100 3.732840 
# 
# 
# High freq. dielectric constant tensor:
#      x y z
#    x 1.776650 0.000000 0.012150 
#    y 0.000000 1.764320 0.000000 
#    z 0.012150 0.000000 1.753780 
# 
# From -- ./inp_files/251512.got.cif
#   From: 2010.06.25/outbox.cif.g09.slc.cpg/sg12_126_cif.got.tgz:251512.got - 2010.06.28 00:19:55.
