data_PCOD8093827
_publ_section_title
;
Structure prediction by ZEFSAII (Michael W. Deem and Ramdas Pophale) SiO2 
 PCOD8093827
Probable space group: C 2/M
;
_chemical_formula_sum "Si O2"
_cell_formula_units_Z 64
_cell_length_a 16.120486
_cell_length_b 9.026161
_cell_length_c 27.337616
_cell_angle_alpha 90.000000
_cell_angle_beta 126.521941
_cell_angle_gamma 90.000000
_cell_volume 3196.667428
_symmetry_space_group_name_H-M "C 2/M"
_symmetry_group_IT_number 12
_symmetry_cell_setting 'monoclinic'
loop_
_space_group_symop_operation_xyz
x,y,z
-x,y,-z
-x,-y,-z
x,-y,z
1/2+x,1/2+y,z
1/2-x,1/2+y,-z
1/2-x,1/2-y,-z
1/2+x,1/2-y,z
loop_
_atom_site_type_symbol
_atom_site_label
_atom_site_fract_x
_atom_site_fract_y
_atom_site_fract_z
Si Si1 0.804194 0.323670 0.640973
Si Si2 0.531001 0.674099 0.877973
Si Si3 0.665080 0.674875 0.250550
Si Si4 0.464588 0.329687 0.633082
Si Si5 0.785513 0.176461 0.123268
Si Si6 0.907150 0.663172 0.003741
Si Si7 0.568035 0.324127 0.568958
Si Si8 0.674114 0.670685 0.754728
O O1 0.811527 0.500000 0.643798
O O2 0.862087 0.255674 0.708317
O O3 0.863150 0.263049 0.613321
O O4 0.685255 0.267297 0.601556
O O5 0.540301 0.500000 0.885618
O O6 0.418794 0.722071 0.819642
O O7 0.613298 0.736042 0.868207
O O8 0.555538 0.736798 0.939298
O O9 0.665990 0.500000 0.260170
O O10 0.774882 0.731242 0.269734
O O11 0.430400 0.500000 0.614015
O O12 0.514499 0.266113 0.600216
O O13 0.550816 0.315850 0.705890
O O14 0.687431 0.238886 0.058888
O O15 0.789667 0.235474 0.180252
O O16 0.781557 0.000000 0.123990
O O17 0.874294 0.500000 0.011730
O O18 0.000000 0.644699 0.000000
O O19 0.500000 0.265405 0.500000
O O20 0.571153 0.500000 0.572333
O O21 0.708442 0.500000 0.759512
#
# Coordination Sequence:
#
# PCOD8093827 Si02
#       8
#     8   8   8   8   8   8   8   8
#     4  11  22  38  61  90 120 158 202 243 292 349
#     4  10  21  36  53  75 104 142 182 226 283 344
#     4  11  22  36  56  83 115 149 191 243 294 343
#     4  10  20  37  61  89 121 160 199 241 296 348
#     4   9  18  33  53  75 104 140 181 229 283 345
#     4  10  20  34  52  75 101 135 179 229 282 336
#     4   9  19  38  62  88 122 162 201 239 286 349
#     4  10  19  36  60  83 111 151 194 234 289 354
#
# _framework density 20.020849999999999
#
# number of rings (size 3 to 8) (size 9 to 14) (size 15 to 20)
#    0.000    2.000    1.250    2.625    0.000    5.250 
#    0.000    1.250    0.000    2.625    0.000    0.000 
#    0.000    0.000    0.000    0.000    0.000    0.000 
#
# Total GULP energy -396765.488653 kJ/mol
# GULP energy per Si atom -12398.921520 kJ/mol
# Density = 1.997528 g / cm^3
# Si number density = 20.020850 Si / 1000 Ang^3
#
#
#
# Elastic Constant Matrix: (Units=GPa)
#
#
# Indices 1 2 3 4 5 6 
#
# 1 141.4251 40.2971 50.9514 0.0000 0.5271 0.0000
# 2 40.2971 47.6992 33.2614 0.0000 2.6963 0.0000
# 3 50.9514 33.2614 121.2266 0.0000 -7.8624 0.0000
# 4 0.0000 0.0000 0.0000 18.2188 0.0000 -5.0258
# 5 0.5271 2.6963 -7.8624 0.0000 27.6497 0.0000
# 6 0.0000 0.0000 0.0000 -5.0258 0.0000 44.1857
#
#
#
# Elastic Compliance Matrix: (Units=1/GPa)
#
#
# Indices 1 2 3 4 5 6 
#
# 1 0.009800 -0.006662 -0.002303 0.000000 -0.000192 0.000000
# 2 -0.006662 0.031050 -0.006019 0.000000 -0.004612 0.000000
# 3 -0.002303 -0.006019 0.011114 0.000000 0.003791 0.000000
# 4 0.000000 0.000000 0.000000 0.056666 0.000000 0.006445
# 5 -0.000192 -0.004612 0.003791 0.000000 0.037698 0.000000
# 6 0.000000 0.000000 0.000000 0.006445 0.000000 0.023365
#
#
# Mechanical properties :
#
#
# Convention : Reuss Voigt Hill
#
# Bulk Modulus (GPa) = 45.46142 62.15230 53.80686
# Shear Modulus (GPa) = 24.15533 30.40024 27.27779
#
# Velocity S-wave (km/s) = 3.47725 3.90093 3.69517
# Velocity P-wave (km/s) = 6.23523 7.16944 6.71859
#
# Compressibility (1/GPa) = 0.02199667
#
# Stress axis : x y z
#
# Youngs Moduli (GPa) = 102.04441 32.20581 89.97368
#
# Poissons Ratio (x) = 0.21455 0.20725
# Poissons Ratio (y) = 0.67980 0.54151
# Poissons Ratio (z) = 0.23505 0.19383
#
# Static dielectric constant tensor:
#      x y z
#    x 2.643920 0.000000 0.694570 
#    y 0.000000 3.323410 0.000000 
#    z 0.694570 0.000000 3.378200 
# 
# 
# High freq. dielectric constant tensor:
#      x y z
#    x 1.790970 0.000000 0.000510 
#    y 0.000000 1.744400 0.000000 
#    z 0.000510 0.000000 1.787920 
# 
# From -- ./inp_files/375534.got.cif
#   From: 2010.06.25/outbox.cif.g09.slc.cpg/sg12_188_cif.got.tgz:375534.got - 2010.06.28 00:19:55.
