data_PCOD8093590
_publ_section_title
;
Structure prediction by ZEFSAII (Michael W. Deem and Ramdas Pophale) SiO2 
 PCOD8093590
Probable space group: C 2/M
;
_chemical_formula_sum "Si O2"
_cell_formula_units_Z 64
_cell_length_a 16.331686
_cell_length_b 18.743131
_cell_length_c 12.959903
_cell_angle_alpha 90.000000
_cell_angle_beta 45.195729
_cell_angle_gamma 90.000000
_cell_volume 2814.741126
_symmetry_space_group_name_H-M "C 2/M"
_symmetry_group_IT_number 12
_symmetry_cell_setting 'monoclinic'
loop_
_space_group_symop_operation_xyz
x,y,z
-x,y,-z
-x,-y,-z
x,-y,z
1/2+x,1/2+y,z
1/2-x,1/2+y,-z
1/2-x,1/2-y,-z
1/2+x,1/2-y,z
loop_
_atom_site_type_symbol
_atom_site_label
_atom_site_fract_x
_atom_site_fract_y
_atom_site_fract_z
Si Si1 0.256112 0.922101 0.301524
Si Si2 0.912629 0.079477 0.360024
Si Si3 0.412542 0.337708 0.672202
Si Si4 0.003359 0.580666 0.816139
Si Si5 0.576001 0.919504 0.337742
Si Si6 0.325003 0.285217 0.342821
Si Si7 0.270210 0.209406 0.799009
Si Si8 0.550647 0.775814 0.067294
O O1 0.157421 0.928649 0.473473
O O2 0.211579 0.870788 0.250758
O O3 0.372338 0.893245 0.251639
O O4 0.279483 0.000000 0.232678
O O5 0.841685 0.129528 0.344169
O O6 0.034819 0.116430 0.280605
O O7 0.932600 0.000000 0.294326
O O8 0.500000 0.334259 0.500000
O O9 0.380272 0.257447 0.735773
O O10 0.972020 0.500000 0.881871
O O11 0.004763 0.582706 0.691331
O O12 0.916162 0.640822 0.938153
O O13 0.500000 0.889901 0.500000
O O14 0.691195 0.872387 0.221518
O O15 0.618142 0.000000 0.322874
O O16 0.250000 0.250000 0.500000
O O17 0.260835 0.272496 0.292074
O O18 0.453167 0.250930 0.233966
O O19 0.164471 0.226158 0.970565
O O20 0.500000 0.767625 0.000000
#
# Coordination Sequence:
#
# PCOD8093590 Si02
#       8
#     8   8   8   8   8   8   8   8
#     4   9  17  32  58  88 123 161 201 260 326 380
#     4  10  21  35  57  91 127 164 209 265 325 388
#     4  10  19  36  57  91 125 162 210 261 321 392
#     4  10  21  39  65  94 128 170 216 270 334 392
#     4  10  24  42  64  98 133 170 226 283 327 385
#     4  11  23  40  67  97 126 170 224 276 322 400
#     4  11  24  41  64  91 130 176 212 272 341 388
#     4  10  23  42  63  96 131 164 218 272 333 400
#
# _framework density 22.737437
#
# number of rings (size 3 to 8) (size 9 to 14) (size 15 to 20)
#    0.000    1.875    0.000    4.500    5.250    2.750 
#    0.000    1.875    0.000    3.000    0.000    0.000 
#    0.000    0.000    0.000    0.000    0.000    0.000 
#
# Total GULP energy -396712.501590 kJ/mol
# GULP energy per Si atom -12397.265675 kJ/mol
# Density = 2.268569 g / cm^3
# Si number density = 22.737437 Si / 1000 Ang^3
#
#
#
# Elastic Constant Matrix: (Units=GPa)
#
#
# Indices 1 2 3 4 5 6 
#
# 1 70.3534 33.8050 27.4187 0.0000 -18.4692 0.0000
# 2 33.8050 157.4816 52.5397 0.0000 -27.0897 0.0000
# 3 27.4187 52.5397 103.2291 -0.0001 -19.0390 0.0001
# 4 0.0000 0.0000 -0.0001 28.3477 0.0001 -4.4697
# 5 -18.4692 -27.0897 -19.0390 0.0001 11.1069 -0.0001
# 6 0.0000 0.0000 0.0001 -4.4697 -0.0001 36.6572
#
#
#
# Elastic Compliance Matrix: (Units=1/GPa)
#
#
# Indices 1 2 3 4 5 6 
#
# 1 0.026256 0.003142 0.001306 0.000000 0.053561 0.000000
# 2 0.003142 0.011379 -0.000795 0.000000 0.031615 0.000000
# 3 0.001306 -0.000795 0.014313 0.000000 0.024766 0.000000
# 4 0.000000 0.000000 0.000000 0.035968 0.000000 0.004386
# 5 0.053561 0.031615 0.024766 0.000000 0.298660 0.000000
# 6 0.000000 0.000000 0.000000 0.004386 0.000000 0.027815
#
#
# Mechanical properties :
#
#
# Convention : Reuss Voigt Hill
#
# Bulk Modulus (GPa) = 16.87690 62.06566 39.47128
# Shear Modulus (GPa) = 11.71408 29.70908 20.71158
#
# Velocity S-wave (km/s) = 2.27224 3.61863 3.02139
# Velocity P-wave (km/s) = 3.78454 6.69442 5.43774
#
# Compressibility (1/GPa) = 0.05925258
#
# Stress axis : x y z
#
# Youngs Moduli (GPa) = 38.08597 87.88003 69.86733
#
# Poissons Ratio (x) = -0.27609 -0.09121
# Poissons Ratio (y) = -0.11966 0.05555
# Poissons Ratio (z) = -0.04972 0.06988
#
# Static dielectric constant tensor:
#      x y z
#    x 4.036840 0.000000 -0.155470 
#    y 0.000000 4.473750 0.000000 
#    z -0.155470 0.000000 3.932000 
# 
# 
# High freq. dielectric constant tensor:
#      x y z
#    x 1.891870 0.000000 -0.007940 
#    y 0.000000 1.911810 0.000000 
#    z -0.007940 0.000000 1.870250 
# 
# From -- ./inp_files/226848.got.cif
#   From: 2010.06.25/outbox.cif.g09.slc.cpg/sg12_114_cif.got.tgz:226848.got - 2010.06.28 00:19:55.
