data_PCOD8093546
_publ_section_title
;
Structure prediction by ZEFSAII (Michael W. Deem and Ramdas Pophale) SiO2 
 PCOD8093546
Probable space group: C 2/M
;
_chemical_formula_sum "Si O2"
_cell_formula_units_Z 56
_cell_length_a 22.121208
_cell_length_b 8.979850
_cell_length_c 30.347149
_cell_angle_alpha 90.000000
_cell_angle_beta 152.897851
_cell_angle_gamma 90.000000
_cell_volume 2746.368724
_symmetry_space_group_name_H-M "C 2/M"
_symmetry_group_IT_number 12
_symmetry_cell_setting 'monoclinic'
loop_
_space_group_symop_operation_xyz
x,y,z
-x,y,-z
-x,-y,-z
x,-y,z
1/2+x,1/2+y,z
1/2-x,1/2+y,-z
1/2-x,1/2-y,-z
1/2+x,1/2-y,z
loop_
_atom_site_type_symbol
_atom_site_label
_atom_site_fract_x
_atom_site_fract_y
_atom_site_fract_z
Si Si1 0.034071 0.176319 0.744486
Si Si2 0.992396 0.675973 0.045300
Si Si3 0.754876 0.324202 0.955044
Si Si4 0.471392 0.177256 0.345335
Si Si5 0.648669 0.168479 0.595367
Si Si6 0.241918 0.332291 0.557194
Si Si7 0.260772 0.325357 0.267048
O O1 0.116087 0.217969 0.841348
O O2 0.097688 0.253965 0.742875
O O3 0.885629 0.246707 0.649510
O O4 0.038678 0.000000 0.740832
O O5 0.975821 0.500000 0.031359
O O6 0.127178 0.725440 0.156309
O O7 0.000000 0.741145 0.000000
O O8 0.871486 0.736006 0.997816
O O9 0.771183 0.500000 0.972818
O O10 0.750000 0.250000 0.000000
O O11 0.624682 0.237372 0.450589
O O12 0.386572 0.234942 0.330991
O O13 0.468931 0.000000 0.343255
O O14 0.500000 0.231997 0.500000
O O15 0.696396 0.173196 0.577183
O O16 0.746436 0.275798 0.686685
O O17 0.653934 0.000000 0.617616
O O18 0.264132 0.500000 0.555561
O O19 0.284002 0.500000 0.276901
#
# Coordination Sequence:
#
# PCOD8093546 Si02
#       7
#     8   8   8   8   8   8   8
#     4  10  21  38  60  84 111 149 193 233 278 338
#     4   9  19  38  61  84 114 153 193 239 295 346
#     4  10  22  40  62  87 118 154 194 242 295 347
#     4  11  21  37  58  84 117 151 184 229 287 342
#     4  10  19  36  57  78 113 155 186 226 284 341
#     4   9  19  35  56  82 114 151 187 223 279 344
#     4  11  22  35  57  86 113 147 193 238 279 335
#
# _framework density 20.390561000000002
#
# number of rings (size 3 to 8) (size 9 to 14) (size 15 to 20)
#    0.000    2.000    1.429    2.143    2.000    3.143 
#    0.000    2.143    0.000    3.000    0.000    0.000 
#    0.000    0.000    0.000    0.000    0.000    0.000 
#
# Total GULP energy -347020.147207 kJ/mol
# GULP energy per Si atom -12393.576686 kJ/mol
# Density = 2.034415 g / cm^3
# Si number density = 20.390561 Si / 1000 Ang^3
#
#
#
# Elastic Constant Matrix: (Units=GPa)
#
#
# Indices 1 2 3 4 5 6 
#
# 1 89.0465 21.7201 53.7430 0.0001 -9.4607 0.0001
# 2 21.7201 42.3371 44.7284 0.0004 -8.6465 0.0000
# 3 53.7430 44.7284 143.6774 0.0049 -17.0054 0.0016
# 4 0.0001 0.0004 0.0049 41.8632 0.0011 -22.0252
# 5 -9.4607 -8.6465 -17.0054 0.0011 38.2765 -0.0002
# 6 0.0001 0.0000 0.0016 -22.0252 -0.0002 44.4641
#
#
#
# Elastic Compliance Matrix: (Units=1/GPa)
#
#
# Indices 1 2 3 4 5 6 
#
# 1 0.014729 -0.002465 -0.004620 0.000001 0.001031 0.000001
# 2 -0.002465 0.035996 -0.009915 0.000001 0.003117 0.000001
# 3 -0.004620 -0.009915 0.012006 -0.000002 0.001952 -0.000001
# 4 0.000001 0.000001 -0.000002 0.032307 -0.000001 0.016003
# 5 0.001031 0.003117 0.001952 -0.000001 0.027952 -0.000001
# 6 0.000001 0.000001 -0.000001 0.016003 -0.000001 0.030417
#
#
# Mechanical properties :
#
#
# Convention : Reuss Voigt Hill
#
# Bulk Modulus (GPa) = 34.80526 57.27156 46.03841
# Shear Modulus (GPa) = 25.38262 35.24538 30.31400
#
# Velocity S-wave (km/s) = 3.53203 4.16205 3.85992
# Velocity P-wave (km/s) = 5.80862 7.15857 6.51863
#
# Compressibility (1/GPa) = 0.02873129
#
# Stress axis : x y z
#
# Youngs Moduli (GPa) = 67.89182 27.78071 83.29189
#
# Poissons Ratio (x) = 0.06847 0.38482
# Poissons Ratio (y) = 0.16734 0.82585
# Poissons Ratio (z) = 0.31367 0.27545
#
# Static dielectric constant tensor:
#      x y z
#    x 3.876450 0.000000 0.172270 
#    y 0.000000 3.423200 0.000010 
#    z 0.172270 0.000010 4.259400 
# 
# 
# High freq. dielectric constant tensor:
#      x y z
#    x 1.808700 0.000000 -0.006170 
#    y 0.000000 1.756300 0.000000 
#    z -0.006170 0.000000 1.810850 
# 
# From -- ./inp_files/380762.got.cif
#   From: 2010.06.25/outbox.cif.g09.slc.cpg/sg12_191_cif.got.tgz:380762.got - 2010.06.28 00:19:55.
