data_PCOD8093975
_publ_section_title
;
Structure prediction by ZEFSAII (Michael W. Deem and Ramdas Pophale) SiO2 
 PCOD8093975
Probable space group: C 2/M
;
_chemical_formula_sum "Si O2"
_cell_formula_units_Z 48
_cell_length_a 20.387761
_cell_length_b 8.723124
_cell_length_c 20.995943
_cell_angle_alpha 90.000000
_cell_angle_beta 138.149782
_cell_angle_gamma 90.000000
_cell_volume 2491.286244
_symmetry_space_group_name_H-M "C 2/M"
_symmetry_group_IT_number 12
_symmetry_cell_setting 'monoclinic'
loop_
_space_group_symop_operation_xyz
x,y,z
-x,y,-z
-x,-y,-z
x,-y,z
1/2+x,1/2+y,z
1/2-x,1/2+y,-z
1/2-x,1/2-y,-z
1/2+x,1/2-y,z
loop_
_atom_site_type_symbol
_atom_site_label
_atom_site_fract_x
_atom_site_fract_y
_atom_site_fract_z
Si Si1 0.261714 0.180709 0.677008
Si Si2 0.671476 0.820181 0.491006
Si Si3 0.774859 0.181750 0.207796
Si Si4 0.029934 0.823686 0.191217
Si Si5 0.979192 0.177628 0.297856
Si Si6 0.577591 0.821400 0.000547
O O1 0.189449 0.261507 0.575184
O O2 0.232742 0.243918 0.725666
O O3 0.374565 0.218176 0.744190
O O4 0.246997 0.000000 0.660748
O O5 0.750000 0.750000 0.500000
O O6 0.562282 0.776709 0.391783
O O7 0.685974 0.000000 0.499426
O O8 0.875297 0.239511 0.248688
O O9 0.682952 0.241861 0.100013
O O10 0.768752 0.000000 0.205071
O O11 0.979454 0.797148 0.222659
O O12 0.061243 0.000000 0.204675
O O13 0.950498 0.776005 0.081428
O O14 0.995689 0.000000 0.327550
O O15 0.580470 0.000000 0.984082
O O16 0.500000 0.791314 0.000000
#
# Coordination Sequence:
#
# PCOD8093975 Si02
#       6
#     8   8   8   8   8   8
#     4  11  21  38  64  89 116 154 202 245 289 348
#     4  12  24  39  61  90 120 154 198 244 296 352
#     4   9  20  39  62  87 117 159 201 243 291 351
#     4  11  22  35  57  89 121 154 196 247 298 350
#     4  10  22  41  61  85 121 159 198 241 296 354
#     4  10  19  36  61  87 115 154 205 247 288 349
#
# _framework density 19.267156
#
# number of rings (size 3 to 8) (size 9 to 14) (size 15 to 20)
#    0.000    1.500    3.333    2.500    0.000    2.333 
#    0.000    5.833    0.000    0.000    0.000    0.000 
#    0.000    0.000    0.000    0.000    0.000    0.000 
#
# Total GULP energy -297713.975402 kJ/mol
# GULP energy per Si atom -12404.748975 kJ/mol
# Density = 1.922330 g / cm^3
# Si number density = 19.267156 Si / 1000 Ang^3
#
#
#
# Elastic Constant Matrix: (Units=GPa)
#
#
# Indices 1 2 3 4 5 6 
#
# 1 123.7288 38.4271 61.4597 0.0000 4.7348 0.0000
# 2 38.4271 81.0764 49.2806 0.0000 -4.7436 0.0000
# 3 61.4597 49.2806 162.1093 0.0000 -5.7584 0.0000
# 4 0.0000 0.0000 0.0000 35.4383 0.0000 -2.3576
# 5 4.7348 -4.7436 -5.7584 0.0000 38.3700 0.0000
# 6 0.0000 0.0000 0.0000 -2.3576 0.0000 21.9042
#
#
#
# Elastic Compliance Matrix: (Units=1/GPa)
#
#
# Indices 1 2 3 4 5 6 
#
# 1 0.010761 -0.003315 -0.003151 0.000000 -0.002211 0.000000
# 2 -0.003315 0.016205 -0.003603 0.000000 0.001872 0.000000
# 3 -0.003151 -0.003603 0.008502 0.000000 0.001219 0.000000
# 4 0.000000 0.000000 0.000000 0.028422 0.000000 0.003059
# 5 -0.002211 0.001872 0.001219 0.000000 0.026749 0.000000
# 6 0.000000 0.000000 0.000000 0.003059 0.000000 0.045983
#
#
# Mechanical properties :
#
#
# Convention : Reuss Voigt Hill
#
# Bulk Modulus (GPa) = 65.22775 73.91661 69.57218
# Shear Modulus (GPa) = 30.88936 33.65899 32.27417
#
# Velocity S-wave (km/s) = 4.00836 4.18420 4.09722
# Velocity P-wave (km/s) = 7.43979 7.86071 7.65314
#
# Compressibility (1/GPa) = 0.01533090
#
# Stress axis : x y z
#
# Youngs Moduli (GPa) = 92.92543 61.71097 117.62194
#
# Poissons Ratio (x) = 0.20455 0.37060
# Poissons Ratio (y) = 0.30802 0.42379
# Poissons Ratio (z) = 0.29279 0.22234
#
# Static dielectric constant tensor:
#      x y z
#    x 3.630030 0.000000 -0.050800 
#    y 0.000000 3.382650 0.000000 
#    z -0.050800 0.000000 3.892130 
# 
# 
# High freq. dielectric constant tensor:
#      x y z
#    x 1.749740 0.000000 -0.006670 
#    y 0.000000 1.735950 0.000000 
#    z -0.006670 0.000000 1.765630 
# 
# From -- ./inp_files/229915.got.cif
#   From: 2010.06.25/outbox.cif.g09.slc.cpg/sg12_115_cif.got.tgz:229915.got - 2010.06.28 00:19:55.
