data_PCOD8093781
_publ_section_title
;
Structure prediction by ZEFSAII (Michael W. Deem and Ramdas Pophale) SiO2 
 PCOD8093781
Probable space group: C 2/M
;
_chemical_formula_sum "Si O2"
_cell_formula_units_Z 64
_cell_length_a 14.140655
_cell_length_b 29.699486
_cell_length_c 9.700163
_cell_angle_alpha 90.000000
_cell_angle_beta 120.431589
_cell_angle_gamma 90.000000
_cell_volume 3512.553201
_symmetry_space_group_name_H-M "C 2/M"
_symmetry_group_IT_number 12
_symmetry_cell_setting 'monoclinic'
loop_
_space_group_symop_operation_xyz
x,y,z
-x,y,-z
-x,-y,-z
x,-y,z
1/2+x,1/2+y,z
1/2-x,1/2+y,-z
1/2-x,1/2-y,-z
1/2+x,1/2-y,z
loop_
_atom_site_type_symbol
_atom_site_label
_atom_site_fract_x
_atom_site_fract_y
_atom_site_fract_z
Si Si1 0.786638 0.136497 0.318497
Si Si2 0.894638 0.704328 0.828503
Si Si3 0.957450 0.949056 0.817735
Si Si4 0.932445 0.183245 0.207993
Si Si5 0.396963 0.448992 0.328828
Si Si6 0.027331 0.721444 0.674087
Si Si7 0.222711 0.206111 0.160255
Si Si8 0.150012 0.137471 0.323238
O O1 0.672314 0.158842 0.185607
O O2 0.883027 0.158105 0.301581
O O3 0.793405 0.083012 0.290697
O O4 0.803814 0.147741 0.491467
O O5 0.817554 0.748393 0.791712
O O6 0.939863 0.696744 0.707505
O O7 0.000000 0.710435 0.000000
O O8 0.854461 0.916405 0.706850
O O9 0.063260 0.941765 0.797926
O O10 0.912748 0.000000 0.768489
O O11 0.000000 0.938606 0.000000
O O12 0.994143 0.226228 0.314927
O O13 0.024559 0.152461 0.207541
O O14 0.846307 0.196497 0.027088
O O15 0.500000 0.435824 0.500000
O O16 0.358053 0.500000 0.327872
O O17 0.153631 0.711025 0.802625
O O18 0.000000 0.706598 0.500000
O O19 0.222265 0.164037 0.264819
#
# Coordination Sequence:
#
# PCOD8093781 Si02
#       8
#     8   8   8   8   8   8   8   8
#     4  12  23  35  57  85 112 148 188 224 288 337
#     4  12  24  41  56  77 111 150 193 238 277 330
#     4  10  20  34  54  83 121 150 174 219 277 337
#     4  12  21  35  55  79 113 144 188 230 270 336
#     4  10  19  36  59  87 119 143 175 227 283 338
#     4  12  24  38  54  77 108 145 190 239 278 321
#     4  12  24  39  56  77 108 156 194 229 284 333
#     4  12  22  35  55  85 113 147 186 229 274 339
#
# _framework density 18.220365000000001
#
# number of rings (size 3 to 8) (size 9 to 14) (size 15 to 20)
#    0.000    0.500    6.250    4.125    0.000    1.000 
#    0.000    0.000    0.000    0.375    0.000    0.875 
#    0.000    3.000    0.000    0.000    0.000    0.000 
#
# Total GULP energy -396804.861633 kJ/mol
# GULP energy per Si atom -12400.151926 kJ/mol
# Density = 1.817889 g / cm^3
# Si number density = 18.220365 Si / 1000 Ang^3
#
#
#
# Elastic Constant Matrix: (Units=GPa)
#
#
# Indices 1 2 3 4 5 6 
#
# 1 62.3932 38.4853 -1.9340 0.0000 -1.8553 0.0000
# 2 38.4853 105.5943 11.9368 0.0000 -0.8009 0.0000
# 3 -1.9340 11.9368 58.1459 0.0000 -13.4924 0.0000
# 4 0.0000 0.0000 0.0000 24.2407 0.0000 -0.9153
# 5 -1.8553 -0.8009 -13.4924 0.0000 30.9431 0.0000
# 6 0.0000 0.0000 0.0000 -0.9153 0.0000 25.3201
#
#
#
# Elastic Compliance Matrix: (Units=1/GPa)
#
#
# Indices 1 2 3 4 5 6 
#
# 1 0.021125 -0.008008 0.002884 0.000000 0.002317 0.000000
# 2 -0.008008 0.012744 -0.003246 0.000000 -0.001566 0.000000
# 3 0.002884 -0.003246 0.020005 0.000000 0.008812 0.000000
# 4 0.000000 0.000000 0.000000 0.041309 0.000000 0.001493
# 5 0.002317 -0.001566 0.008812 0.000000 0.036258 0.000000
# 6 0.000000 0.000000 0.000000 0.001493 0.000000 0.039548
#
#
# Mechanical properties :
#
#
# Convention : Reuss Voigt Hill
#
# Bulk Modulus (GPa) = 26.92866 35.90109 31.41488
# Shear Modulus (GPa) = 24.98664 27.94379 26.46522
#
# Velocity S-wave (km/s) = 3.70720 3.92044 3.81531
# Velocity P-wave (km/s) = 5.75639 6.34348 6.05705
#
# Compressibility (1/GPa) = 0.03713515
#
# Stress axis : x y z
#
# Youngs Moduli (GPa) = 47.33721 78.46948 49.98716
#
# Poissons Ratio (x) = 0.62837 -0.14417
# Poissons Ratio (y) = 0.37907 0.16225
# Poissons Ratio (z) = -0.13653 0.25470
#
# Static dielectric constant tensor:
#      x y z
#    x 3.411210 0.000000 -0.291860 
#    y 0.000000 3.533590 0.000000 
#    z -0.291860 0.000000 3.401370 
# 
# 
# High freq. dielectric constant tensor:
#      x y z
#    x 1.688720 0.000000 -0.029490 
#    y 0.000000 1.700390 0.000000 
#    z -0.029490 0.000000 1.711210 
# 
# From -- ./inp_files/68270.got.cif
#   From: 2010.06.25/outbox.cif.g09.slc.cpg/sg12_35_cif.got.tgz:68270.got - 2010.06.28 00:19:55.
