data_PCOD8093183
_publ_section_title
;
Structure prediction by ZEFSAII (Michael W. Deem and Ramdas Pophale) SiO2 
 PCOD8093183
Probable space group: C 2/M
;
_chemical_formula_sum "Si O2"
_cell_formula_units_Z 56
_cell_length_a 20.303191
_cell_length_b 8.913371
_cell_length_c 27.749807
_cell_angle_alpha 90.000000
_cell_angle_beta 145.414306
_cell_angle_gamma 90.000000
_cell_volume 2850.610403
_symmetry_space_group_name_H-M "C 2/M"
_symmetry_group_IT_number 12
_symmetry_cell_setting 'monoclinic'
loop_
_space_group_symop_operation_xyz
x,y,z
-x,y,-z
-x,-y,-z
x,-y,z
1/2+x,1/2+y,z
1/2-x,1/2+y,-z
1/2-x,1/2-y,-z
1/2+x,1/2-y,z
loop_
_atom_site_type_symbol
_atom_site_label
_atom_site_fract_x
_atom_site_fract_y
_atom_site_fract_z
Si Si1 0.049095 0.826534 0.265495
Si Si2 0.430276 0.322308 0.004985
Si Si3 0.401052 0.677983 0.810906
Si Si4 0.196471 0.171918 0.839253
Si Si5 0.761935 0.677276 0.559136
Si Si6 0.453821 0.825467 0.524210
Si Si7 0.168657 0.675047 0.721292
O O1 0.077571 0.760416 0.229809
O O2 0.116255 0.728256 0.345175
O O3 0.912403 0.808659 0.191103
O O4 0.087924 0.000000 0.293865
O O5 0.418611 0.500000 0.997995
O O6 0.302505 0.254697 0.928643
O O7 0.500000 0.267593 0.000000
O O8 0.499014 0.262104 0.093118
O O9 0.405035 0.500000 0.812466
O O10 0.275958 0.734207 0.753923
O O11 0.164128 0.238656 0.768312
O O12 0.230268 0.000000 0.852194
O O13 0.760629 0.500000 0.552341
O O14 0.750000 0.750000 0.500000
O O15 0.658973 0.728641 0.532220
O O16 0.500000 0.775564 0.500000
O O17 0.550649 0.791136 0.622220
O O18 0.418707 0.000000 0.502605
O O19 0.184744 0.500000 0.742196
#
# Coordination Sequence:
#
# PCOD8093183 Si02
#       7
#     8   8   8   8   8   8   8
#     4  10  22  41  61  84 117 155 195 239 296 357
#     4  10  19  36  62  87 112 149 197 238 279 340
#     4   9  18  36  62  86 111 150 196 240 281 337
#     4  11  23  36  55  85 119 150 184 237 296 347
#     4  12  25  41  62  87 120 160 203 251 300 355
#     4  10  21  38  63  91 119 155 198 246 300 360
#     4  10  19  35  60  85 109 147 198 239 277 339
#
# _framework density 19.644915999999998
#
# number of rings (size 3 to 8) (size 9 to 14) (size 15 to 20)
#    0.000    1.714    1.429    3.429    0.000    7.429 
#    0.000    2.857    0.000    0.000    0.000    0.000 
#    0.000    0.000    0.000    0.000    0.000    0.000 
#
# Total GULP energy -347329.240293 kJ/mol
# GULP energy per Si atom -12404.615725 kJ/mol
# Density = 1.960020 g / cm^3
# Si number density = 19.644916 Si / 1000 Ang^3
#
#
#
# Elastic Constant Matrix: (Units=GPa)
#
#
# Indices 1 2 3 4 5 6 
#
# 1 96.4596 29.3650 24.1145 0.0000 -3.2528 0.0002
# 2 29.3650 66.0875 31.5268 0.0001 2.9726 0.0008
# 3 24.1145 31.5268 93.8793 0.0000 1.7197 0.0001
# 4 0.0000 0.0001 0.0000 29.6327 0.0000 4.2995
# 5 -3.2528 2.9726 1.7197 0.0000 37.2284 0.0000
# 6 0.0002 0.0008 0.0001 4.2995 0.0000 24.3615
#
#
#
# Elastic Compliance Matrix: (Units=1/GPa)
#
#
# Indices 1 2 3 4 5 6 
#
# 1 0.012264 -0.004765 -0.001578 0.000000 0.001525 0.000000
# 2 -0.004765 0.019920 -0.005433 0.000000 -0.001756 -0.000001
# 3 -0.001578 -0.005433 0.012887 0.000000 -0.000299 0.000000
# 4 0.000000 0.000000 0.000000 0.034633 0.000000 -0.006112
# 5 0.001525 -0.001756 -0.000299 0.000000 0.027149 0.000000
# 6 0.000000 -0.000001 0.000000 -0.006112 0.000000 0.042127
#
#
# Mechanical properties :
#
#
# Convention : Reuss Voigt Hill
#
# Bulk Modulus (GPa) = 46.47225 47.38212 46.92718
# Shear Modulus (GPa) = 27.82344 29.67251 28.74798
#
# Velocity S-wave (km/s) = 3.76748 3.89066 3.82956
# Velocity P-wave (km/s) = 6.52937 6.65992 6.59497
#
# Compressibility (1/GPa) = 0.02151822
#
# Stress axis : x y z
#
# Youngs Moduli (GPa) = 81.54274 50.20168 77.59528
#
# Poissons Ratio (x) = 0.23921 0.12243
# Poissons Ratio (y) = 0.38855 0.42160
# Poissons Ratio (z) = 0.12866 0.27276
#
# Static dielectric constant tensor:
#      x y z
#    x 3.758010 0.000000 -0.016350 
#    y 0.000000 3.387680 0.000000 
#    z -0.016350 0.000000 3.725360 
# 
# 
# High freq. dielectric constant tensor:
#      x y z
#    x 1.776460 0.000000 0.001230 
#    y 0.000000 1.740960 0.000000 
#    z 0.001230 0.000000 1.780910 
# 
# From -- ./inp_files/363234.got.cif
#   From: 2010.06.25/outbox.cif.g09.slc.cpg/sg12_182_cif.got.tgz:363234.got - 2010.06.28 00:19:55.
