data_PCOD8093504
_publ_section_title
;
Structure prediction by ZEFSAII (Michael W. Deem and Ramdas Pophale) SiO2 
 PCOD8093504
Probable space group: C 2/M
;
_chemical_formula_sum "Si O2"
_cell_formula_units_Z 64
_cell_length_a 15.063756
_cell_length_b 24.822419
_cell_length_c 17.685114
_cell_angle_alpha 90.000000
_cell_angle_beta 148.203435
_cell_angle_gamma 90.000000
_cell_volume 3484.315137
_symmetry_space_group_name_H-M "C 2/M"
_symmetry_group_IT_number 12
_symmetry_cell_setting 'monoclinic'
loop_
_space_group_symop_operation_xyz
x,y,z
-x,y,-z
-x,-y,-z
x,-y,z
1/2+x,1/2+y,z
1/2-x,1/2+y,-z
1/2-x,1/2-y,-z
1/2+x,1/2-y,z
loop_
_atom_site_type_symbol
_atom_site_label
_atom_site_fract_x
_atom_site_fract_y
_atom_site_fract_z
Si Si1 0.816161 0.277417 0.339526
Si Si2 0.835341 0.601661 0.330924
Si Si3 0.998772 0.061924 0.165263
Si Si4 0.608689 0.741691 0.335328
Si Si5 0.335229 0.175334 0.835980
Si Si6 0.031166 0.653636 0.834929
Si Si7 0.856282 0.147550 0.167598
Si Si8 0.335860 0.061055 0.164501
O O1 0.814801 0.335130 0.297214
O O2 0.687763 0.280630 0.315840
O O3 0.763144 0.231382 0.243337
O O4 0.000000 0.261424 0.500000
O O5 0.676527 0.579951 0.261581
O O6 0.854187 0.570166 0.266624
O O7 0.000000 0.590825 0.500000
O O8 0.954677 0.095232 0.209114
O O9 0.006534 0.000000 0.195693
O O10 0.857636 0.071934 0.999040
O O11 0.750000 0.750000 0.500000
O O12 0.510795 0.797561 0.251577
O O13 0.479378 0.697284 0.270036
O O14 0.382440 0.147650 0.790101
O O15 0.224800 0.134755 0.808353
O O16 0.500000 0.192477 0.000000
O O17 0.037228 0.598961 0.790660
O O18 0.210645 0.665036 0.003628
O O19 0.388095 0.000000 0.183185
#
# Coordination Sequence:
#
# PCOD8093504 Si02
#       8
#     8   8   8   8   8   8   8   8
#     4  10  21  35  48  79 113 142 176 216 266 324
#     4  11  23  36  54  80 113 145 183 226 274 322
#     4  10  21  39  57  79 110 145 187 227 268 325
#     4  11  21  33  55  80 108 143 179 220 271 323
#     4   9  19  35  55  79 109 141 176 218 268 322
#     4   9  21  36  55  80 108 141 181 223 270 321
#     4  10  19  36  56  80 109 141 179 223 269 323
#     4  10  22  38  58  79 107 148 187 226 273 321
#
# _framework density 18.368029
#
# number of rings (size 3 to 8) (size 9 to 14) (size 15 to 20)
#    0.000    2.000    1.250    1.875    5.250    3.000 
#    0.000    0.625    0.000    3.750    0.000    0.000 
#    0.000    7.500    0.000    0.000    0.000    0.000 
#
# Total GULP energy -396819.170580 kJ/mol
# GULP energy per Si atom -12400.599081 kJ/mol
# Density = 1.832622 g / cm^3
# Si number density = 18.368029 Si / 1000 Ang^3
#
#
#
# Elastic Constant Matrix: (Units=GPa)
#
#
# Indices 1 2 3 4 5 6 
#
# 1 108.5458 69.1876 49.5523 -0.0001 6.7998 0.0000
# 2 69.1876 121.1782 58.7990 0.0000 5.6413 0.0000
# 3 49.5523 58.7990 75.2670 0.0008 4.0294 0.0000
# 4 -0.0001 0.0000 0.0008 -27.7364 0.0004 0.9036
# 5 6.7998 5.6413 4.0294 0.0004 21.9759 0.0000
# 6 0.0000 0.0000 0.0000 0.9036 0.0000 28.2399
#
#
#
# Elastic Compliance Matrix: (Units=1/GPa)
#
#
# Indices 1 2 3 4 5 6 
#
# 1 0.015842 -0.006341 -0.005353 0.000000 -0.002293 0.000000
# 2 -0.006341 0.015879 -0.008197 0.000000 -0.000611 0.000000
# 3 -0.005353 -0.008197 0.023241 0.000001 -0.000501 0.000000
# 4 0.000000 0.000000 0.000001 -0.036016 0.000001 0.001152
# 5 -0.002293 -0.000611 -0.000501 0.000001 0.046462 0.000000
# 6 0.000000 0.000000 0.000000 0.001152 0.000000 0.035374
#
#
# Mechanical properties :
#
#
# Convention : Reuss Voigt Hill
#
# Bulk Modulus (GPa) = 65.88202 73.34098 69.61150
# Shear Modulus (GPa) = 34.33502 12.99268 23.66385
#
# Velocity S-wave (km/s) = 4.32821 2.66250 3.59321
# Velocity P-wave (km/s) = 7.80535 7.03329 7.42936
#
# Compressibility (1/GPa) = 0.01517865
#
# Stress axis : x y z
#
# Youngs Moduli (GPa) = 63.12442 62.97810 43.02730
#
# Poissons Ratio (x) = 0.39932 0.23034
# Poissons Ratio (y) = 0.40025 0.35271
# Poissons Ratio (z) = 0.33793 0.51625
#
# Static dielectric constant tensor:
#      x y z
#    x 3.591700 0.000000 0.083310 
#    y 0.000000 3.361760 0.000000 
#    z 0.083310 0.000000 3.400060 
# 
# 
# High freq. dielectric constant tensor:
#      x y z
#    x 1.720630 0.000000 0.005930 
#    y 0.000000 1.701330 0.000000 
#    z 0.005930 0.000000 1.712570 
# 
# From -- ./inp_files/272841.got.cif
#   From: 2010.06.25/outbox.cif.g09.slc.cpg/sg12_137_cif.got.tgz:272841.got - 2010.06.28 00:19:55.
