data_PCOD8093292
_publ_section_title
;
Structure prediction by ZEFSAII (Michael W. Deem and Ramdas Pophale) SiO2 
 PCOD8093292
Probable space group: C 2/M
;
_chemical_formula_sum "Si O2"
_cell_formula_units_Z 64
_cell_length_a 19.742219
_cell_length_b 8.844696
_cell_length_c 18.682384
_cell_angle_alpha 90.000000
_cell_angle_beta 90.421037
_cell_angle_gamma 90.000000
_cell_volume 3262.116327
_symmetry_space_group_name_H-M "C 2/M"
_symmetry_group_IT_number 12
_symmetry_cell_setting 'monoclinic'
loop_
_space_group_symop_operation_xyz
x,y,z
-x,y,-z
-x,-y,-z
x,-y,z
1/2+x,1/2+y,z
1/2-x,1/2+y,-z
1/2-x,1/2-y,-z
1/2+x,1/2-y,z
loop_
_atom_site_type_symbol
_atom_site_label
_atom_site_fract_x
_atom_site_fract_y
_atom_site_fract_z
Si Si1 0.179516 0.824543 0.916397
Si Si2 0.923601 0.319683 0.188479
Si Si3 0.891209 0.823588 0.665453
Si Si4 0.995109 0.327380 0.419070
Si Si5 0.739428 0.679061 0.422635
Si Si6 0.637784 0.172516 0.666124
Si Si7 0.181038 0.824539 0.084102
Si Si8 0.920473 0.321153 0.810974
O O1 0.114747 0.747358 0.879853
O O2 0.248856 0.749644 0.888520
O O3 0.181700 0.000000 0.896713
O O4 0.171084 0.796420 0.000262
O O5 0.920943 0.500000 0.186555
O O6 0.887861 0.252411 0.259991
O O7 0.001584 0.265519 0.187854
O O8 0.833229 0.774703 0.609206
O O9 0.882452 0.734955 0.739481
O O10 0.962346 0.782053 0.630846
O O11 0.887887 0.000000 0.682747
O O12 0.021369 0.500000 0.410776
O O13 0.917766 0.312964 0.396018
O O14 0.000000 0.270485 0.500000
O O15 0.748196 0.500000 0.430694
O O16 0.750000 0.750000 0.500000
O O17 0.794443 0.746103 0.366541
O O18 0.653388 0.000000 0.685106
O O19 0.117025 0.748135 0.121117
O O20 0.183862 0.000000 0.104043
O O21 0.915915 0.500000 0.814690
#
# Coordination Sequence:
#
# PCOD8093292 Si02
#       8
#     8   8   8   8   8   8   8   8
#     4  10  22  40  63  93 124 156 199 244 289 351
#     4  10  21  38  61  86 119 161 201 247 298 352
#     4  11  23  37  56  86 121 154 191 243 305 359
#     4  10  19  35  61  84 108 151 200 242 289 349
#     4  10  22  39  59  83 113 150 194 242 296 357
#     4   9  18  36  57  81 112 150 195 238 289 349
#     4  10  22  41  64  90 124 161 195 240 298 352
#     4  11  23  40  62  89 121 158 205 249 291 354
#
# _framework density 19.619164999999999
#
# number of rings (size 3 to 8) (size 9 to 14) (size 15 to 20)
#    0.000    1.875    1.250    2.250    1.750    5.250 
#    0.000    3.750    0.000    0.000    0.000    0.000 
#    0.000    0.000    0.000    0.000    0.000    0.000 
#
# Total GULP energy -396879.753844 kJ/mol
# GULP energy per Si atom -12402.492308 kJ/mol
# Density = 1.957451 g / cm^3
# Si number density = 19.619165 Si / 1000 Ang^3
#
#
#
# Elastic Constant Matrix: (Units=GPa)
#
#
# Indices 1 2 3 4 5 6 
#
# 1 105.4803 38.9069 43.8322 0.0000 -9.0544 0.0000
# 2 38.9069 55.3091 34.9337 0.0000 -3.1672 0.0000
# 3 43.8322 34.9337 84.0795 0.0000 -2.7940 0.0000
# 4 0.0000 0.0000 0.0000 34.8609 0.0000 -0.3412
# 5 -9.0544 -3.1672 -2.7940 0.0000 38.8395 0.0000
# 6 0.0000 0.0000 0.0000 -0.3412 0.0000 26.7545
#
#
#
# Elastic Compliance Matrix: (Units=1/GPa)
#
#
# Indices 1 2 3 4 5 6 
#
# 1 0.014082 -0.007026 -0.004342 0.000000 0.002398 0.000000
# 2 -0.007026 0.028081 -0.008002 0.000000 0.000076 0.000000
# 3 -0.004342 -0.008002 0.017468 0.000000 -0.000408 0.000000
# 4 0.000000 0.000000 0.000000 0.028689 0.000000 0.000366
# 5 0.002398 0.000076 -0.000408 0.000000 0.026283 0.000000
# 6 0.000000 0.000000 0.000000 0.000366 0.000000 0.037382
#
#
# Mechanical properties :
#
#
# Convention : Reuss Voigt Hill
#
# Bulk Modulus (GPa) = 47.86766 53.35716 50.61241
# Shear Modulus (GPa) = 25.29215 28.57073 26.93144
#
# Velocity S-wave (km/s) = 3.59438 3.82025 3.70903
# Velocity P-wave (km/s) = 6.45581 6.83480 6.64801
#
# Compressibility (1/GPa) = 0.02089093
#
# Stress axis : x y z
#
# Youngs Moduli (GPa) = 71.01072 35.61117 57.24624
#
# Poissons Ratio (x) = 0.25021 0.24859
# Poissons Ratio (y) = 0.49893 0.45808
# Poissons Ratio (z) = 0.30836 0.28496
#
# Static dielectric constant tensor:
#      x y z
#    x 3.717130 0.000000 -0.070530 
#    y 0.000000 3.435970 0.000000 
#    z -0.070530 0.000000 3.691590 
# 
# 
# High freq. dielectric constant tensor:
#      x y z
#    x 1.773530 0.000000 -0.000940 
#    y 0.000000 1.748960 0.000000 
#    z -0.000940 0.000000 1.773540 
# 
# From -- ./inp_files/281398.got.cif
#   From: 2010.06.25/outbox.cif.g09.slc.cpg/sg12_141_cif.got.tgz:281398.got - 2010.06.28 00:19:55.
