data_PCOD8093402
_publ_section_title
;
Structure prediction by ZEFSAII (Michael W. Deem and Ramdas Pophale) SiO2 
 PCOD8093402
Probable space group: C 2/M
;
_chemical_formula_sum "Si O2"
_cell_formula_units_Z 48
_cell_length_a 17.504651
_cell_length_b 17.067031
_cell_length_c 10.282389
_cell_angle_alpha 90.000000
_cell_angle_beta 54.174677
_cell_angle_gamma 90.000000
_cell_volume 2490.703278
_symmetry_space_group_name_H-M "C 2/M"
_symmetry_group_IT_number 12
_symmetry_cell_setting 'monoclinic'
loop_
_space_group_symop_operation_xyz
x,y,z
-x,y,-z
-x,-y,-z
x,-y,z
1/2+x,1/2+y,z
1/2-x,1/2+y,-z
1/2-x,1/2-y,-z
1/2+x,1/2-y,z
loop_
_atom_site_type_symbol
_atom_site_label
_atom_site_fract_x
_atom_site_fract_y
_atom_site_fract_z
Si Si1 0.790795 0.407233 0.947870
Si Si2 0.896997 0.091681 0.458683
Si Si3 0.390575 0.907520 0.591059
Si Si4 0.889241 0.409028 0.112512
Si Si5 0.102403 0.093351 0.250127
Si Si6 0.716508 0.161688 0.543243
O O1 0.793036 0.500000 0.935377
O O2 0.835593 0.373797 0.771373
O O3 0.852229 0.380878 0.009822
O O4 0.683799 0.374878 0.072332
O O5 0.875324 0.123583 0.625563
O O6 0.813912 0.112975 0.442859
O O7 0.999172 0.124485 0.308519
O O8 0.907827 0.000000 0.455310
O O9 0.500000 0.887505 0.500000
O O10 0.350082 0.861364 0.509105
O O11 0.375939 0.000000 0.583508
O O12 0.863022 0.500000 0.167327
O O13 0.841740 0.354733 0.268120
O O14 0.000000 0.396253 0.000000
O O15 0.106658 0.000000 0.245191
O O16 0.750000 0.250000 0.500000
#
# Coordination Sequence:
#
# PCOD8093402 Si02
#       6
#     8   8   8   8   8   8
#     4   9  16  30  55  86 109 134 184 247 299 340
#     4   9  16  31  56  80 105 141 188 240 281 333
#     4  10  21  39  61  84 115 154 198 252 309 359
#     4  10  19  35  63  88 108 147 210 270 298 333
#     4   8  14  27  53  85 104 126 176 234 286 333
#     4  12  24  38  53  85 123 159 193 234 307 374
#
# _framework density 19.271664999999999
#
# number of rings (size 3 to 8) (size 9 to 14) (size 15 to 20)
#    0.000    2.333    1.667    3.500    0.000    2.667 
#    3.000    3.333    0.000    4.000    0.000    0.000 
#    0.000    0.000    0.000    0.000    0.000    0.000 
#
# Total GULP energy -297460.369220 kJ/mol
# GULP energy per Si atom -12394.182051 kJ/mol
# Density = 1.922780 g / cm^3
# Si number density = 19.271665 Si / 1000 Ang^3
#
#
#
# Elastic Constant Matrix: (Units=GPa)
#
#
# Indices 1 2 3 4 5 6 
#
# 1 145.9140 24.4041 60.1172 0.0000 -8.7285 0.0000
# 2 24.4041 38.6762 28.9882 0.0000 -1.2284 0.0000
# 3 60.1172 28.9882 126.5712 0.0000 -13.4256 0.0000
# 4 0.0000 0.0000 0.0000 15.2196 0.0000 -1.1061
# 5 -8.7285 -1.2284 -13.4256 0.0000 36.4015 0.0000
# 6 0.0000 0.0000 0.0000 -1.1061 0.0000 11.6209
#
#
#
# Elastic Compliance Matrix: (Units=1/GPa)
#
#
# Indices 1 2 3 4 5 6 
#
# 1 0.008805 -0.002966 -0.003423 0.000000 0.000749 0.000000
# 2 -0.002966 0.032308 -0.006193 0.000000 -0.001905 0.000000
# 3 -0.003423 -0.006193 0.011277 0.000000 0.003129 0.000000
# 4 0.000000 0.000000 0.000000 0.066163 0.000000 0.006297
# 5 0.000749 -0.001905 0.003129 0.000000 0.028741 0.000000
# 6 0.000000 0.000000 0.000000 0.006297 0.000000 0.086651
#
#
# Mechanical properties :
#
#
# Convention : Reuss Voigt Hill
#
# Bulk Modulus (GPa) = 36.73003 59.79781 48.26392
# Shear Modulus (GPa) = 18.64396 25.82519 22.23457
#
# Velocity S-wave (km/s) = 3.11373 3.66465 3.40037
# Velocity P-wave (km/s) = 5.65929 7.00018 6.36514
#
# Compressibility (1/GPa) = 0.02722568
#
# Stress axis : x y z
#
# Youngs Moduli (GPa) = 113.57746 30.95190 88.67753
#
# Poissons Ratio (x) = 0.09181 0.30356
# Poissons Ratio (y) = 0.33688 0.54915
# Poissons Ratio (z) = 0.38879 0.19168
#
# Static dielectric constant tensor:
#      x y z
#    x -0.709450 0.000000 0.079180 
#    y 0.000000 2.968970 0.000000 
#    z 0.079180 0.000000 3.773980 
# 
# 
# High freq. dielectric constant tensor:
#      x y z
#    x 1.766090 0.000000 -0.019000 
#    y 0.000000 1.696520 0.000000 
#    z -0.019000 0.000000 1.750300 
# 
# From -- ./inp_files/75076.got.cif
#   From: 2010.06.25/outbox.cif.g09.slc.cpg/sg12_38_cif.got.tgz:75076.got - 2010.06.28 00:19:55.
