data_PCOD8093816
_publ_section_title
;
Structure prediction by ZEFSAII (Michael W. Deem and Ramdas Pophale) SiO2 
 PCOD8093816
Probable space group: C 2/M
;
_chemical_formula_sum "Si O2"
_cell_formula_units_Z 32
_cell_length_a 7.226273
_cell_length_b 18.903553
_cell_length_c 13.879937
_cell_angle_alpha 90.000000
_cell_angle_beta 141.067738
_cell_angle_gamma 90.000000
_cell_volume 1191.467728
_symmetry_space_group_name_H-M "C 2/M"
_symmetry_group_IT_number 12
_symmetry_cell_setting 'monoclinic'
loop_
_space_group_symop_operation_xyz
x,y,z
-x,y,-z
-x,-y,-z
x,-y,z
1/2+x,1/2+y,z
1/2-x,1/2+y,-z
1/2-x,1/2-y,-z
1/2+x,1/2-y,z
loop_
_atom_site_type_symbol
_atom_site_label
_atom_site_fract_x
_atom_site_fract_y
_atom_site_fract_z
Si Si1 0.848165 0.079237 0.124827
Si Si2 0.648280 0.080571 0.837136
Si Si3 0.464202 0.827108 0.372790
Si Si4 0.411779 0.330012 0.328452
O O1 0.999730 0.138698 0.256135
O O2 0.951361 0.000000 0.196137
O O3 0.500000 0.085909 0.000000
O O4 0.889967 0.087734 0.022745
O O5 0.722309 0.109906 0.756921
O O6 0.371105 0.128459 0.750607
O O7 0.545235 0.000000 0.786412
O O8 0.500000 0.832937 0.500000
O O9 0.332978 0.752665 0.282488
O O10 0.813384 0.834754 0.484868
#
# Coordination Sequence:
#
# PCOD8093816 Si02
#       4
#     8   8   8   8
#     4   8  16  33  59  88 110 136 189 247 282 325
#     4  10  21  39  63  87 111 147 195 238 280 338
#     4  11  23  36  52  83 123 154 186 231 281 336
#     4  10  19  36  60  82 112 152 192 234 281 335
#
# _framework density 26.85763
#
# number of rings (size 3 to 8) (size 9 to 14) (size 15 to 20)
#    0.000    2.250    0.000    6.000    0.000    4.500 
#    0.000    3.750    0.000    3.000    0.000    0.000 
#    0.000    0.000    0.000    0.000    0.000    0.000 
#
# Total GULP energy -198396.172816 kJ/mol
# GULP energy per Si atom -12399.760801 kJ/mol
# Density = 2.679650 g / cm^3
# Si number density = 26.857630 Si / 1000 Ang^3
#
#
#
# Elastic Constant Matrix: (Units=GPa)
#
#
# Indices 1 2 3 4 5 6 
#
# 1 125.9037 54.5725 59.4161 -0.0016 -24.9936 0.0009
# 2 54.5725 254.8816 154.3101 0.0001 -9.1250 0.0004
# 3 59.4161 154.3101 171.1122 -0.0115 -7.6474 -0.0010
# 4 -0.0016 0.0001 -0.0115 64.7528 -0.0034 -9.0139
# 5 -24.9936 -9.1250 -7.6474 -0.0034 40.9052 0.0005
# 6 0.0009 0.0004 -0.0010 -9.0139 0.0005 31.5319
#
#
#
# Elastic Compliance Matrix: (Units=1/GPa)
#
#
# Indices 1 2 3 4 5 6 
#
# 1 0.010756 0.000022 -0.003490 0.000000 0.005925 -0.000001
# 2 0.000022 0.008650 -0.007787 -0.000001 0.000487 -0.000001
# 3 -0.003490 -0.007787 0.014022 0.000003 -0.001248 0.000001
# 4 0.000000 -0.000001 0.000003 0.016083 0.000001 0.004598
# 5 0.005925 0.000487 -0.001248 0.000001 0.027942 0.000000
# 6 -0.000001 -0.000001 0.000001 0.004598 0.000000 0.033028
#
#
# Mechanical properties :
#
#
# Convention : Reuss Voigt Hill
#
# Bulk Modulus (GPa) = 91.58073 120.94388 106.26230
# Shear Modulus (GPa) = 36.59455 46.34458 41.46956
#
# Velocity S-wave (km/s) = 3.69526 4.15850 3.93370
# Velocity P-wave (km/s) = 7.23735 8.25752 7.76421
#
# Compressibility (1/GPa) = 0.01091933
#
# Stress axis : x y z
#
# Youngs Moduli (GPa) = 92.97030 115.60068 71.31409
#
# Poissons Ratio (x) = -0.00255 0.24888
# Poissons Ratio (y) = -0.00205 0.55532
# Poissons Ratio (z) = 0.32446 0.90017
#
# Static dielectric constant tensor:
#      x y z
#    x 7.356380 0.000000 -0.061440 
#    y 0.000000 4.744980 0.000000 
#    z -0.061440 0.000000 6.243730 
# 
# 
# High freq. dielectric constant tensor:
#      x y z
#    x 2.187910 0.000000 0.009120 
#    y 0.000000 2.058040 0.000000 
#    z 0.009120 0.000000 2.116730 
# 
# From -- ./inp_files/196671.got.cif
#   From: 2010.06.25/outbox.cif.g09.slc.cpg/sg12_99_cif.got.tgz:196671.got - 2010.06.28 00:19:55.
