data_PCOD8093592
_publ_section_title
;
Structure prediction by ZEFSAII (Michael W. Deem and Ramdas Pophale) SiO2 
 PCOD8093592
Probable space group: C 2/M
;
_chemical_formula_sum "Si O2"
_cell_formula_units_Z 64
_cell_length_a 20.193996
_cell_length_b 9.208784
_cell_length_c 19.447441
_cell_angle_alpha 90.000000
_cell_angle_beta 101.315679
_cell_angle_gamma 90.000000
_cell_volume 3546.186983
_symmetry_space_group_name_H-M "C 2/M"
_symmetry_group_IT_number 12
_symmetry_cell_setting 'monoclinic'
loop_
_space_group_symop_operation_xyz
x,y,z
-x,y,-z
-x,-y,-z
x,-y,z
1/2+x,1/2+y,z
1/2-x,1/2+y,-z
1/2-x,1/2-y,-z
1/2+x,1/2-y,z
loop_
_atom_site_type_symbol
_atom_site_label
_atom_site_fract_x
_atom_site_fract_y
_atom_site_fract_z
Si Si1 0.806475 0.164144 0.423434
Si Si2 0.846500 0.336222 0.556642
Si Si3 0.269691 0.171881 0.135392
Si Si4 0.264446 0.830858 0.287962
Si Si5 0.875371 0.830339 0.939485
Si Si6 0.901570 0.327825 0.081486
Si Si7 0.975175 0.167066 0.835852
Si Si8 0.115862 0.166217 0.309383
O O1 0.854272 0.247574 0.487315
O O2 0.730352 0.168041 0.434586
O O3 0.810989 0.242807 0.350717
O O4 0.832797 0.000000 0.421207
O O5 0.871186 0.500000 0.549010
O O6 0.893089 0.264824 0.624917
O O7 0.280929 0.229290 0.215201
O O8 0.200038 0.231216 0.088817
O O9 0.331027 0.223756 0.100321
O O10 0.263667 0.000000 0.138691
O O11 0.185688 0.801162 0.284825
O O12 0.282020 0.000000 0.300026
O O13 0.918530 0.798930 0.880714
O O14 0.875174 0.000000 0.958568
O O15 0.909285 0.742757 0.008369
O O16 0.905856 0.500000 0.076112
O O17 0.961335 0.271871 0.142123
O O18 0.944841 0.201231 0.754852
O O19 0.998436 0.000000 0.846332
O O20 0.114363 0.000000 0.333580
#
# Coordination Sequence:
#
# PCOD8093592 Si02
#       8
#     8   8   8   8   8   8   8   8
#     4   9  16  25  38  63  98 130 159 195 239 286
#     4   9  16  25  39  63  96 131 161 193 238 289
#     4   9  18  34  54  74  97 129 168 206 248 298
#     4   9  15  28  49  69  90 122 164 205 242 285
#     4  10  19  36  58  74  92 127 172 210 245 295
#     4  11  23  35  49  74 105 131 159 204 257 301
#     4  10  20  35  54  74  96 130 171 206 245 297
#     4   9  16  28  48  70  91 121 163 207 244 281
#
# _framework density 18.047553000000001
#
# number of rings (size 3 to 8) (size 9 to 14) (size 15 to 20)
#    0.000    2.500    1.250    1.875    0.000    5.500 
#    0.000    2.500    0.000    0.000    0.000    0.875 
#    0.000    7.000    0.000    0.000    0.000    0.000 
#
# Total GULP energy -396832.099840 kJ/mol
# GULP energy per Si atom -12401.003120 kJ/mol
# Density = 1.800648 g / cm^3
# Si number density = 18.047553 Si / 1000 Ang^3
#
#
#
# Elastic Constant Matrix: (Units=GPa)
#
#
# Indices 1 2 3 4 5 6 
#
# 1 56.5096 24.3563 17.5925 0.0000 15.8161 0.0000
# 2 24.3563 84.4426 50.2241 0.0000 12.0235 0.0000
# 3 17.5925 50.2241 115.4846 0.0000 22.0190 0.0000
# 4 0.0000 0.0000 0.0000 30.1346 0.0000 4.6096
# 5 15.8161 12.0235 22.0190 0.0000 15.7013 0.0000
# 6 0.0000 0.0000 0.0000 4.6096 0.0000 18.7457
#
#
#
# Elastic Compliance Matrix: (Units=1/GPa)
#
#
# Indices 1 2 3 4 5 6 
#
# 1 0.026920 -0.006094 0.003863 0.000000 -0.027867 0.000000
# 2 -0.006094 0.017488 -0.007227 0.000000 0.002881 0.000000
# 3 0.003863 -0.007227 0.014879 0.000000 -0.019222 0.000000
# 4 0.000000 0.000000 0.000000 0.034481 0.000000 -0.008479
# 5 -0.027867 0.002881 -0.019222 0.000000 0.116510 0.000000
# 6 0.000000 0.000000 0.000000 -0.008479 0.000000 0.055430
#
#
# Mechanical properties :
#
#
# Convention : Reuss Voigt Hill
#
# Bulk Modulus (GPa) = 24.77061 48.97581 36.87321
# Shear Modulus (GPa) = 16.77396 23.86725 20.32061
#
# Velocity S-wave (km/s) = 3.05197 3.64052 3.35916
# Velocity P-wave (km/s) = 5.11608 6.69829 5.95993
#
# Compressibility (1/GPa) = 0.04037042
#
# Stress axis : x y z
#
# Youngs Moduli (GPa) = 37.14753 57.18200 67.21066
#
# Poissons Ratio (x) = 0.34848 -0.25962
# Poissons Ratio (y) = 0.22638 0.48570
# Poissons Ratio (z) = -0.14349 0.41323
#
# Static dielectric constant tensor:
#      x y z
#    x 3.007030 0.000000 0.105840 
#    y 0.000000 3.242990 0.000000 
#    z 0.105840 0.000000 3.494680 
# 
# 
# High freq. dielectric constant tensor:
#      x y z
#    x 1.652990 0.000000 0.010910 
#    y 0.000000 1.688730 0.000000 
#    z 0.010910 0.000000 1.714250 
# 
# From -- ./inp_files/319233.got.cif
#   From: 2010.06.25/outbox.cif.g09.slc.cpg/sg12_160_cif.got.tgz:319233.got - 2010.06.28 00:19:55.
