data_PCOD8093062
_publ_section_title
;
Structure prediction by ZEFSAII (Michael W. Deem and Ramdas Pophale) SiO2 
 PCOD8093062
Probable space group: C 2/M
;
_chemical_formula_sum "Si O2"
_cell_formula_units_Z 48
_cell_length_a 19.221675
_cell_length_b 16.789924
_cell_length_c 9.525801
_cell_angle_alpha 90.000000
_cell_angle_beta 50.869747
_cell_angle_gamma 90.000000
_cell_volume 2384.749128
_symmetry_space_group_name_H-M "C 2/M"
_symmetry_group_IT_number 12
_symmetry_cell_setting 'monoclinic'
loop_
_space_group_symop_operation_xyz
x,y,z
-x,y,-z
-x,-y,-z
x,-y,z
1/2+x,1/2+y,z
1/2-x,1/2+y,-z
1/2-x,1/2-y,-z
1/2+x,1/2-y,z
loop_
_atom_site_type_symbol
_atom_site_label
_atom_site_fract_x
_atom_site_fract_y
_atom_site_fract_z
Si Si1 0.602725 0.907385 0.895471
Si Si2 0.745518 0.907644 0.488224
Si Si3 0.394816 0.592653 0.501035
Si Si4 0.838997 0.696850 0.919771
Si Si5 0.755051 0.591854 0.820684
Si Si6 0.589135 0.645008 0.211885
O O1 0.650626 0.894423 0.684915
O O2 0.611301 0.000000 0.933253
O O3 0.500000 0.883160 0.000000
O O4 0.652473 0.850109 0.943977
O O5 0.824695 0.869460 0.481079
O O6 0.746444 0.868405 0.332555
O O7 0.768630 0.000000 0.440867
O O8 0.376625 0.500000 0.551647
O O9 0.493552 0.604132 0.311464
O O10 0.378824 0.636113 0.668677
O O11 0.838117 0.630758 0.799178
O O12 0.920216 0.760065 0.806656
O O13 0.750000 0.750000 0.000000
O O14 0.778930 0.500000 0.779504
O O15 0.659448 0.603833 0.017759
#
# Coordination Sequence:
#
# PCOD8093062 Si02
#       6
#     8   8   8   8   8   8
#     4  10  21  42  67  86 111 157 210 250 288 353
#     4   9  19  35  58  88 111 141 193 245 289 337
#     4  10  19  36  61  84 115 157 200 234 277 355
#     4  10  21  38  56  85 120 154 194 240 299 357
#     4  10  19  35  59  84 115 152 193 242 292 343
#     4  10  20  35  53  85 120 152 193 237 291 351
#
# _framework density 20.127901999999999
#
# number of rings (size 3 to 8) (size 9 to 14) (size 15 to 20)
#    0.000    2.167    0.000    4.500    0.000    2.000 
#   12.000    6.667    0.000    4.000    0.000    0.000 
#    0.000    0.000    0.000    0.000    0.000    0.000 
#
# Total GULP energy -297447.979076 kJ/mol
# GULP energy per Si atom -12393.665795 kJ/mol
# Density = 2.008209 g / cm^3
# Si number density = 20.127902 Si / 1000 Ang^3
#
#
#
# Elastic Constant Matrix: (Units=GPa)
#
#
# Indices 1 2 3 4 5 6 
#
# 1 85.4607 18.5420 36.3515 0.0000 10.6153 0.0000
# 2 18.5420 75.7071 22.3919 0.0000 12.4640 0.0000
# 3 36.3515 22.3919 100.8403 0.0000 19.7978 0.0000
# 4 0.0000 0.0000 0.0000 18.1636 0.0000 2.0272
# 5 10.6153 12.4640 19.7978 0.0000 29.6391 0.0000
# 6 0.0000 0.0000 0.0000 2.0272 0.0000 24.5373
#
#
#
# Elastic Compliance Matrix: (Units=1/GPa)
#
#
# Indices 1 2 3 4 5 6 
#
# 1 0.014165 -0.001948 -0.004418 0.000000 -0.001303 0.000000
# 2 -0.001948 0.014929 -0.001746 0.000000 -0.004414 0.000000
# 3 -0.004418 -0.001746 0.013169 0.000000 -0.006480 0.000000
# 4 0.000000 0.000000 0.000000 0.055568 0.000000 -0.004591
# 5 -0.001303 -0.004414 -0.006480 0.000000 0.040390 0.000000
# 6 0.000000 0.000000 0.000000 -0.004591 0.000000 0.041134
#
#
# Mechanical properties :
#
#
# Convention : Reuss Voigt Hill
#
# Bulk Modulus (GPa) = 38.40399 46.28654 42.34526
# Shear Modulus (GPa) = 24.47875 26.78284 25.63079
#
# Velocity S-wave (km/s) = 3.49113 3.65174 3.57234
# Velocity P-wave (km/s) = 5.94744 6.38956 6.17246
#
# Compressibility (1/GPa) = 0.02603896
#
# Stress axis : x y z
#
# Youngs Moduli (GPa) = 70.59666 66.98338 75.93472
#
# Poissons Ratio (x) = 0.13049 0.33547
# Poissons Ratio (y) = 0.13753 0.13260
# Poissons Ratio (z) = 0.31189 0.11697
#
# Static dielectric constant tensor:
#      x y z
#    x 3.829010 0.000000 0.163560 
#    y 0.000000 3.915850 0.000000 
#    z 0.163560 0.000000 3.659190 
# 
# 
# High freq. dielectric constant tensor:
#      x y z
#    x 1.781170 0.000000 0.008930 
#    y 0.000000 1.780200 0.000000 
#    z 0.008930 0.000000 1.782120 
# 
# From -- ./inp_files/75047.got.cif
#   From: 2010.06.25/outbox.cif.g09.slc.cpg/sg12_38_cif.got.tgz:75047.got - 2010.06.28 00:19:55.
