data_PCOD8093950
_publ_section_title
;
Structure prediction by ZEFSAII (Michael W. Deem and Ramdas Pophale) SiO2 
 PCOD8093950
Probable space group: C 2/M
;
_chemical_formula_sum "Si O2"
_cell_formula_units_Z 56
_cell_length_a 18.912058
_cell_length_b 13.909496
_cell_length_c 21.406450
_cell_angle_alpha 90.000000
_cell_angle_beta 31.897983
_cell_angle_gamma 90.000000
_cell_volume 2975.531745
_symmetry_space_group_name_H-M "C 2/M"
_symmetry_group_IT_number 12
_symmetry_cell_setting 'monoclinic'
loop_
_space_group_symop_operation_xyz
x,y,z
-x,y,-z
-x,-y,-z
x,-y,z
1/2+x,1/2+y,z
1/2-x,1/2+y,-z
1/2-x,1/2-y,-z
1/2+x,1/2-y,z
loop_
_atom_site_type_symbol
_atom_site_label
_atom_site_fract_x
_atom_site_fract_y
_atom_site_fract_z
Si Si1 0.903762 0.291862 0.012969
Si Si2 0.634017 0.611751 0.225216
Si Si3 0.199065 0.725026 0.607853
Si Si4 0.443178 0.388187 0.475434
Si Si5 0.464074 0.112770 0.839230
Si Si6 0.965892 0.107199 0.238227
Si Si7 0.808083 0.106072 0.029092
O O1 0.977841 0.326106 0.893590
O O2 0.790097 0.368581 0.113178
O O3 0.826255 0.189341 0.066470
O O4 0.000000 0.288071 0.000000
O O5 0.617582 0.500000 0.228224
O O6 0.559386 0.648123 0.342590
O O7 0.559799 0.656837 0.220856
O O8 0.250000 0.750000 0.500000
O O9 0.312725 0.674540 0.562708
O O10 0.069685 0.653987 0.709158
O O11 0.164395 0.825312 0.668653
O O12 0.500000 0.366669 0.500000
O O13 0.406673 0.500000 0.492983
O O14 0.314116 0.128311 0.925984
O O15 0.492409 0.000000 0.830615
O O16 0.915874 0.000000 0.292926
O O17 0.050526 0.105392 0.112056
O O18 0.785715 0.000000 0.076647
#
# Coordination Sequence:
#
# PCOD8093950 Si02
#       7
#     8   8   8   8   8   8   8
#     4  12  24  36  59  92 124 156 190 240 299 358
#     4  10  20  36  57  84 117 154 193 237 295 358
#     4  12  23  36  60  88 116 156 197 248 288 345
#     4  10  23  40  57  81 120 164 197 233 289 356
#     4  11  23  39  61  91 121 149 193 251 300 346
#     4  10  19  36  61  85 110 147 198 246 289 341
#     4  10  21  40  63  83 112 155 197 242 293 345
#
# _framework density 18.820166
#
# number of rings (size 3 to 8) (size 9 to 14) (size 15 to 20)
#    0.000    1.286    4.286    2.143    2.000    2.000 
#    0.000    0.000    0.000    0.429    0.000    0.000 
#    0.000    0.000    0.000    0.000    0.000    0.000 
#
# Total GULP energy -347071.304140 kJ/mol
# GULP energy per Si atom -12395.403719 kJ/mol
# Density = 1.877733 g / cm^3
# Si number density = 18.820166 Si / 1000 Ang^3
#
#
#
# Elastic Constant Matrix: (Units=GPa)
#
#
# Indices 1 2 3 4 5 6 
#
# 1 66.7905 22.3146 17.7687 0.0028 -17.9581 -0.0003
# 2 22.3146 82.6120 28.3824 0.0035 -14.0890 -0.0007
# 3 17.7687 28.3824 96.8008 0.0046 -7.4512 -0.0013
# 4 0.0028 0.0035 0.0046 30.3342 0.0002 -12.3473
# 5 -17.9581 -14.0890 -7.4512 0.0002 16.2377 -0.0002
# 6 -0.0003 -0.0007 -0.0013 -12.3473 -0.0002 22.4132
#
#
#
# Elastic Compliance Matrix: (Units=1/GPa)
#
#
# Indices 1 2 3 4 5 6 
#
# 1 0.021907 -0.001510 -0.001881 -0.000002 0.022055 -0.000001
# 2 -0.001510 0.015431 -0.003468 -0.000001 0.010128 0.000000
# 3 -0.001881 -0.003468 0.011715 -0.000001 0.000287 0.000000
# 4 -0.000002 -0.000001 -0.000001 0.042495 -0.000004 0.023410
# 5 0.022055 0.010128 0.000287 -0.000004 0.094897 -0.000001
# 6 -0.000001 0.000000 0.000000 0.023410 -0.000001 0.057513
#
#
# Mechanical properties :
#
#
# Convention : Reuss Voigt Hill
#
# Bulk Modulus (GPa) = 28.29978 42.57052 35.43515
# Shear Modulus (GPa) = 18.55610 25.64619 22.10114
#
# Velocity S-wave (km/s) = 3.14342 3.69548 3.43057
# Velocity P-wave (km/s) = 5.31454 6.39355 5.87885
#
# Compressibility (1/GPa) = 0.03533596
#
# Stress axis : x y z
#
# Youngs Moduli (GPa) = 45.64756 64.80327 85.36381
#
# Poissons Ratio (x) = 0.09784 0.16056
# Poissons Ratio (y) = 0.06892 0.29602
# Poissons Ratio (z) = 0.08586 0.22472
#
# Static dielectric constant tensor:
#      x y z
#    x 3.114380 0.000000 0.042430 
#    y 0.000000 3.770200 0.000000 
#    z 0.042430 0.000000 3.557980 
# 
# 
# High freq. dielectric constant tensor:
#      x y z
#    x 1.701630 0.000000 -0.001110 
#    y 0.000000 1.743150 0.000000 
#    z -0.001110 0.000000 1.734720 
# 
# From -- ./inp_files/189168.got.cif
#   From: 2010.06.25/outbox.cif.g09.slc.cpg/sg12_95_cif.got.tgz:189168.got - 2010.06.28 00:19:55.
