data_PCOD8093365
_publ_section_title
;
Structure prediction by ZEFSAII (Michael W. Deem and Ramdas Pophale) SiO2 
 PCOD8093365
Probable space group: C 2/M
;
_chemical_formula_sum "Si O2"
_cell_formula_units_Z 40
_cell_length_a 15.577403
_cell_length_b 22.640757
_cell_length_c 6.340234
_cell_angle_alpha 90.000000
_cell_angle_beta 117.859194
_cell_angle_gamma 90.000000
_cell_volume 1976.933318
_symmetry_space_group_name_H-M "C 2/M"
_symmetry_group_IT_number 12
_symmetry_cell_setting 'monoclinic'
loop_
_space_group_symop_operation_xyz
x,y,z
-x,y,-z
-x,-y,-z
x,-y,z
1/2+x,1/2+y,z
1/2-x,1/2+y,-z
1/2-x,1/2-y,-z
1/2+x,1/2-y,z
loop_
_atom_site_type_symbol
_atom_site_label
_atom_site_fract_x
_atom_site_fract_y
_atom_site_fract_z
Si Si1 0.403265 0.710651 0.518855
Si Si2 0.762716 0.857231 0.074159
Si Si3 0.278006 0.933232 0.593914
Si Si4 0.894080 0.112964 0.844141
Si Si5 0.893653 0.342721 0.442177
O O1 0.500000 0.694530 0.500000
O O2 0.306925 0.692876 0.277255
O O3 0.403853 0.676706 0.741691
O O4 0.399124 0.780038 0.568528
O O5 0.724986 0.912630 0.167703
O O6 0.846432 0.879866 0.016628
O O7 0.671189 0.832310 0.840528
O O8 0.169491 0.930535 0.373417
O O9 0.349460 0.891683 0.543645
O O10 0.316957 0.000000 0.629215
O O11 0.000000 0.084520 0.000000
O O12 0.000000 0.364823 0.500000
#
# Coordination Sequence:
#
# PCOD8093365 Si02
#       5
#     8   8   8   8   8
#     4  10  19  35  61  94 126 153 185 236 301 372
#     4  10  21  37  60  86 125 157 196 241 299 347
#     4  10  24  42  59  84 119 159 210 252 287 338
#     4  10  20  37  63  93 123 156 189 236 303 367
#     4  10  23  40  60  90 118 156 202 244 297 351
#
# _framework density 20.233360000000001
#
# number of rings (size 3 to 8) (size 9 to 14) (size 15 to 20)
#    0.000    2.000    2.000    0.600    0.000   13.600 
#    0.000    2.000    0.000    0.000    0.000    0.000 
#    0.000    0.000    0.000    0.000    0.000    0.000 
#
# Total GULP energy -248048.097989 kJ/mol
# GULP energy per Si atom -12402.404899 kJ/mol
# Density = 2.018731 g / cm^3
# Si number density = 20.233360 Si / 1000 Ang^3
#
#
#
# Elastic Constant Matrix: (Units=GPa)
#
#
# Indices 1 2 3 4 5 6 
#
# 1 125.5745 42.2854 42.9031 0.0000 2.6056 0.0000
# 2 42.2854 121.0369 21.5186 0.0000 -22.4053 0.0000
# 3 42.9031 21.5186 68.4474 0.0000 -13.2570 0.0000
# 4 0.0000 0.0000 0.0000 16.1015 0.0000 -3.3133
# 5 2.6056 -22.4053 -13.2570 0.0000 36.2690 0.0000
# 6 0.0000 0.0000 0.0000 -3.3133 0.0000 21.1713
#
#
#
# Elastic Compliance Matrix: (Units=1/GPa)
#
#
# Indices 1 2 3 4 5 6 
#
# 1 0.011960 -0.003976 -0.007414 0.000000 -0.006025 0.000000
# 2 -0.003976 0.010900 0.000457 0.000000 0.007186 0.000000
# 3 -0.007414 0.000457 0.020739 0.000000 0.008395 0.000000
# 4 0.000000 0.000000 0.000000 0.064173 0.000000 0.010043
# 5 -0.006025 0.007186 0.008395 0.000000 0.035512 0.000000
# 6 0.000000 0.000000 0.000000 0.010043 0.000000 0.048805
#
#
# Mechanical properties :
#
#
# Convention : Reuss Voigt Hill
#
# Bulk Modulus (GPa) = 46.01002 58.71923 52.36463
# Shear Modulus (GPa) = 22.60410 28.59849 25.60129
#
# Velocity S-wave (km/s) = 3.34604 3.76364 3.56097
# Velocity P-wave (km/s) = 6.14142 6.92609 6.54552
#
# Compressibility (1/GPa) = 0.02173439
#
# Stress axis : x y z
#
# Youngs Moduli (GPa) = 83.61161 91.74454 48.21826
#
# Poissons Ratio (x) = 0.36474 0.35747
# Poissons Ratio (y) = 0.33241 -0.02204
# Poissons Ratio (z) = 0.61987 -0.04193
#
# Static dielectric constant tensor:
#      x y z
#    x 3.768920 0.000000 0.115610 
#    y 0.000000 3.349720 0.000000 
#    z 0.115610 0.000000 3.765570 
# 
# 
# High freq. dielectric constant tensor:
#      x y z
#    x 1.799010 0.000000 0.000500 
#    y 0.000000 1.766950 0.000000 
#    z 0.000500 0.000000 1.794290 
# 
# From -- ./inp_files/11329.got.cif
#   From: 2010.06.25/outbox.cif.g09.slc.cpg/sg12_6_cif.got.tgz:11329.got - 2010.06.28 00:19:55.
