data_PCOD8093305
_publ_section_title
;
Structure prediction by ZEFSAII (Michael W. Deem and Ramdas Pophale) SiO2 
 PCOD8093305
Probable space group: C 2/M
;
_chemical_formula_sum "Si O2"
_cell_formula_units_Z 60
_cell_length_a 9.728537
_cell_length_b 14.956235
_cell_length_c 21.339411
_cell_angle_alpha 90.000000
_cell_angle_beta 117.969858
_cell_angle_gamma 90.000000
_cell_volume 2742.259655
_symmetry_space_group_name_H-M "C 2/M"
_symmetry_group_IT_number 12
_symmetry_cell_setting 'monoclinic'
loop_
_space_group_symop_operation_xyz
x,y,z
-x,y,-z
-x,-y,-z
x,-y,z
1/2+x,1/2+y,z
1/2-x,1/2+y,-z
1/2-x,1/2-y,-z
1/2+x,1/2-y,z
loop_
_atom_site_type_symbol
_atom_site_label
_atom_site_fract_x
_atom_site_fract_y
_atom_site_fract_z
Si Si1 0.439988 0.100011 0.679843
Si Si2 0.407197 0.599389 0.688415
Si Si3 0.500000 0.248424 0.000000
Si Si4 0.071321 0.606857 0.579623
Si Si5 0.219612 0.866069 0.209803
Si Si6 0.790722 0.900688 0.930990
Si Si7 0.943196 0.401462 0.889394
Si Si8 0.238647 0.832227 0.743472
O O1 0.465020 0.140337 0.615098
O O2 0.606854 0.094966 0.749183
O O3 0.316756 0.159975 0.691554
O O4 0.370746 0.000000 0.661699
O O5 0.435111 0.500000 0.667673
O O6 0.248353 0.642017 0.625897
O O7 0.391091 0.592913 0.760290
O O8 0.552628 0.659222 0.698060
O O9 0.636731 0.320377 0.010663
O O10 0.572805 0.182235 0.067238
O O11 0.075146 0.500000 0.581558
O O12 0.000000 0.644819 0.500000
O O13 0.147272 0.890587 0.127022
O O14 0.218298 0.760877 0.217348
O O15 0.606792 0.889101 0.890044
O O16 0.837418 0.000000 0.966524
O O17 0.934012 0.500000 0.920739
O O18 0.810035 0.403324 0.807629
#
# Coordination Sequence:
#
# PCOD8093305 Si02
#       8
#     8   8   4   8   8   8   8   8
#     4  10  19  35  61  86 113 158 206 246 302 369
#     4  10  21  35  57  90 121 151 200 258 301 351
#     4  12  24  42  62  90 118 156 204 256 316 370
#     4   8  16  34  60  89 123 163 203 246 300 366
#     4  11  21  37  59  84 117 156 202 248 308 369
#     4  11  23  42  64  87 116 156 207 258 307 372
#     4  11  24  42  62  84 121 163 203 251 314 381
#     4  12  22  36  58  89 122 154 203 258 312 356
#
# _framework density 21.879764999999999
#
# number of rings (size 3 to 8) (size 9 to 14) (size 15 to 20)
#    0.000    1.467    2.667    4.800    0.000    0.000 
#    2.400    0.667    0.000   16.000    0.000    0.000 
#    0.000    0.000    0.000    0.000    0.000    0.133 
#
# Total GULP energy -371813.973421 kJ/mol
# GULP energy per Si atom -12393.799114 kJ/mol
# Density = 2.182997 g / cm^3
# Si number density = 21.879765 Si / 1000 Ang^3
#
#
#
# Elastic Constant Matrix: (Units=GPa)
#
#
# Indices 1 2 3 4 5 6 
#
# 1 121.0392 24.6690 30.5668 0.0000 3.3890 0.0000
# 2 24.6690 121.3157 19.0218 0.0000 -0.5293 0.0000
# 3 30.5668 19.0218 86.2551 0.0000 1.8867 0.0000
# 4 0.0000 0.0000 0.0000 21.6621 0.0000 -54.6587
# 5 3.3890 -0.5293 1.8867 0.0000 23.6412 0.0000
# 6 0.0000 0.0000 0.0000 -54.6587 0.0000 -169.6396
#
#
#
# Elastic Compliance Matrix: (Units=1/GPa)
#
#
# Indices 1 2 3 4 5 6 
#
# 1 0.009336 -0.001438 -0.002966 0.000000 -0.001134 0.000000
# 2 -0.001438 0.008763 -0.001434 0.000000 0.000517 0.000000
# 3 -0.002966 -0.001434 0.012975 0.000000 -0.000642 0.000000
# 4 0.000000 0.000000 0.000000 0.025463 0.000000 -0.008204
# 5 -0.001134 0.000517 -0.000642 0.000000 0.042524 0.000000
# 6 0.000000 0.000000 0.000000 -0.008204 0.000000 -0.003251
#
#
# Mechanical properties :
#
#
# Convention : Reuss Voigt Hill
#
# Bulk Modulus (GPa) = 51.55698 53.01392 52.28545
# Shear Modulus (GPa) = 43.87831 -7.91044 17.98394
#
# Velocity S-wave (km/s) = 4.48306 -1.90349 2.87007
# Velocity P-wave (km/s) = 7.10014 4.41036 5.91030
#
# Compressibility (1/GPa) = 0.01939602
#
# Stress axis : x y z
#
# Youngs Moduli (GPa) = 107.11475 114.12252 77.07104
#
# Poissons Ratio (x) = 0.16413 0.22863
# Poissons Ratio (y) = 0.15405 0.11052
# Poissons Ratio (z) = 0.31775 0.16365
#
# Static dielectric constant tensor:
#      x y z
#    x 3.814870 0.000000 -0.039950 
#    y 0.000000 4.005260 0.000000 
#    z -0.039950 0.000000 3.873840 
# 
# 
# High freq. dielectric constant tensor:
#      x y z
#    x 1.847430 0.000000 -0.000250 
#    y 0.000000 1.867370 0.000000 
#    z -0.000250 0.000000 1.832240 
# 
# From -- ./inp_files/332984.got.cif
#   From: 2010.06.25/outbox.cif.g09.slc.cpg/sg12_167_cif.got.tgz:332984.got - 2010.06.28 00:19:55.
