data_PCOD8093673
_publ_section_title
;
Structure prediction by ZEFSAII (Michael W. Deem and Ramdas Pophale) SiO2 
 PCOD8093673
Probable space group: C 2/M
;
_chemical_formula_sum "Si O2"
_cell_formula_units_Z 56
_cell_length_a 12.169582
_cell_length_b 17.223824
_cell_length_c 13.330613
_cell_angle_alpha 90.000000
_cell_angle_beta 108.954814
_cell_angle_gamma 90.000000
_cell_volume 2642.671670
_symmetry_space_group_name_H-M "C 2/M"
_symmetry_group_IT_number 12
_symmetry_cell_setting 'monoclinic'
loop_
_space_group_symop_operation_xyz
x,y,z
-x,y,-z
-x,-y,-z
x,-y,z
1/2+x,1/2+y,z
1/2-x,1/2+y,-z
1/2-x,1/2-y,-z
1/2+x,1/2-y,z
loop_
_atom_site_type_symbol
_atom_site_label
_atom_site_fract_x
_atom_site_fract_y
_atom_site_fract_z
Si Si1 0.339389 0.676572 0.674977
Si Si2 0.887559 0.629139 0.905085
Si Si3 0.870129 0.411490 0.480464
Si Si4 0.672913 0.416700 0.938612
Si Si5 0.376193 0.693209 0.915604
Si Si6 0.695906 0.855583 0.328206
Si Si7 0.066205 0.092776 0.703525
O O1 0.218327 0.636562 0.613389
O O2 0.362246 0.664019 0.799135
O O3 0.324745 0.766900 0.643916
O O4 0.444791 0.637033 0.641848
O O5 0.790872 0.569436 0.911748
O O6 0.847192 0.716794 0.918611
O O7 0.897260 0.622847 0.787106
O O8 0.000000 0.605773 0.000000
O O9 0.863918 0.500000 0.442474
O O10 0.834205 0.408389 0.586371
O O11 0.000000 0.378531 0.500000
O O12 0.633862 0.500000 0.972054
O O13 0.581933 0.388528 0.826778
O O14 0.706460 0.356749 0.036496
O O15 0.500000 0.671027 0.000000
O O16 0.828627 0.870478 0.330586
O O17 0.056523 0.000000 0.679984
#
# Coordination Sequence:
#
# PCOD8093673 Si02
#       7
#     8   8   8   8   8   8   8
#     4  11  23  40  67  95 125 167 220 262 312 388
#     4   9  20  37  59  87 119 163 208 251 298 376
#     4  11  26  46  65  90 128 167 209 265 324 383
#     4  10  20  33  54  87 126 163 198 251 310 363
#     4  10  19  36  58  89 123 160 197 251 313 361
#     4  10  23  42  66  92 127 170 212 266 320 374
#     4  10  21  39  64  95 129 164 213 268 319 374
#
# _framework density 21.190677000000001
#
# number of rings (size 3 to 8) (size 9 to 14) (size 15 to 20)
#    0.000    1.857    1.429    1.714    2.000    4.000 
#    0.000    2.857    0.000    0.000    0.000    0.000 
#    0.000    0.000    0.000    0.000    0.000    0.000 
#
# Total GULP energy -347010.878911 kJ/mol
# GULP energy per Si atom -12393.245675 kJ/mol
# Density = 2.114245 g / cm^3
# Si number density = 21.190677 Si / 1000 Ang^3
#
#
#
# Elastic Constant Matrix: (Units=GPa)
#
#
# Indices 1 2 3 4 5 6 
#
# 1 104.1955 31.8104 35.1066 0.0000 15.7171 0.0000
# 2 31.8104 72.1010 20.4806 0.0000 3.5380 0.0000
# 3 35.1066 20.4806 90.7601 0.0000 9.6394 0.0000
# 4 0.0000 0.0000 0.0000 16.1984 0.0000 0.6721
# 5 15.7171 3.5380 9.6394 0.0000 37.3058 0.0000
# 6 0.0000 0.0000 0.0000 0.6721 0.0000 28.0794
#
#
#
# Elastic Compliance Matrix: (Units=1/GPa)
#
#
# Indices 1 2 3 4 5 6 
#
# 1 0.012738 -0.004428 -0.003499 0.000000 -0.004043 0.000000
# 2 -0.004428 0.016370 -0.002071 0.000000 0.000848 0.000000
# 3 -0.003499 -0.002071 0.013019 0.000000 -0.001693 0.000000
# 4 0.000000 0.000000 0.000000 0.061796 0.000000 -0.001479
# 5 -0.004043 0.000848 -0.001693 0.000000 0.028866 0.000000
# 6 0.000000 0.000000 0.000000 -0.001479 0.000000 0.035649
#
#
# Mechanical properties :
#
#
# Convention : Reuss Voigt Hill
#
# Bulk Modulus (GPa) = 45.18584 49.09467 47.14026
# Shear Modulus (GPa) = 25.53519 28.29398 26.91458
#
# Velocity S-wave (km/s) = 3.47511 3.65801 3.56773
# Velocity P-wave (km/s) = 6.12140 6.40779 6.26623
#
# Compressibility (1/GPa) = 0.02213082
#
# Stress axis : x y z
#
# Youngs Moduli (GPa) = 78.50762 61.08875 76.81319
#
# Poissons Ratio (x) = 0.27048 0.26873
# Poissons Ratio (y) = 0.34760 0.15911
# Poissons Ratio (z) = 0.27466 0.12654
#
# Static dielectric constant tensor:
#      x y z
#    x 3.737000 0.000000 0.071120 
#    y 0.000000 3.748180 0.000000 
#    z 0.071120 0.000000 3.839000 
# 
# 
# High freq. dielectric constant tensor:
#      x y z
#    x 1.822210 0.000000 0.002120 
#    y 0.000000 1.836760 0.000000 
#    z 0.002120 0.000000 1.828990 
# 
# From -- ./inp_files/206271.got.cif
#   From: 2010.06.25/outbox.cif.g09.slc.cpg/sg12_104_cif.got.tgz:206271.got - 2010.06.28 00:19:55.
