data_PCOD8093542
_publ_section_title
;
Structure prediction by ZEFSAII (Michael W. Deem and Ramdas Pophale) SiO2 
 PCOD8093542
Probable space group: C 2/M
;
_chemical_formula_sum "Si O2"
_cell_formula_units_Z 64
_cell_length_a 30.099282
_cell_length_b 9.101664
_cell_length_c 17.064148
_cell_angle_alpha 90.000000
_cell_angle_beta 43.892144
_cell_angle_gamma 90.000000
_cell_volume 3241.041850
_symmetry_space_group_name_H-M "C 2/M"
_symmetry_group_IT_number 12
_symmetry_cell_setting 'monoclinic'
loop_
_space_group_symop_operation_xyz
x,y,z
-x,y,-z
-x,-y,-z
x,-y,z
1/2+x,1/2+y,z
1/2-x,1/2+y,-z
1/2-x,1/2-y,-z
1/2+x,1/2-y,z
loop_
_atom_site_type_symbol
_atom_site_label
_atom_site_fract_x
_atom_site_fract_y
_atom_site_fract_z
Si Si1 0.791328 0.327161 0.299101
Si Si2 0.658350 0.825229 0.451296
Si Si3 0.999364 0.669757 0.908132
Si Si4 0.073491 0.673604 0.410846
Si Si5 0.787135 0.838267 0.045846
Si Si6 0.873457 0.327382 0.336168
Si Si7 0.336363 0.669776 0.819193
Si Si8 0.378197 0.335790 0.073776
O O1 0.782278 0.500000 0.296753
O O2 0.728241 0.243988 0.349562
O O3 0.809378 0.291059 0.366975
O O4 0.853477 0.271896 0.173067
O O5 0.609213 0.773912 0.445534
O O6 0.632694 0.765249 0.567701
O O7 0.666570 0.000000 0.440678
O O8 0.989004 0.500000 0.898911
O O9 0.062963 0.736317 0.786548
O O10 0.940168 0.766389 0.952848
O O11 0.000000 0.693054 0.000000
O O12 0.077843 0.500000 0.399151
O O13 0.106427 0.740822 0.292671
O O14 0.000000 0.727196 0.500000
O O15 0.834808 0.794973 0.914029
O O16 0.757434 0.000000 0.064720
O O17 0.731567 0.720232 0.129551
O O18 0.823976 0.845780 0.078741
O O19 0.882481 0.500000 0.328533
O O20 0.346948 0.500000 0.786332
O O21 0.392654 0.500000 0.088085
#
# Coordination Sequence:
#
# PCOD8093542 Si02
#       8
#     8   8   8   8   8   8   8   8
#     4  11  21  36  57  82 113 147 186 229 277 327
#     4  10  21  38  58  82 110 143 186 230 275 327
#     4  10  19  36  57  78 109 147 183 223 269 318
#     4  10  22  39  58  80 110 147 184 226 277 334
#     4   9  20  37  55  80 114 146 178 224 278 332
#     4   9  19  36  57  79 110 150 185 224 272 325
#     4  10  20  36  59  83 108 141 182 229 279 328
#     4  11  22  35  54  82 114 148 185 225 273 326
#
# _framework density 19.746737
#
# number of rings (size 3 to 8) (size 9 to 14) (size 15 to 20)
#    0.000    2.000    1.250    2.250    0.000    6.500 
#    0.000    2.500    0.000    0.000    0.000    0.000 
#    0.000    0.000    0.000    0.000    0.000    0.000 
#
# Total GULP energy -396718.523772 kJ/mol
# GULP energy per Si atom -12397.453868 kJ/mol
# Density = 1.970179 g / cm^3
# Si number density = 19.746737 Si / 1000 Ang^3
#
#
#
# Elastic Constant Matrix: (Units=GPa)
#
#
# Indices 1 2 3 4 5 6 
#
# 1 66.3936 19.3140 36.4938 -0.0005 -3.1490 -0.0021
# 2 19.3140 35.3044 26.9890 -0.0368 2.5482 0.0135
# 3 36.4938 26.9890 118.6400 -0.0085 -7.3934 0.0053
# 4 -0.0005 -0.0368 -0.0085 14.5062 0.0036 1.3849
# 5 -3.1490 2.5482 -7.3934 0.0036 20.9513 0.0002
# 6 -0.0021 0.0135 0.0053 1.3849 0.0002 23.5284
#
#
#
# Elastic Compliance Matrix: (Units=1/GPa)
#
#
# Indices 1 2 3 4 5 6 
#
# 1 0.019723 -0.007803 -0.004139 -0.000023 0.002453 0.000008
# 2 -0.007803 0.038433 -0.006858 0.000098 -0.008267 -0.000027
# 3 -0.004139 -0.006858 0.011529 -0.000012 0.004280 0.000002
# 4 -0.000023 0.000098 -0.000012 0.069326 -0.000032 -0.004081
# 5 0.002453 -0.008267 0.004280 -0.000032 0.050615 0.000005
# 6 0.000008 -0.000027 0.000002 -0.004081 0.000005 0.042742
#
#
# Mechanical properties :
#
#
# Convention : Reuss Voigt Hill
#
# Bulk Modulus (GPa) = 31.16675 42.88126 37.02400
# Shear Modulus (GPa) = 17.81501 20.96660 19.39081
#
# Velocity S-wave (km/s) = 3.00688 3.26202 3.13705
# Velocity P-wave (km/s) = 5.27945 5.99587 5.64903
#
# Compressibility (1/GPa) = 0.03208548
#
# Stress axis : x y z
#
# Youngs Moduli (GPa) = 50.70263 26.01905 86.73891
#
# Poissons Ratio (x) = 0.20302 0.35900
# Poissons Ratio (y) = 0.39562 0.59487
# Poissons Ratio (z) = 0.20985 0.17844
#
# Static dielectric constant tensor:
#      x y z
#    x 3.610890 -0.000010 0.058980 
#    y -0.000010 3.578260 0.000020 
#    z 0.058980 0.000020 3.814810 
# 
# 
# High freq. dielectric constant tensor:
#      x y z
#    x 1.765810 0.000000 0.002100 
#    y 0.000000 1.756360 0.000000 
#    z 0.002100 0.000000 1.775450 
# 
# From -- ./inp_files/295629.got.cif
#   From: 2010.06.25/outbox.cif.g09.slc.cpg/sg12_148_cif.got.tgz:295629.got - 2010.06.28 00:19:55.
