data_PCOD8093744
_publ_section_title
;
Structure prediction by ZEFSAII (Michael W. Deem and Ramdas Pophale) SiO2 
 PCOD8093744
Probable space group: C 2/M
;
_chemical_formula_sum "Si O2"
_cell_formula_units_Z 64
_cell_length_a 15.027785
_cell_length_b 8.833661
_cell_length_c 24.837499
_cell_angle_alpha 90.000000
_cell_angle_beta 81.881375
_cell_angle_gamma 90.000000
_cell_volume 3264.141834
_symmetry_space_group_name_H-M "C 2/M"
_symmetry_group_IT_number 12
_symmetry_cell_setting 'monoclinic'
loop_
_space_group_symop_operation_xyz
x,y,z
-x,y,-z
-x,-y,-z
x,-y,z
1/2+x,1/2+y,z
1/2-x,1/2+y,-z
1/2-x,1/2-y,-z
1/2+x,1/2-y,z
loop_
_atom_site_type_symbol
_atom_site_label
_atom_site_fract_x
_atom_site_fract_y
_atom_site_fract_z
Si Si1 0.452066 0.677955 0.059866
Si Si2 0.594388 0.679354 0.134501
Si Si3 0.266597 0.179061 0.056308
Si Si4 0.214601 0.677906 0.324718
Si Si5 0.175520 0.172388 0.432179
Si Si6 0.147190 0.174404 0.548624
Si Si7 0.414110 0.675066 0.334683
Si Si8 0.916265 0.819556 0.743458
O O1 0.432037 0.500000 0.064667
O O2 0.513960 0.736715 0.103325
O O3 0.359972 0.768204 0.073485
O O4 0.500000 0.719607 0.000000
O O5 0.593911 0.500000 0.134775
O O6 0.689043 0.737588 0.103117
O O7 0.580075 0.741954 0.195877
O O8 0.264167 0.000000 0.050021
O O9 0.250000 0.250000 0.000000
O O10 0.210914 0.500000 0.317294
O O11 0.154818 0.722617 0.382490
O O12 0.316779 0.738845 0.324136
O O13 0.174359 0.756924 0.275619
O O14 0.110508 0.199678 0.490361
O O15 0.274637 0.206002 0.446300
O O16 0.168237 0.000000 0.412744
O O17 0.072073 0.200237 0.601750
O O18 0.183017 0.000000 0.551148
O O19 0.415120 0.500000 0.319772
O O20 0.496764 0.749747 0.295193
O O21 0.913338 0.000000 0.741360
#
# Coordination Sequence:
#
# PCOD8093744 Si02
#       8
#     8   8   8   8   8   8   8   8
#     4  10  19  36  59  83 113 149 181 218 269 322
#     4   9  20  37  56  79 111 144 177 221 272 319
#     4  11  21  36  57  85 116 148 181 219 266 319
#     4  10  20  35  53  76 107 139 173 225 277 317
#     4   9  15  25  46  74 101 135 176 215 265 330
#     4   8  14  26  45  72 104 134 170 221 272 318
#     4   8  16  32  54  75  99 135 176 217 266 321
#     4  10  20  37  58  77 100 139 186 223 261 319
#
# _framework density 19.606992000000002
#
# number of rings (size 3 to 8) (size 9 to 14) (size 15 to 20)
#    0.000    2.625    1.250    1.875    0.000    1.750 
#    0.000    6.875    0.000    3.750    0.000    0.000 
#    0.000    0.000    0.000    0.000    0.000    0.000 
#
# Total GULP energy -396569.834933 kJ/mol
# GULP energy per Si atom -12392.807342 kJ/mol
# Density = 1.956237 g / cm^3
# Si number density = 19.606992 Si / 1000 Ang^3
#
#
#
# Elastic Constant Matrix: (Units=GPa)
#
#
# Indices 1 2 3 4 5 6 
#
# 1 95.9513 21.6598 50.0588 0.0000 -10.1719 0.0000
# 2 21.6598 36.2852 25.3063 0.0000 -3.3462 0.0000
# 3 50.0588 25.3063 146.2768 0.0000 -7.7442 0.0000
# 4 0.0000 0.0000 0.0000 21.7831 0.0000 5.3728
# 5 -10.1719 -3.3462 -7.7442 0.0000 32.8401 0.0000
# 6 0.0000 0.0000 0.0000 5.3728 0.0000 24.5856
#
#
#
# Elastic Compliance Matrix: (Units=1/GPa)
#
#
# Indices 1 2 3 4 5 6 
#
# 1 0.013863 -0.005467 -0.003646 0.000000 0.002877 0.000000
# 2 -0.005467 0.033619 -0.003902 0.000000 0.000812 0.000000
# 3 -0.003646 -0.003902 0.008788 0.000000 0.000545 0.000000
# 4 0.000000 0.000000 0.000000 0.048522 0.000000 -0.010604
# 5 0.002877 0.000812 0.000545 0.000000 0.031553 0.000000
# 6 0.000000 0.000000 0.000000 -0.010604 0.000000 0.042991
#
#
# Mechanical properties :
#
#
# Convention : Reuss Voigt Hill
#
# Bulk Modulus (GPa) = 33.06924 52.50703 42.78813
# Shear Modulus (GPa) = 23.20735 27.94101 25.57418
#
# Velocity S-wave (km/s) = 3.44412 3.77908 3.61548
# Velocity P-wave (km/s) = 5.72002 6.77347 6.26891
#
# Compressibility (1/GPa) = 0.03023958
#
# Stress axis : x y z
#
# Youngs Moduli (GPa) = 72.13259 29.74470 113.79006
#
# Poissons Ratio (x) = 0.16262 0.41490
# Poissons Ratio (y) = 0.39437 0.44404
# Poissons Ratio (z) = 0.26301 0.11607
#
# Static dielectric constant tensor:
#      x y z
#    x 3.705940 0.000000 -0.102240 
#    y 0.000000 3.274960 0.000000 
#    z -0.102240 0.000000 3.973070 
# 
# 
# High freq. dielectric constant tensor:
#      x y z
#    x 1.746720 0.000000 -0.002530 
#    y 0.000000 1.733770 0.000000 
#    z -0.002530 0.000000 1.775450 
# 
# From -- ./inp_files/338899.got.cif
#   From: 2010.06.25/outbox.cif.g09.slc.cpg/sg12_170_cif.got.tgz:338899.got - 2010.06.28 00:19:55.
