data_PCOD8093002
_publ_section_title
;
Structure prediction by ZEFSAII (Michael W. Deem and Ramdas Pophale) SiO2 
 PCOD8093002
Probable space group: C 2/M
;
_chemical_formula_sum "Si O2"
_cell_formula_units_Z 64
_cell_length_a 14.968738
_cell_length_b 25.401884
_cell_length_c 16.136632
_cell_angle_alpha 90.000000
_cell_angle_beta 150.680267
_cell_angle_gamma 90.000000
_cell_volume 3004.545824
_symmetry_space_group_name_H-M "C 2/M"
_symmetry_group_IT_number 12
_symmetry_cell_setting 'monoclinic'
loop_
_space_group_symop_operation_xyz
x,y,z
-x,y,-z
-x,-y,-z
x,-y,z
1/2+x,1/2+y,z
1/2-x,1/2+y,-z
1/2-x,1/2-y,-z
1/2+x,1/2-y,z
loop_
_atom_site_type_symbol
_atom_site_label
_atom_site_fract_x
_atom_site_fract_y
_atom_site_fract_z
Si Si1 0.479682 0.558633 0.275043
Si Si2 0.613704 0.756825 0.313959
Si Si3 0.714538 0.662654 0.186828
Si Si4 0.342497 0.643304 0.679117
Si Si5 0.801160 0.277158 0.799367
Si Si6 0.678356 0.940612 0.327608
Si Si7 0.284920 0.890777 0.815174
Si Si8 0.008389 0.641814 0.719373
O O1 0.445431 0.500000 0.213350
O O2 0.517111 0.596213 0.226565
O O3 0.651866 0.560149 0.474093
O O4 0.300617 0.577277 0.178574
O O5 0.750000 0.750000 0.500000
O O6 0.540419 0.698179 0.231810
O O7 0.707833 0.779721 0.307580
O O8 0.460649 0.800506 0.213304
O O9 0.747684 0.636433 0.303269
O O10 0.795558 0.722720 0.250187
O O11 0.820114 0.629545 0.201744
O O12 0.500000 0.661577 0.000000
O O13 0.178335 0.643928 0.482193
O O14 0.702655 0.330932 0.749879
O O15 0.000000 0.276132 0.000000
O O16 0.757872 0.919372 0.305673
O O17 0.512920 0.904153 0.229052
O O18 0.602253 0.000000 0.255773
O O19 0.500000 0.889212 0.000000
#
# Coordination Sequence:
#
# PCOD8093002 Si02
#       8
#     8   8   8   8   8   8   8   8
#     4  10  22  39  59  82 113 152 192 238 287 335
#     4   9  17  33  56  83 110 143 194 239 280 335
#     4  10  21  37  55  82 115 149 184 232 289 348
#     4   9  20  37  56  83 110 144 190 236 288 335
#     4   9  19  36  51  81 123 154 185 227 289 352
#     4  10  21  39  58  81 112 148 192 238 281 337
#     4  11  22  36  56  84 118 155 190 228 281 344
#     4  10  19  35  59  81 110 145 188 238 284 338
#
# _framework density 21.301057
#
# number of rings (size 3 to 8) (size 9 to 14) (size 15 to 20)
#    0.000    2.250    1.250    1.125    1.750    3.000 
#    0.000    3.750    0.000    3.750    0.000    0.000 
#    0.000    0.000    0.000    0.000    0.000    0.000 
#
# Total GULP energy -396560.623005 kJ/mol
# GULP energy per Si atom -12392.519469 kJ/mol
# Density = 2.125257 g / cm^3
# Si number density = 21.301057 Si / 1000 Ang^3
#
#
#
# Elastic Constant Matrix: (Units=GPa)
#
#
# Indices 1 2 3 4 5 6 
#
# 1 98.8673 58.0199 10.8931 0.0000 22.1462 0.0000
# 2 58.0199 150.3889 17.2412 0.0000 20.9324 0.0000
# 3 10.8931 17.2412 14.5436 -0.0001 4.1746 -0.0001
# 4 0.0000 0.0000 -0.0001 17.1448 0.0000 0.4503
# 5 22.1462 20.9324 4.1746 0.0000 32.7212 0.0000
# 6 0.0000 0.0000 -0.0001 0.4503 0.0000 33.8792
#
#
#
# Elastic Compliance Matrix: (Units=1/GPa)
#
#
# Indices 1 2 3 4 5 6 
#
# 1 0.014511 -0.004223 -0.003964 0.000000 -0.006614 0.000000
# 2 -0.004223 0.009436 -0.007381 0.000000 -0.002236 0.000000
# 3 -0.003964 -0.007381 0.081331 0.000001 -0.002972 0.000000
# 4 0.000000 0.000000 0.000001 0.058347 0.000000 -0.000775
# 5 -0.006614 -0.002236 -0.002972 0.000000 0.036847 0.000000
# 6 0.000000 0.000000 0.000000 -0.000775 0.000000 0.029527
#
#
# Mechanical properties :
#
#
# Convention : Reuss Voigt Hill
#
# Bulk Modulus (GPa) = 13.48767 48.45646 30.97206
# Shear Modulus (GPa) = 17.49164 28.59207 23.04186
#
# Velocity S-wave (km/s) = 2.86870 3.66769 3.29252
# Velocity P-wave (km/s) = 4.16152 6.38230 5.38758
#
# Compressibility (1/GPa) = 0.07414181
#
# Stress axis : x y z
#
# Youngs Moduli (GPa) = 68.91181 105.97326 12.29545
#
# Poissons Ratio (x) = 0.44757 0.04873
# Poissons Ratio (y) = 0.29105 0.09076
# Poissons Ratio (z) = 0.27313 0.78223
#
# Static dielectric constant tensor:
#      x y z
#    x 3.834880 0.000000 -0.181900 
#    y 0.000000 4.452470 0.000000 
#    z -0.181900 0.000000 3.395740 
# 
# 
# High freq. dielectric constant tensor:
#      x y z
#    x 1.833850 0.000000 -0.017970 
#    y 0.000000 1.835860 0.000000 
#    z -0.017970 0.000000 1.806350 
# 
# From -- ./inp_files/272854.got.cif
#   From: 2010.06.25/outbox.cif.g09.slc.cpg/sg12_137_cif.got.tgz:272854.got - 2010.06.28 00:19:55.
