data_PCOD8093199
_publ_section_title
;
Structure prediction by ZEFSAII (Michael W. Deem and Ramdas Pophale) SiO2 
 PCOD8093199
Probable space group: C 2/M
;
_chemical_formula_sum "Si O2"
_cell_formula_units_Z 56
_cell_length_a 23.167114
_cell_length_b 18.388072
_cell_length_c 9.122113
_cell_angle_alpha 90.000000
_cell_angle_beta 46.640285
_cell_angle_gamma 90.000000
_cell_volume 2825.350874
_symmetry_space_group_name_H-M "C 2/M"
_symmetry_group_IT_number 12
_symmetry_cell_setting 'monoclinic'
loop_
_space_group_symop_operation_xyz
x,y,z
-x,y,-z
-x,-y,-z
x,-y,z
1/2+x,1/2+y,z
1/2-x,1/2+y,-z
1/2-x,1/2-y,-z
1/2+x,1/2-y,z
loop_
_atom_site_type_symbol
_atom_site_label
_atom_site_fract_x
_atom_site_fract_y
_atom_site_fract_z
Si Si1 0.661320 0.822047 0.904310
Si Si2 0.681215 0.800115 0.557113
Si Si3 0.275888 0.082926 0.742408
Si Si4 0.918578 0.416355 0.714091
Si Si5 0.865182 0.170817 0.906843
Si Si6 0.655070 0.678390 0.389931
Si Si7 0.986903 0.080594 0.350437
O O1 0.631777 0.827497 0.786021
O O2 0.753260 0.847120 0.759656
O O3 0.602631 0.870168 0.104610
O O4 0.658626 0.737736 0.951119
O O5 0.750000 0.750000 0.500000
O O6 0.716272 0.871387 0.419453
O O7 0.633714 0.749974 0.523832
O O8 0.353012 0.093769 0.705589
O O9 0.263116 0.000000 0.718243
O O10 0.201661 0.108885 0.967994
O O11 0.927060 0.500000 0.749308
O O12 0.000000 0.387636 0.500000
O O13 0.869652 0.199292 0.732416
O O14 0.946552 0.135903 0.826059
O O15 0.599964 0.611625 0.538745
O O16 0.000000 0.074106 0.500000
O O17 0.994410 0.000000 0.266576
#
# Coordination Sequence:
#
# PCOD8093199 Si02
#       7
#     8   8   8   8   8   8   8
#     4  11  21  37  64  85 116 162 203 249 301 365
#     4  10  21  38  59  86 123 158 204 252 289 366
#     4  11  21  37  63  86 118 161 199 251 314 363
#     4  10  23  41  61  92 121 147 202 266 315 362
#     4  11  19  35  60  90 118 155 205 248 296 362
#     4  10  19  35  60  85 121 156 201 251 294 352
#     4   9  20  35  55  88 125 155 192 246 300 357
#
# _framework density 19.820547999999999
#
# number of rings (size 3 to 8) (size 9 to 14) (size 15 to 20)
#    0.000    1.714    4.286    1.714    0.000    4.571 
#    0.000    5.000    0.000    3.429    0.000    0.000 
#    0.000    0.000    0.000    0.000    0.000    0.000 
#
# Total GULP energy -347162.328902 kJ/mol
# GULP energy per Si atom -12398.654604 kJ/mol
# Density = 1.977544 g / cm^3
# Si number density = 19.820548 Si / 1000 Ang^3
#
#
#
# Elastic Constant Matrix: (Units=GPa)
#
#
# Indices 1 2 3 4 5 6 
#
# 1 59.1208 55.3086 64.0846 0.0000 -5.4726 0.0000
# 2 55.3086 133.2069 64.2597 0.0000 1.6243 0.0000
# 3 64.0846 64.2597 126.7152 0.0000 -2.1659 0.0000
# 4 0.0000 0.0000 0.0000 27.1610 0.0000 -5.5846
# 5 -5.4726 1.6243 -2.1659 0.0000 43.3231 0.0000
# 6 0.0000 0.0000 0.0000 -5.5846 0.0000 23.2191
#
#
#
# Elastic Compliance Matrix: (Units=1/GPa)
#
#
# Indices 1 2 3 4 5 6 
#
# 1 0.047704 -0.010964 -0.018472 0.000000 0.005514 0.000000
# 2 -0.010964 0.012475 -0.000814 0.000000 -0.001893 0.000000
# 3 -0.018472 -0.000814 0.017622 0.000000 -0.001422 0.000000
# 4 0.000000 0.000000 0.000000 0.038733 0.000000 0.009316
# 5 0.005514 -0.001893 -0.001422 0.000000 0.023779 0.000000
# 6 0.000000 0.000000 0.000000 0.009316 0.000000 0.045309
#
#
# Mechanical properties :
#
#
# Convention : Reuss Voigt Hill
#
# Bulk Modulus (GPa) = 57.79454 76.26099 67.02776
# Shear Modulus (GPa) = 19.85013 27.76662 23.80837
#
# Velocity S-wave (km/s) = 3.16807 3.74692 3.46959
# Velocity P-wave (km/s) = 6.52721 7.56825 7.06693
#
# Compressibility (1/GPa) = 0.01730267
#
# Stress axis : x y z
#
# Youngs Moduli (GPa) = 20.96261 80.16000 56.74716
#
# Poissons Ratio (x) = 0.87884 1.04821
# Poissons Ratio (y) = 0.22982 0.04619
# Poissons Ratio (z) = 0.38721 0.06525
#
# Static dielectric constant tensor:
#      x y z
#    x 3.570810 0.000000 0.138380 
#    y 0.000000 3.726090 0.000000 
#    z 0.138380 0.000000 3.868230 
# 
# 
# High freq. dielectric constant tensor:
#      x y z
#    x 1.751200 0.000000 -0.002080 
#    y 0.000000 1.776060 0.000000 
#    z -0.002080 0.000000 1.773060 
# 
# From -- ./inp_files/105935.got.cif
#   From: 2010.06.25/outbox.cif.g09.slc.cpg/sg12_53_cif.got.tgz:105935.got - 2010.06.28 00:19:55.
