data_PCOD8093188
_publ_section_title
;
Structure prediction by ZEFSAII (Michael W. Deem and Ramdas Pophale) SiO2 
 PCOD8093188
Probable space group: C 2/M
;
_chemical_formula_sum "Si O2"
_cell_formula_units_Z 64
_cell_length_a 29.820848
_cell_length_b 9.423728
_cell_length_c 23.527638
_cell_angle_alpha 90.000000
_cell_angle_beta 30.036975
_cell_angle_gamma 90.000000
_cell_volume 3309.604803
_symmetry_space_group_name_H-M "C 2/M"
_symmetry_group_IT_number 12
_symmetry_cell_setting 'monoclinic'
loop_
_space_group_symop_operation_xyz
x,y,z
-x,y,-z
-x,-y,-z
x,-y,z
1/2+x,1/2+y,z
1/2-x,1/2+y,-z
1/2-x,1/2-y,-z
1/2+x,1/2-y,z
loop_
_atom_site_type_symbol
_atom_site_label
_atom_site_fract_x
_atom_site_fract_y
_atom_site_fract_z
Si Si1 0.798209 0.658185 0.300739
Si Si2 0.526884 0.169216 0.217378
Si Si3 0.351946 0.831951 0.584015
Si Si4 0.107564 0.831507 0.028008
Si Si5 0.044650 0.154413 0.891621
Si Si6 0.297172 0.831719 0.769865
Si Si7 0.956619 0.332196 0.671675
Si Si8 0.332987 0.843323 0.392447
O O1 0.782497 0.500000 0.293563
O O2 0.707225 0.748710 0.397420
O O3 0.875560 0.738135 0.181473
O O4 0.837345 0.651059 0.320469
O O5 0.596514 0.249581 0.099813
O O6 0.546135 0.221527 0.260344
O O7 0.425992 0.219886 0.313629
O O8 0.537519 0.000000 0.197822
O O9 0.320539 0.778968 0.680680
O O10 0.453862 0.785653 0.460076
O O11 0.338618 0.000000 0.590588
O O12 0.026175 0.785944 0.076392
O O13 0.109769 0.000000 0.036534
O O14 0.199662 0.779831 0.897206
O O15 0.081146 0.000000 0.830226
O O16 0.000000 0.127929 0.000000
O O17 0.371565 0.768597 0.731359
O O18 0.302160 0.000000 0.764523
O O19 0.951906 0.500000 0.677551
O O20 0.250000 0.750000 0.500000
O O21 0.318849 0.000000 0.433969
#
# Coordination Sequence:
#
# PCOD8093188 Si02
#       8
#     8   8   8   8   8   8   8   8
#     4  11  22  35  52  79 113 146 178 217 272 333
#     4  10  20  36  54  77 113 149 185 225 269 331
#     4  10  19  35  60  85 111 142 183 234 283 335
#     4  10  20  34  54  80 112 146 183 230 276 323
#     4  10  20  35  55  79 107 143 187 230 270 318
#     4   9  18  34  57  86 112 137 182 239 284 326
#     4   9  18  33  58  86 109 141 184 233 285 329
#     4  10  21  35  52  76 108 143 181 224 268 320
#
# _framework density 19.337655999999999
#
# number of rings (size 3 to 8) (size 9 to 14) (size 15 to 20)
#    0.000    2.125    1.250    2.250    0.000    6.750 
#    0.000    2.500    0.000    3.000    0.000    0.000 
#    0.000    0.000    0.000    0.000    0.000    0.000 
#
# Total GULP energy -396729.316525 kJ/mol
# GULP energy per Si atom -12397.791141 kJ/mol
# Density = 1.929364 g / cm^3
# Si number density = 19.337656 Si / 1000 Ang^3
#
#
#
# Elastic Constant Matrix: (Units=GPa)
#
#
# Indices 1 2 3 4 5 6 
#
# 1 85.0808 17.7790 22.3473 -0.0031 -3.6087 0.0015
# 2 17.7790 51.4724 32.7071 0.0400 -5.0978 -0.0180
# 3 22.3473 32.7071 107.1140 0.0066 1.1385 -0.0046
# 4 -0.0031 0.0400 0.0066 17.2801 0.0018 7.3157
# 5 -3.6087 -5.0978 1.1385 0.0018 36.8481 -0.0017
# 6 0.0015 -0.0180 -0.0046 7.3157 -0.0017 18.3834
#
#
#
# Elastic Compliance Matrix: (Units=1/GPa)
#
#
# Indices 1 2 3 4 5 6 
#
# 1 0.012926 -0.003300 -0.001698 0.000015 0.000862 -0.000011
# 2 -0.003300 0.025425 -0.007111 -0.000081 0.003414 0.000056
# 3 -0.001698 -0.007111 0.011878 0.000016 -0.001517 -0.000010
# 4 0.000015 -0.000081 0.000016 0.069595 -0.000015 -0.027696
# 5 0.000862 0.003414 -0.001517 -0.000015 0.027742 0.000011
# 6 -0.000011 0.000056 -0.000010 -0.027696 0.000011 0.065418
#
#
# Mechanical properties :
#
#
# Convention : Reuss Voigt Hill
#
# Bulk Modulus (GPa) = 38.44829 43.25932 40.85381
# Shear Modulus (GPa) = 20.33572 25.89124 23.11348
#
# Velocity S-wave (km/s) = 3.24638 3.66307 3.46100
# Velocity P-wave (km/s) = 5.82904 6.34901 6.09457
#
# Compressibility (1/GPa) = 0.02600896
#
# Stress axis : x y z
#
# Youngs Moduli (GPa) = 77.36490 39.33193 84.19195
#
# Poissons Ratio (x) = 0.12981 0.14297
# Poissons Ratio (y) = 0.25533 0.59870
# Poissons Ratio (z) = 0.13138 0.27969
#
# Static dielectric constant tensor:
#      x y z
#    x 3.816370 -0.000020 0.022140 
#    y -0.000020 3.402620 -0.000090 
#    z 0.022140 -0.000090 3.726620 
# 
# 
# High freq. dielectric constant tensor:
#      x y z
#    x 1.759690 0.000000 -0.001020 
#    y 0.000000 1.716650 0.000000 
#    z -0.001020 0.000000 1.757040 
# 
# From -- ./inp_files/353410.got.cif
#   From: 2010.06.25/outbox.cif.g09.slc.cpg/sg12_177_cif.got.tgz:353410.got - 2010.06.28 00:19:55.
