data_PCOD8093386
_publ_section_title
;
Structure prediction by ZEFSAII (Michael W. Deem and Ramdas Pophale) SiO2 
 PCOD8093386
Probable space group: C 2/M
;
_chemical_formula_sum "Si O2"
_cell_formula_units_Z 48
_cell_length_a 22.903421
_cell_length_b 16.509783
_cell_length_c 11.887188
_cell_angle_alpha 90.000000
_cell_angle_beta 151.338008
_cell_angle_gamma 90.000000
_cell_volume 2155.944748
_symmetry_space_group_name_H-M "C 2/M"
_symmetry_group_IT_number 12
_symmetry_cell_setting 'monoclinic'
loop_
_space_group_symop_operation_xyz
x,y,z
-x,y,-z
-x,-y,-z
x,-y,z
1/2+x,1/2+y,z
1/2-x,1/2+y,-z
1/2-x,1/2-y,-z
1/2+x,1/2-y,z
loop_
_atom_site_type_symbol
_atom_site_label
_atom_site_fract_x
_atom_site_fract_y
_atom_site_fract_z
Si Si1 0.237943 0.592782 0.137135
Si Si2 0.952813 0.093521 0.665278
Si Si3 0.629399 0.302628 0.264231
Si Si4 0.983112 0.403655 0.097124
Si Si5 0.208329 0.905642 0.012672
Si Si6 0.714126 0.905701 0.620274
O O1 0.196839 0.500000 0.053162
O O2 0.368162 0.600983 0.413289
O O3 0.243384 0.634514 0.022018
O O4 0.137169 0.634368 0.048058
O O5 0.896612 0.144866 0.670142
O O6 0.080511 0.130492 0.839433
O O7 0.964240 0.000000 0.724302
O O8 0.750000 0.250000 0.500000
O O9 0.666140 0.361589 0.223647
O O10 0.500000 0.261492 0.000000
O O11 0.977471 0.500000 0.086148
O O12 0.095827 0.369682 0.359119
O O13 0.000000 0.370231 0.000000
O O14 0.186629 0.000000 0.950568
O O15 0.303444 0.891508 0.275387
O O16 0.729939 0.000000 0.619617
#
# Coordination Sequence:
#
# PCOD8093386 Si02
#       6
#     8   8   8   8   8   8
#     4   9  17  29  51  90 130 156 186 236 303 367
#     4  10  19  35  62  91 119 152 198 251 303 356
#     4  12  26  42  61  88 121 162 205 255 308 365
#     4   9  17  29  47  78 121 159 190 233 291 352
#     4   9  17  30  54  90 124 151 189 245 301 356
#     4  10  20  36  61  89 118 154 200 252 304 357
#
# _framework density 22.264022000000001
#
# number of rings (size 3 to 8) (size 9 to 14) (size 15 to 20)
#    0.000    2.167    1.667    2.000    0.000    8.000 
#    0.000    3.333    0.000    1.500    4.333    0.000 
#    0.000    0.000    0.000    0.000    0.000    0.000 
#
# Total GULP energy -297367.980863 kJ/mol
# GULP energy per Si atom -12390.332536 kJ/mol
# Density = 2.221335 g / cm^3
# Si number density = 22.264022 Si / 1000 Ang^3
#
#
#
# Elastic Constant Matrix: (Units=GPa)
#
#
# Indices 1 2 3 4 5 6 
#
# 1 203.1376 26.1908 68.1149 0.0000 -9.4875 0.0000
# 2 26.1908 31.3890 23.0169 0.0000 1.3657 0.0000
# 3 68.1149 23.0169 155.4813 0.0000 -3.9196 0.0000
# 4 0.0000 0.0000 0.0000 16.9513 0.0000 7.0774
# 5 -9.4875 1.3657 -3.9196 0.0000 35.4939 0.0000
# 6 0.0000 0.0000 0.0000 7.0774 0.0000 4.0661
#
#
#
# Elastic Compliance Matrix: (Units=1/GPa)
#
#
# Indices 1 2 3 4 5 6 
#
# 1 0.006181 -0.003666 -0.002126 0.000000 0.001559 0.000000
# 2 -0.003666 0.038050 -0.004100 0.000000 -0.002897 0.000000
# 3 -0.002126 -0.004100 0.007982 0.000000 0.000471 0.000000
# 4 0.000000 0.000000 0.000000 0.215865 0.000000 -0.375731
# 5 0.001559 -0.002897 0.000471 0.000000 0.028754 0.000000
# 6 0.000000 0.000000 0.000000 -0.375731 0.000000 0.899927
#
#
# Mechanical properties :
#
#
# Convention : Reuss Voigt Hill
#
# Bulk Modulus (GPa) = 30.83668 69.40589 50.12128
# Shear Modulus (GPa) = 4.07381 29.48127 16.77754
#
# Velocity S-wave (km/s) = 1.35416 3.64286 2.74810
# Velocity P-wave (km/s) = 4.04048 6.99540 5.71232
#
# Compressibility (1/GPa) = 0.03242892
#
# Stress axis : x y z
#
# Youngs Moduli (GPa) = 161.78350 26.28136 125.28655
#
# Poissons Ratio (x) = 0.09636 0.26634
# Poissons Ratio (y) = 0.59317 0.51362
# Poissons Ratio (z) = 0.34392 0.10774
#
# Static dielectric constant tensor:
#      x y z
#    x 4.357790 0.000000 0.048410 
#    y 0.000000 3.497110 0.000000 
#    z 0.048410 0.000000 4.255280 
# 
# 
# High freq. dielectric constant tensor:
#      x y z
#    x 1.890570 0.000000 -0.006010 
#    y 0.000000 1.826030 0.000000 
#    z -0.006010 0.000000 1.886860 
# 
# From -- ./inp_files/169723.got.cif
#   From: 2010.06.25/outbox.cif.g09.slc.cpg/sg12_85_cif.got.tgz:169723.got - 2010.06.28 00:19:55.
