data_PCOD8093742
_publ_section_title
;
Structure prediction by ZEFSAII (Michael W. Deem and Ramdas Pophale) SiO2 
 PCOD8093742
Probable space group: C 2/M
;
_chemical_formula_sum "Si O2"
_cell_formula_units_Z 56
_cell_length_a 14.895272
_cell_length_b 9.008038
_cell_length_c 24.515227
_cell_angle_alpha 90.000000
_cell_angle_beta 117.302639
_cell_angle_gamma 90.000000
_cell_volume 2922.933756
_symmetry_space_group_name_H-M "C 2/M"
_symmetry_group_IT_number 12
_symmetry_cell_setting 'monoclinic'
loop_
_space_group_symop_operation_xyz
x,y,z
-x,y,-z
-x,-y,-z
x,-y,z
1/2+x,1/2+y,z
1/2-x,1/2+y,-z
1/2-x,1/2-y,-z
1/2+x,1/2-y,z
loop_
_atom_site_type_symbol
_atom_site_label
_atom_site_fract_x
_atom_site_fract_y
_atom_site_fract_z
Si Si1 0.811060 0.325196 0.872420
Si Si2 0.413446 0.172922 0.431999
Si Si3 0.988119 0.324400 0.652093
Si Si4 0.610367 0.333172 0.005316
Si Si5 0.891643 0.675181 0.210092
Si Si6 0.266966 0.823895 0.562727
Si Si7 0.974312 0.327144 0.116035
O O1 0.797994 0.500000 0.873710
O O2 0.815466 0.258164 0.934631
O O3 0.715669 0.255899 0.815162
O O4 0.910400 0.281717 0.865304
O O5 0.500000 0.203617 0.500000
O O6 0.450870 0.229869 0.383831
O O7 0.317029 0.272263 0.418264
O O8 0.383143 0.000000 0.423527
O O9 0.987473 0.500000 0.653039
O O10 0.873363 0.267346 0.616673
O O11 0.040647 0.263084 0.721354
O O12 0.652435 0.500000 0.011462
O O13 0.500000 0.330915 0.000000
O O14 0.605550 0.258588 0.944514
O O15 0.872852 0.500000 0.208957
O O16 0.950986 0.717297 0.171510
O O17 0.250000 0.750000 0.500000
O O18 0.264797 0.000000 0.554396
O O19 0.958052 0.500000 0.100197
#
# Coordination Sequence:
#
# PCOD8093742 Si02
#       7
#     8   8   8   8   8   8   8
#     4  10  20  35  55  80 111 143 179 231 285 325
#     4  10  19  36  59  83 113 148 181 223 278 331
#     4   9  20  38  57  78 111 150 184 223 277 334
#     4   9  17  31  54  82 108 139 182 229 273 326
#     4  10  21  38  57  77 105 148 192 223 266 334
#     4  11  21  36  59  87 114 145 183 227 278 332
#     4   9  19  35  55  78 108 144 181 225 278 329
#
# _framework density 19.158833999999999
#
# number of rings (size 3 to 8) (size 9 to 14) (size 15 to 20)
#    0.000    2.286    1.429    1.286    0.000    4.857 
#    0.000    3.571    0.000    0.000    0.000    0.000 
#    0.000    0.000    0.000    0.000    0.000    0.000 
#
# Total GULP energy -347262.036538 kJ/mol
# GULP energy per Si atom -12402.215591 kJ/mol
# Density = 1.911523 g / cm^3
# Si number density = 19.158834 Si / 1000 Ang^3
#
#
#
# Elastic Constant Matrix: (Units=GPa)
#
#
# Indices 1 2 3 4 5 6 
#
# 1 105.8393 34.3444 60.1481 0.0000 1.2416 0.0000
# 2 34.3444 58.8287 39.0598 0.0000 3.3761 0.0000
# 3 60.1481 39.0598 154.5324 0.0000 -0.7878 0.0000
# 4 0.0000 0.0000 0.0000 23.1608 0.0000 4.6829
# 5 1.2416 3.3761 -0.7878 0.0000 35.3698 0.0000
# 6 0.0000 0.0000 0.0000 4.6829 0.0000 29.7409
#
#
#
# Elastic Compliance Matrix: (Units=1/GPa)
#
#
# Indices 1 2 3 4 5 6 
#
# 1 0.013343 -0.005213 -0.003876 0.000000 -0.000057 0.000000
# 2 -0.005213 0.022615 -0.003698 0.000000 -0.002058 0.000000
# 3 -0.003876 -0.003698 0.008918 0.000000 0.000688 0.000000
# 4 0.000000 0.000000 0.000000 0.044596 0.000000 -0.007022
# 5 -0.000057 -0.002058 0.000688 0.000000 0.028486 0.000000
# 6 0.000000 0.000000 0.000000 -0.007022 0.000000 0.034729
#
#
# Mechanical properties :
#
#
# Convention : Reuss Voigt Hill
#
# Bulk Modulus (GPa) = 51.80631 65.14500 58.47566
# Shear Modulus (GPa) = 27.07143 30.03085 28.55114
#
# Velocity S-wave (km/s) = 3.76307 3.96342 3.86454
# Velocity P-wave (km/s) = 6.78086 7.41764 7.10638
#
# Compressibility (1/GPa) = 0.01930267
#
# Stress axis : x y z
#
# Youngs Moduli (GPa) = 74.94333 44.21825 112.13266
#
# Poissons Ratio (x) = 0.23051 0.43466
# Poissons Ratio (y) = 0.39068 0.41463
# Poissons Ratio (z) = 0.29050 0.16350
#
# Static dielectric constant tensor:
#      x y z
#    x 4.398720 0.000000 0.143220 
#    y 0.000000 3.382530 0.000000 
#    z 0.143220 0.000000 3.724160 
# 
# 
# High freq. dielectric constant tensor:
#      x y z
#    x 1.749890 0.000000 0.000830 
#    y 0.000000 1.730750 0.000000 
#    z 0.000830 0.000000 1.746140 
# 
# From -- ./inp_files/338990.got.cif
#   From: 2010.06.25/outbox.cif.g09.slc.cpg/sg12_170_cif.got.tgz:338990.got - 2010.06.28 00:19:55.
