data_PCOD8093261
_publ_section_title
;
Structure prediction by ZEFSAII (Michael W. Deem and Ramdas Pophale) SiO2 
 PCOD8093261
Probable space group: C 2/M
;
_chemical_formula_sum "Si O2"
_cell_formula_units_Z 56
_cell_length_a 25.123279
_cell_length_b 8.812869
_cell_length_c 18.111388
_cell_angle_alpha 90.000000
_cell_angle_beta 136.783160
_cell_angle_gamma 90.000000
_cell_volume 2745.899242
_symmetry_space_group_name_H-M "C 2/M"
_symmetry_group_IT_number 12
_symmetry_cell_setting 'monoclinic'
loop_
_space_group_symop_operation_xyz
x,y,z
-x,y,-z
-x,-y,-z
x,-y,z
1/2+x,1/2+y,z
1/2-x,1/2+y,-z
1/2-x,1/2-y,-z
1/2+x,1/2-y,z
loop_
_atom_site_type_symbol
_atom_site_label
_atom_site_fract_x
_atom_site_fract_y
_atom_site_fract_z
Si Si1 0.823118 0.826316 0.764955
Si Si2 0.841095 0.174769 0.413091
Si Si3 0.372593 0.325337 0.279231
Si Si4 0.232989 0.178320 0.060516
Si Si5 0.523771 0.319689 0.346058
Si Si6 0.603372 0.178619 0.019561
Si Si7 0.036313 0.174478 0.191661
O O1 0.736771 0.771910 0.660396
O O2 0.863703 0.726310 0.868350
O O3 0.873802 0.810544 0.741580
O O4 0.820467 0.000000 0.789925
O O5 0.885368 0.190610 0.379594
O O6 0.900117 0.240009 0.534123
O O7 0.818913 0.000000 0.405278
O O8 0.356612 0.500000 0.240888
O O9 0.297511 0.225873 0.184878
O O10 0.446450 0.259722 0.309199
O O11 0.149844 0.239371 0.001347
O O12 0.229347 0.000000 0.049026
O O13 0.250000 0.250000 0.000000
O O14 0.524299 0.500000 0.349974
O O15 0.526590 0.260312 0.264809
O O16 0.611769 0.000000 0.020419
O O17 0.514290 0.228814 0.917802
O O18 0.008868 0.000000 0.160430
#
# Coordination Sequence:
#
# PCOD8093261 Si02
#       7
#     8   8   8   8   8   8   8
#     4  11  23  39  60  87 120 161 204 250 305 363
#     4  10  20  36  61  90 120 157 204 250 297 359
#     4  10  19  35  60  89 120 156 202 248 297 358
#     4  12  24  38  59  88 125 162 198 243 298 358
#     4   9  19  37  61  88 119 158 202 249 299 357
#     4  12  24  40  62  89 119 155 202 252 306 364
#     4  10  22  40  61  86 120 162 205 249 305 366
#
# _framework density 20.394048000000002
#
# number of rings (size 3 to 8) (size 9 to 14) (size 15 to 20)
#    0.000    1.429    1.429    4.714    0.000    6.286 
#    0.000    1.429    0.000    1.714    0.000    0.000 
#    0.000    0.000    0.000    0.000    0.000    0.000 
#
# Total GULP energy -347317.684258 kJ/mol
# GULP energy per Si atom -12404.203009 kJ/mol
# Density = 2.034763 g / cm^3
# Si number density = 20.394048 Si / 1000 Ang^3
#
#
#
# Elastic Constant Matrix: (Units=GPa)
#
#
# Indices 1 2 3 4 5 6 
#
# 1 105.3503 33.6813 20.7250 0.0000 12.3732 0.0000
# 2 33.6813 108.4353 29.9214 0.0000 3.6128 0.0000
# 3 20.7250 29.9214 93.0235 0.0000 9.6469 0.0000
# 4 0.0000 0.0000 0.0000 26.7263 0.0000 4.7694
# 5 12.3732 3.6128 9.6469 0.0000 29.9876 0.0000
# 6 0.0000 0.0000 0.0000 4.7694 0.0000 27.3981
#
#
#
# Elastic Compliance Matrix: (Units=1/GPa)
#
#
# Indices 1 2 3 4 5 6 
#
# 1 0.011131 -0.003023 -0.001106 0.000000 -0.003873 0.000000
# 2 -0.003023 0.010942 -0.002937 0.000000 0.000874 0.000000
# 3 -0.001106 -0.002937 0.012266 0.000000 -0.003136 0.000000
# 4 0.000000 0.000000 0.000000 0.038616 0.000000 -0.006722
# 5 -0.003873 0.000874 -0.003136 0.000000 0.035849 0.000000
# 6 0.000000 0.000000 0.000000 -0.006722 0.000000 0.037669
#
#
# Mechanical properties :
#
#
# Convention : Reuss Voigt Hill
#
# Bulk Modulus (GPa) = 49.48549 52.82939 51.15744
# Shear Modulus (GPa) = 29.87910 31.65448 30.76679
#
# Velocity S-wave (km/s) = 3.83180 3.94400 3.88830
# Velocity P-wave (km/s) = 6.62528 6.83379 6.73034
#
# Compressibility (1/GPa) = 0.02020795
#
# Stress axis : x y z
#
# Youngs Moduli (GPa) = 89.83833 91.38771 81.52511
#
# Poissons Ratio (x) = 0.27629 0.09016
# Poissons Ratio (y) = 0.27161 0.23942
# Poissons Ratio (z) = 0.09935 0.26838
#
# Static dielectric constant tensor:
#      x y z
#    x 3.902120 0.000000 0.025230 
#    y 0.000000 3.849780 0.000000 
#    z 0.025230 0.000000 3.778960 
# 
# 
# High freq. dielectric constant tensor:
#      x y z
#    x 1.811660 0.000000 0.001760 
#    y 0.000000 1.777320 0.000000 
#    z 0.001760 0.000000 1.798520 
# 
# From -- ./inp_files/292544.got.cif
#   From: 2010.06.25/outbox.cif.g09.slc.cpg/sg12_147_cif.got.tgz:292544.got - 2010.06.28 00:19:55.
