data_PCOD8093398
_publ_section_title
;
Structure prediction by ZEFSAII (Michael W. Deem and Ramdas Pophale) SiO2 
 PCOD8093398
Probable space group: C 2/M
;
_chemical_formula_sum "Si O2"
_cell_formula_units_Z 48
_cell_length_a 28.221561
_cell_length_b 13.580876
_cell_length_c 9.361561
_cell_angle_alpha 90.000000
_cell_angle_beta 36.771341
_cell_angle_gamma 90.000000
_cell_volume 2147.882345
_symmetry_space_group_name_H-M "C 2/M"
_symmetry_group_IT_number 12
_symmetry_cell_setting 'monoclinic'
loop_
_space_group_symop_operation_xyz
x,y,z
-x,y,-z
-x,-y,-z
x,-y,z
1/2+x,1/2+y,z
1/2-x,1/2+y,-z
1/2-x,1/2-y,-z
1/2+x,1/2-y,z
loop_
_atom_site_type_symbol
_atom_site_label
_atom_site_fract_x
_atom_site_fract_y
_atom_site_fract_z
Si Si1 0.611008 0.386834 0.711294
Si Si2 0.305286 0.309294 0.064389
Si Si3 0.459916 0.114164 0.442397
Si Si4 0.228785 0.607230 0.513515
Si Si5 0.654724 0.710054 0.329693
Si Si6 0.914073 0.273686 0.026946
O O1 0.583578 0.500000 0.791905
O O2 0.702123 0.372407 0.539642
O O3 0.602173 0.351438 0.568599
O O4 0.556174 0.320043 0.949773
O O5 0.264733 0.388407 0.266725
O O6 0.242111 0.224097 0.181833
O O7 0.381456 0.261086 0.953956
O O8 0.337102 0.353471 0.836942
O O9 0.500000 0.126479 0.500000
O O10 0.382839 0.182942 0.617025
O O11 0.436428 0.000000 0.473099
O O12 0.517541 0.148119 0.172939
O O13 0.192505 0.500000 0.625120
O O14 0.157312 0.682308 0.705829
#
# Coordination Sequence:
#
# PCOD8093398 Si02
#       6
#     8   8   8   8   8   8
#     4  10  21  38  64  92 121 164 217 263 311 366
#     4  10  20  36  63  86 126 168 208 257 306 360
#     4  11  25  43  65  95 130 171 207 251 327 394
#     4  10  19  35  62  95 126 164 209 258 317 379
#     4  11  21  40  61  91 127 165 209 266 310 362
#     4  11  19  42  63  92 131 171 206 255 316 379
#
# _framework density 22.347593
#
# number of rings (size 3 to 8) (size 9 to 14) (size 15 to 20)
#    0.000    1.500    5.000    1.500    0.000    2.000 
#    0.000    5.000    0.000    1.000    0.000    0.000 
#    0.000    0.000    0.000    0.000    0.000    0.000 
#
# Total GULP energy -297470.857620 kJ/mol
# GULP energy per Si atom -12394.619067 kJ/mol
# Density = 2.229673 g / cm^3
# Si number density = 22.347593 Si / 1000 Ang^3
#
#
#
# Elastic Constant Matrix: (Units=GPa)
#
#
# Indices 1 2 3 4 5 6 
#
# 1 73.2228 19.9256 28.5798 0.0000 29.1974 0.0000
# 2 19.9256 121.5184 36.3334 0.0000 26.3792 0.0000
# 3 28.5798 36.3334 113.7080 0.0000 31.2740 0.0000
# 4 0.0000 0.0000 0.0000 27.3215 0.0000 4.6937
# 5 29.1974 26.3792 31.2740 0.0000 38.1405 0.0000
# 6 0.0000 0.0000 0.0000 4.6937 0.0000 19.5451
#
#
#
# Elastic Compliance Matrix: (Units=1/GPa)
#
#
# Indices 1 2 3 4 5 6 
#
# 1 0.019756 0.000204 -0.001075 0.000000 -0.014384 0.000000
# 2 0.000204 0.009921 -0.001667 0.000000 -0.005651 0.000000
# 3 -0.001075 -0.001667 0.011690 0.000000 -0.007610 0.000000
# 4 0.000000 0.000000 0.000000 0.038176 0.000000 -0.009168
# 5 -0.014384 -0.005651 -0.007610 0.000000 0.047378 0.000000
# 6 0.000000 0.000000 0.000000 -0.009168 0.000000 0.053365
#
#
# Mechanical properties :
#
#
# Convention : Reuss Voigt Hill
#
# Bulk Modulus (GPa) = 27.55399 53.12520 40.33959
# Shear Modulus (GPa) = 25.32156 31.90879 28.61517
#
# Velocity S-wave (km/s) = 3.36977 3.78278 3.58223
# Velocity P-wave (km/s) = 5.24376 6.55004 5.93296
#
# Compressibility (1/GPa) = 0.03629239
#
# Stress axis : x y z
#
# Youngs Moduli (GPa) = 50.61640 100.79739 85.54098
#
# Poissons Ratio (x) = -0.02060 0.09194
# Poissons Ratio (y) = -0.01034 0.14261
# Poissons Ratio (z) = 0.05440 0.16805
#
# Static dielectric constant tensor:
#      x y z
#    x 4.090090 0.000000 0.267950 
#    y 0.000000 3.853740 0.000000 
#    z 0.267950 0.000000 3.973460 
# 
# 
# High freq. dielectric constant tensor:
#      x y z
#    x 1.884430 0.000000 0.012690 
#    y 0.000000 1.857890 0.000000 
#    z 0.012690 0.000000 1.884200 
# 
# From -- ./inp_files/111473.got.cif
#   From: 2010.06.25/outbox.cif.g09.slc.cpg/sg12_56_cif.got.tgz:111473.got - 2010.06.28 00:19:55.
