data_PCOD8093333
_publ_section_title
;
Structure prediction by ZEFSAII (Michael W. Deem and Ramdas Pophale) SiO2 
 PCOD8093333
Probable space group: C 2/M
;
_chemical_formula_sum "Si O2"
_cell_formula_units_Z 56
_cell_length_a 17.592276
_cell_length_b 21.911507
_cell_length_c 15.991147
_cell_angle_alpha 90.000000
_cell_angle_beta 25.128641
_cell_angle_gamma 90.000000
_cell_volume 2617.623094
_symmetry_space_group_name_H-M "C 2/M"
_symmetry_group_IT_number 12
_symmetry_cell_setting 'monoclinic'
loop_
_space_group_symop_operation_xyz
x,y,z
-x,y,-z
-x,-y,-z
x,-y,z
1/2+x,1/2+y,z
1/2-x,1/2+y,-z
1/2-x,1/2-y,-z
1/2+x,1/2-y,z
loop_
_atom_site_type_symbol
_atom_site_label
_atom_site_fract_x
_atom_site_fract_y
_atom_site_fract_z
Si Si1 0.414733 0.355101 0.423900
Si Si2 0.232129 0.070318 0.581736
Si Si3 0.622860 0.930527 0.218780
Si Si4 0.556291 0.368950 0.033097
Si Si5 0.947663 0.238435 0.833587
Si Si6 0.445810 0.159283 0.145013
Si Si7 0.764781 0.570989 0.082784
O O1 0.330660 0.399571 0.440148
O O2 0.444199 0.286752 0.355420
O O3 0.268776 0.351690 0.643944
O O4 0.596973 0.386288 0.276572
O O5 0.424486 0.098712 0.416552
O O6 0.085968 0.078688 0.799872
O O7 0.261064 0.000000 0.532246
O O8 0.612767 0.000000 0.258129
O O9 0.742753 0.895331 0.167336
O O10 0.716825 0.923824 0.035273
O O11 0.544188 0.313971 0.107458
O O12 0.500000 0.343280 0.000000
O O13 0.022019 0.298310 0.805296
O O14 0.750000 0.250000 0.000000
O O15 0.500000 0.187012 0.000000
O O16 0.558442 0.096979 0.047179
O O17 0.737951 0.500000 0.135825
#
# Coordination Sequence:
#
# PCOD8093333 Si02
#       7
#     8   8   8   8   8   8   8
#     4  11  22  40  71  95 124 169 218 264 311 379
#     4  10  20  35  61  93 123 165 216 255 302 375
#     4  10  19  35  61  89 122 167 214 256 301 370
#     4  11  23  38  59  91 128 163 203 263 325 374
#     4  11  22  45  70  89 121 168 220 263 309 383
#     4  12  26  44  66  98 135 165 207 270 335 378
#     4  11  22  41  68  97 128 169 219 264 310 385
#
# _framework density 21.393453999999998
#
# number of rings (size 3 to 8) (size 9 to 14) (size 15 to 20)
#    0.000    1.143    5.714    1.714    0.000    3.143 
#    0.000    2.143    3.143    0.000    0.000    0.000 
#    0.000    0.000    0.000    0.000    0.000    0.000 
#
# Total GULP energy -347124.143466 kJ/mol
# GULP energy per Si atom -12397.290838 kJ/mol
# Density = 2.134476 g / cm^3
# Si number density = 21.393454 Si / 1000 Ang^3
#
#
#
# Elastic Constant Matrix: (Units=GPa)
#
#
# Indices 1 2 3 4 5 6 
#
# 1 53.8630 6.3666 31.5769 0.0226 -0.3846 0.0188
# 2 6.3666 70.9487 28.1776 0.0113 3.0989 0.0610
# 3 31.5769 28.1776 141.7768 0.1370 -12.0760 0.1312
# 4 0.0226 0.0113 0.1370 23.8160 -0.0264 -18.0165
# 5 -0.3846 3.0989 -12.0760 -0.0264 27.8063 -0.0498
# 6 0.0188 0.0610 0.1312 -18.0165 -0.0498 -2.6893
#
#
#
# Elastic Compliance Matrix: (Units=1/GPa)
#
#
# Indices 1 2 3 4 5 6 
#
# 1 0.021446 0.000128 -0.004961 -0.000006 -0.001872 -0.000016
# 2 0.000128 0.015572 -0.003397 0.000032 -0.003209 0.000031
# 3 -0.004961 -0.003397 0.009200 0.000025 0.004306 0.000089
# 4 -0.000006 0.000032 0.000025 0.006920 -0.000069 -0.046357
# 5 -0.001872 -0.003209 0.004306 -0.000069 0.038164 -0.000119
# 6 -0.000016 0.000031 0.000089 -0.046357 -0.000119 -0.061278
#
#
# Mechanical properties :
#
#
# Convention : Reuss Voigt Hill
#
# Bulk Modulus (GPa) = 33.60494 44.31451 38.95973
# Shear Modulus (GPa) = 88.64546 23.15108 55.89827
#
# Velocity S-wave (km/s) = 6.44405 3.29318 5.11717
# Velocity P-wave (km/s) = 8.43266 5.93457 7.29140
#
# Compressibility (1/GPa) = 0.02975753
#
# Stress axis : x y z
#
# Youngs Moduli (GPa) = 46.62946 64.21612 108.69498
#
# Poissons Ratio (x) = -0.00820 0.53927
# Poissons Ratio (y) = -0.00596 0.36921
# Poissons Ratio (z) = 0.23134 0.21813
#
# Static dielectric constant tensor:
#      x y z
#    x 3.699340 -0.000170 -0.114870 
#    y -0.000170 3.995650 0.000460 
#    z -0.114870 0.000460 4.495930 
# 
# 
# High freq. dielectric constant tensor:
#      x y z
#    x 1.820000 -0.000020 -0.022540 
#    y -0.000020 1.835360 0.000040 
#    z -0.022540 0.000040 1.847980 
# 
# From -- ./inp_files/218650.got.cif
#   From: 2010.06.25/outbox.cif.g09.slc.cpg/sg12_110_cif.got.tgz:218650.got - 2010.06.28 00:19:55.
