data_PCOD8093338
_publ_section_title
;
Structure prediction by ZEFSAII (Michael W. Deem and Ramdas Pophale) SiO2 
 PCOD8093338
Probable space group: C 2/M
;
_chemical_formula_sum "Si O2"
_cell_formula_units_Z 44
_cell_length_a 26.447831
_cell_length_b 7.657801
_cell_length_c 27.829299
_cell_angle_alpha 90.000000
_cell_angle_beta 156.202045
_cell_angle_gamma 90.000000
_cell_volume 2274.330352
_symmetry_space_group_name_H-M "C 2/M"
_symmetry_group_IT_number 12
_symmetry_cell_setting 'monoclinic'
loop_
_space_group_symop_operation_xyz
x,y,z
-x,y,-z
-x,-y,-z
x,-y,z
1/2+x,1/2+y,z
1/2-x,1/2+y,-z
1/2-x,1/2-y,-z
1/2+x,1/2-y,z
loop_
_atom_site_type_symbol
_atom_site_label
_atom_site_fract_x
_atom_site_fract_y
_atom_site_fract_z
Si Si1 0.952876 0.306698 0.282673
Si Si2 0.049841 0.000000 0.425930
Si Si3 0.297031 0.500000 0.263883
Si Si4 0.026955 0.202805 0.146924
Si Si5 0.796679 0.801941 0.879243
Si Si6 0.105812 0.796863 0.870711
Si Si7 0.774922 0.500000 0.692483
O O1 0.994480 0.500000 0.335387
O O2 0.045424 0.170586 0.388404
O O3 0.809809 0.267166 0.173474
O O4 0.959479 0.298403 0.230859
O O5 0.938211 0.000000 0.367369
O O6 0.181565 0.000000 0.566739
O O7 0.221916 0.671662 0.181313
O O8 0.304008 0.500000 0.327149
O O9 0.145372 0.323373 0.240100
O O10 0.964426 0.263178 0.142342
O O11 0.068225 0.000000 0.184741
O O12 0.929456 0.234529 0.019166
O O13 0.789527 0.000000 0.853300
O O14 0.090973 0.000000 0.849006
O O15 0.250000 0.750000 0.000000
#
# Coordination Sequence:
#
# PCOD8093338 Si02
#       7
#     8   4   4   8   8   8   4
#     4  10  19  35  61  90 118 153 193 247 300 343
#     4  10  23  44  62  84 114 154 214 258 288 342
#     4  10  22  40  65  87 110 150 210 259 302 345
#     4  10  23  38  56  89 130 158 190 235 299 367
#     4   9  18  35  58  92 123 148 184 243 308 367
#     4  11  20  32  59  95 125 155 192 234 289 357
#     4  12  26  42  61  81 116 168 206 250 297 342
#
# _framework density 19.346354999999999
#
# number of rings (size 3 to 8) (size 9 to 14) (size 15 to 20)
#    0.000    1.818    2.727    1.364    2.545    2.909 
#    0.000    2.727    0.000    5.455    0.000    0.000 
#    0.000    0.000    0.000    0.000    0.000    0.000 
#
# Total GULP energy -272866.963480 kJ/mol
# GULP energy per Si atom -12403.043795 kJ/mol
# Density = 1.930232 g / cm^3
# Si number density = 19.346355 Si / 1000 Ang^3
#
#
#
# Elastic Constant Matrix: (Units=GPa)
#
#
# Indices 1 2 3 4 5 6 
#
# 1 51.7263 13.8509 1.2344 -0.0005 -10.1614 0.0002
# 2 13.8509 106.7361 39.2039 0.0003 -6.4588 -0.0021
# 3 1.2344 39.2039 85.9661 -0.0003 -12.0066 0.0001
# 4 -0.0005 0.0003 -0.0003 21.1017 0.0003 3.0971
# 5 -10.1614 -6.4588 -12.0066 0.0003 23.4313 -0.0001
# 6 0.0002 -0.0021 0.0001 3.0971 -0.0001 26.8163
#
#
#
# Elastic Compliance Matrix: (Units=1/GPa)
#
#
# Indices 1 2 3 4 5 6 
#
# 1 0.022091 -0.003193 0.002535 0.000000 0.009999 0.000000
# 2 -0.003193 0.011721 -0.005430 0.000000 -0.000936 0.000001
# 3 0.002535 -0.005430 0.015097 0.000000 0.007339 -0.000001
# 4 0.000000 0.000000 0.000000 0.048207 0.000000 -0.005567
# 5 0.009999 -0.000936 0.007339 0.000000 0.050517 0.000000
# 6 0.000000 0.000001 -0.000001 -0.005567 0.000000 0.037934
#
#
# Mechanical properties :
#
#
# Convention : Reuss Voigt Hill
#
# Bulk Modulus (GPa) = 27.22230 39.22297 33.22263
# Shear Modulus (GPa) = 23.81096 26.94581 25.37838
#
# Velocity S-wave (km/s) = 3.51204 3.73609 3.62580
# Velocity P-wave (km/s) = 5.52698 6.23933 5.89393
#
# Compressibility (1/GPa) = 0.03673458
#
# Stress axis : x y z
#
# Youngs Moduli (GPa) = 45.26660 85.31632 66.23630
#
# Poissons Ratio (x) = 0.27241 -0.16794
# Poissons Ratio (y) = 0.14453 0.35968
# Poissons Ratio (z) = -0.11477 0.46328
#
# Static dielectric constant tensor:
#      x y z
#    x 3.459900 0.000000 -0.108660 
#    y 0.000000 3.927450 0.000000 
#    z -0.108660 0.000000 3.235800 
# 
# 
# High freq. dielectric constant tensor:
#      x y z
#    x 1.746650 0.000000 -0.012450 
#    y 0.000000 1.770470 0.000000 
#    z -0.012450 0.000000 1.727700 
# 
# From -- ./inp_files/369112.got.cif
#   From: 2010.06.25/outbox.cif.g09.slc.cpg/sg12_185_cif.got.tgz:369112.got - 2010.06.28 00:19:55.
