data_PCOD8093094
_publ_section_title
;
Structure prediction by ZEFSAII (Michael W. Deem and Ramdas Pophale) SiO2 
 PCOD8093094
Probable space group: C 2/M
;
_chemical_formula_sum "Si O2"
_cell_formula_units_Z 48
_cell_length_a 20.604700
_cell_length_b 8.703139
_cell_length_c 15.154076
_cell_angle_alpha 90.000000
_cell_angle_beta 111.693220
_cell_angle_gamma 90.000000
_cell_volume 2525.048993
_symmetry_space_group_name_H-M "C 2/M"
_symmetry_group_IT_number 12
_symmetry_cell_setting 'monoclinic'
loop_
_space_group_symop_operation_xyz
x,y,z
-x,y,-z
-x,-y,-z
x,-y,z
1/2+x,1/2+y,z
1/2-x,1/2+y,-z
1/2-x,1/2-y,-z
1/2+x,1/2-y,z
loop_
_atom_site_type_symbol
_atom_site_label
_atom_site_fract_x
_atom_site_fract_y
_atom_site_fract_z
Si Si1 0.076501 0.318313 0.751946
Si Si2 0.925394 0.682325 0.738547
Si Si3 0.326052 0.181142 0.038113
Si Si4 0.173471 0.317949 0.465158
Si Si5 0.077903 0.819141 0.564948
Si Si6 0.075587 0.683235 0.065883
O O1 0.075643 0.500000 0.733244
O O2 0.133928 0.271256 0.852884
O O3 0.095683 0.228374 0.673165
O O4 0.001650 0.258717 0.748460
O O5 0.926482 0.500000 0.739646
O O6 0.868196 0.745042 0.641236
O O7 0.906503 0.743721 0.826792
O O8 0.320786 0.000000 0.028361
O O9 0.250000 0.250000 0.000000
O O10 0.367210 0.247363 0.973781
O O11 0.177923 0.500000 0.466686
O O12 0.250000 0.250000 0.500000
O O13 0.133998 0.265181 0.532659
O O14 0.000000 0.763981 0.500000
O O15 0.086321 0.000000 0.556844
O O16 0.074165 0.500000 0.062377
O O17 0.000000 0.747175 0.000000
#
# Coordination Sequence:
#
# PCOD8093094 Si02
#       6
#     8   8   8   8   8   8
#     4  10  19  35  59  86 112 149 198 240 283 345
#     4   9  17  31  56  85 110 143 191 236 280 336
#     4  10  21  35  56  85 119 151 186 234 288 343
#     4  11  23  39  59  85 120 156 193 241 294 350
#     4  11  23  38  59  87 116 150 196 248 299 352
#     4   9  15  29  55  84 107 136 184 234 271 322
#
# _framework density 19.009530999999999
#
# number of rings (size 3 to 8) (size 9 to 14) (size 15 to 20)
#    0.000    2.000    3.333    1.000    0.000    2.667 
#    0.000    1.667    0.000    2.500    0.000    0.000 
#    0.000    0.000    0.000    0.000    0.000    0.000 
#
# Total GULP energy -297628.308096 kJ/mol
# GULP energy per Si atom -12401.179504 kJ/mol
# Density = 1.896626 g / cm^3
# Si number density = 19.009531 Si / 1000 Ang^3
#
#
#
# Elastic Constant Matrix: (Units=GPa)
#
#
# Indices 1 2 3 4 5 6 
#
# 1 177.8864 30.1391 97.3862 0.0000 4.0794 0.0000
# 2 30.1391 33.4347 29.6448 0.0000 2.6650 0.0000
# 3 97.3862 29.6448 177.7511 0.0000 -4.5554 0.0000
# 4 0.0000 0.0000 0.0000 17.8576 0.0000 5.7965
# 5 4.0794 2.6650 -4.5554 0.0000 40.1683 0.0000
# 6 0.0000 0.0000 0.0000 5.7965 0.0000 27.1907
#
#
#
# Elastic Compliance Matrix: (Units=1/GPa)
#
#
# Indices 1 2 3 4 5 6 
#
# 1 0.008536 -0.004037 -0.004031 0.000000 -0.001056 0.000000
# 2 -0.004037 0.037373 -0.004086 0.000000 -0.002533 0.000000
# 3 -0.004031 -0.004086 0.008558 0.000000 0.001651 0.000000
# 4 0.000000 0.000000 0.000000 0.060162 0.000000 -0.012825
# 5 -0.001056 -0.002533 0.001651 0.000000 0.025358 0.000000
# 6 0.000000 0.000000 0.000000 -0.012825 0.000000 0.039511
#
#
# Mechanical properties :
#
#
# Convention : Reuss Voigt Hill
#
# Bulk Modulus (GPa) = 33.15679 78.15694 55.65687
# Shear Modulus (GPa) = 23.37986 32.50344 27.94165
#
# Velocity S-wave (km/s) = 3.51080 4.13952 3.83806
# Velocity P-wave (km/s) = 5.82360 8.00321 6.99877
#
# Compressibility (1/GPa) = 0.03015973
#
# Stress axis : x y z
#
# Youngs Moduli (GPa) = 117.14474 26.75735 116.85001
#
# Poissons Ratio (x) = 0.10802 0.47099
# Poissons Ratio (y) = 0.47291 0.47746
# Poissons Ratio (z) = 0.47218 0.10933
#
# Static dielectric constant tensor:
#      x y z
#    x 3.239110 0.000000 0.017040 
#    y 0.000000 3.098200 0.000000 
#    z 0.017040 0.000000 3.754870 
# 
# 
# High freq. dielectric constant tensor:
#      x y z
#    x 1.743630 0.000000 -0.006220 
#    y 0.000000 1.702540 0.000000 
#    z -0.006220 0.000000 1.756710 
# 
# From -- ./inp_files/230378.got.cif
#   From: 2010.06.25/outbox.cif.g09.slc.cpg/sg12_116_cif.got.tgz:230378.got - 2010.06.28 00:19:55.
