data_PCOD8093609
_publ_section_title
;
Structure prediction by ZEFSAII (Michael W. Deem and Ramdas Pophale) SiO2 
 PCOD8093609
Probable space group: C 2/M
;
_chemical_formula_sum "Si O2"
_cell_formula_units_Z 48
_cell_length_a 18.775671
_cell_length_b 11.433131
_cell_length_c 13.429103
_cell_angle_alpha 90.000000
_cell_angle_beta 114.390270
_cell_angle_gamma 90.000000
_cell_volume 2625.479573
_symmetry_space_group_name_H-M "C 2/M"
_symmetry_group_IT_number 12
_symmetry_cell_setting 'monoclinic'
loop_
_space_group_symop_operation_xyz
x,y,z
-x,y,-z
-x,-y,-z
x,-y,z
1/2+x,1/2+y,z
1/2-x,1/2+y,-z
1/2-x,1/2-y,-z
1/2+x,1/2-y,z
loop_
_atom_site_type_symbol
_atom_site_label
_atom_site_fract_x
_atom_site_fract_y
_atom_site_fract_z
Si Si1 0.982665 0.748006 0.690391
Si Si2 0.629107 0.633041 0.687293
Si Si3 0.825847 0.259713 0.477267
Si Si4 0.299602 0.635426 0.060895
Si Si5 0.985900 0.500000 0.331883
Si Si6 0.027537 0.133887 0.911980
Si Si7 0.625628 0.000000 0.565924
O O1 0.050158 0.792171 0.654520
O O2 0.001834 0.613605 0.728686
O O3 0.979292 0.812455 0.793154
O O4 0.900714 0.763908 0.588742
O O5 0.601340 0.500000 0.664133
O O6 0.674914 0.667378 0.613525
O O7 0.687185 0.649701 0.813786
O O8 0.750000 0.250000 0.500000
O O9 0.822703 0.387212 0.426551
O O10 0.266685 0.500000 0.021443
O O11 0.380240 0.649547 0.048044
O O12 0.250000 0.750000 0.000000
O O13 0.899984 0.500000 0.332929
O O14 0.048899 0.500000 0.455350
O O15 0.002440 0.000000 0.897883
O O16 0.000000 0.192824 0.000000
#
# Coordination Sequence:
#
# PCOD8093609 Si02
#       7
#     8   8   8   8   4   8   4
#     4  10  19  36  58  79 107 145 190 222 264 328
#     4  10  21  37  57  81 110 144 182 228 271 317
#     4  11  23  35  53  82 115 146 179 224 277 329
#     4   9  19  38  60  83 113 145 183 229 281 331
#     4   9  16  32  59  72 100 150 184 220 258 312
#     4   9  19  37  60  82 109 142 181 232 279 321
#     4   9  18  36  50  74 109 146 182 217 268 317
#
# _framework density 18.282374000000001
#
# number of rings (size 3 to 8) (size 9 to 14) (size 15 to 20)
#    0.000    2.333    1.667    2.000    1.167    3.333 
#    7.500    0.417    0.000    0.000    0.000    0.000 
#    0.000    0.000    0.000    0.000    0.000    0.000 
#
# Total GULP energy -297455.875013 kJ/mol
# GULP energy per Si atom -12393.994792 kJ/mol
# Density = 1.824076 g / cm^3
# Si number density = 18.282374 Si / 1000 Ang^3
#
#
#
# Elastic Constant Matrix: (Units=GPa)
#
#
# Indices 1 2 3 4 5 6 
#
# 1 93.1527 41.3591 57.0491 0.0000 -15.4017 0.0000
# 2 41.3591 123.1970 50.6968 0.0000 7.1555 0.0000
# 3 57.0491 50.6968 97.3290 0.0000 -17.9939 0.0000
# 4 0.0000 0.0000 0.0000 34.2811 0.0000 1.6050
# 5 -15.4017 7.1555 -17.9939 0.0000 30.3157 0.0000
# 6 0.0000 0.0000 0.0000 1.6050 0.0000 21.5030
#
#
#
# Elastic Compliance Matrix: (Units=1/GPa)
#
#
# Indices 1 2 3 4 5 6 
#
# 1 0.017738 -0.002992 -0.007910 0.000000 0.005023 0.000000
# 2 -0.002992 0.012043 -0.005982 0.000000 -0.007913 0.000000
# 3 -0.007910 -0.005982 0.019708 0.000000 0.009091 0.000000
# 4 0.000000 0.000000 0.000000 0.029273 0.000000 -0.002185
# 5 0.005023 -0.007913 0.009091 0.000000 0.042802 0.000000
# 6 0.000000 0.000000 0.000000 -0.002185 0.000000 0.046668
#
#
# Mechanical properties :
#
#
# Convention : Reuss Voigt Hill
#
# Bulk Modulus (GPa) = 63.61183 67.98764 65.79974
# Shear Modulus (GPa) = 24.12658 28.19155 26.15907
#
# Velocity S-wave (km/s) = 3.63666 3.93110 3.78674
# Velocity P-wave (km/s) = 7.24592 7.60743 7.42887
#
# Compressibility (1/GPa) = 0.01572035
#
# Stress axis : x y z
#
# Youngs Moduli (GPa) = 56.37538 83.03724 50.74109
#
# Poissons Ratio (x) = 0.24841 0.40138
# Poissons Ratio (y) = 0.16865 0.30355
# Poissons Ratio (z) = 0.44595 0.49676
#
# Static dielectric constant tensor:
#      x y z
#    x 3.211770 0.000000 -0.179490 
#    y 0.000000 3.888560 0.000000 
#    z -0.179490 0.000000 3.274790 
# 
# 
# High freq. dielectric constant tensor:
#      x y z
#    x 1.693040 0.000000 -0.013960 
#    y 0.000000 1.723900 0.000000 
#    z -0.013960 0.000000 1.696670 
# 
# From -- ./inp_files/154254.got.cif
#   From: 2010.06.25/outbox.cif.g09.slc.cpg/sg12_78_cif.got.tgz:154254.got - 2010.06.28 00:19:55.
