data_PCOD8093410
_publ_section_title
;
Structure prediction by ZEFSAII (Michael W. Deem and Ramdas Pophale) SiO2 
 PCOD8093410
Probable space group: C 2/M
;
_chemical_formula_sum "Si O2"
_cell_formula_units_Z 64
_cell_length_a 14.431361
_cell_length_b 18.244954
_cell_length_c 21.477861
_cell_angle_alpha 90.000000
_cell_angle_beta 34.477661
_cell_angle_gamma 90.000000
_cell_volume 3201.272493
_symmetry_space_group_name_H-M "C 2/M"
_symmetry_group_IT_number 12
_symmetry_cell_setting 'monoclinic'
loop_
_space_group_symop_operation_xyz
x,y,z
-x,y,-z
-x,-y,-z
x,-y,z
1/2+x,1/2+y,z
1/2-x,1/2+y,-z
1/2-x,1/2-y,-z
1/2+x,1/2-y,z
loop_
_atom_site_type_symbol
_atom_site_label
_atom_site_fract_x
_atom_site_fract_y
_atom_site_fract_z
Si Si1 0.348567 0.412858 0.381039
Si Si2 0.203636 0.413536 0.957852
Si Si3 0.450865 0.178862 0.156323
Si Si4 0.011768 0.583951 0.624802
Si Si5 0.606681 0.178719 0.196757
Si Si6 0.166357 0.166830 0.226190
Si Si7 0.182064 0.916428 0.744086
Si Si8 0.093115 0.832804 0.053671
O O1 0.362451 0.500000 0.379009
O O2 0.180979 0.383538 0.504496
O O3 0.497760 0.374966 0.335426
O O4 0.356017 0.388796 0.304641
O O5 0.235936 0.500000 0.943564
O O6 0.025999 0.394832 0.084374
O O7 0.217847 0.386040 0.879061
O O8 0.340501 0.369175 0.920027
O O9 0.463224 0.177085 0.224032
O O10 0.263997 0.185829 0.236125
O O11 0.569264 0.245522 0.069258
O O12 0.036690 0.500000 0.629387
O O13 0.954453 0.623461 0.718202
O O14 0.875602 0.593169 0.646816
O O15 0.625116 0.259013 0.213609
O O16 0.782071 0.150980 0.071977
O O17 0.087165 0.869706 0.850467
O O18 0.127234 0.000000 0.782957
#
# Coordination Sequence:
#
# PCOD8093410 Si02
#       8
#     8   8   8   8   8   8   8   8
#     4  10  21  40  62  87 121 155 205 268 311 351
#     4  11  21  36  59  89 124 159 202 254 302 354
#     4  11  23  38  58  88 125 163 201 244 308 370
#     4  10  23  40  60  86 119 166 209 251 309 367
#     4  11  23  40  59  85 127 163 201 247 305 375
#     4  12  22  37  63  89 117 161 208 254 304 363
#     4  10  19  35  63  93 119 155 208 260 306 359
#     4  11  20  39  60  90 125 163 196 244 314 367
#
# _framework density 19.992049999999999
#
# number of rings (size 3 to 8) (size 9 to 14) (size 15 to 20)
#    0.000    1.250    3.750    3.000    0.000    7.500 
#    0.000    1.875    0.000    1.500    0.000    0.000 
#    0.000    0.000    0.000    0.000    0.000    0.000 
#
# Total GULP energy -396733.712343 kJ/mol
# GULP energy per Si atom -12397.928511 kJ/mol
# Density = 1.994655 g / cm^3
# Si number density = 19.992050 Si / 1000 Ang^3
#
#
#
# Elastic Constant Matrix: (Units=GPa)
#
#
# Indices 1 2 3 4 5 6 
#
# 1 96.9402 36.6455 47.1821 -0.0002 -16.7291 -0.0005
# 2 36.6455 76.7245 37.5836 -0.0023 -4.9288 0.0011
# 3 47.1821 37.5836 112.3932 -0.0059 1.0851 0.0014
# 4 -0.0002 -0.0023 -0.0059 16.9497 0.0004 7.0618
# 5 -16.7291 -4.9288 1.0851 0.0004 25.0089 0.0004
# 6 -0.0005 0.0011 0.0014 7.0618 0.0004 24.3762
#
#
#
# Elastic Compliance Matrix: (Units=1/GPa)
#
#
# Indices 1 2 3 4 5 6 
#
# 1 0.016499 -0.004510 -0.005518 -0.000003 0.010387 0.000002
# 2 -0.004510 0.017097 -0.003829 0.000001 0.000519 -0.000001
# 3 -0.005518 -0.003829 0.012542 0.000005 -0.004990 -0.000002
# 4 -0.000003 0.000001 0.000005 0.067097 -0.000003 -0.019438
# 5 0.010387 0.000519 -0.004990 -0.000003 0.047253 0.000001
# 6 0.000002 -0.000001 -0.000002 -0.019438 0.000001 0.046655
#
#
# Mechanical properties :
#
#
# Convention : Reuss Voigt Hill
#
# Bulk Modulus (GPa) = 54.27747 58.76449 56.52098
# Shear Modulus (GPa) = 20.74715 24.24341 22.49528
#
# Velocity S-wave (km/s) = 3.22494 3.48609 3.35806
# Velocity P-wave (km/s) = 6.40901 6.75733 6.58548
#
# Compressibility (1/GPa) = 0.01842385
#
# Stress axis : x y z
#
# Youngs Moduli (GPa) = 60.61047 58.49150 79.72952
#
# Poissons Ratio (x) = 0.26379 0.43997
# Poissons Ratio (y) = 0.27334 0.30527
# Poissons Ratio (z) = 0.33447 0.22395
#
# Static dielectric constant tensor:
#      x y z
#    x 3.635630 -0.000010 -0.167900 
#    y -0.000010 3.667240 0.000030 
#    z -0.167900 0.000030 3.714400 
# 
# 
# High freq. dielectric constant tensor:
#      x y z
#    x 1.773320 0.000000 -0.015600 
#    y 0.000000 1.778540 0.000000 
#    z -0.015600 0.000000 1.770040 
# 
# From -- ./inp_files/340830.got.cif
#   From: 2010.06.25/outbox.cif.g09.slc.cpg/sg12_171_cif.got.tgz:340830.got - 2010.06.28 00:19:55.
