data_PCOD8093328
_publ_section_title
;
Structure prediction by ZEFSAII (Michael W. Deem and Ramdas Pophale) SiO2 
 PCOD8093328
Probable space group: C 2/M
;
_chemical_formula_sum "Si O2"
_cell_formula_units_Z 64
_cell_length_a 33.478318
_cell_length_b 18.088058
_cell_length_c 9.887700
_cell_angle_alpha 90.000000
_cell_angle_beta 146.997121
_cell_angle_gamma 90.000000
_cell_volume 3261.318542
_symmetry_space_group_name_H-M "C 2/M"
_symmetry_group_IT_number 12
_symmetry_cell_setting 'monoclinic'
loop_
_space_group_symop_operation_xyz
x,y,z
-x,y,-z
-x,-y,-z
x,-y,z
1/2+x,1/2+y,z
1/2-x,1/2+y,-z
1/2-x,1/2-y,-z
1/2+x,1/2-y,z
loop_
_atom_site_type_symbol
_atom_site_label
_atom_site_fract_x
_atom_site_fract_y
_atom_site_fract_z
Si Si1 0.546511 0.086409 0.265334
Si Si2 0.694870 0.912485 0.555140
Si Si3 0.932041 0.838205 0.083546
Si Si4 0.852942 0.086146 0.089650
Si Si5 0.962451 0.324408 0.250268
Si Si6 0.663011 0.585529 0.402214
Si Si7 0.826564 0.414489 0.808232
Si Si8 0.580319 0.585167 0.437649
O O1 0.630458 0.110568 0.475203
O O2 0.518726 0.132663 0.313532
O O3 0.540232 0.000000 0.283705
O O4 0.500000 0.104649 0.000000
O O5 0.677611 0.882414 0.356238
O O6 0.700725 0.000000 0.563327
O O7 0.772544 0.880901 0.827872
O O8 0.916070 0.871832 0.185876
O O9 0.937828 0.750628 0.108266
O O10 0.007126 0.867728 0.234764
O O11 0.865506 0.862025 0.797719
O O12 0.867208 0.101141 0.287113
O O13 0.858267 0.000000 0.067780
O O14 0.000000 0.308067 0.500000
O O15 0.889421 0.372111 0.068730
O O16 0.646838 0.500000 0.318202
O O17 0.749705 0.597984 0.665744
O O18 0.625212 0.609219 0.433714
O O19 0.849011 0.500000 0.869233
O O20 0.556733 0.500000 0.364044
#
# Coordination Sequence:
#
# PCOD8093328 Si02
#       8
#     8   8   8   8   8   8   8   8
#     4  10  20  38  64  88 111 148 199 250 299 353
#     4   9  17  34  63  91 112 144 195 250 295 349
#     4  12  23  39  59  82 123 167 204 238 285 355
#     4  10  19  35  61  89 117 156 200 245 297 349
#     4  12  27  41  57  88 126 163 201 243 296 354
#     4  10  21  39  65  94 119 150 198 251 303 355
#     4  10  20  40  66  89 116 151 197 252 301 355
#     4  10  21  36  58  91 124 152 194 250 300 349
#
# _framework density 19.623964999999998
#
# number of rings (size 3 to 8) (size 9 to 14) (size 15 to 20)
#    0.000    1.625    2.500    3.000    0.000    5.500 
#    0.000    2.500    0.000    3.000    0.000    0.000 
#    0.000    0.000    0.000    0.000    0.000    0.000 
#
# Total GULP energy -396915.285825 kJ/mol
# GULP energy per Si atom -12403.602682 kJ/mol
# Density = 1.957930 g / cm^3
# Si number density = 19.623965 Si / 1000 Ang^3
#
#
#
# Elastic Constant Matrix: (Units=GPa)
#
#
# Indices 1 2 3 4 5 6 
#
# 1 123.2300 46.4423 36.4588 0.0000 11.2688 0.0000
# 2 46.4423 71.1481 33.3144 0.0000 1.9701 0.0000
# 3 36.4588 33.3144 87.2960 0.0000 10.4124 0.0000
# 4 0.0000 0.0000 0.0000 16.7122 0.0000 -5.0557
# 5 11.2688 1.9701 10.4124 0.0000 34.5280 0.0000
# 6 0.0000 0.0000 0.0000 -5.0557 0.0000 8.2420
#
#
#
# Elastic Compliance Matrix: (Units=1/GPa)
#
#
# Indices 1 2 3 4 5 6 
#
# 1 0.011370 -0.006424 -0.001969 0.000000 -0.002750 0.000000
# 2 -0.006424 0.020778 -0.005555 0.000000 0.002586 0.000000
# 3 -0.001969 -0.005555 0.014816 0.000000 -0.003508 0.000000
# 4 0.000000 0.000000 0.000000 0.073470 0.000000 0.045067
# 5 -0.002750 0.002586 -0.003508 0.000000 0.030770 0.000000
# 6 0.000000 0.000000 0.000000 0.045067 0.000000 0.148973
#
#
# Mechanical properties :
#
#
# Convention : Reuss Voigt Hill
#
# Bulk Modulus (GPa) = 52.44315 57.12280 54.78298
# Shear Modulus (GPa) = 14.95090 22.92703 18.93896
#
# Velocity S-wave (km/s) = 2.76319 3.42177 3.10997
# Velocity P-wave (km/s) = 6.07967 6.69203 6.39319
#
# Compressibility (1/GPa) = 0.01906827
#
# Stress axis : x y z
#
# Youngs Moduli (GPa) = 87.95165 48.12860 67.49430
#
# Poissons Ratio (x) = 0.30916 0.13290
# Poissons Ratio (y) = 0.56496 0.37493
# Poissons Ratio (z) = 0.17319 0.26735
#
# Static dielectric constant tensor:
#      x y z
#    x 3.705350 0.000000 0.147170 
#    y 0.000000 3.331720 0.000000 
#    z 0.147170 0.000000 3.655230 
# 
# 
# High freq. dielectric constant tensor:
#      x y z
#    x 1.775020 0.000000 0.010560 
#    y 0.000000 1.736060 0.000000 
#    z 0.010560 0.000000 1.768060 
# 
# From -- ./inp_files/112923.got.cif
#   From: 2010.06.25/outbox.cif.g09.slc.cpg/sg12_57_cif.got.tgz:112923.got - 2010.06.28 00:19:55.
