data_PCOD8093750
_publ_section_title
;
Structure prediction by ZEFSAII (Michael W. Deem and Ramdas Pophale) SiO2 
 PCOD8093750
Probable space group: C 2/M
;
_chemical_formula_sum "Si O2"
_cell_formula_units_Z 56
_cell_length_a 20.207837
_cell_length_b 17.819034
_cell_length_c 16.422697
_cell_angle_alpha 90.000000
_cell_angle_beta 29.049956
_cell_angle_gamma 90.000000
_cell_volume 2871.455663
_symmetry_space_group_name_H-M "C 2/M"
_symmetry_group_IT_number 12
_symmetry_cell_setting 'monoclinic'
loop_
_space_group_symop_operation_xyz
x,y,z
-x,y,-z
-x,-y,-z
x,-y,z
1/2+x,1/2+y,z
1/2-x,1/2+y,-z
1/2-x,1/2-y,-z
1/2+x,1/2-y,z
loop_
_atom_site_type_symbol
_atom_site_label
_atom_site_fract_x
_atom_site_fract_y
_atom_site_fract_z
Si Si1 0.337797 0.331861 0.285139
Si Si2 0.604463 0.585032 0.024095
Si Si3 0.276825 0.414649 0.514620
Si Si4 0.143336 0.183853 0.310314
Si Si5 0.421337 0.414292 0.765498
Si Si6 0.631690 0.165120 0.803652
Si Si7 0.345155 0.145603 0.669810
O O1 0.484889 0.368927 0.107172
O O2 0.282542 0.357131 0.432665
O O3 0.364471 0.243686 0.248306
O O4 0.218387 0.354366 0.351654
O O5 0.552930 0.500000 0.078287
O O6 0.622527 0.611564 0.097256
O O7 0.750858 0.591549 0.824513
O O8 0.260090 0.500000 0.500337
O O9 0.415469 0.405782 0.417322
O O10 0.151288 0.395504 0.710148
O O11 0.159520 0.141997 0.206759
O O12 0.250842 0.153577 0.257899
O O13 0.156684 0.273235 0.284890
O O14 0.000000 0.160037 0.500000
O O15 0.377057 0.500000 0.794453
O O16 0.500000 0.152106 0.000000
O O17 0.500000 0.114556 0.500000
#
# Coordination Sequence:
#
# PCOD8093750 Si02
#       7
#     8   8   8   8   8   8   8
#     4  10  20  39  63  85 113 155 204 246 280 339
#     4  10  21  39  62  87 114 149 198 245 286 345
#     4  10  21  38  61  89 119 155 200 246 293 348
#     4  10  19  36  59  83 116 153 193 236 284 344
#     4   9  19  36  60  88 112 147 201 246 281 337
#     4  11  22  37  58  89 124 155 194 243 296 354
#     4  10  22  37  56  87 121 152 188 236 299 355
#
# _framework density 19.502303000000001
#
# number of rings (size 3 to 8) (size 9 to 14) (size 15 to 20)
#    0.000    2.000    1.429    3.857    0.000    3.714 
#    2.571    0.000    0.000    0.000    0.000    0.000 
#    0.000    0.000    0.000    0.000    0.000    0.000 
#
# Total GULP energy -347103.123013 kJ/mol
# GULP energy per Si atom -12396.540108 kJ/mol
# Density = 1.945792 g / cm^3
# Si number density = 19.502303 Si / 1000 Ang^3
#
#
#
# Elastic Constant Matrix: (Units=GPa)
#
#
# Indices 1 2 3 4 5 6 
#
# 1 88.2468 53.2166 40.8758 -0.0001 -10.1612 0.0002
# 2 53.2166 67.5650 28.2460 0.0003 4.4497 -0.0001
# 3 40.8758 28.2460 132.3355 0.0006 1.9247 -0.0003
# 4 -0.0001 0.0003 0.0006 28.7774 -0.0007 2.1681
# 5 -10.1612 4.4497 1.9247 -0.0007 28.2041 0.0004
# 6 0.0002 -0.0001 -0.0003 2.1681 0.0004 27.6397
#
#
#
# Elastic Compliance Matrix: (Units=1/GPa)
#
#
# Indices 1 2 3 4 5 6 
#
# 1 0.027210 -0.020548 -0.004213 0.000001 0.013332 -0.000001
# 2 -0.020548 0.031923 -0.000286 -0.000001 -0.012420 0.000000
# 3 -0.004213 -0.000286 0.008949 0.000000 -0.002083 0.000000
# 4 0.000001 -0.000001 0.000000 0.034956 0.000001 -0.002742
# 5 0.013332 -0.012420 -0.002083 0.000001 0.042361 -0.000001
# 6 -0.000001 0.000000 0.000000 -0.002742 -0.000001 0.036395
#
#
# Mechanical properties :
#
#
# Convention : Reuss Voigt Hill
#
# Bulk Modulus (GPa) = 55.59376 59.20269 57.39823
# Shear Modulus (GPa) = 21.01869 27.97815 24.49842
#
# Velocity S-wave (km/s) = 3.28648 3.79173 3.54811
# Velocity P-wave (km/s) = 6.55510 7.04218 6.80300
#
# Compressibility (1/GPa) = 0.01798763
#
# Stress axis : x y z
#
# Youngs Moduli (GPa) = 36.75137 31.32562 111.74325
#
# Poissons Ratio (x) = 0.64369 0.47073
# Poissons Ratio (y) = 0.75518 0.03196
# Poissons Ratio (z) = 0.15482 0.00896
#
# Static dielectric constant tensor:
#      x y z
#    x 3.491200 0.000000 0.048200 
#    y 0.000000 3.454190 0.000000 
#    z 0.048200 0.000000 3.490670 
# 
# 
# High freq. dielectric constant tensor:
#      x y z
#    x 1.758330 0.000000 0.008090 
#    y 0.000000 1.752900 0.000000 
#    z 0.008090 0.000000 1.755560 
# 
# From -- ./inp_files/227584.got.cif
#   From: 2010.06.25/outbox.cif.g09.slc.cpg/sg12_114_cif.got.tgz:227584.got - 2010.06.28 00:19:55.
