data_PCOD8093642
_publ_section_title
;
Structure prediction by ZEFSAII (Michael W. Deem and Ramdas Pophale) SiO2 
 PCOD8093642
Probable space group: C 2/M
;
_chemical_formula_sum "Si O2"
_cell_formula_units_Z 56
_cell_length_a 30.000896
_cell_length_b 9.407797
_cell_length_c 10.834266
_cell_angle_alpha 90.000000
_cell_angle_beta 66.862828
_cell_angle_gamma 90.000000
_cell_volume 2811.932713
_symmetry_space_group_name_H-M "C 2/M"
_symmetry_group_IT_number 12
_symmetry_cell_setting 'monoclinic'
loop_
_space_group_symop_operation_xyz
x,y,z
-x,y,-z
-x,-y,-z
x,-y,z
1/2+x,1/2+y,z
1/2-x,1/2+y,-z
1/2-x,1/2-y,-z
1/2+x,1/2-y,z
loop_
_atom_site_type_symbol
_atom_site_label
_atom_site_fract_x
_atom_site_fract_y
_atom_site_fract_z
Si Si1 0.672486 0.337523 0.419541
Si Si2 0.127541 0.666610 0.660273
Si Si3 0.478891 0.166942 0.155413
Si Si4 0.721293 0.840791 0.689078
Si Si5 0.293202 0.840494 0.007856
Si Si6 0.478702 0.666510 0.655543
Si Si7 0.867218 0.840485 0.802795
O O1 0.667911 0.500000 0.468878
O O2 0.629073 0.246194 0.527089
O O3 0.725853 0.271027 0.396212
O O4 0.666630 0.329222 0.279934
O O5 0.131927 0.500000 0.633007
O O6 0.078471 0.700372 0.787328
O O7 0.174428 0.734172 0.679321
O O8 0.500416 0.249310 0.249500
O O9 0.489578 0.000000 0.162619
O O10 0.500000 0.219081 0.000000
O O11 0.723881 0.000000 0.634413
O O12 0.711923 0.844576 0.842495
O O13 0.345435 0.769853 0.924140
O O14 0.291760 0.000000 0.954065
O O15 0.250000 0.750000 0.000000
O O16 0.500000 0.718315 0.500000
O O17 0.490115 0.500000 0.662309
O O18 0.421944 0.699837 0.710959
O O19 0.864638 0.000000 0.860230
#
# Coordination Sequence:
#
# PCOD8093642 Si02
#       7
#     8   8   8   8   8   8   8
#     4  10  19  36  58  82 115 150 184 228 287 346
#     4  10  21  37  57  82 112 146 191 237 282 340
#     4  10  23  41  61  86 120 158 200 252 302 355
#     4   9  19  35  56  80 111 150 186 226 279 339
#     4  11  21  36  58  83 115 155 193 233 285 343
#     4  10  22  41  65  90 119 157 201 253 307 361
#     4  10  21  37  58  86 118 149 189 239 290 346
#
# _framework density 19.915127999999999
#
# number of rings (size 3 to 8) (size 9 to 14) (size 15 to 20)
#    0.000    2.000    1.429    1.714    2.000    3.429 
#    0.000    1.429    0.000    0.000    0.000    0.000 
#    0.000    0.000    0.000    0.000    0.000    0.000 
#
# Total GULP energy -347043.446931 kJ/mol
# GULP energy per Si atom -12394.408819 kJ/mol
# Density = 1.986980 g / cm^3
# Si number density = 19.915128 Si / 1000 Ang^3
#
#
#
# Elastic Constant Matrix: (Units=GPa)
#
#
# Indices 1 2 3 4 5 6 
#
# 1 103.2438 42.3382 45.9494 0.0000 -14.9834 0.0000
# 2 42.3382 69.2624 46.2027 0.0000 -11.6439 0.0000
# 3 45.9494 46.2027 113.0080 0.0000 -21.8188 0.0000
# 4 0.0000 0.0000 0.0000 33.6272 0.0000 -1.7486
# 5 -14.9834 -11.6439 -21.8188 0.0000 38.0851 0.0000
# 6 0.0000 0.0000 0.0000 -1.7486 0.0000 26.6955
#
#
#
# Elastic Compliance Matrix: (Units=1/GPa)
#
#
# Indices 1 2 3 4 5 6 
#
# 1 0.013726 -0.006311 -0.002621 0.000000 0.001969 0.000000
# 2 -0.006311 0.022841 -0.006637 0.000000 0.000698 0.000000
# 3 -0.002621 -0.006637 0.013534 0.000000 0.004693 0.000000
# 4 0.000000 0.000000 0.000000 0.029839 0.000000 0.001954
# 5 0.001969 0.000698 0.004693 0.000000 0.029934 0.000000
# 6 0.000000 0.000000 0.000000 0.001954 0.000000 0.037588
#
#
# Mechanical properties :
#
#
# Convention : Reuss Voigt Hill
#
# Bulk Modulus (GPa) = 52.73530 61.61054 57.17292
# Shear Modulus (GPa) = 27.03859 29.74982 28.39420
#
# Velocity S-wave (km/s) = 3.68868 3.86920 3.78002
# Velocity P-wave (km/s) = 6.68426 7.13896 6.91535
#
# Compressibility (1/GPa) = 0.01896263
#
# Stress axis : x y z
#
# Youngs Moduli (GPa) = 72.85461 43.78167 73.88633
#
# Poissons Ratio (x) = 0.27631 0.19362
# Poissons Ratio (y) = 0.45980 0.49041
# Poissons Ratio (z) = 0.19092 0.29060
#
# Static dielectric constant tensor:
#      x y z
#    x 4.059550 0.000000 -0.008370 
#    y 0.000000 3.711410 0.000000 
#    z -0.008370 0.000000 3.779500 
# 
# 
# High freq. dielectric constant tensor:
#      x y z
#    x 1.786210 0.000000 -0.012570 
#    y 0.000000 1.757900 0.000000 
#    z -0.012570 0.000000 1.782880 
# 
# From -- ./inp_files/110345.got.cif
#   From: 2010.06.25/outbox.cif.g09.slc.cpg/sg12_56_cif.got.tgz:110345.got - 2010.06.28 00:19:55.
