data_PCOD8093904
_publ_section_title
;
Structure prediction by ZEFSAII (Michael W. Deem and Ramdas Pophale) SiO2 
 PCOD8093904
Probable space group: C 2/M
;
_chemical_formula_sum "Si O2"
_cell_formula_units_Z 44
_cell_length_a 9.271139
_cell_length_b 15.058494
_cell_length_c 19.353545
_cell_angle_alpha 90.000000
_cell_angle_beta 48.304437
_cell_angle_gamma 90.000000
_cell_volume 2017.508241
_symmetry_space_group_name_H-M "C 2/M"
_symmetry_group_IT_number 12
_symmetry_cell_setting 'monoclinic'
loop_
_space_group_symop_operation_xyz
x,y,z
-x,y,-z
-x,-y,-z
x,-y,z
1/2+x,1/2+y,z
1/2-x,1/2+y,-z
1/2-x,1/2-y,-z
1/2+x,1/2-y,z
loop_
_atom_site_type_symbol
_atom_site_label
_atom_site_fract_x
_atom_site_fract_y
_atom_site_fract_z
Si Si1 0.193915 0.840153 0.480635
Si Si2 0.000000 0.744971 0.000000
Si Si3 0.608543 0.602435 0.780601
Si Si4 0.295148 0.902070 0.583252
Si Si5 0.007301 0.599878 0.727656
Si Si6 0.924225 0.281434 0.875822
O O1 0.250000 0.750000 0.500000
O O2 0.168360 0.907565 0.553375
O O3 0.367099 0.868902 0.376639
O O4 0.000000 0.834871 0.500000
O O5 0.000417 0.688931 0.071832
O O6 0.803802 0.803754 0.059191
O O7 0.526954 0.500000 0.802390
O O8 0.676807 0.641298 0.683846
O O9 0.784849 0.605421 0.777386
O O10 0.451637 0.674219 0.856911
O O11 0.500000 0.852699 0.500000
O O12 0.347117 0.000000 0.594410
O O13 0.065467 0.500000 0.729693
O O14 0.045548 0.662262 0.781701
#
# Coordination Sequence:
#
# PCOD8093904 Si02
#       6
#     8   4   8   8   8   8
#     4  12  26  39  60  93 133 179 226 265 318 374
#     4  10  24  42  70  94 132 166 212 268 352 410
#     4  10  21  40  69  98 130 177 221 264 326 397
#     4  10  19  36  60  87 126 168 210 259 309 368
#     4  11  24  42  68  98 133 175 224 273 324 391
#     4  11  22  45  67  98 128 170 209 280 334 408
#
# _framework density 21.809080000000002
#
# number of rings (size 3 to 8) (size 9 to 14) (size 15 to 20)
#    0.000    1.273    3.636    2.182    2.545    2.909 
#    0.000    8.182    0.000    0.000    0.000    0.000 
#    0.000    0.000    0.000    0.000    0.000    0.000 
#
# Total GULP energy -272593.685574 kJ/mol
# GULP energy per Si atom -12390.622072 kJ/mol
# Density = 2.175944 g / cm^3
# Si number density = 21.809080 Si / 1000 Ang^3
#
#
#
# Elastic Constant Matrix: (Units=GPa)
#
#
# Indices 1 2 3 4 5 6 
#
# 1 125.0997 25.4127 34.3842 0.0000 20.2539 0.0003
# 2 25.4127 111.6540 48.1432 0.0001 7.0617 0.0002
# 3 34.3842 48.1432 112.4472 0.0005 31.5669 0.0003
# 4 0.0000 0.0001 0.0005 9.4044 0.0000 2.5050
# 5 20.2539 7.0617 31.5669 0.0000 49.0913 -0.0003
# 6 0.0003 0.0002 0.0003 2.5050 -0.0003 16.4799
#
#
#
# Elastic Compliance Matrix: (Units=1/GPa)
#
#
# Indices 1 2 3 4 5 6 
#
# 1 0.009084 -0.001251 -0.001514 0.000000 -0.002594 0.000000
# 2 -0.001251 0.011282 -0.005049 0.000000 0.002139 0.000000
# 3 -0.001514 -0.005049 0.013592 -0.000001 -0.007389 0.000000
# 4 0.000000 0.000000 -0.000001 0.110820 0.000000 -0.016845
# 5 -0.002594 0.002139 -0.007389 0.000000 0.025884 0.000001
# 6 0.000000 0.000000 0.000000 -0.016845 0.000001 0.063240
#
#
# Mechanical properties :
#
#
# Convention : Reuss Voigt Hill
#
# Bulk Modulus (GPa) = 54.55027 62.78679 58.66853
# Shear Modulus (GPa) = 19.55878 31.07917 25.31897
#
# Velocity S-wave (km/s) = 2.99794 3.77909 3.41095
# Velocity P-wave (km/s) = 6.08691 6.92053 6.51706
#
# Compressibility (1/GPa) = 0.01833171
#
# Stress axis : x y z
#
# Youngs Moduli (GPa) = 110.08593 88.63309 73.57371
#
# Poissons Ratio (x) = 0.11085 0.11138
# Poissons Ratio (y) = 0.13768 0.37145
# Poissons Ratio (z) = 0.16666 0.44748
#
# Static dielectric constant tensor:
#      x y z
#    x 3.766500 0.000000 0.237000 
#    y 0.000000 3.772220 0.000000 
#    z 0.237000 0.000000 4.037290 
# 
# 
# High freq. dielectric constant tensor:
#      x y z
#    x 1.856380 0.000000 0.021330 
#    y 0.000000 1.834360 0.000000 
#    z 0.021330 0.000000 1.866730 
# 
# From -- ./inp_files/256862.got.cif
#   From: 2010.06.25/outbox.cif.g09.slc.cpg/sg12_129_cif.got.tgz:256862.got - 2010.06.28 00:19:55.
