data_PCOD8093106
_publ_section_title
;
Structure prediction by ZEFSAII (Michael W. Deem and Ramdas Pophale) SiO2 
 PCOD8093106
Probable space group: C 2/M
;
_chemical_formula_sum "Si O2"
_cell_formula_units_Z 48
_cell_length_a 29.541026
_cell_length_b 8.980543
_cell_length_c 14.292500
_cell_angle_alpha 90.000000
_cell_angle_beta 40.414101
_cell_angle_gamma 90.000000
_cell_volume 2458.200406
_symmetry_space_group_name_H-M "C 2/M"
_symmetry_group_IT_number 12
_symmetry_cell_setting 'monoclinic'
loop_
_space_group_symop_operation_xyz
x,y,z
-x,y,-z
-x,-y,-z
x,-y,z
1/2+x,1/2+y,z
1/2-x,1/2+y,-z
1/2-x,1/2-y,-z
1/2+x,1/2-y,z
loop_
_atom_site_type_symbol
_atom_site_label
_atom_site_fract_x
_atom_site_fract_y
_atom_site_fract_z
Si Si1 0.144514 0.173003 0.621518
Si Si2 0.625734 0.670831 0.349658
Si Si3 0.714952 0.827500 0.892436
Si Si4 0.205873 0.670345 0.693159
Si Si5 0.595186 0.328960 0.185366
Si Si6 0.544092 0.824055 0.642059
O O1 0.155647 0.225901 0.710587
O O2 0.213156 0.209316 0.452485
O O3 0.080593 0.261782 0.677447
O O4 0.126008 0.000000 0.650514
O O5 0.622522 0.500000 0.390295
O O6 0.705470 0.725383 0.221326
O O7 0.590763 0.688296 0.303795
O O8 0.582740 0.771247 0.488044
O O9 0.688878 0.799958 0.827831
O O10 0.707444 0.000000 0.932453
O O11 0.669943 0.727614 0.032711
O O12 0.191788 0.500000 0.686757
O O13 0.585528 0.500000 0.171394
O O14 0.535249 0.231784 0.232005
O O15 0.544583 0.000000 0.645075
#
# Coordination Sequence:
#
# PCOD8093106 Si02
#       6
#     8   8   8   8   8   8
#     4  10  19  35  59  86 117 149 188 237 288 342
#     4  10  21  40  62  85 115 154 195 240 290 340
#     4  10  20  38  61  86 120 154 189 235 288 343
#     4   9  18  34  58  87 117 149 186 233 287 341
#     4  11  24  39  58  84 119 157 195 238 289 345
#     4  12  24  38  59  86 117 153 197 242 288 343
#
# _framework density 19.526479999999999
#
# number of rings (size 3 to 8) (size 9 to 14) (size 15 to 20)
#    0.000    1.667    1.667    3.500    0.000    5.333 
#    0.000    0.833    0.000    5.000    0.000    0.000 
#    0.000    0.000    0.000    0.000    0.000    0.000 
#
# Total GULP energy -297749.033213 kJ/mol
# GULP energy per Si atom -12406.209717 kJ/mol
# Density = 1.948204 g / cm^3
# Si number density = 19.526480 Si / 1000 Ang^3
#
#
#
# Elastic Constant Matrix: (Units=GPa)
#
#
# Indices 1 2 3 4 5 6 
#
# 1 75.5976 38.1000 8.4074 0.0001 -13.6911 0.0000
# 2 38.1000 104.5166 22.1445 0.0001 -9.3593 0.0000
# 3 8.4074 22.1445 44.2657 0.0002 -13.2576 0.0000
# 4 0.0001 0.0001 0.0002 31.2055 0.0000 -0.5193
# 5 -13.6911 -9.3593 -13.2576 0.0000 26.5891 0.0000
# 6 0.0000 0.0000 0.0000 -0.5193 0.0000 32.9717
#
#
#
# Elastic Compliance Matrix: (Units=1/GPa)
#
#
# Indices 1 2 3 4 5 6 
#
# 1 0.017512 -0.006121 0.002106 0.000000 0.007912 0.000000
# 2 -0.006121 0.012880 -0.005721 0.000000 -0.001471 0.000000
# 3 0.002106 -0.005721 0.029124 0.000000 0.013592 0.000000
# 4 0.000000 0.000000 0.000000 0.032054 0.000000 0.000505
# 5 0.007912 -0.001471 0.013592 0.000000 0.047943 0.000000
# 6 0.000000 0.000000 0.000000 0.000505 0.000000 0.030337
#
#
# Mechanical properties :
#
#
# Convention : Reuss Voigt Hill
#
# Bulk Modulus (GPa) = 24.97356 40.18707 32.58032
# Shear Modulus (GPa) = 24.67068 28.53514 26.60291
#
# Velocity S-wave (km/s) = 3.55836 3.82692 3.69508
# Velocity P-wave (km/s) = 5.44976 6.33660 5.90984
#
# Compressibility (1/GPa) = 0.04004234
#
# Stress axis : x y z
#
# Youngs Moduli (GPa) = 57.10456 77.64126 34.33618
#
# Poissons Ratio (x) = 0.47527 -0.07231
# Poissons Ratio (y) = 0.34956 0.19644
# Poissons Ratio (z) = -0.12026 0.44420
#
# Static dielectric constant tensor:
#      x y z
#    x 3.648960 0.000000 -0.030390 
#    y 0.000000 3.520910 0.000000 
#    z -0.030390 0.000000 3.351020 
# 
# 
# High freq. dielectric constant tensor:
#      x y z
#    x 1.773790 0.000000 -0.001510 
#    y 0.000000 1.760780 0.000000 
#    z -0.001510 0.000000 1.742940 
# 
# From -- ./inp_files/244615.got.cif
#   From: 2010.06.25/outbox.cif.g09.slc.cpg/sg12_123_cif.got.tgz:244615.got - 2010.06.28 00:19:55.
