data_PCOD8093490
_publ_section_title
;
Structure prediction by ZEFSAII (Michael W. Deem and Ramdas Pophale) SiO2 
 PCOD8093490
Probable space group: C 2/M
;
_chemical_formula_sum "Si O2"
_cell_formula_units_Z 56
_cell_length_a 15.097454
_cell_length_b 26.982905
_cell_length_c 15.242812
_cell_angle_alpha 90.000000
_cell_angle_beta 151.088444
_cell_angle_gamma 90.000000
_cell_volume 3002.044417
_symmetry_space_group_name_H-M "C 2/M"
_symmetry_group_IT_number 12
_symmetry_cell_setting 'monoclinic'
loop_
_space_group_symop_operation_xyz
x,y,z
-x,y,-z
-x,-y,-z
x,-y,z
1/2+x,1/2+y,z
1/2-x,1/2+y,-z
1/2-x,1/2-y,-z
1/2+x,1/2-y,z
loop_
_atom_site_type_symbol
_atom_site_label
_atom_site_fract_x
_atom_site_fract_y
_atom_site_fract_z
Si Si1 0.294341 0.609735 0.300373
Si Si2 0.571112 0.192196 0.470631
Si Si3 0.085512 0.442747 0.271137
Si Si4 0.773176 0.798893 0.389597
Si Si5 0.769048 0.894307 0.075489
Si Si6 0.168653 0.872103 0.409718
Si Si7 0.384068 0.795152 0.131018
O O1 0.500000 0.593001 0.500000
O O2 0.156060 0.577611 0.239277
O O3 0.262262 0.668804 0.290743
O O4 0.254107 0.596933 0.165851
O O5 0.500000 0.168734 0.500000
O O6 0.615354 0.249315 0.528854
O O7 0.749911 0.160126 0.599451
O O8 0.414565 0.190751 0.259764
O O9 0.132805 0.500000 0.323034
O O10 0.182297 0.413101 0.433924
O O11 0.865623 0.434295 0.086780
O O12 0.875452 0.835014 0.547699
O O13 0.578859 0.781706 0.258557
O O14 0.977285 0.899165 0.219525
O O15 0.698362 0.840220 0.992774
O O16 0.250000 0.750000 0.000000
#
# Coordination Sequence:
#
# PCOD8093490 Si02
#       7
#     8   8   8   8   8   8   8
#     4  11  21  37  58  88 123 166 197 244 289 355
#     4  11  22  38  60  87 122 159 205 254 299 353
#     4  11  24  41  62  90 124 159 205 250 300 362
#     4  10  19  36  55  83 124 161 201 230 291 358
#     4  12  21  39  62  83 123 162 202 243 298 354
#     4  10  21  42  60  84 122 163 192 249 308 356
#     4  11  22  35  56  86 120 162 204 248 297 358
#
# _framework density 18.653955
#
# number of rings (size 3 to 8) (size 9 to 14) (size 15 to 20)
#    0.000    1.143    7.143    4.286    2.000    2.000 
#    0.000    2.143    0.000    0.429    0.000    1.000 
#    0.000    0.000    0.000    0.000    0.000    0.000 
#
# Total GULP energy -347180.715423 kJ/mol
# GULP energy per Si atom -12399.311265 kJ/mol
# Density = 1.861150 g / cm^3
# Si number density = 18.653955 Si / 1000 Ang^3
#
#
#
# Elastic Constant Matrix: (Units=GPa)
#
#
# Indices 1 2 3 4 5 6 
#
# 1 63.4268 17.1894 25.2429 0.0000 5.7702 0.0000
# 2 17.1894 93.7169 17.4422 0.0000 4.9256 -0.0001
# 3 25.2429 17.4422 100.5914 -0.0001 19.1572 -0.0002
# 4 0.0000 0.0000 -0.0001 22.5109 0.0000 8.7244
# 5 5.7702 4.9256 19.1572 0.0000 22.4579 0.0000
# 6 0.0000 -0.0001 -0.0002 8.7244 0.0000 5.2978
#
#
#
# Elastic Compliance Matrix: (Units=1/GPa)
#
#
# Indices 1 2 3 4 5 6 
#
# 1 0.018098 -0.002544 -0.003965 0.000000 -0.000709 -0.000001
# 2 -0.002544 0.011401 -0.001178 0.000000 -0.000842 0.000000
# 3 -0.003965 -0.001178 0.013011 -0.000001 -0.009822 0.000001
# 4 0.000000 0.000000 -0.000001 0.122795 0.000000 -0.202217
# 5 -0.000709 -0.000842 -0.009822 0.000000 0.053273 -0.000001
# 6 -0.000001 0.000000 0.000001 -0.202217 -0.000001 0.521765
#
#
# Mechanical properties :
#
#
# Convention : Reuss Voigt Hill
#
# Bulk Modulus (GPa) = 36.85326 41.94267 39.39797
# Shear Modulus (GPa) = 6.53797 23.24403 14.89100
#
# Velocity S-wave (km/s) = 1.87416 3.53379 2.82844
# Velocity P-wave (km/s) = 4.94798 6.25969 5.64208
#
# Compressibility (1/GPa) = 0.02713464
#
# Stress axis : x y z
#
# Youngs Moduli (GPa) = 55.25331 87.71466 76.85776
#
# Poissons Ratio (x) = 0.22317 0.30477
# Poissons Ratio (y) = 0.14058 0.09054
# Poissons Ratio (z) = 0.21910 0.10333
#
# Static dielectric constant tensor:
#      x y z
#    x 10.560950 -0.000120 6.168460 
#    y -0.000120 3.481600 -0.000100 
#    z 6.168460 -0.000100 8.677310 
# 
# 
# High freq. dielectric constant tensor:
#      x y z
#    x 1.704150 0.000000 0.016370 
#    y 0.000000 1.702960 0.000000 
#    z 0.016370 0.000000 1.730500 
# 
# From -- ./inp_files/219132.got.cif
#   From: 2010.06.25/outbox.cif.g09.slc.cpg/sg12_110_cif.got.tgz:219132.got - 2010.06.28 00:19:55.
