data_PCOD8093885
_publ_section_title
;
Structure prediction by ZEFSAII (Michael W. Deem and Ramdas Pophale) SiO2 
 PCOD8093885
Probable space group: C 2/M
;
_chemical_formula_sum "Si O2"
_cell_formula_units_Z 56
_cell_length_a 19.994686
_cell_length_b 8.667744
_cell_length_c 16.194886
_cell_angle_alpha 90.000000
_cell_angle_beta 88.489937
_cell_angle_gamma 90.000000
_cell_volume 2805.741837
_symmetry_space_group_name_H-M "C 2/M"
_symmetry_group_IT_number 12
_symmetry_cell_setting 'monoclinic'
loop_
_space_group_symop_operation_xyz
x,y,z
-x,y,-z
-x,-y,-z
x,-y,z
1/2+x,1/2+y,z
1/2-x,1/2+y,-z
1/2-x,1/2-y,-z
1/2+x,1/2-y,z
loop_
_atom_site_type_symbol
_atom_site_label
_atom_site_fract_x
_atom_site_fract_y
_atom_site_fract_z
Si Si1 0.238980 0.179878 0.761169
Si Si2 0.485602 0.179672 0.227104
Si Si3 0.699752 0.180772 0.936040
Si Si4 0.440705 0.319768 0.061076
Si Si5 0.115864 0.821228 0.649513
Si Si6 0.077553 0.317911 0.487153
Si Si7 0.379996 0.182036 0.692717
O O1 0.215447 0.266006 0.843396
O O2 0.186903 0.211137 0.689725
O O3 0.310201 0.248691 0.729339
O O4 0.244514 0.000000 0.782758
O O5 0.459799 0.285271 0.154277
O O6 0.440950 0.214289 0.308384
O O7 0.561847 0.226249 0.244636
O O8 0.479077 0.000000 0.203857
O O9 0.625243 0.229467 0.964062
O O10 0.706057 0.000000 0.940329
O O11 0.750000 0.250000 0.000000
O O12 0.426431 0.500000 0.052053
O O13 0.500000 0.262945 0.000000
O O14 0.121289 0.770919 0.554214
O O15 0.095796 0.000000 0.658517
O O16 0.089015 0.500000 0.495765
O O17 0.103190 0.252357 0.398507
O O18 0.000000 0.274820 0.500000
O O19 0.375117 0.000000 0.684074
#
# Coordination Sequence:
#
# PCOD8093885 Si02
#       7
#     8   8   8   8   8   8   8
#     4  10  22  42  63  87 124 165 204 250 310 371
#     4  11  21  38  64  91 120 160 211 253 298 362
#     4  12  26  44  67  93 125 166 210 254 309 372
#     4  11  25  44  65  95 131 162 201 257 313 365
#     4  11  22  36  59  88 123 162 201 252 312 366
#     4  10  19  36  60  86 118 157 206 257 305 363
#     4   9  20  38  61  89 119 161 207 252 304 364
#
# _framework density 19.959071000000002
#
# number of rings (size 3 to 8) (size 9 to 14) (size 15 to 20)
#    0.000    1.429    2.857    2.571    2.000    2.571 
#    0.000    1.429    0.000    0.000    0.000    0.000 
#    0.000    0.000    0.000    0.000    0.000    0.000 
#
# Total GULP energy -347337.914272 kJ/mol
# GULP energy per Si atom -12404.925510 kJ/mol
# Density = 1.991364 g / cm^3
# Si number density = 19.959071 Si / 1000 Ang^3
#
#
#
# Elastic Constant Matrix: (Units=GPa)
#
#
# Indices 1 2 3 4 5 6 
#
# 1 148.2106 46.9342 47.2325 0.0000 1.8820 0.0000
# 2 46.9342 74.0402 34.2856 0.0000 6.6557 0.0000
# 3 47.2325 34.2856 97.1910 0.0000 10.8840 0.0000
# 4 0.0000 0.0000 0.0000 30.6476 0.0000 7.9357
# 5 1.8820 6.6557 10.8840 0.0000 38.9988 0.0000
# 6 0.0000 0.0000 0.0000 7.9357 0.0000 22.4273
#
#
#
# Elastic Compliance Matrix: (Units=1/GPa)
#
#
# Indices 1 2 3 4 5 6 
#
# 1 0.009103 -0.004501 -0.002965 0.000000 0.001157 0.000000
# 2 -0.004501 0.018424 -0.004113 0.000000 -0.001779 0.000000
# 3 -0.002965 -0.004113 0.013509 0.000000 -0.002925 0.000000
# 4 0.000000 0.000000 0.000000 0.035920 0.000000 -0.012710
# 5 0.001157 -0.001779 -0.002925 0.000000 0.026706 0.000000
# 6 0.000000 0.000000 0.000000 -0.012710 0.000000 0.049086
#
#
# Mechanical properties :
#
#
# Convention : Reuss Voigt Hill
#
# Bulk Modulus (GPa) = 55.93820 64.03852 59.98836
# Shear Modulus (GPa) = 27.49303 31.14737 29.32020
#
# Velocity S-wave (km/s) = 3.71546 3.95468 3.83693
# Velocity P-wave (km/s) = 6.81861 7.28061 7.05339
#
# Compressibility (1/GPa) = 0.01787687
#
# Stress axis : x y z
#
# Youngs Moduli (GPa) = 109.85518 54.27766 74.02740
#
# Poissons Ratio (x) = 0.24431 0.21953
# Poissons Ratio (y) = 0.49447 0.30444
# Poissons Ratio (z) = 0.32577 0.22322
#
# Static dielectric constant tensor:
#      x y z
#    x 3.905100 0.000000 -0.080860 
#    y 0.000000 3.487310 0.000000 
#    z -0.080860 0.000000 3.725870 
# 
# 
# High freq. dielectric constant tensor:
#      x y z
#    x 1.787720 0.000000 0.005530 
#    y 0.000000 1.765840 0.000000 
#    z 0.005530 0.000000 1.788410 
# 
# From -- ./inp_files/230987.got.cif
#   From: 2010.06.25/outbox.cif.g09.slc.cpg/sg12_116_cif.got.tgz:230987.got - 2010.06.28 00:19:55.
