data_PCOD8093572
_publ_section_title
;
Structure prediction by ZEFSAII (Michael W. Deem and Ramdas Pophale) SiO2 
 PCOD8093572
Probable space group: C 2/M
;
_chemical_formula_sum "Si O2"
_cell_formula_units_Z 64
_cell_length_a 27.701547
_cell_length_b 13.856858
_cell_length_c 9.456935
_cell_angle_alpha 90.000000
_cell_angle_beta 110.336973
_cell_angle_gamma 90.000000
_cell_volume 3403.821953
_symmetry_space_group_name_H-M "C 2/M"
_symmetry_group_IT_number 12
_symmetry_cell_setting 'monoclinic'
loop_
_space_group_symop_operation_xyz
x,y,z
-x,y,-z
-x,-y,-z
x,-y,z
1/2+x,1/2+y,z
1/2-x,1/2+y,-z
1/2-x,1/2-y,-z
1/2+x,1/2-y,z
loop_
_atom_site_type_symbol
_atom_site_label
_atom_site_fract_x
_atom_site_fract_y
_atom_site_fract_z
Si Si1 0.873933 0.885085 0.693328
Si Si2 0.806513 0.891621 0.876899
Si Si3 0.611863 0.890455 0.931726
Si Si4 0.058900 0.390396 0.583540
Si Si5 0.791763 0.690617 0.128333
Si Si6 0.627026 0.278451 0.596731
Si Si7 0.396578 0.613838 0.159735
Si Si8 0.442135 0.726142 0.967533
O O1 0.825160 0.855465 0.741880
O O2 0.862305 0.842869 0.528015
O O3 0.923519 0.832203 0.810291
O O4 0.883182 0.000000 0.692123
O O5 0.745208 0.885855 0.829032
O O6 0.825648 0.000000 0.907578
O O7 0.841548 0.844304 0.039573
O O8 0.572005 0.878468 0.762099
O O9 0.668895 0.863582 0.935186
O O10 0.612814 0.000000 0.989683
O O11 0.593137 0.820859 0.038776
O O12 0.069951 0.500000 0.544199
O O13 0.094597 0.318455 0.527898
O O14 0.000000 0.361981 0.500000
O O15 0.818269 0.751468 0.279344
O O16 0.750000 0.750000 0.000000
O O17 0.594884 0.341165 0.677463
O O18 0.400513 0.500000 0.177485
O O19 0.440610 0.653299 0.099883
O O20 0.500000 0.761230 0.000000
#
# Coordination Sequence:
#
# PCOD8093572 Si02
#       8
#     8   8   8   8   8   8   8   8
#     4  10  23  40  56  84 125 157 192 244 300 357
#     4   9  18  34  56  80 114 158 191 230 293 353
#     4  10  21  38  60  92 119 150 205 255 288 350
#     4   9  19  36  59  83 114 153 194 246 303 350
#     4  11  18  34  61  88 117 150 196 246 293 344
#     4  11  21  35  60  89 117 154 194 248 295 353
#     4  10  19  36  57  83 114 152 205 244 287 356
#     4  11  22  39  60  84 115 160 197 243 303 356
#
# _framework density 18.802392000000001
#
# number of rings (size 3 to 8) (size 9 to 14) (size 15 to 20)
#    0.000    1.875    3.750    2.625    1.750    2.250 
#    0.000    0.625    0.000    3.750    0.000    0.000 
#    0.000    0.000    0.000    0.000    0.000    0.000 
#
# Total GULP energy -396629.020383 kJ/mol
# GULP energy per Si atom -12394.656887 kJ/mol
# Density = 1.875960 g / cm^3
# Si number density = 18.802392 Si / 1000 Ang^3
#
#
#
# Elastic Constant Matrix: (Units=GPa)
#
#
# Indices 1 2 3 4 5 6 
#
# 1 125.4390 46.4923 46.7454 0.0000 6.3196 0.0000
# 2 46.4923 117.7194 40.0553 0.0000 1.9348 0.0000
# 3 46.7454 40.0553 86.8209 0.0000 -5.7584 0.0000
# 4 0.0000 0.0000 0.0000 27.0225 0.0000 -1.9966
# 5 6.3196 1.9348 -5.7584 0.0000 24.9148 0.0000
# 6 0.0000 0.0000 0.0000 -1.9966 0.0000 24.3928
#
#
#
# Elastic Compliance Matrix: (Units=1/GPa)
#
#
# Indices 1 2 3 4 5 6 
#
# 1 0.010965 -0.002582 -0.004960 0.000000 -0.003727 0.000000
# 2 -0.002582 0.010772 -0.003648 0.000000 -0.001025 0.000000
# 3 -0.004960 -0.003648 0.016222 0.000000 0.005291 0.000000
# 4 0.000000 0.000000 0.000000 0.037231 0.000000 0.003047
# 5 -0.003727 -0.001025 0.005291 0.000000 0.042385 0.000000
# 6 0.000000 0.000000 0.000000 0.003047 0.000000 0.041245
#
#
# Mechanical properties :
#
#
# Convention : Reuss Voigt Hill
#
# Bulk Modulus (GPa) = 64.18092 66.28504 65.23298
# Shear Modulus (GPa) = 26.82502 28.37842 27.60172
#
# Velocity S-wave (km/s) = 3.78124 3.88918 3.83559
# Velocity P-wave (km/s) = 7.29879 7.44968 7.37462
#
# Compressibility (1/GPa) = 0.01558095
#
# Stress axis : x y z
#
# Youngs Moduli (GPa) = 91.20001 92.82935 61.64370
#
# Poissons Ratio (x) = 0.23965 0.30574
# Poissons Ratio (y) = 0.23544 0.22487
# Poissons Ratio (z) = 0.45233 0.33863
#
# Static dielectric constant tensor:
#      x y z
#    x 3.683210 0.000000 0.075010 
#    y 0.000000 3.644670 0.000000 
#    z 0.075010 0.000000 3.273580 
# 
# 
# High freq. dielectric constant tensor:
#      x y z
#    x 1.723530 0.000000 0.001080 
#    y 0.000000 1.743990 0.000000 
#    z 0.001080 0.000000 1.708790 
# 
# From -- ./inp_files/104673.got.cif
#   From: 2010.06.25/outbox.cif.g09.slc.cpg/sg12_53_cif.got.tgz:104673.got - 2010.06.28 00:19:55.
