data_PCOD8093665
_publ_section_title
;
Structure prediction by ZEFSAII (Michael W. Deem and Ramdas Pophale) SiO2 
 PCOD8093665
Probable space group: C 2/M
;
_chemical_formula_sum "Si O2"
_cell_formula_units_Z 64
_cell_length_a 10.127771
_cell_length_b 22.880500
_cell_length_c 14.228445
_cell_angle_alpha 90.000000
_cell_angle_beta 88.559783
_cell_angle_gamma 90.000000
_cell_volume 3296.094126
_symmetry_space_group_name_H-M "C 2/M"
_symmetry_group_IT_number 12
_symmetry_cell_setting 'monoclinic'
loop_
_space_group_symop_operation_xyz
x,y,z
-x,y,-z
-x,-y,-z
x,-y,z
1/2+x,1/2+y,z
1/2-x,1/2+y,-z
1/2-x,1/2-y,-z
1/2+x,1/2-y,z
loop_
_atom_site_type_symbol
_atom_site_label
_atom_site_fract_x
_atom_site_fract_y
_atom_site_fract_z
Si Si1 0.765298 0.567330 0.906302
Si Si2 0.341887 0.831890 0.506819
Si Si3 0.250072 0.263951 0.651376
Si Si4 0.496566 0.886341 0.216316
Si Si5 0.408295 0.062982 0.591277
Si Si6 0.004585 0.248948 0.230584
Si Si7 0.260161 0.431308 0.875388
Si Si8 0.015300 0.860882 0.889531
O O1 0.725820 0.500000 0.891882
O O2 0.652241 0.607075 0.860636
O O3 0.902718 0.580594 0.853488
O O4 0.781567 0.580704 0.016340
O O5 0.500000 0.833578 0.500000
O O6 0.302928 0.780091 0.574352
O O7 0.280783 0.824426 0.403747
O O8 0.293713 0.892784 0.556207
O O9 0.358703 0.274335 0.728397
O O10 0.114940 0.238915 0.695674
O O11 0.516776 0.905909 0.323472
O O12 0.514760 0.816721 0.201622
O O13 0.349764 0.904494 0.190655
O O14 0.500000 0.052081 0.500000
O O15 0.350290 0.000000 0.624744
O O16 0.980347 0.206598 0.142791
O O17 0.278441 0.500000 0.855609
O O18 0.395659 0.398043 0.847091
O O19 0.000000 0.860299 0.000000
#
# Coordination Sequence:
#
# PCOD8093665 Si02
#       8
#     8   8   8   8   8   8   8   8
#     4  10  21  39  62  86 114 152 201 248 292 345
#     4  10  19  36  58  86 113 143 191 240 289 339
#     4  11  21  37  59  84 115 150 194 241 282 341
#     4  12  22  37  58  91 119 150 196 246 293 348
#     4  10  20  35  55  84 119 152 188 238 296 349
#     4  12  23  38  58  86 122 156 194 237 290 351
#     4  10  21  39  62  87 115 152 198 248 294 344
#     4  10  23  39  57  83 120 161 193 233 293 357
#
# _framework density 19.416920000000001
#
# number of rings (size 3 to 8) (size 9 to 14) (size 15 to 20)
#    0.000    1.375    2.500    4.125    0.000    3.500 
#    0.000    3.125    0.000    0.750    0.000    0.875 
#    0.000    0.375    0.000    0.000    0.000    0.000 
#
# Total GULP energy -396630.120187 kJ/mol
# GULP energy per Si atom -12394.691256 kJ/mol
# Density = 1.937273 g / cm^3
# Si number density = 19.416920 Si / 1000 Ang^3
#
#
#
# Elastic Constant Matrix: (Units=GPa)
#
#
# Indices 1 2 3 4 5 6 
#
# 1 72.0544 42.4452 16.7674 0.0000 17.4909 0.0000
# 2 42.4452 136.3821 36.4779 0.0000 23.9397 0.0000
# 3 16.7674 36.4779 46.8740 0.0000 12.4480 0.0000
# 4 0.0000 0.0000 0.0000 32.9275 0.0000 -0.7906
# 5 17.4909 23.9397 12.4480 0.0000 26.2608 0.0000
# 6 0.0000 0.0000 0.0000 -0.7906 0.0000 26.3429
#
#
#
# Elastic Compliance Matrix: (Units=1/GPa)
#
#
# Indices 1 2 3 4 5 6 
#
# 1 0.018493 -0.003973 -0.001389 0.000000 -0.008037 0.000000
# 2 -0.003973 0.010940 -0.005888 0.000000 -0.004536 0.000000
# 3 -0.001389 -0.005888 0.028304 0.000000 -0.007124 0.000000
# 4 0.000000 0.000000 0.000000 0.030392 0.000000 0.000912
# 5 -0.008037 -0.004536 -0.007124 0.000000 0.050944 0.000000
# 6 0.000000 0.000000 0.000000 0.000912 0.000000 0.037988
#
#
# Mechanical properties :
#
#
# Convention : Reuss Voigt Hill
#
# Bulk Modulus (GPa) = 28.37875 49.63240 39.00557
# Shear Modulus (GPa) = 23.66224 27.74757 25.70491
#
# Velocity S-wave (km/s) = 3.49469 3.78437 3.64241
# Velocity P-wave (km/s) = 5.56157 6.68671 6.14993
#
# Compressibility (1/GPa) = 0.03523764
#
# Stress axis : x y z
#
# Youngs Moduli (GPa) = 54.07444 91.40887 35.33015
#
# Poissons Ratio (x) = 0.36319 0.04907
# Poissons Ratio (y) = 0.21485 0.20801
# Poissons Ratio (z) = 0.07510 0.53819
#
# Static dielectric constant tensor:
#      x y z
#    x 3.719730 0.000000 0.181790 
#    y 0.000000 4.353390 0.000000 
#    z 0.181790 0.000000 3.665940 
# 
# 
# High freq. dielectric constant tensor:
#      x y z
#    x 1.743340 0.000000 0.002590 
#    y 0.000000 1.770530 0.000000 
#    z 0.002590 0.000000 1.759960 
# 
# From -- ./inp_files/198897.got.cif
#   From: 2010.06.25/outbox.cif.g09.slc.cpg/sg12_100_cif.got.tgz:198897.got - 2010.06.28 00:19:55.
