data_PCOD8093192
_publ_section_title
;
Structure prediction by ZEFSAII (Michael W. Deem and Ramdas Pophale) SiO2 
 PCOD8093192
Probable space group: C 2/M
;
_chemical_formula_sum "Si O2"
_cell_formula_units_Z 64
_cell_length_a 30.120759
_cell_length_b 9.126041
_cell_length_c 16.176657
_cell_angle_alpha 90.000000
_cell_angle_beta 46.697452
_cell_angle_gamma 90.000000
_cell_volume 3236.046085
_symmetry_space_group_name_H-M "C 2/M"
_symmetry_group_IT_number 12
_symmetry_cell_setting 'monoclinic'
loop_
_space_group_symop_operation_xyz
x,y,z
-x,y,-z
-x,-y,-z
x,-y,z
1/2+x,1/2+y,z
1/2-x,1/2+y,-z
1/2-x,1/2-y,-z
1/2+x,1/2-y,z
loop_
_atom_site_type_symbol
_atom_site_label
_atom_site_fract_x
_atom_site_fract_y
_atom_site_fract_z
Si Si1 0.512220 0.170533 0.243239
Si Si2 0.656836 0.833998 0.306602
Si Si3 0.272786 0.336314 0.048541
Si Si4 0.708368 0.173869 0.409171
Si Si5 0.607748 0.326068 0.013173
Si Si6 0.845664 0.826561 0.224684
Si Si7 0.381558 0.830974 0.337048
Si Si8 0.047249 0.172155 0.367507
O O1 0.441303 0.194410 0.315633
O O2 0.527399 0.248491 0.309565
O O3 0.529337 0.000000 0.228648
O O4 0.548434 0.241946 0.120699
O O5 0.724253 0.831796 0.183454
O O6 0.665603 0.771539 0.388125
O O7 0.613439 0.728126 0.310200
O O8 0.630175 0.000000 0.339681
O O9 0.284222 0.500000 0.003034
O O10 0.336031 0.271994 0.002050
O O11 0.250000 0.250000 0.000000
O O12 0.776796 0.238758 0.316843
O O13 0.676452 0.223255 0.535027
O O14 0.711761 0.000000 0.397205
O O15 0.598067 0.500000 0.031920
O O16 0.621260 0.278761 0.901897
O O17 0.885236 0.762442 0.249011
O O18 0.843924 0.000000 0.235106
O O19 0.374618 0.000000 0.321195
O O20 0.000000 0.211406 0.500000
O O21 0.050794 0.000000 0.345483
#
# Coordination Sequence:
#
# PCOD8093192 Si02
#       8
#     8   8   8   8   8   8   8   8
#     4  11  24  41  60  85 116 157 203 242 288 347
#     4  10  19  35  60  85 112 150 193 235 285 346
#     4  10  20  34  54  81 111 145 186 232 283 338
#     4   9  17  35  61  87 116 149 189 240 293 351
#     4  10  21  39  60  84 118 155 192 241 293 345
#     4  10  20  37  62  88 115 151 194 236 292 356
#     4  10  22  38  58  85 116 150 193 246 297 342
#     4  11  24  40  58  85 121 156 193 241 292 343
#
# _framework density 19.777222999999999
#
# number of rings (size 3 to 8) (size 9 to 14) (size 15 to 20)
#    0.000    1.875    1.250    2.625    0.000    7.000 
#    0.000    3.750    0.000    0.000    0.000    0.000 
#    0.000    0.000    0.000    0.000    0.000    0.000 
#
# Total GULP energy -396871.665815 kJ/mol
# GULP energy per Si atom -12402.239557 kJ/mol
# Density = 1.973221 g / cm^3
# Si number density = 19.777223 Si / 1000 Ang^3
#
#
#
# Elastic Constant Matrix: (Units=GPa)
#
#
# Indices 1 2 3 4 5 6 
#
# 1 84.7591 33.4103 33.8261 0.0000 18.0775 0.0001
# 2 33.4103 58.4145 43.0132 -0.0021 7.6201 0.0016
# 3 33.8261 43.0132 117.4384 -0.0001 11.8190 0.0001
# 4 0.0000 -0.0021 -0.0001 28.4107 0.0000 1.7331
# 5 18.0775 7.6201 11.8190 0.0000 39.4892 0.0000
# 6 0.0001 0.0016 0.0001 1.7331 0.0000 32.2638
#
#
#
# Elastic Compliance Matrix: (Units=1/GPa)
#
#
# Indices 1 2 3 4 5 6 
#
# 1 0.016617 -0.007748 -0.001375 -0.000001 -0.005700 0.000000
# 2 -0.007748 0.027210 -0.007798 0.000002 0.000630 -0.000001
# 3 -0.001375 -0.007798 0.011911 -0.000001 -0.001431 0.000000
# 4 -0.000001 0.000002 -0.000001 0.035314 0.000000 -0.001897
# 5 -0.005700 0.000630 -0.001431 0.000000 0.028240 0.000000
# 6 0.000000 -0.000001 0.000000 -0.001897 0.000000 0.031096
#
#
# Mechanical properties :
#
#
# Convention : Reuss Voigt Hill
#
# Bulk Modulus (GPa) = 45.66856 53.45681 49.56269
# Shear Modulus (GPa) = 26.10589 30.05690 28.08139
#
# Velocity S-wave (km/s) = 3.63712 3.90266 3.77222
# Velocity P-wave (km/s) = 6.38591 6.88446 6.63986
#
# Compressibility (1/GPa) = 0.02189690
#
# Stress axis : x y z
#
# Youngs Moduli (GPa) = 60.18061 36.75088 83.95546
#
# Poissons Ratio (x) = 0.28475 0.11541
# Poissons Ratio (y) = 0.46629 0.65467
# Poissons Ratio (z) = 0.08273 0.28657
#
# Static dielectric constant tensor:
#      x y z
#    x 3.574480 0.000000 -0.010830 
#    y 0.000000 3.568140 0.000000 
#    z -0.010830 0.000000 3.870370 
# 
# 
# High freq. dielectric constant tensor:
#      x y z
#    x 1.778730 0.000000 0.003840 
#    y 0.000000 1.749350 0.000000 
#    z 0.003840 0.000000 1.784390 
# 
# From -- ./inp_files/249875.got.cif
#   From: 2010.06.25/outbox.cif.g09.slc.cpg/sg12_125_cif.got.tgz:249875.got - 2010.06.28 00:19:55.
