data_PCOD8093238
_publ_section_title
;
Structure prediction by ZEFSAII (Michael W. Deem and Ramdas Pophale) SiO2 
 PCOD8093238
Probable space group: C 2/M
;
_chemical_formula_sum "Si O2"
_cell_formula_units_Z 56
_cell_length_a 17.878589
_cell_length_b 14.513504
_cell_length_c 11.375231
_cell_angle_alpha 90.000000
_cell_angle_beta 64.176700
_cell_angle_gamma 90.000000
_cell_volume 2656.908672
_symmetry_space_group_name_H-M "C 2/M"
_symmetry_group_IT_number 12
_symmetry_cell_setting 'monoclinic'
loop_
_space_group_symop_operation_xyz
x,y,z
-x,y,-z
-x,-y,-z
x,-y,z
1/2+x,1/2+y,z
1/2-x,1/2+y,-z
1/2-x,1/2-y,-z
1/2+x,1/2-y,z
loop_
_atom_site_type_symbol
_atom_site_label
_atom_site_fract_x
_atom_site_fract_y
_atom_site_fract_z
Si Si1 0.486610 0.701237 0.146977
Si Si2 0.516760 0.097211 0.125095
Si Si3 0.306178 0.130307 0.918474
Si Si4 0.597182 0.292236 0.436703
Si Si5 0.850020 0.835289 0.851121
Si Si6 0.345225 0.393320 0.372421
Si Si7 0.175418 0.398293 0.361470
O O1 0.484144 0.806393 0.204602
O O2 0.559692 0.640846 0.156863
O O3 0.400894 0.650463 0.231389
O O4 0.500000 0.705860 0.000000
O O5 0.614099 0.080432 0.082365
O O6 0.474474 0.000000 0.200366
O O7 0.500000 0.105750 0.000000
O O8 0.325734 0.237011 0.919240
O O9 0.290086 0.102847 0.794778
O O10 0.224343 0.099479 0.050038
O O11 0.500000 0.315543 0.500000
O O12 0.644065 0.337799 0.293791
O O13 0.639972 0.337378 0.519032
O O14 0.607334 0.181203 0.428830
O O15 0.368382 0.500000 0.375042
O O16 0.250531 0.380381 0.399501
O O17 0.136422 0.500000 0.412538
#
# Coordination Sequence:
#
# PCOD8093238 Si02
#       7
#     8   8   8   8   8   8   8
#     4  10  19  35  60  87 119 158 198 249 309 359
#     4   9  18  32  53  86 126 160 193 240 304 369
#     4   9  17  33  59  87 121 158 193 250 304 353
#     4  11  22  41  64  88 124 167 205 247 304 365
#     4   9  18  34  57  88 116 154 207 239 295 364
#     4  11  24  42  61  86 121 160 209 257 302 356
#     4  10  22  40  65  94 124 158 201 256 309 363
#
# _framework density 21.077126
#
# number of rings (size 3 to 8) (size 9 to 14) (size 15 to 20)
#    0.000    2.143    1.429    1.714    0.000    4.286 
#    0.000    3.571    0.000    6.000    0.000    0.000 
#    0.000    0.000    0.000    0.000    0.000    0.000 
#
# Total GULP energy -346947.438342 kJ/mol
# GULP energy per Si atom -12390.979941 kJ/mol
# Density = 2.102915 g / cm^3
# Si number density = 21.077126 Si / 1000 Ang^3
#
#
#
# Elastic Constant Matrix: (Units=GPa)
#
#
# Indices 1 2 3 4 5 6 
#
# 1 86.2481 14.8627 21.1750 0.0000 24.2644 0.0000
# 2 14.8627 84.8667 26.3237 0.0000 3.5401 0.0000
# 3 21.1750 26.3237 90.7837 0.0000 13.1311 0.0000
# 4 0.0000 0.0000 0.0000 21.6969 0.0000 9.3136
# 5 24.2644 3.5401 13.1311 0.0000 30.7524 0.0000
# 6 0.0000 0.0000 0.0000 9.3136 0.0000 31.3546
#
#
#
# Elastic Compliance Matrix: (Units=1/GPa)
#
#
# Indices 1 2 3 4 5 6 
#
# 1 0.015456 -0.001785 -0.001442 0.000000 -0.011374 0.000000
# 2 -0.001785 0.013154 -0.003605 0.000000 0.001434 0.000000
# 3 -0.001442 -0.003605 0.012974 0.000000 -0.003987 0.000000
# 4 0.000000 0.000000 0.000000 0.052825 0.000000 -0.015691
# 5 -0.011374 0.001434 -0.003987 0.000000 0.043029 0.000000
# 6 0.000000 0.000000 0.000000 -0.015691 0.000000 0.036554
#
#
# Mechanical properties :
#
#
# Convention : Reuss Voigt Hill
#
# Bulk Modulus (GPa) = 35.81825 42.95792 39.38808
# Shear Modulus (GPa) = 25.38538 30.06325 27.72432
#
# Velocity S-wave (km/s) = 3.47422 3.78080 3.63074
# Velocity P-wave (km/s) = 5.75538 6.28369 6.02533
#
# Compressibility (1/GPa) = 0.02791873
#
# Stress axis : x y z
#
# Youngs Moduli (GPa) = 64.69982 76.02101 77.07947
#
# Poissons Ratio (x) = 0.13570 0.11118
# Poissons Ratio (y) = 0.11549 0.27789
# Poissons Ratio (z) = 0.09332 0.27407
#
# Static dielectric constant tensor:
#      x y z
#    x 3.764670 0.000000 0.057460 
#    y 0.000000 4.106900 0.000000 
#    z 0.057460 0.000000 3.595160 
# 
# 
# High freq. dielectric constant tensor:
#      x y z
#    x 1.834570 0.000000 0.014190 
#    y 0.000000 1.828530 0.000000 
#    z 0.014190 0.000000 1.801900 
# 
# From -- ./inp_files/156518.got.cif
#   From: 2010.06.25/outbox.cif.g09.slc.cpg/sg12_79_cif.got.tgz:156518.got - 2010.06.28 00:19:55.
