data_PCOD8093253
_publ_section_title
;
Structure prediction by ZEFSAII (Michael W. Deem and Ramdas Pophale) SiO2 
 PCOD8093253
Probable space group: C 2/M
;
_chemical_formula_sum "Si O2"
_cell_formula_units_Z 48
_cell_length_a 23.202683
_cell_length_b 8.934648
_cell_length_c 21.664714
_cell_angle_alpha 90.000000
_cell_angle_beta 148.563989
_cell_angle_gamma 90.000000
_cell_volume 2342.400912
_symmetry_space_group_name_H-M "C 2/M"
_symmetry_group_IT_number 12
_symmetry_cell_setting 'monoclinic'
loop_
_space_group_symop_operation_xyz
x,y,z
-x,y,-z
-x,-y,-z
x,-y,z
1/2+x,1/2+y,z
1/2-x,1/2+y,-z
1/2-x,1/2-y,-z
1/2+x,1/2-y,z
loop_
_atom_site_type_symbol
_atom_site_label
_atom_site_fract_x
_atom_site_fract_y
_atom_site_fract_z
Si Si1 0.194472 0.327157 0.041590
Si Si2 0.651217 0.673438 0.373063
Si Si3 0.175404 0.833240 0.148641
Si Si4 0.593223 0.670945 0.834948
Si Si5 0.813462 0.323110 0.720445
Si Si6 0.618184 0.831856 0.591452
O O1 0.174444 0.500000 0.036711
O O2 0.149475 0.240933 0.059906
O O3 0.324307 0.292907 0.146640
O O4 0.120725 0.280016 0.916355
O O5 0.681108 0.500000 0.391776
O O6 0.750000 0.750000 0.500000
O O7 0.534386 0.693889 0.302379
O O8 0.631529 0.748916 0.288737
O O9 0.125748 0.739242 0.161755
O O10 0.308558 0.839124 0.279116
O O11 0.124307 0.000000 0.103280
O O12 0.612924 0.500000 0.875002
O O13 0.824596 0.500000 0.727086
O O14 0.683276 0.273587 0.602036
O O15 0.500000 0.759882 0.500000
O O16 0.603260 0.000000 0.550232
#
# Coordination Sequence:
#
# PCOD8093253 Si02
#       6
#     8   8   8   8   8   8
#     4  10  19  35  60  89 117 146 190 242 290 343
#     4  11  23  41  61  83 115 156 197 237 285 346
#     4   9  18  33  54  79 112 150 184 230 286 340
#     4   9  21  39  59  84 116 153 191 236 289 344
#     4  10  20  35  54  80 113 147 187 236 284 337
#     4   8  16  31  50  75 106 144 186 229 279 335
#
# _framework density 20.491796000000001
#
# number of rings (size 3 to 8) (size 9 to 14) (size 15 to 20)
#    1.000    1.500    0.000    2.500    0.000    3.667 
#    0.000    4.167    0.000    5.000    0.000    0.000 
#    0.000    0.000    0.000    0.000    0.000    0.000 
#
# Total GULP energy -297394.578094 kJ/mol
# GULP energy per Si atom -12391.440754 kJ/mol
# Density = 2.044516 g / cm^3
# Si number density = 20.491796 Si / 1000 Ang^3
#
#
#
# Elastic Constant Matrix: (Units=GPa)
#
#
# Indices 1 2 3 4 5 6 
#
# 1 79.0410 42.6669 20.3542 0.0000 -9.0600 0.0000
# 2 42.6669 138.6660 24.9165 0.0000 -8.3280 0.0000
# 3 20.3542 24.9165 51.4922 0.0000 7.6551 0.0000
# 4 0.0000 0.0000 0.0000 26.0384 0.0000 -8.1189
# 5 -9.0600 -8.3280 7.6551 0.0000 32.2151 0.0000
# 6 0.0000 0.0000 0.0000 -8.1189 0.0000 31.8965
#
#
#
# Elastic Compliance Matrix: (Units=1/GPa)
#
#
# Indices 1 2 3 4 5 6 
#
# 1 0.016722 -0.003858 -0.005488 0.000000 0.005009 0.000000
# 2 -0.003858 0.009090 -0.003174 0.000000 0.002019 0.000000
# 3 -0.005488 -0.003174 0.024336 0.000000 -0.008147 0.000000
# 4 0.000000 0.000000 0.000000 0.041716 0.000000 0.010618
# 5 0.005009 0.002019 -0.008147 0.000000 0.034908 0.000000
# 6 0.000000 0.000000 0.000000 0.010618 0.000000 0.034054
#
#
# Mechanical properties :
#
#
# Convention : Reuss Voigt Hill
#
# Bulk Modulus (GPa) = 39.82600 49.45271 44.63936
# Shear Modulus (GPa) = 25.74199 30.11410 27.92805
#
# Velocity S-wave (km/s) = 3.54815 3.83765 3.69574
# Velocity P-wave (km/s) = 6.02189 6.61983 6.32792
#
# Compressibility (1/GPa) = 0.02510922
#
# Stress axis : x y z
#
# Youngs Moduli (GPa) = 59.80238 110.00755 41.09060
#
# Poissons Ratio (x) = 0.42444 0.22549
# Poissons Ratio (y) = 0.23074 0.13041
# Poissons Ratio (z) = 0.32817 0.34913
#
# Static dielectric constant tensor:
#      x y z
#    x 3.622900 0.000000 0.192470 
#    y 0.000000 3.662580 0.000000 
#    z 0.192470 0.000000 3.453090 
# 
# 
# High freq. dielectric constant tensor:
#      x y z
#    x 1.789150 0.000000 0.013400 
#    y 0.000000 1.805290 0.000000 
#    z 0.013400 0.000000 1.781240 
# 
# From -- ./inp_files/348892.got.cif
#   From: 2010.06.25/outbox.cif.g09.slc.cpg/sg12_175_cif.got.tgz:348892.got - 2010.06.28 00:19:55.
