data_PCOD8093279
_publ_section_title
;
Structure prediction by ZEFSAII (Michael W. Deem and Ramdas Pophale) SiO2 
 PCOD8093279
Probable space group: C 2/M
;
_chemical_formula_sum "Si O2"
_cell_formula_units_Z 36
_cell_length_a 9.609314
_cell_length_b 22.830272
_cell_length_c 12.619763
_cell_angle_alpha 90.000000
_cell_angle_beta 36.338499
_cell_angle_gamma 90.000000
_cell_volume 1640.525653
_symmetry_space_group_name_H-M "C 2/M"
_symmetry_group_IT_number 12
_symmetry_cell_setting 'monoclinic'
loop_
_space_group_symop_operation_xyz
x,y,z
-x,y,-z
-x,-y,-z
x,-y,z
1/2+x,1/2+y,z
1/2-x,1/2+y,-z
1/2-x,1/2-y,-z
1/2+x,1/2-y,z
loop_
_atom_site_type_symbol
_atom_site_label
_atom_site_fract_x
_atom_site_fract_y
_atom_site_fract_z
Si Si1 0.500000 0.368265 0.500000
Si Si2 0.760038 0.933354 0.834051
Si Si3 0.915182 0.935555 0.170949
Si Si4 0.794496 0.687157 0.703665
Si Si5 0.386956 0.777888 0.319936
O O1 0.444656 0.405537 0.638736
O O2 0.738461 0.332537 0.369673
O O3 0.863685 0.927983 0.887981
O O4 0.729797 0.000000 0.815271
O O5 0.500000 0.903797 0.000000
O O6 0.740057 0.881689 0.296120
O O7 0.796382 0.000000 0.263516
O O8 0.000000 0.931185 0.000000
O O9 0.578749 0.729313 0.795986
O O10 0.000000 0.708371 0.500000
O O11 0.861698 0.700015 0.785820
O O12 0.250000 0.750000 0.500000
#
# Coordination Sequence:
#
# PCOD8093279 Si02
#       5
#     4   8   8   8   8
#     4  12  21  38  70  94 127 168 216 264 322 384
#     4  10  23  42  64  94 130 170 216 267 321 380
#     4  10  23  43  62  88 128 168 211 268 323 378
#     4  10  20  37  61  89 121 162 211 255 320 381
#     4  10  19  35  60  91 125 161 205 258 322 378
#
# _framework density 21.944185999999998
#
# number of rings (size 3 to 8) (size 9 to 14) (size 15 to 20)
#    0.000    1.778    3.333    3.000    3.111    0.444 
#    0.000    3.333    0.000    0.000    0.000    0.000 
#    0.000    0.000    0.000    0.000    0.000    0.000 
#
# Total GULP energy -222987.612236 kJ/mol
# GULP energy per Si atom -12388.200680 kJ/mol
# Density = 2.189424 g / cm^3
# Si number density = 21.944186 Si / 1000 Ang^3
#
#
#
# Elastic Constant Matrix: (Units=GPa)
#
#
# Indices 1 2 3 4 5 6 
#
# 1 168.5909 74.5297 22.7648 0.0000 17.6893 0.0000
# 2 74.5297 141.3853 21.5610 0.0000 -0.0018 0.0000
# 3 22.7648 21.5610 56.1618 0.0000 17.2252 -0.0001
# 4 0.0000 0.0000 0.0000 4.7223 0.0000 -7.8007
# 5 17.6893 -0.0018 17.2252 0.0000 22.0223 0.0000
# 6 0.0000 0.0000 -0.0001 -7.8007 0.0000 47.2062
#
#
#
# Elastic Compliance Matrix: (Units=1/GPa)
#
#
# Indices 1 2 3 4 5 6 
#
# 1 0.008700 -0.004668 0.000538 0.000000 -0.007410 0.000000
# 2 -0.004668 0.010168 -0.004160 0.000000 0.007004 0.000000
# 3 0.000538 -0.004160 0.025414 0.000000 -0.020311 0.000000
# 4 0.000000 0.000000 0.000000 0.291266 0.000000 0.048131
# 5 -0.007410 0.007004 -0.020311 0.000000 0.067247 0.000000
# 6 0.000000 0.000000 0.000000 0.048131 0.000000 0.029137
#
#
# Mechanical properties :
#
#
# Convention : Reuss Voigt Hill
#
# Bulk Modulus (GPa) = 36.09748 67.09437 51.59593
# Shear Modulus (GPa) = 10.92310 31.27567 21.09938
#
# Velocity S-wave (km/s) = 2.23349 3.77933 3.10417
# Velocity P-wave (km/s) = 4.81006 7.04882 6.03417
#
# Compressibility (1/GPa) = 0.02770276
#
# Stress axis : x y z
#
# Youngs Moduli (GPa) = 114.94214 98.34645 39.34876
#
# Poissons Ratio (x) = 0.45911 -0.02118
# Poissons Ratio (y) = 0.53659 0.16367
# Poissons Ratio (z) = -0.06187 0.40908
#
# Static dielectric constant tensor:
#      x y z
#    x 4.940810 0.000000 0.164430 
#    y 0.000000 5.175130 0.000000 
#    z 0.164430 0.000000 3.431000 
# 
# 
# High freq. dielectric constant tensor:
#      x y z
#    x 1.886340 0.000000 0.019360 
#    y 0.000000 1.875530 0.000000 
#    z 0.019360 0.000000 1.814660 
# 
# From -- ./inp_files/121634.got.cif
#   From: 2010.06.25/outbox.cif.g09.slc.cpg/sg12_61_cif.got.tgz:121634.got - 2010.06.28 00:19:55.
