data_PCOD8093432
_publ_section_title
;
Structure prediction by ZEFSAII (Michael W. Deem and Ramdas Pophale) SiO2 
 PCOD8093432
Probable space group: C 2/M
;
_chemical_formula_sum "Si O2"
_cell_formula_units_Z 56
_cell_length_a 9.922982
_cell_length_b 14.670071
_cell_length_c 23.067177
_cell_angle_alpha 90.000000
_cell_angle_beta 58.689595
_cell_angle_gamma 90.000000
_cell_volume 2868.877781
_symmetry_space_group_name_H-M "C 2/M"
_symmetry_group_IT_number 12
_symmetry_cell_setting 'monoclinic'
loop_
_space_group_symop_operation_xyz
x,y,z
-x,y,-z
-x,-y,-z
x,-y,z
1/2+x,1/2+y,z
1/2-x,1/2+y,-z
1/2-x,1/2-y,-z
1/2+x,1/2-y,z
loop_
_atom_site_type_symbol
_atom_site_label
_atom_site_fract_x
_atom_site_fract_y
_atom_site_fract_z
Si Si1 0.976759 0.747332 0.742486
Si Si2 0.831624 0.898113 0.355242
Si Si3 0.155449 0.336273 0.501046
Si Si4 0.905286 0.189769 0.961668
Si Si5 0.433107 0.000000 0.108909
Si Si6 0.874069 0.699153 0.171700
Si Si7 0.970945 0.602223 0.647407
Si Si8 0.251918 0.500000 0.969267
O O1 0.802494 0.769330 0.804301
O O2 0.997597 0.659674 0.698338
O O3 0.024127 0.832705 0.691683
O O4 0.091304 0.725002 0.769950
O O5 0.773116 0.895221 0.434828
O O6 0.690596 0.865549 0.345640
O O7 0.887782 0.000000 0.328788
O O8 0.250000 0.250000 0.500000
O O9 0.000000 0.307428 0.500000
O O10 0.110336 0.391945 0.568732
O O11 0.015310 0.237692 0.890968
O O12 0.862251 0.087995 0.951511
O O13 0.750000 0.250000 0.000000
O O14 0.000000 0.186335 0.000000
O O15 0.400417 0.091320 0.153608
O O16 0.320753 0.000000 0.078397
O O17 0.615533 0.000000 0.048394
O O18 0.959293 0.500000 0.672336
#
# Coordination Sequence:
#
# PCOD8093432 Si02
#       8
#     8   8   8   8   4   8   8   4
#     4  12  24  43  61  92 130 175 209 259 316 386
#     4  10  21  40  64  92 123 167 221 264 314 381
#     4  10  19  35  65  92 120 162 213 272 321 365
#     4  12  24  46  71  98 131 166 217 271 317 376
#     4  11  24  44  70  98 132 163 211 261 330 388
#     4  12  27  43  65  96 130 173 209 256 322 386
#     4  10  21  40  64  89 125 167 216 265 315 374
#     4  11  23  44  74 102 126 166 209 272 326 372
#
# _framework density 19.519829000000001
#
# number of rings (size 3 to 8) (size 9 to 14) (size 15 to 20)
#    0.000    1.000    4.286    3.214    2.000    1.714 
#    2.571    0.000    0.000    0.857    0.000    0.000 
#    0.000    0.000    0.000    0.000    0.000    0.000 
#
# Total GULP energy -347201.652265 kJ/mol
# GULP energy per Si atom -12400.059009 kJ/mol
# Density = 1.947540 g / cm^3
# Si number density = 19.519829 Si / 1000 Ang^3
#
#
#
# Elastic Constant Matrix: (Units=GPa)
#
#
# Indices 1 2 3 4 5 6 
#
# 1 64.1286 36.2949 22.4529 0.0000 -8.6237 0.0000
# 2 36.2949 123.6462 49.4175 0.0000 -1.7874 0.0000
# 3 22.4529 49.4175 102.6141 0.0000 -7.7129 0.0000
# 4 0.0000 0.0000 0.0000 89.6268 0.0000 -12.5495
# 5 -8.6237 -1.7874 -7.7129 0.0000 26.6144 0.0000
# 6 0.0000 0.0000 0.0000 -12.5495 0.0000 37.5273
#
#
#
# Elastic Compliance Matrix: (Units=1/GPa)
#
#
# Indices 1 2 3 4 5 6 
#
# 1 0.019767 -0.005154 -0.001419 0.000000 0.005648 0.000000
# 2 -0.005154 0.011373 -0.004516 0.000000 -0.002215 0.000000
# 3 -0.001419 -0.004516 0.012444 0.000000 0.002843 0.000000
# 4 0.000000 0.000000 0.000000 0.011705 0.000000 0.003914
# 5 0.005648 -0.002215 0.002843 0.000000 0.040079 0.000000
# 6 0.000000 0.000000 0.000000 0.003914 0.000000 0.027956
#
#
# Mechanical properties :
#
#
# Convention : Reuss Voigt Hill
#
# Bulk Modulus (GPa) = 46.71273 56.30218 51.50745
# Shear Modulus (GPa) = 32.75740 42.90194 37.82967
#
# Velocity S-wave (km/s) = 4.10098 4.69323 4.40706
# Velocity P-wave (km/s) = 6.81226 7.63379 7.23469
#
# Compressibility (1/GPa) = 0.02140744
#
# Stress axis : x y z
#
# Youngs Moduli (GPa) = 50.59029 87.92544 80.35839
#
# Poissons Ratio (x) = 0.45313 0.11401
# Poissons Ratio (y) = 0.26072 0.36290
# Poissons Ratio (z) = 0.07177 0.39707
#
# Static dielectric constant tensor:
#      x y z
#    x 3.581070 0.000000 -0.019340 
#    y 0.000000 3.249470 0.000000 
#    z -0.019340 0.000000 3.383280 
# 
# 
# High freq. dielectric constant tensor:
#      x y z
#    x 1.757840 0.000000 0.000270 
#    y 0.000000 1.770800 0.000000 
#    z 0.000270 0.000000 1.772530 
# 
# From -- ./inp_files/300186.got.cif
#   From: 2010.06.25/outbox.cif.g09.slc.cpg/sg12_151_cif.got.tgz:300186.got - 2010.06.28 00:19:55.
