data_PCOD8093773
_publ_section_title
;
Structure prediction by ZEFSAII (Michael W. Deem and Ramdas Pophale) SiO2 
 PCOD8093773
Probable space group: C 2/M
;
_chemical_formula_sum "Si O2"
_cell_formula_units_Z 56
_cell_length_a 24.746050
_cell_length_b 9.002586
_cell_length_c 14.795005
_cell_angle_alpha 90.000000
_cell_angle_beta 122.026980
_cell_angle_gamma 90.000000
_cell_volume 2794.350689
_symmetry_space_group_name_H-M "C 2/M"
_symmetry_group_IT_number 12
_symmetry_cell_setting 'monoclinic'
loop_
_space_group_symop_operation_xyz
x,y,z
-x,y,-z
-x,-y,-z
x,-y,z
1/2+x,1/2+y,z
1/2-x,1/2+y,-z
1/2-x,1/2-y,-z
1/2+x,1/2-y,z
loop_
_atom_site_type_symbol
_atom_site_label
_atom_site_fract_x
_atom_site_fract_y
_atom_site_fract_z
Si Si1 0.803378 0.674709 0.323905
Si Si2 0.250946 0.668196 0.907610
Si Si3 0.818243 0.669649 0.700507
Si Si4 0.640571 0.838104 0.069364
Si Si5 0.442898 0.825339 0.516574
Si Si6 0.002984 0.667165 0.900657
Si Si7 0.421110 0.324581 0.683719
O O1 0.789700 0.500000 0.323211
O O2 0.799029 0.720950 0.213828
O O3 0.750581 0.760402 0.336662
O O4 0.874475 0.718891 0.414963
O O5 0.239469 0.500000 0.921552
O O6 0.319778 0.696469 0.926130
O O7 0.250000 0.750000 0.000000
O O8 0.806389 0.500000 0.660496
O O9 0.868389 0.680398 0.829501
O O10 0.851844 0.754490 0.646613
O O11 0.675073 0.000000 0.086301
O O12 0.578599 0.839689 0.951677
O O13 0.500000 0.776033 0.500000
O O14 0.449525 0.738518 0.616045
O O15 0.447567 0.000000 0.540488
O O16 0.973495 0.500000 0.864079
O O17 0.972192 0.782935 0.805309
O O18 0.000000 0.727135 0.000000
O O19 0.413499 0.500000 0.670272
#
# Coordination Sequence:
#
# PCOD8093773 Si02
#       7
#     8   8   8   8   8   8   8
#     4   9  20  39  62  88 117 151 197 254 306 351
#     4  10  20  34  54  83 118 152 193 242 294 352
#     4  10  19  36  61  89 119 154 197 240 296 364
#     4   9  18  33  55  81 113 152 193 238 287 344
#     4  10  23  45  68  86 112 158 211 256 301 358
#     4  10  19  36  59  85 119 159 200 238 286 351
#     4  12  25  38  58  91 127 161 200 250 307 361
#
# _framework density 20.040434000000001
#
# number of rings (size 3 to 8) (size 9 to 14) (size 15 to 20)
#    0.000    2.000    1.429    2.143    0.000    4.571 
#    0.000    2.857    0.000    0.000    0.000    0.000 
#    0.000    0.000    0.000    0.000    0.000    0.000 
#
# Total GULP energy -347008.939301 kJ/mol
# GULP energy per Si atom -12393.176404 kJ/mol
# Density = 1.999482 g / cm^3
# Si number density = 20.040434 Si / 1000 Ang^3
#
#
#
# Elastic Constant Matrix: (Units=GPa)
#
#
# Indices 1 2 3 4 5 6 
#
# 1 116.2067 56.6538 63.1667 0.0000 -8.6447 0.0000
# 2 56.6538 84.5937 51.2570 0.0000 -8.1762 0.0000
# 3 63.1667 51.2570 105.0446 0.0000 -5.9565 0.0000
# 4 0.0000 0.0000 0.0000 27.4007 0.0000 -2.1277
# 5 -8.6447 -8.1762 -5.9565 0.0000 35.8194 0.0000
# 6 0.0000 0.0000 0.0000 -2.1277 0.0000 32.5377
#
#
#
# Elastic Compliance Matrix: (Units=1/GPa)
#
#
# Indices 1 2 3 4 5 6 
#
# 1 0.014969 -0.006385 -0.005819 0.000000 0.001188 0.000000
# 2 -0.006385 0.019730 -0.005674 0.000000 0.002019 0.000000
# 3 -0.005819 -0.005674 0.015783 0.000000 -0.000075 0.000000
# 4 0.000000 0.000000 0.000000 0.036682 0.000000 0.002399
# 5 0.001188 0.002019 -0.000075 0.000000 0.028653 0.000000
# 6 0.000000 0.000000 0.000000 0.002399 0.000000 0.030890
#
#
# Mechanical properties :
#
#
# Convention : Reuss Voigt Hill
#
# Bulk Modulus (GPa) = 67.89630 71.99999 69.94814
# Shear Modulus (GPa) = 26.68507 28.13607 27.41057
#
# Velocity S-wave (km/s) = 3.65302 3.75102 3.70234
# Velocity P-wave (km/s) = 7.19346 7.40037 7.29765
#
# Compressibility (1/GPa) = 0.01472834
#
# Stress axis : x y z
#
# Youngs Moduli (GPa) = 66.80332 50.68419 63.35955
#
# Poissons Ratio (x) = 0.32360 0.36867
# Poissons Ratio (y) = 0.42652 0.35947
# Poissons Ratio (z) = 0.38871 0.28756
#
# Static dielectric constant tensor:
#      x y z
#    x 1.762360 0.000000 1.303180 
#    y 0.000000 3.530650 0.000000 
#    z 1.303180 0.000000 2.876010 
# 
# 
# High freq. dielectric constant tensor:
#      x y z
#    x 1.776850 0.000000 0.001270 
#    y 0.000000 1.774230 0.000000 
#    z 0.001270 0.000000 1.782030 
# 
# From -- ./inp_files/239018.got.cif
#   From: 2010.06.25/outbox.cif.g09.slc.cpg/sg12_120_cif.got.tgz:239018.got - 2010.06.28 00:19:55.
