data_PCOD8093874
_publ_section_title
;
Structure prediction by ZEFSAII (Michael W. Deem and Ramdas Pophale) SiO2 
 PCOD8093874
Probable space group: C 2/M
;
_chemical_formula_sum "Si O2"
_cell_formula_units_Z 56
_cell_length_a 14.220033
_cell_length_b 18.433307
_cell_length_c 18.566581
_cell_angle_alpha 90.000000
_cell_angle_beta 146.309453
_cell_angle_gamma 90.000000
_cell_volume 2699.600923
_symmetry_space_group_name_H-M "C 2/M"
_symmetry_group_IT_number 12
_symmetry_cell_setting 'monoclinic'
loop_
_space_group_symop_operation_xyz
x,y,z
-x,y,-z
-x,-y,-z
x,-y,z
1/2+x,1/2+y,z
1/2-x,1/2+y,-z
1/2-x,1/2-y,-z
1/2+x,1/2-y,z
loop_
_atom_site_type_symbol
_atom_site_label
_atom_site_fract_x
_atom_site_fract_y
_atom_site_fract_z
Si Si1 0.857570 0.706699 0.262292
Si Si2 0.408943 0.710593 0.781711
Si Si3 0.135974 0.702998 0.022992
Si Si4 0.631731 0.285981 0.519872
Si Si5 0.156205 0.921095 0.447014
Si Si6 0.896258 0.084582 0.164205
Si Si7 0.484443 0.918891 0.570679
O O1 0.711494 0.713202 0.227140
O O2 0.785690 0.740047 0.142445
O O3 0.907403 0.621510 0.297773
O O4 0.034065 0.746851 0.392783
O O5 0.302628 0.741429 0.646330
O O6 0.482977 0.630353 0.813316
O O7 0.560639 0.764995 0.900936
O O8 0.214426 0.624269 0.054094
O O9 0.000000 0.692204 0.000000
O O10 0.500000 0.295557 0.500000
O O11 0.691440 0.364882 0.532755
O O12 0.287880 0.915504 0.464953
O O13 0.972502 0.911955 0.293395
O O14 0.172078 0.000000 0.493931
O O15 0.878875 0.000000 0.127477
O O16 0.500000 0.882114 0.500000
O O17 0.557406 0.000000 0.613028
#
# Coordination Sequence:
#
# PCOD8093874 Si02
#       7
#     8   8   8   8   8   8   8
#     4  10  19  36  60  86 113 150 191 235 291 347
#     4  10  22  37  59  89 113 147 195 242 289 343
#     4  10  22  40  60  84 115 150 196 246 289 343
#     4  10  20  36  60  87 116 151 193 240 293 346
#     4  10  21  35  56  89 119 152 194 240 292 345
#     4  11  22  38  60  84 116 156 195 237 289 351
#     4  10  20  34  54  86 125 155 187 238 295 352
#
# _framework density 20.743807
#
# number of rings (size 3 to 8) (size 9 to 14) (size 15 to 20)
#    0.000    1.857    1.429    3.429    2.000    3.429 
#    0.000    1.429    0.000    3.000    0.000    0.000 
#    0.000    0.000    0.000    0.000    0.000    0.000 
#
# Total GULP energy -347012.485384 kJ/mol
# GULP energy per Si atom -12393.303049 kJ/mol
# Density = 2.069659 g / cm^3
# Si number density = 20.743807 Si / 1000 Ang^3
#
#
#
# Elastic Constant Matrix: (Units=GPa)
#
#
# Indices 1 2 3 4 5 6 
#
# 1 33.7883 44.0030 32.8082 0.0008 -4.7663 0.0002
# 2 44.0030 165.7027 59.2159 0.0025 4.8296 0.0005
# 3 32.8082 59.2159 117.8289 0.0028 11.4012 0.0000
# 4 0.0008 0.0025 0.0028 29.0208 -0.0001 1.0581
# 5 -4.7663 4.8296 11.4012 -0.0001 13.2569 -0.0001
# 6 0.0002 0.0005 0.0000 1.0581 -0.0001 32.4367
#
#
#
# Elastic Compliance Matrix: (Units=1/GPa)
#
#
# Indices 1 2 3 4 5 6 
#
# 1 0.070777 -0.014026 -0.017032 0.000001 0.045204 0.000000
# 2 -0.014026 0.010139 -0.000376 -0.000001 -0.008413 0.000000
# 3 -0.017032 -0.000376 0.015268 -0.000001 -0.019117 0.000000
# 4 0.000001 -0.000001 -0.000001 0.034499 0.000002 -0.001125
# 5 0.045204 -0.008413 -0.019117 0.000002 0.111191 0.000000
# 6 0.000000 0.000000 0.000000 -0.001125 0.000000 0.030866
#
#
# Mechanical properties :
#
#
# Convention : Reuss Voigt Hill
#
# Bulk Modulus (GPa) = 30.01584 65.48600 47.75092
# Shear Modulus (GPa) = 14.42111 27.02908 20.72509
#
# Velocity S-wave (km/s) = 2.63953 3.61362 3.16428
# Velocity P-wave (km/s) = 4.87757 7.00346 6.03486
#
# Compressibility (1/GPa) = 0.03331574
#
# Stress axis : x y z
#
# Youngs Moduli (GPa) = 14.12889 98.62745 65.49587
#
# Poissons Ratio (x) = 1.38335 1.11554
# Poissons Ratio (y) = 0.19817 0.02463
# Poissons Ratio (z) = 0.24065 0.03709
#
# Static dielectric constant tensor:
#      x y z
#    x 3.558710 0.000000 0.127110 
#    y 0.000000 3.935610 0.000000 
#    z 0.127110 0.000000 4.039900 
# 
# 
# High freq. dielectric constant tensor:
#      x y z
#    x 1.803860 0.000000 0.020450 
#    y 0.000000 1.812710 0.000000 
#    z 0.020450 0.000000 1.804400 
# 
# From -- ./inp_files/311763.got.cif
#   From: 2010.06.25/outbox.cif.g09.slc.cpg/sg12_156_cif.got.tgz:311763.got - 2010.06.28 00:19:55.
