data_PCOD8093422
_publ_section_title
;
Structure prediction by ZEFSAII (Michael W. Deem and Ramdas Pophale) SiO2 
 PCOD8093422
Probable space group: C 2/M
;
_chemical_formula_sum "Si O2"
_cell_formula_units_Z 64
_cell_length_a 16.744071
_cell_length_b 31.593700
_cell_length_c 11.773179
_cell_angle_alpha 90.000000
_cell_angle_beta 153.180525
_cell_angle_gamma 90.000000
_cell_volume 2809.997976
_symmetry_space_group_name_H-M "C 2/M"
_symmetry_group_IT_number 12
_symmetry_cell_setting 'monoclinic'
loop_
_space_group_symop_operation_xyz
x,y,z
-x,y,-z
-x,-y,-z
x,-y,z
1/2+x,1/2+y,z
1/2-x,1/2+y,-z
1/2-x,1/2-y,-z
1/2+x,1/2-y,z
loop_
_atom_site_type_symbol
_atom_site_label
_atom_site_fract_x
_atom_site_fract_y
_atom_site_fract_z
Si Si1 0.236066 0.687812 0.322879
Si Si2 0.746804 0.073570 0.590370
Si Si3 0.112602 0.662949 0.385804
Si Si4 0.878458 0.927407 0.006811
Si Si5 0.745390 0.133399 0.123861
Si Si6 0.842576 0.547011 0.059816
Si Si7 0.693148 0.280673 0.197631
Si Si8 0.583126 0.666214 0.864823
O O1 0.075004 0.682077 0.208594
O O2 0.247777 0.647639 0.256179
O O3 0.230048 0.730695 0.243479
O O4 0.386544 0.686063 0.613378
O O5 0.749147 0.123883 0.566003
O O6 0.556209 0.052718 0.323250
O O7 0.915699 0.055569 0.731118
O O8 0.787301 0.063560 0.771762
O O9 0.157218 0.698907 0.533134
O O10 0.921181 0.643688 0.169832
O O11 0.885203 0.877005 0.029133
O O12 0.747650 0.949407 0.930566
O O13 0.895477 0.158011 0.243848
O O14 0.757621 0.082158 0.144625
O O15 0.802575 0.500000 0.961961
O O16 0.500000 0.292302 0.000000
O O17 0.705591 0.298716 0.084548
#
# Coordination Sequence:
#
# PCOD8093422 Si02
#       8
#     8   8   8   8   8   8   8   8
#     4  12  24  40  65  89 127 174 216 270 312 379
#     4  10  19  35  64  94 127 169 208 258 326 390
#     4  11  21  40  64  91 126 169 218 262 316 380
#     4  10  19  37  63  93 127 170 208 259 325 387
#     4  10  25  43  63  91 127 169 217 256 332 390
#     4  10  23  41  64  95 129 162 211 272 327 392
#     4  12  23  38  64  93 128 166 220 270 317 371
#     4  11  23  42  62  89 128 168 218 266 318 380
#
# _framework density 22.775815999999999
#
# number of rings (size 3 to 8) (size 9 to 14) (size 15 to 20)
#    0.000    1.250    3.750    2.250    1.750    2.500 
#    2.250    1.250    0.000   12.000    0.000    0.000 
#    0.000    0.000    0.000    0.000    0.000    0.000 
#
# Total GULP energy -396456.213462 kJ/mol
# GULP energy per Si atom -12389.256671 kJ/mol
# Density = 2.272398 g / cm^3
# Si number density = 22.775816 Si / 1000 Ang^3
#
#
#
# Elastic Constant Matrix: (Units=GPa)
#
#
# Indices 1 2 3 4 5 6 
#
# 1 72.8095 31.5768 29.0094 0.0000 -1.8962 0.0000
# 2 31.5768 148.8966 32.1839 0.0000 -11.4800 0.0000
# 3 29.0094 32.1839 54.1051 0.0001 -3.0607 0.0001
# 4 0.0000 0.0000 0.0001 19.0474 0.0000 2.0300
# 5 -1.8962 -11.4800 -3.0607 0.0000 33.3132 0.0001
# 6 0.0000 0.0000 0.0001 2.0300 0.0001 18.4149
#
#
#
# Elastic Compliance Matrix: (Units=1/GPa)
#
#
# Indices 1 2 3 4 5 6 
#
# 1 0.017968 -0.002017 -0.008460 0.000000 -0.000449 0.000000
# 2 -0.002017 0.008104 -0.003607 0.000000 0.002347 0.000000
# 3 -0.008460 -0.003607 0.025197 0.000000 0.000591 0.000000
# 4 0.000000 0.000000 0.000000 0.053125 0.000000 -0.005856
# 5 -0.000449 0.002347 0.000591 0.000000 0.030855 0.000000
# 6 0.000000 0.000000 0.000000 -0.005856 0.000000 0.054949
#
#
# Mechanical properties :
#
#
# Convention : Reuss Voigt Hill
#
# Bulk Modulus (GPa) = 43.28385 51.26127 47.27256
# Shear Modulus (GPa) = 22.11738 26.35782 24.23760
#
# Velocity S-wave (km/s) = 3.11961 3.40556 3.26572
# Velocity P-wave (km/s) = 5.65876 6.16600 5.91782
#
# Compressibility (1/GPa) = 0.02310331
#
# Stress axis : x y z
#
# Youngs Moduli (GPa) = 55.65469 123.39184 39.68684
#
# Poissons Ratio (x) = 0.24883 0.33574
# Poissons Ratio (y) = 0.11223 0.14314
# Poissons Ratio (z) = 0.47082 0.44505
#
# Static dielectric constant tensor:
#      x y z
#    x 4.064080 0.000000 0.319550 
#    y 0.000000 3.970340 0.000000 
#    z 0.319550 0.000000 4.099690 
# 
# 
# High freq. dielectric constant tensor:
#      x y z
#    x 1.894170 0.000000 0.013680 
#    y 0.000000 1.884070 0.000000 
#    z 0.013680 0.000000 1.903850 
# 
# From -- ./inp_files/80693.got.cif
#   From: 2010.06.25/outbox.cif.g09.slc.cpg/sg12_41_cif.got.tgz:80693.got - 2010.06.28 00:19:55.
