data_PCOD8093045
_publ_section_title
;
Structure prediction by ZEFSAII (Michael W. Deem and Ramdas Pophale) SiO2 
 PCOD8093045
Probable space group: C 2/M
;
_chemical_formula_sum "Si O2"
_cell_formula_units_Z 64
_cell_length_a 20.246465
_cell_length_b 9.239718
_cell_length_c 18.675063
_cell_angle_alpha 90.000000
_cell_angle_beta 90.865500
_cell_angle_gamma 90.000000
_cell_volume 3493.175837
_symmetry_space_group_name_H-M "C 2/M"
_symmetry_group_IT_number 12
_symmetry_cell_setting 'monoclinic'
loop_
_space_group_symop_operation_xyz
x,y,z
-x,y,-z
-x,-y,-z
x,-y,z
1/2+x,1/2+y,z
1/2-x,1/2+y,-z
1/2-x,1/2-y,-z
1/2+x,1/2-y,z
loop_
_atom_site_type_symbol
_atom_site_label
_atom_site_fract_x
_atom_site_fract_y
_atom_site_fract_z
Si Si1 0.940213 0.168238 0.702688
Si Si2 0.049994 0.329586 0.437971
Si Si3 0.385169 0.167899 0.080520
Si Si4 0.742332 0.167115 0.831899
Si Si5 0.800767 0.335885 0.548505
Si Si6 0.305598 0.832936 0.711891
Si Si7 0.993920 0.835569 0.854770
Si Si8 0.139018 0.167402 0.064309
O O1 0.972087 0.243868 0.633524
O O2 0.872464 0.244216 0.724135
O O3 0.991146 0.186333 0.769093
O O4 0.926045 0.000000 0.686580
O O5 0.048718 0.500000 0.420223
O O6 0.123925 0.280634 0.461280
O O7 0.000000 0.287454 0.500000
O O8 0.330374 0.196422 0.139700
O O9 0.453730 0.229394 0.109778
O O10 0.394783 0.000000 0.064996
O O11 0.362836 0.240472 0.007139
O O12 0.749652 0.266384 0.761945
O O13 0.795604 0.213966 0.892078
O O14 0.753004 0.000000 0.810627
O O15 0.796290 0.500000 0.522732
O O16 0.750000 0.250000 0.500000
O O17 0.779726 0.317940 0.630548
O O18 0.319015 0.000000 0.731413
O O19 0.923209 0.797686 0.886912
O O20 0.014020 0.000000 0.873834
O O21 0.141431 0.000000 0.042470
#
# Coordination Sequence:
#
# PCOD8093045 Si02
#       8
#     8   8   8   8   8   8   8   8
#     4  10  19  35  59  84 110 145 189 230 270 326
#     4   9  19  37  58  82 114 146 183 229 275 323
#     4  11  24  37  53  83 116 143 180 233 280 325
#     4  10  21  39  58  80 111 146 186 226 274 330
#     4   9  19  35  55  82 111 143 179 219 269 321
#     4  10  20  35  58  85 111 143 186 230 273 323
#     4  10  21  38  58  79 109 149 185 224 277 331
#     4  10  20  38  61  79 104 145 188 226 274 335
#
# _framework density 18.321435999999999
#
# number of rings (size 3 to 8) (size 9 to 14) (size 15 to 20)
#    0.000    2.125    1.250    2.625    0.000    7.250 
#    2.250    0.000    0.000    0.000    0.000    0.000 
#    0.000    0.000    0.000    0.000    0.000    0.000 
#
# Total GULP energy -396892.855987 kJ/mol
# GULP energy per Si atom -12402.901750 kJ/mol
# Density = 1.827974 g / cm^3
# Si number density = 18.321436 Si / 1000 Ang^3
#
#
#
# Elastic Constant Matrix: (Units=GPa)
#
#
# Indices 1 2 3 4 5 6 
#
# 1 40.7790 22.9177 8.3350 0.0000 1.4586 0.0000
# 2 22.9177 79.1891 41.4830 0.0000 -5.1501 0.0000
# 3 8.3350 41.4830 75.8120 0.0000 -9.0267 0.0000
# 4 0.0000 0.0000 0.0000 37.7701 0.0000 -2.8143
# 5 1.4586 -5.1501 -9.0267 0.0000 26.8970 0.0000
# 6 0.0000 0.0000 0.0000 -2.8143 0.0000 25.8473
#
#
#
# Elastic Compliance Matrix: (Units=1/GPa)
#
#
# Indices 1 2 3 4 5 6 
#
# 1 0.029716 -0.009667 0.001677 0.000000 -0.002900 0.000000
# 2 -0.009667 0.020848 -0.010215 0.000000 0.001088 0.000000
# 3 0.001677 -0.010215 0.019116 0.000000 0.004368 0.000000
# 4 0.000000 0.000000 0.000000 0.026693 0.000000 0.002906
# 5 -0.002900 0.001088 0.004368 0.000000 0.039010 0.000000
# 6 0.000000 0.000000 0.000000 0.002906 0.000000 0.039005
#
#
# Mechanical properties :
#
#
# Convention : Reuss Voigt Hill
#
# Bulk Modulus (GPa) = 30.05733 37.91683 33.98708
# Shear Modulus (GPa) = 22.53392 26.30584 24.41988
#
# Velocity S-wave (km/s) = 3.51083 3.79330 3.65479
# Velocity P-wave (km/s) = 5.73374 6.31868 6.03330
#
# Compressibility (1/GPa) = 0.03326975
#
# Stress axis : x y z
#
# Youngs Moduli (GPa) = 33.65159 47.96705 52.31293
#
# Poissons Ratio (x) = 0.46371 -0.08775
# Poissons Ratio (y) = 0.32532 0.53438
# Poissons Ratio (z) = -0.05645 0.48999
#
# Static dielectric constant tensor:
#      x y z
#    x 3.268850 0.000000 -0.109870 
#    y 0.000000 3.425870 0.000000 
#    z -0.109870 0.000000 3.461790 
# 
# 
# High freq. dielectric constant tensor:
#      x y z
#    x 1.700670 0.000000 -0.003910 
#    y 0.000000 1.714990 0.000000 
#    z -0.003910 0.000000 1.716410 
# 
# From -- ./inp_files/281242.got.cif
#   From: 2010.06.25/outbox.cif.g09.slc.cpg/sg12_141_cif.got.tgz:281242.got - 2010.06.28 00:19:55.
