data_PCOD8093374
_publ_section_title
;
Structure prediction by ZEFSAII (Michael W. Deem and Ramdas Pophale) SiO2 
 PCOD8093374
Probable space group: C 2/M
;
_chemical_formula_sum "Si O2"
_cell_formula_units_Z 64
_cell_length_a 15.353121
_cell_length_b 8.565011
_cell_length_c 33.754456
_cell_angle_alpha 90.000000
_cell_angle_beta 135.327586
_cell_angle_gamma 90.000000
_cell_volume 3120.638075
_symmetry_space_group_name_H-M "C 2/M"
_symmetry_group_IT_number 12
_symmetry_cell_setting 'monoclinic'
loop_
_space_group_symop_operation_xyz
x,y,z
-x,y,-z
-x,-y,-z
x,-y,z
1/2+x,1/2+y,z
1/2-x,1/2+y,-z
1/2-x,1/2-y,-z
1/2+x,1/2-y,z
loop_
_atom_site_type_symbol
_atom_site_label
_atom_site_fract_x
_atom_site_fract_y
_atom_site_fract_z
Si Si1 0.364409 0.315346 0.141618
Si Si2 0.088651 0.314845 0.063225
Si Si3 0.676278 0.816881 0.439366
Si Si4 0.749874 0.180038 0.619929
Si Si5 0.588241 0.680885 0.631195
Si Si6 0.516942 0.319620 0.738586
Si Si7 0.546411 0.314950 0.133966
Si Si8 0.206827 0.681639 0.742189
O O1 0.356047 0.500000 0.137353
O O2 0.226354 0.244106 0.100863
O O3 0.447402 0.264225 0.205844
O O4 0.430758 0.255418 0.123072
O O5 0.093543 0.500000 0.064078
O O6 0.032711 0.261483 0.086757
O O7 0.000000 0.249955 0.000000
O O8 0.750000 0.750000 0.500000
O O9 0.731141 0.737600 0.418205
O O10 0.531746 0.781674 0.397196
O O11 0.697252 0.000000 0.442989
O O12 0.638606 0.276912 0.603948
O O13 0.871833 0.205779 0.685827
O O14 0.711077 0.000000 0.606351
O O15 0.552438 0.500000 0.621607
O O16 0.694156 0.722616 0.697419
O O17 0.554750 0.500000 0.743262
O O18 0.586955 0.210145 0.730287
O O19 0.547193 0.500000 0.129526
O O20 0.672586 0.257413 0.195569
O O21 0.219396 0.500000 0.735503
#
# Coordination Sequence:
#
# PCOD8093374 Si02
#       8
#     8   8   8   8   8   8   8   8
#     4   9  18  35  57  81 115 156 192 235 299 364
#     4  10  21  37  57  81 111 151 200 251 301 359
#     4  12  26  46  69  95 127 166 213 263 310 365
#     4  11  23  41  66  97 128 163 208 256 310 373
#     4  12  25  42  65  95 129 169 209 251 310 370
#     4  10  19  35  62  88 119 161 198 237 303 376
#     4  10  21  37  58  84 114 154 196 242 299 363
#     4  11  21  35  59  90 123 155 198 252 306 365
#
# _framework density 20.508626
#
# number of rings (size 3 to 8) (size 9 to 14) (size 15 to 20)
#    0.000    1.375    2.500    3.750    0.000    4.250 
#    0.000    3.750    0.000    0.000    0.000    0.000 
#    0.000    0.000    0.000    0.000    0.000    0.000 
#
# Total GULP energy -396943.529917 kJ/mol
# GULP energy per Si atom -12404.485310 kJ/mol
# Density = 2.046195 g / cm^3
# Si number density = 20.508626 Si / 1000 Ang^3
#
#
#
# Elastic Constant Matrix: (Units=GPa)
#
#
# Indices 1 2 3 4 5 6 
#
# 1 122.6333 9.0783 37.0898 0.0000 -27.5236 0.0000
# 2 9.0783 43.0368 22.1092 0.0001 2.6780 -0.0001
# 3 37.0898 22.1092 125.3554 0.0000 -24.3070 0.0000
# 4 0.0000 0.0001 0.0000 26.2462 0.0000 -7.5782
# 5 -27.5236 2.6780 -24.3070 0.0000 20.5950 0.0000
# 6 0.0000 -0.0001 0.0000 -7.5782 0.0000 32.5548
#
#
#
# Elastic Compliance Matrix: (Units=1/GPa)
#
#
# Indices 1 2 3 4 5 6 
#
# 1 0.012196 -0.003871 0.000431 0.000000 0.017311 0.000000
# 2 -0.003871 0.028943 -0.007381 0.000000 -0.017649 0.000000
# 3 0.000431 -0.007381 0.012254 0.000000 0.015998 0.000000
# 4 0.000000 0.000000 0.000000 0.040846 0.000000 0.009508
# 5 0.017311 -0.017649 0.015998 0.000000 0.092866 0.000000
# 6 0.000000 0.000000 0.000000 0.009508 0.000000 0.032931
#
#
# Mechanical properties :
#
#
# Convention : Reuss Voigt Hill
#
# Bulk Modulus (GPa) = 31.49712 47.50890 39.50301
# Shear Modulus (GPa) = 19.82065 30.72909 25.27487
#
# Velocity S-wave (km/s) = 3.11216 3.87505 3.51437
# Velocity P-wave (km/s) = 5.32028 6.57548 5.98090
#
# Compressibility (1/GPa) = 0.03174894
#
# Stress axis : x y z
#
# Youngs Moduli (GPa) = 81.99519 34.55093 81.60730
#
# Poissons Ratio (x) = 0.13375 -0.03517
# Poissons Ratio (y) = 0.31742 0.60238
# Poissons Ratio (z) = -0.03533 0.25504
#
# Static dielectric constant tensor:
#      x y z
#    x 3.854620 0.000000 0.006450 
#    y 0.000000 3.524640 0.000000 
#    z 0.006450 0.000000 3.898620 
# 
# 
# High freq. dielectric constant tensor:
#      x y z
#    x 1.813680 0.000000 -0.006540 
#    y 0.000000 1.784910 0.000000 
#    z -0.006540 0.000000 1.804080 
# 
# From -- ./inp_files/375616.got.cif
#   From: 2010.06.25/outbox.cif.g09.slc.cpg/sg12_188_cif.got.tgz:375616.got - 2010.06.28 00:19:55.
