data_PCOD8093613
_publ_section_title
;
Structure prediction by ZEFSAII (Michael W. Deem and Ramdas Pophale) SiO2 
 PCOD8093613
Probable space group: C 2/M
;
_chemical_formula_sum "Si O2"
_cell_formula_units_Z 64
_cell_length_a 14.663286
_cell_length_b 9.115056
_cell_length_c 26.933130
_cell_angle_alpha 90.000000
_cell_angle_beta 105.469448
_cell_angle_gamma 90.000000
_cell_volume 3469.382205
_symmetry_space_group_name_H-M "C 2/M"
_symmetry_group_IT_number 12
_symmetry_cell_setting 'monoclinic'
loop_
_space_group_symop_operation_xyz
x,y,z
-x,y,-z
-x,-y,-z
x,-y,z
1/2+x,1/2+y,z
1/2-x,1/2+y,-z
1/2-x,1/2-y,-z
1/2+x,1/2-y,z
loop_
_atom_site_type_symbol
_atom_site_label
_atom_site_fract_x
_atom_site_fract_y
_atom_site_fract_z
Si Si1 0.307100 0.168455 0.754781
Si Si2 0.019680 0.671295 0.056732
Si Si3 0.461139 0.827040 0.420598
Si Si4 0.289165 0.827117 0.866517
Si Si5 0.103202 0.831720 0.686369
Si Si6 0.652009 0.173293 0.500273
Si Si7 0.007309 0.826877 0.232013
Si Si8 0.395582 0.171678 0.130042
O O1 0.285037 0.213039 0.808033
O O2 0.215025 0.192175 0.707830
O O3 0.385566 0.275389 0.743311
O O4 0.342082 0.000000 0.757856
O O5 0.036989 0.500000 0.052135
O O6 0.931126 0.702161 0.079448
O O7 0.114400 0.734899 0.095704
O O8 0.000000 0.744545 0.000000
O O9 0.436082 0.761125 0.364325
O O10 0.383498 0.776574 0.450199
O O11 0.567940 0.779026 0.450544
O O12 0.457650 0.000000 0.416140
O O13 0.206815 0.742121 0.882439
O O14 0.274856 0.000000 0.872068
O O15 0.053596 0.778430 0.729521
O O16 0.078251 0.000000 0.672333
O O17 0.750000 0.250000 0.500000
O O18 0.668902 0.000000 0.500760
O O19 0.968469 0.745480 0.178254
O O20 0.001705 0.000000 0.222303
O O21 0.391891 0.000000 0.141695
#
# Coordination Sequence:
#
# PCOD8093613 Si02
#       8
#     8   8   8   8   8   8   8   8
#     4  10  20  37  56  79 109 147 187 224 273 333
#     4   9  19  36  57  80 109 145 182 225 280 336
#     4   9  20  38  57  81 115 149 185 228 275 323
#     4  10  19  36  58  79 109 146 180 223 278 329
#     4  10  22  38  55  79 116 149 183 229 278 329
#     4   9  19  37  60  84 112 148 187 229 273 326
#     4  11  22  37  56  81 111 146 186 229 277 329
#     4  11  21  35  57  83 108 141 185 226 272 334
#
# _framework density 18.447088000000001
#
# number of rings (size 3 to 8) (size 9 to 14) (size 15 to 20)
#    0.000    2.125    2.500    1.500    0.000    4.500 
#    0.000    6.250    0.000    2.625    0.000    0.000 
#    0.000    0.000    0.000    0.000    0.000    0.000 
#
# Total GULP energy -396817.647735 kJ/mol
# GULP energy per Si atom -12400.551492 kJ/mol
# Density = 1.840510 g / cm^3
# Si number density = 18.447088 Si / 1000 Ang^3
#
#
#
# Elastic Constant Matrix: (Units=GPa)
#
#
# Indices 1 2 3 4 5 6 
#
# 1 107.9652 36.9790 16.9023 0.0000 10.4156 0.0000
# 2 36.9790 47.5593 23.8324 0.0000 -0.3786 0.0000
# 3 16.9023 23.8324 85.5769 0.0000 4.5113 0.0000
# 4 0.0000 0.0000 0.0000 21.3973 0.0000 0.1671
# 5 10.4156 -0.3786 4.5113 0.0000 22.8582 0.0000
# 6 0.0000 0.0000 0.0000 0.1671 0.0000 37.5730
#
#
#
# Elastic Compliance Matrix: (Units=1/GPa)
#
#
# Indices 1 2 3 4 5 6 
#
# 1 0.013515 -0.010917 0.000713 0.000000 -0.006480 0.000000
# 2 -0.010917 0.033326 -0.007494 0.000000 0.007005 0.000000
# 3 0.000713 -0.007494 0.013799 0.000000 -0.003172 0.000000
# 4 0.000000 0.000000 0.000000 0.046737 0.000000 -0.000208
# 5 -0.006480 0.007005 -0.003172 0.000000 0.047443 0.000000
# 6 0.000000 0.000000 0.000000 -0.000208 0.000000 0.026616
#
#
# Mechanical properties :
#
#
# Convention : Reuss Voigt Hill
#
# Bulk Modulus (GPa) = 39.61540 44.05877 41.83709
# Shear Modulus (GPa) = 22.19796 27.25820 24.72808
#
# Velocity S-wave (km/s) = 3.47267 3.84818 3.66524
# Velocity P-wave (km/s) = 6.13197 6.60911 6.37501
#
# Compressibility (1/GPa) = 0.02524271
#
# Stress axis : x y z
#
# Youngs Moduli (GPa) = 73.99204 30.00672 72.46950
#
# Poissons Ratio (x) = 0.32758 -0.05164
# Poissons Ratio (y) = 0.80777 0.54309
# Poissons Ratio (z) = -0.05272 0.22487
#
# Static dielectric constant tensor:
#      x y z
#    x 3.539820 0.000000 0.001850 
#    y 0.000000 3.215130 0.000000 
#    z 0.001850 0.000000 3.517590 
# 
# 
# High freq. dielectric constant tensor:
#      x y z
#    x 1.727250 0.000000 0.003380 
#    y 0.000000 1.699060 0.000000 
#    z 0.003380 0.000000 1.716330 
# 
# From -- ./inp_files/359979.got.cif
#   From: 2010.06.25/outbox.cif.g09.slc.cpg/sg12_180_cif.got.tgz:359979.got - 2010.06.28 00:19:55.
