data_PCOD8093912
_publ_section_title
;
Structure prediction by ZEFSAII (Michael W. Deem and Ramdas Pophale) SiO2 
 PCOD8093912
Probable space group: C 2/M
;
_chemical_formula_sum "Si O2"
_cell_formula_units_Z 48
_cell_length_a 17.397036
_cell_length_b 14.556027
_cell_length_c 19.615670
_cell_angle_alpha 90.000000
_cell_angle_beta 150.636233
_cell_angle_gamma 90.000000
_cell_volume 2435.733917
_symmetry_space_group_name_H-M "C 2/M"
_symmetry_group_IT_number 12
_symmetry_cell_setting 'monoclinic'
loop_
_space_group_symop_operation_xyz
x,y,z
-x,y,-z
-x,-y,-z
x,-y,z
1/2+x,1/2+y,z
1/2-x,1/2+y,-z
1/2-x,1/2-y,-z
1/2+x,1/2-y,z
loop_
_atom_site_type_symbol
_atom_site_label
_atom_site_fract_x
_atom_site_fract_y
_atom_site_fract_z
Si Si1 0.440401 0.500000 0.794373
Si Si2 0.365481 0.192466 0.545567
Si Si3 0.331194 0.692331 0.739223
Si Si4 0.276274 0.797700 0.196210
Si Si5 0.201776 0.500000 0.967514
Si Si6 0.325448 0.000000 0.209111
Si Si7 0.633079 0.200602 0.961277
Si Si8 0.158106 0.500000 0.474163
O O1 0.414285 0.593186 0.817493
O O2 0.610201 0.500000 0.891438
O O3 0.312910 0.500000 0.637393
O O4 0.250000 0.250000 0.500000
O O5 0.308339 0.183166 0.423366
O O6 0.544035 0.226096 0.684356
O O7 0.349646 0.094748 0.573205
O O8 0.257153 0.729472 0.751917
O O9 0.457091 0.765918 0.808307
O O10 0.231577 0.905871 0.151563
O O11 0.169628 0.733596 0.066384
O O12 0.128954 0.500000 0.835843
O O13 0.144805 0.590457 0.964342
O O14 0.485081 0.000000 0.378821
O O15 0.750000 0.250000 0.000000
#
# Coordination Sequence:
#
# PCOD8093912 Si02
#       8
#     4   8   8   8   4   4   8   4
#     4  10  19  36  60  89 119 150 186 244 302 348
#     4  10  21  37  60  89 120 155 194 238 289 350
#     4  11  22  38  60  90 124 155 192 241 300 353
#     4  11  22  38  60  90 124 155 192 241 300 353
#     4  12  24  38  60  84 118 152 202 250 286 346
#     4  10  19  36  60  89 119 150 186 244 302 348
#     4  12  23  40  59  86 115 157 203 245 285 346
#     4   8  20  32  55  86 119 142 184 232 298 334
#
# _framework density 19.706586000000001
#
# number of rings (size 3 to 8) (size 9 to 14) (size 15 to 20)
#    0.000    1.333    3.333    2.500    4.667    0.000 
#    0.000    9.167    0.000    0.000    0.000    3.500 
#    0.000    0.000    0.000    0.000    0.000    0.000 
#
# Total GULP energy -297363.706323 kJ/mol
# GULP energy per Si atom -12390.154430 kJ/mol
# Density = 1.966173 g / cm^3
# Si number density = 19.706586 Si / 1000 Ang^3
#
#
#
# Elastic Constant Matrix: (Units=GPa)
#
#
# Indices 1 2 3 4 5 6 
#
# 1 63.7036 22.4031 -6.9257 -0.0001 0.9608 -0.0006
# 2 22.4031 111.0514 4.7079 -0.0028 4.4082 0.0001
# 3 -6.9257 4.7079 69.8934 0.0016 9.9427 0.0027
# 4 -0.0001 -0.0028 0.0016 24.9224 0.0011 3.2448
# 5 0.9608 4.4082 9.9427 0.0011 33.4951 0.0019
# 6 -0.0006 0.0001 0.0027 3.2448 0.0019 22.4867
#
#
#
# Elastic Compliance Matrix: (Units=1/GPa)
#
#
# Indices 1 2 3 4 5 6 
#
# 1 0.017167 -0.003524 0.002028 -0.000001 -0.000631 0.000000
# 2 -0.003524 0.009790 -0.000877 0.000001 -0.000927 0.000000
# 3 0.002028 -0.000877 0.015201 -0.000001 -0.004455 -0.000001
# 4 -0.000001 0.000001 -0.000001 0.040893 -0.000001 -0.005901
# 5 -0.000631 -0.000927 -0.004455 -0.000001 0.031318 -0.000002
# 6 0.000000 0.000000 -0.000001 -0.005901 -0.000002 0.045322
#
#
# Mechanical properties :
#
#
# Convention : Reuss Voigt Hill
#
# Bulk Modulus (GPa) = 26.72893 31.66877 29.19885
# Shear Modulus (GPa) = 28.26342 31.14505 29.70424
#
# Velocity S-wave (km/s) = 3.79121 3.97979 3.88664
# Velocity P-wave (km/s) = 5.72339 6.10109 5.91526
#
# Compressibility (1/GPa) = 0.03741265
#
# Stress axis : x y z
#
# Youngs Moduli (GPa) = 58.25105 102.14752 65.78386
#
# Poissons Ratio (x) = 0.35998 -0.13342
# Poissons Ratio (y) = 0.20529 0.05768
# Poissons Ratio (z) = -0.11814 0.08956
#
# Static dielectric constant tensor:
#      x y z
#    x 3.293310 -0.000010 0.080780 
#    y -0.000010 4.034950 0.000030 
#    z 0.080780 0.000030 3.964180 
# 
# 
# High freq. dielectric constant tensor:
#      x y z
#    x 1.740020 0.000000 0.012080 
#    y 0.000000 1.764700 0.000000 
#    z 0.012080 0.000000 1.786590 
# 
# From -- ./inp_files/278287.got.cif
#   From: 2010.06.25/outbox.cif.g09.slc.cpg/sg12_140_cif.got.tgz:278287.got - 2010.06.28 00:19:55.
