data_PCOD8093981
_publ_section_title
;
Structure prediction by ZEFSAII (Michael W. Deem and Ramdas Pophale) SiO2 
 PCOD8093981
Probable space group: C 2/M
;
_chemical_formula_sum "Si O2"
_cell_formula_units_Z 48
_cell_length_a 23.838454
_cell_length_b 9.305713
_cell_length_c 11.771839
_cell_angle_alpha 90.000000
_cell_angle_beta 118.724024
_cell_angle_gamma 90.000000
_cell_volume 2290.046374
_symmetry_space_group_name_H-M "C 2/M"
_symmetry_group_IT_number 12
_symmetry_cell_setting 'monoclinic'
loop_
_space_group_symop_operation_xyz
x,y,z
-x,y,-z
-x,-y,-z
x,-y,z
1/2+x,1/2+y,z
1/2-x,1/2+y,-z
1/2-x,1/2-y,-z
1/2+x,1/2-y,z
loop_
_atom_site_type_symbol
_atom_site_label
_atom_site_fract_x
_atom_site_fract_y
_atom_site_fract_z
Si Si1 0.424351 0.672021 0.689331
Si Si2 0.634800 0.165179 0.172493
Si Si3 0.459902 0.154519 0.114876
Si Si4 0.149167 0.719043 0.829588
Si Si5 0.426068 0.169034 0.457181
Si Si6 0.288593 0.350762 0.911055
O O1 0.420034 0.500000 0.675572
O O2 0.370844 0.734804 0.722412
O O3 0.494749 0.716224 0.802246
O O4 0.410273 0.747937 0.556782
O O5 0.694671 0.218097 0.154802
O O6 0.647653 0.000000 0.218021
O O7 0.568462 0.184476 0.038107
O O8 0.401642 0.129349 0.145785
O O9 0.497351 0.000000 0.151132
O O10 0.114718 0.755212 0.677200
O O11 0.213829 0.634053 0.864800
O O12 0.171717 0.850518 0.931275
O O13 0.500000 0.184147 0.500000
O O14 0.406605 0.000000 0.445170
O O15 0.309115 0.500000 0.870621
#
# Coordination Sequence:
#
# PCOD8093981 Si02
#       6
#     8   8   8   8   8   8
#     4  12  25  38  56  87 124 157 196 251 309 357
#     4  10  22  40  61  85 116 160 209 247 292 360
#     4  10  19  36  61  87 117 157 203 246 292 357
#     4  10  21  37  63  94 123 158 201 243 297 360
#     4  11  22  40  64  86 118 164 206 242 287 359
#     4  10  21  38  64  94 125 156 196 255 305 346
#
# _framework density 20.960274999999999
#
# number of rings (size 3 to 8) (size 9 to 14) (size 15 to 20)
#    0.000    1.500    1.667    4.000    0.000   11.000 
#    0.000    0.833    0.000    0.000    0.000    0.000 
#    0.000    0.000    0.000    0.000    0.000    0.000 
#
# Total GULP energy -297351.452588 kJ/mol
# GULP energy per Si atom -12389.643858 kJ/mol
# Density = 2.091257 g / cm^3
# Si number density = 20.960275 Si / 1000 Ang^3
#
#
#
# Elastic Constant Matrix: (Units=GPa)
#
#
# Indices 1 2 3 4 5 6 
#
# 1 81.2589 49.7803 34.0877 0.0000 -10.8418 0.0000
# 2 49.7803 124.3913 41.4407 0.0000 -14.3996 0.0000
# 3 34.0877 41.4407 123.7345 0.0000 -16.7596 0.0000
# 4 0.0000 0.0000 0.0000 80.0203 0.0000 22.5646
# 5 -10.8418 -14.3996 -16.7596 0.0000 33.2754 0.0000
# 6 0.0000 0.0000 0.0000 22.5646 0.0000 29.8581
#
#
#
# Elastic Compliance Matrix: (Units=1/GPa)
#
#
# Indices 1 2 3 4 5 6 
#
# 1 0.017177 -0.005820 -0.002539 0.000000 0.001799 0.000000
# 2 -0.005820 0.011229 -0.001885 0.000000 0.002014 0.000000
# 3 -0.002539 -0.001885 0.009863 0.000000 0.003325 0.000000
# 4 0.000000 0.000000 0.000000 0.015881 0.000000 -0.012002
# 5 0.001799 0.002014 0.003325 0.000000 0.033184 0.000000
# 6 0.000000 0.000000 0.000000 -0.012002 0.000000 0.042562
#
#
# Mechanical properties :
#
#
# Convention : Reuss Voigt Hill
#
# Bulk Modulus (GPa) = 56.23863 64.44470 60.34167
# Shear Modulus (GPa) = 31.98744 42.23582 37.11163
#
# Velocity S-wave (km/s) = 3.91077 4.49379 4.21238
# Velocity P-wave (km/s) = 6.87615 7.59858 7.24637
#
# Compressibility (1/GPa) = 0.01778137
#
# Stress axis : x y z
#
# Youngs Moduli (GPa) = 58.21772 89.05335 101.38991
#
# Poissons Ratio (x) = 0.51828 0.25745
# Poissons Ratio (y) = 0.33882 0.19110
# Poissons Ratio (z) = 0.14783 0.16785
#
# Static dielectric constant tensor:
#      x y z
#    x 3.747210 0.000000 -0.141950 
#    y 0.000000 3.602810 0.000000 
#    z -0.141950 0.000000 3.861430 
# 
# 
# High freq. dielectric constant tensor:
#      x y z
#    x 1.821620 0.000000 -0.017630 
#    y 0.000000 1.812370 0.000000 
#    z -0.017630 0.000000 1.811780 
# 
# From -- ./inp_files/173061.got.cif
#   From: 2010.06.25/outbox.cif.g09.slc.cpg/sg12_87_cif.got.tgz:173061.got - 2010.06.28 00:19:55.
