data_PCOD8093887
_publ_section_title
;
Structure prediction by ZEFSAII (Michael W. Deem and Ramdas Pophale) SiO2 
 PCOD8093887
Probable space group: C 2/M
;
_chemical_formula_sum "Si O2"
_cell_formula_units_Z 64
_cell_length_a 15.330721
_cell_length_b 8.663661
_cell_length_c 28.199751
_cell_angle_alpha 90.000000
_cell_angle_beta 58.134102
_cell_angle_gamma 90.000000
_cell_volume 3180.997294
_symmetry_space_group_name_H-M "C 2/M"
_symmetry_group_IT_number 12
_symmetry_cell_setting 'monoclinic'
loop_
_space_group_symop_operation_xyz
x,y,z
-x,y,-z
-x,-y,-z
x,-y,z
1/2+x,1/2+y,z
1/2-x,1/2+y,-z
1/2-x,1/2-y,-z
1/2+x,1/2-y,z
loop_
_atom_site_type_symbol
_atom_site_label
_atom_site_fract_x
_atom_site_fract_y
_atom_site_fract_z
Si Si1 0.660396 0.320390 0.749667
Si Si2 0.000390 0.676950 0.141752
Si Si3 0.295654 0.823167 0.869643
Si Si4 0.472390 0.319727 0.638244
Si Si5 0.332361 0.680039 0.762172
Si Si6 0.077301 0.683108 0.937582
Si Si7 0.218914 0.182645 0.367328
Si Si8 0.299107 0.683385 0.438969
O O1 0.662674 0.500000 0.736682
O O2 0.548789 0.273546 0.801018
O O3 0.738866 0.279154 0.768853
O O4 0.687046 0.228783 0.693939
O O5 0.965116 0.500000 0.157356
O O6 0.123907 0.691775 0.110050
O O7 0.964349 0.741866 0.101216
O O8 0.347066 0.728942 0.811857
O O9 0.188225 0.753021 0.916947
O O10 0.280106 0.000000 0.858811
O O11 0.480844 0.500000 0.627173
O O12 0.435352 0.283969 0.702573
O O13 0.387997 0.255486 0.625108
O O14 0.585077 0.247107 0.598417
O O15 0.303471 0.500000 0.766388
O O16 0.086190 0.500000 0.936085
O O17 0.000000 0.743544 0.000000
O O18 0.230720 0.262427 0.414545
O O19 0.217920 0.000000 0.374108
O O20 0.299808 0.500000 0.440575
O O21 0.250000 0.750000 0.500000
#
# Coordination Sequence:
#
# PCOD8093887 Si02
#       8
#     8   8   8   8   8   8   8   8
#     4  11  21  35  59  91 123 157 198 245 298 365
#     4  10  22  39  58  86 124 160 197 248 303 358
#     4  11  23  37  57  90 122 156 198 250 304 353
#     4   8  19  38  60  83 115 157 199 238 295 360
#     4  10  19  36  60  86 119 159 196 244 302 361
#     4  10  22  42  65  85 115 165 212 250 299 361
#     4  10  21  40  62  87 117 158 199 247 303 356
#     4  11  23  41  61  88 120 159 205 252 297 360
#
# _framework density 20.119477
#
# number of rings (size 3 to 8) (size 9 to 14) (size 15 to 20)
#    0.000    1.875    1.250    3.375    1.750    2.250 
#    0.000    9.375    0.000    0.000    0.000    0.000 
#    0.000    0.000    0.000    0.000    0.000    0.000 
#
# Total GULP energy -396830.586491 kJ/mol
# GULP energy per Si atom -12400.955828 kJ/mol
# Density = 2.007368 g / cm^3
# Si number density = 20.119477 Si / 1000 Ang^3
#
#
#
# Elastic Constant Matrix: (Units=GPa)
#
#
# Indices 1 2 3 4 5 6 
#
# 1 83.7005 22.0330 43.7211 0.0000 -16.8261 0.0000
# 2 22.0330 60.6614 28.7090 0.0000 -6.5997 0.0000
# 3 43.7211 28.7090 125.6935 0.0000 -15.3847 0.0000
# 4 0.0000 0.0000 0.0000 28.9498 0.0000 -1.0934
# 5 -16.8261 -6.5997 -15.3847 0.0000 31.5625 0.0000
# 6 0.0000 0.0000 0.0000 -1.0934 0.0000 26.6866
#
#
#
# Elastic Compliance Matrix: (Units=1/GPa)
#
#
# Indices 1 2 3 4 5 6 
#
# 1 0.016164 -0.003262 -0.004154 0.000000 0.005910 0.000000
# 2 -0.003262 0.019251 -0.003172 0.000000 0.000740 0.000000
# 3 -0.004154 -0.003172 0.010393 0.000000 0.002188 0.000000
# 4 0.000000 0.000000 0.000000 0.034596 0.000000 0.001418
# 5 0.005910 0.000740 0.002188 0.000000 0.036055 0.000000
# 6 0.000000 0.000000 0.000000 0.001418 0.000000 0.037530
#
#
# Mechanical properties :
#
#
# Convention : Reuss Voigt Hill
#
# Bulk Modulus (GPa) = 40.59626 50.99794 45.79710
# Shear Modulus (GPa) = 27.26629 29.14596 28.20613
#
# Velocity S-wave (km/s) = 3.68532 3.81023 3.74830
# Velocity P-wave (km/s) = 6.19114 6.69027 6.44554
#
# Compressibility (1/GPa) = 0.02463281
#
# Stress axis : x y z
#
# Youngs Moduli (GPa) = 61.86584 51.94422 96.21785
#
# Poissons Ratio (x) = 0.16944 0.39969
# Poissons Ratio (y) = 0.20181 0.30519
# Poissons Ratio (z) = 0.25699 0.16476
#
# Static dielectric constant tensor:
#      x y z
#    x 3.728750 0.000000 -0.091520 
#    y 0.000000 3.517770 0.000000 
#    z -0.091520 0.000000 3.716590 
# 
# 
# High freq. dielectric constant tensor:
#      x y z
#    x 1.789900 0.000000 -0.002700 
#    y 0.000000 1.774420 0.000000 
#    z -0.002700 0.000000 1.782270 
# 
# From -- ./inp_files/375060.got.cif
#   From: 2010.06.25/outbox.cif.g09.slc.cpg/sg12_188_cif.got.tgz:375060.got - 2010.06.28 00:19:55.
