data_PCOD8093243
_publ_section_title
;
Structure prediction by ZEFSAII (Michael W. Deem and Ramdas Pophale) SiO2 
 PCOD8093243
Probable space group: C 2/M
;
_chemical_formula_sum "Si O2"
_cell_formula_units_Z 64
_cell_length_a 18.658465
_cell_length_b 8.712813
_cell_length_c 21.257458
_cell_angle_alpha 90.000000
_cell_angle_beta 73.837782
_cell_angle_gamma 90.000000
_cell_volume 3319.195306
_symmetry_space_group_name_H-M "C 2/M"
_symmetry_group_IT_number 12
_symmetry_cell_setting 'monoclinic'
loop_
_space_group_symop_operation_xyz
x,y,z
-x,y,-z
-x,-y,-z
x,-y,z
1/2+x,1/2+y,z
1/2-x,1/2+y,-z
1/2-x,1/2-y,-z
1/2+x,1/2-y,z
loop_
_atom_site_type_symbol
_atom_site_label
_atom_site_fract_x
_atom_site_fract_y
_atom_site_fract_z
Si Si1 0.573482 0.679312 0.228179
Si Si2 0.987658 0.818907 0.574101
Si Si3 0.952260 0.321390 0.894057
Si Si4 0.148556 0.678860 0.323160
Si Si5 0.180355 0.322155 0.981059
Si Si6 0.697986 0.175764 0.718329
Si Si7 0.620893 0.182385 0.865107
Si Si8 0.941081 0.675654 0.329659
O O1 0.587878 0.500000 0.233189
O O2 0.584246 0.726525 0.153707
O O3 0.633734 0.770387 0.255085
O O4 0.490660 0.722892 0.270671
O O5 0.905617 0.770061 0.616581
O O6 0.000000 0.763903 0.500000
O O7 0.050822 0.737555 0.601337
O O8 0.996605 0.000000 0.578879
O O9 0.955701 0.500000 0.874221
O O10 0.035253 0.258353 0.889135
O O11 0.898547 0.292012 0.965930
O O12 0.134196 0.500000 0.335682
O O13 0.233220 0.719293 0.318366
O O14 0.198900 0.500000 0.973209
O O15 0.168680 0.255214 0.913149
O O16 0.250000 0.250000 0.000000
O O17 0.659313 0.239609 0.791375
O O18 0.643440 0.189352 0.672149
O O19 0.723298 0.000000 0.722496
O O20 0.618514 0.000000 0.868143
O O21 0.969204 0.500000 0.319372
#
# Coordination Sequence:
#
# PCOD8093243 Si02
#       8
#     8   8   8   8   8   8   8   8
#     4  11  21  34  55  82 112 148 189 234 285 341
#     4  10  21  39  63  89 119 155 193 230 272 329
#     4  10  19  36  58  80 106 143 194 238 282 344
#     4  11  23  37  57  85 119 152 190 236 281 332
#     4  10  22  37  56  80 109 145 188 239 291 348
#     4  10  20  36  58  85 118 151 187 236 289 343
#     4   9  18  36  59  80 106 146 191 231 284 344
#     4  10  19  35  60  88 117 149 187 232 280 333
#
# _framework density 19.281783000000001
#
# number of rings (size 3 to 8) (size 9 to 14) (size 15 to 20)
#    0.000    1.875    1.250    4.875    1.750    4.000 
#    0.000    1.250    0.000    1.500    0.000    0.000 
#    0.000    0.000    0.000    0.000    0.000    0.000 
#
# Total GULP energy -396825.401913 kJ/mol
# GULP energy per Si atom -12400.793810 kJ/mol
# Density = 1.923790 g / cm^3
# Si number density = 19.281783 Si / 1000 Ang^3
#
#
#
# Elastic Constant Matrix: (Units=GPa)
#
#
# Indices 1 2 3 4 5 6 
#
# 1 120.9037 23.7843 50.8625 0.0000 6.0541 0.0000
# 2 23.7843 49.8253 26.4654 0.0000 7.1370 0.0000
# 3 50.8625 26.4654 121.1439 0.0000 19.6145 0.0000
# 4 0.0000 0.0000 0.0000 26.1916 0.0000 2.7830
# 5 6.0541 7.1370 19.6145 0.0000 22.5117 0.0000
# 6 0.0000 0.0000 0.0000 2.7830 0.0000 29.8221
#
#
#
# Elastic Compliance Matrix: (Units=1/GPa)
#
#
# Indices 1 2 3 4 5 6 
#
# 1 0.010479 -0.003121 -0.003983 0.000000 0.001642 0.000000
# 2 -0.003121 0.023853 -0.003274 0.000000 -0.003870 0.000000
# 3 -0.003983 -0.003274 0.011993 0.000000 -0.008340 0.000000
# 4 0.000000 0.000000 0.000000 0.038563 0.000000 -0.003599
# 5 0.001642 -0.003870 -0.008340 0.000000 0.052473 0.000000
# 6 0.000000 0.000000 0.000000 -0.003599 0.000000 0.033868
#
#
# Mechanical properties :
#
#
# Convention : Reuss Voigt Hill
#
# Bulk Modulus (GPa) = 39.11257 54.89969 47.00613
# Shear Modulus (GPa) = 24.93657 28.42245 26.67951
#
# Velocity S-wave (km/s) = 3.60011 3.84351 3.72380
# Velocity P-wave (km/s) = 6.13268 6.94485 6.55136
#
# Compressibility (1/GPa) = 0.02556723
#
# Stress axis : x y z
#
# Youngs Moduli (GPa) = 95.43220 41.92257 83.38416
#
# Poissons Ratio (x) = 0.13086 0.33216
# Poissons Ratio (y) = 0.29788 0.27299
# Poissons Ratio (z) = 0.38015 0.13725
#
# Static dielectric constant tensor:
#      x y z
#    x 3.536800 0.000000 0.158310 
#    y 0.000000 3.426910 0.000000 
#    z 0.158310 0.000000 3.563940 
# 
# 
# High freq. dielectric constant tensor:
#      x y z
#    x 1.753830 0.000000 0.010610 
#    y 0.000000 1.736830 0.000000 
#    z 0.010610 0.000000 1.744000 
# 
# From -- ./inp_files/341959.got.cif
#   From: 2010.06.25/outbox.cif.g09.slc.cpg/sg12_171_cif.got.tgz:341959.got - 2010.06.28 00:19:55.
