data_PCOD8093788
_publ_section_title
;
Structure prediction by ZEFSAII (Michael W. Deem and Ramdas Pophale) SiO2 
 PCOD8093788
Probable space group: C 2/M
;
_chemical_formula_sum "Si O2"
_cell_formula_units_Z 48
_cell_length_a 11.993135
_cell_length_b 19.481763
_cell_length_c 16.465969
_cell_angle_alpha 90.000000
_cell_angle_beta 138.184894
_cell_angle_gamma 90.000000
_cell_volume 2565.060492
_symmetry_space_group_name_H-M "C 2/M"
_symmetry_group_IT_number 12
_symmetry_cell_setting 'monoclinic'
loop_
_space_group_symop_operation_xyz
x,y,z
-x,y,-z
-x,-y,-z
x,-y,z
1/2+x,1/2+y,z
1/2-x,1/2+y,-z
1/2-x,1/2-y,-z
1/2+x,1/2-y,z
loop_
_atom_site_type_symbol
_atom_site_label
_atom_site_fract_x
_atom_site_fract_y
_atom_site_fract_z
Si Si1 0.609603 0.172660 0.761681
Si Si2 0.487298 0.576728 0.231911
Si Si3 0.575508 0.314216 0.673062
Si Si4 0.813682 0.360394 0.370732
Si Si5 0.741838 0.290877 0.601326
Si Si6 0.851751 0.079871 0.982769
O O1 0.656429 0.252326 0.769869
O O2 0.672755 0.130715 0.718241
O O3 0.410883 0.170336 0.668818
O O4 0.702948 0.134722 0.886373
O O5 0.436094 0.500000 0.224539
O O6 0.411695 0.619494 0.264545
O O7 0.688901 0.582311 0.337278
O O8 0.413102 0.600131 0.105590
O O9 0.671927 0.330861 0.642154
O O10 0.384553 0.293432 0.544388
O O11 0.736797 0.287884 0.358830
O O12 0.000000 0.372344 0.500000
O O13 0.791870 0.000000 0.945834
O O14 0.000000 0.092909 0.000000
#
# Coordination Sequence:
#
# PCOD8093788 Si02
#       6
#     8   8   8   8   8   8
#     4  11  19  33  62  86 112 150 199 236 279 351
#     4  11  23  39  57  81 119 159 197 238 289 345
#     4  10  20  37  60  86 121 154 190 234 297 346
#     4  11  19  33  59  90 116 148 185 240 302 348
#     4  10  19  36  59  88 120 151 182 241 300 342
#     4  10  22  40  57  80 119 159 189 238 301 340
#
# _framework density 18.713009
#
# number of rings (size 3 to 8) (size 9 to 14) (size 15 to 20)
#    0.000    1.500    6.667    1.500    0.000    1.000 
#    0.000    5.833    0.000    2.000    0.000    0.000 
#    0.000    0.000    0.000    0.000    0.000    0.000 
#
# Total GULP energy -297477.424566 kJ/mol
# GULP energy per Si atom -12394.892690 kJ/mol
# Density = 1.867042 g / cm^3
# Si number density = 18.713009 Si / 1000 Ang^3
#
#
#
# Elastic Constant Matrix: (Units=GPa)
#
#
# Indices 1 2 3 4 5 6 
#
# 1 58.1697 27.8048 23.6904 -0.0002 -6.1985 -0.0001
# 2 27.8048 69.7930 54.6661 -0.0002 -9.1828 -0.0001
# 3 23.6904 54.6661 82.9358 -0.0004 -4.7592 -0.0002
# 4 -0.0002 -0.0002 -0.0004 27.9713 -0.0002 -3.3258
# 5 -6.1985 -9.1828 -4.7592 -0.0002 27.8644 -0.0001
# 6 -0.0001 -0.0001 -0.0002 -3.3258 -0.0001 29.4362
#
#
#
# Elastic Compliance Matrix: (Units=1/GPa)
#
#
# Indices 1 2 3 4 5 6 
#
# 1 0.021397 -0.007342 -0.001150 0.000000 0.002144 0.000000
# 2 -0.007342 0.033349 -0.019539 0.000000 0.006020 0.000000
# 3 -0.001150 -0.019539 0.025127 0.000000 -0.002403 0.000000
# 4 0.000000 0.000000 0.000000 0.036238 0.000000 0.004094
# 5 0.002144 0.006020 -0.002403 0.000000 0.037938 0.000000
# 6 0.000000 0.000000 0.000000 0.004094 0.000000 0.034434
#
#
# Mechanical properties :
#
#
# Convention : Reuss Voigt Hill
#
# Bulk Modulus (GPa) = 41.99552 47.02457 44.51004
# Shear Modulus (GPa) = 19.80332 24.03685 21.92009
#
# Velocity S-wave (km/s) = 3.25663 3.58788 3.42626
# Velocity P-wave (km/s) = 6.05239 6.50751 6.28407
#
# Compressibility (1/GPa) = 0.02381207
#
# Stress axis : x y z
#
# Youngs Moduli (GPa) = 46.73524 29.98561 39.79768
#
# Poissons Ratio (x) = 0.22015 0.04576
# Poissons Ratio (y) = 0.34312 0.77762
# Poissons Ratio (z) = 0.05373 0.58590
#
# Static dielectric constant tensor:
#      x y z
#    x 3.541010 0.000000 -0.161140 
#    y 0.000000 3.221610 0.000000 
#    z -0.161140 0.000000 3.455210 
# 
# 
# High freq. dielectric constant tensor:
#      x y z
#    x 1.735940 0.000000 -0.014810 
#    y 0.000000 1.702590 0.000000 
#    z -0.014810 0.000000 1.718900 
# 
# From -- ./inp_files/207931.got.cif
#   From: 2010.06.25/outbox.cif.g09.slc.cpg/sg12_104_cif.got.tgz:207931.got - 2010.06.28 00:19:55.
