data_PCOD8093838
_publ_section_title
;
Structure prediction by ZEFSAII (Michael W. Deem and Ramdas Pophale) SiO2 
 PCOD8093838
Probable space group: C 2/M
;
_chemical_formula_sum "Si O2"
_cell_formula_units_Z 40
_cell_length_a 13.166951
_cell_length_b 13.660197
_cell_length_c 12.168635
_cell_angle_alpha 90.000000
_cell_angle_beta 72.258825
_cell_angle_gamma 90.000000
_cell_volume 2084.600918
_symmetry_space_group_name_H-M "C 2/M"
_symmetry_group_IT_number 12
_symmetry_cell_setting 'monoclinic'
loop_
_space_group_symop_operation_xyz
x,y,z
-x,y,-z
-x,-y,-z
x,-y,z
1/2+x,1/2+y,z
1/2-x,1/2+y,-z
1/2-x,1/2-y,-z
1/2+x,1/2-y,z
loop_
_atom_site_type_symbol
_atom_site_label
_atom_site_fract_x
_atom_site_fract_y
_atom_site_fract_z
Si Si1 0.751833 0.887910 0.561336
Si Si2 0.619463 0.791681 0.425890
Si Si3 0.372774 0.790312 0.833143
Si Si4 0.252229 0.611338 0.944611
Si Si5 0.088324 0.388771 0.807741
O O1 0.699933 0.865435 0.460530
O O2 0.854819 0.820216 0.548377
O O3 0.666025 0.862141 0.682628
O O4 0.789649 0.000000 0.554702
O O5 0.500000 0.817098 0.500000
O O6 0.635480 0.811302 0.292612
O O7 0.350170 0.676473 0.867845
O O8 0.489921 0.814917 0.838628
O O9 0.282701 0.856400 0.921894
O O10 0.292757 0.500000 0.931074
O O11 0.149102 0.625596 0.901884
O O12 0.045921 0.500000 0.810207
#
# Coordination Sequence:
#
# PCOD8093838 Si02
#       5
#     8   8   8   8   8
#     4  10  22  38  57  83 117 152 188 233 281 336
#     4  11  22  38  59  85 117 150 188 234 284 336
#     4  11  21  35  61  88 113 148 192 237 281 331
#     4  10  22  39  59  84 116 151 190 234 281 337
#     4  10  19  36  60  84 111 147 192 235 278 332
#
# _framework density 19.188324000000001
#
# number of rings (size 3 to 8) (size 9 to 14) (size 15 to 20)
#    0.000    1.600    4.000    1.200    0.000    4.000 
#    0.000    0.000    0.000   10.800    0.000    0.000 
#    0.000    0.000    0.000    0.000    0.000    0.000 
#
# Total GULP energy -248079.373877 kJ/mol
# GULP energy per Si atom -12403.968694 kJ/mol
# Density = 1.914465 g / cm^3
# Si number density = 19.188324 Si / 1000 Ang^3
#
#
#
# Elastic Constant Matrix: (Units=GPa)
#
#
# Indices 1 2 3 4 5 6 
#
# 1 61.7684 24.6709 17.0155 0.0000 6.6788 0.0000
# 2 24.6709 86.1558 20.9198 0.0000 8.3324 0.0000
# 3 17.0155 20.9198 129.9138 0.0000 15.7899 0.0000
# 4 0.0000 0.0000 0.0000 22.5156 0.0000 -4.8518
# 5 6.6788 8.3324 15.7899 0.0000 15.7046 0.0000
# 6 0.0000 0.0000 0.0000 -4.8518 0.0000 23.5002
#
#
#
# Elastic Compliance Matrix: (Units=1/GPa)
#
#
# Indices 1 2 3 4 5 6 
#
# 1 0.018860 -0.004693 -0.001187 0.000000 -0.004337 0.000000
# 2 -0.004693 0.013612 -0.001073 0.000000 -0.004147 0.000000
# 3 -0.001187 -0.001073 0.008994 0.000000 -0.007969 0.000000
# 4 0.000000 0.000000 0.000000 0.046482 0.000000 0.009596
# 5 -0.004337 -0.004147 -0.007969 0.000000 0.075732 0.000000
# 6 0.000000 0.000000 0.000000 0.009596 0.000000 0.044534
#
#
# Mechanical properties :
#
#
# Convention : Reuss Voigt Hill
#
# Bulk Modulus (GPa) = 36.28490 44.78340 40.53415
# Shear Modulus (GPa) = 21.61618 26.69286 24.15452
#
# Velocity S-wave (km/s) = 3.36002 3.73379 3.55183
# Velocity P-wave (km/s) = 5.83129 6.47903 6.16367
#
# Compressibility (1/GPa) = 0.02755967
#
# Stress axis : x y z
#
# Youngs Moduli (GPa) = 53.02255 73.46247 111.18177
#
# Poissons Ratio (x) = 0.34475 0.13202
# Poissons Ratio (y) = 0.24883 0.11933
# Poissons Ratio (z) = 0.06296 0.07884
#
# Static dielectric constant tensor:
#      x y z
#    x 3.349620 0.000000 0.099530 
#    y 0.000000 3.545090 0.000000 
#    z 0.099530 0.000000 3.679070 
# 
# 
# High freq. dielectric constant tensor:
#      x y z
#    x 1.728960 0.000000 0.008500 
#    y 0.000000 1.743140 0.000000 
#    z 0.008500 0.000000 1.763420 
# 
# From -- ./inp_files/129103.got.cif
#   From: 2010.06.25/outbox.cif.g09.slc.cpg/sg12_65_cif.got.tgz:129103.got - 2010.06.28 00:19:55.
