data_PCOD8093211
_publ_section_title
;
Structure prediction by ZEFSAII (Michael W. Deem and Ramdas Pophale) SiO2 
 PCOD8093211
Probable space group: C 2/M
;
_chemical_formula_sum "Si O2"
_cell_formula_units_Z 64
_cell_length_a 27.376807
_cell_length_b 14.344910
_cell_length_c 19.316092
_cell_angle_alpha 90.000000
_cell_angle_beta 25.278392
_cell_angle_gamma 90.000000
_cell_volume 3239.253420
_symmetry_space_group_name_H-M "C 2/M"
_symmetry_group_IT_number 12
_symmetry_cell_setting 'monoclinic'
loop_
_space_group_symop_operation_xyz
x,y,z
-x,y,-z
-x,-y,-z
x,-y,z
1/2+x,1/2+y,z
1/2-x,1/2+y,-z
1/2-x,1/2-y,-z
1/2+x,1/2-y,z
loop_
_atom_site_type_symbol
_atom_site_label
_atom_site_fract_x
_atom_site_fract_y
_atom_site_fract_z
Si Si1 0.123010 0.106402 0.100546
Si Si2 0.413328 0.892893 0.547942
Si Si3 0.265964 0.266503 0.152908
Si Si4 0.642390 0.890297 0.656374
Si Si5 0.003415 0.252037 0.915440
Si Si6 0.992770 0.609958 0.719728
Si Si7 0.599635 0.392271 0.691085
Si Si8 0.257869 0.608611 0.912519
O O1 0.148147 0.125595 0.148592
O O2 0.988957 0.128448 0.258212
O O3 0.152156 0.000000 0.044427
O O4 0.206835 0.165612 0.945565
O O5 0.500000 0.886022 0.500000
O O6 0.310377 0.822063 0.694202
O O7 0.472998 0.856484 0.400941
O O8 0.369583 0.000000 0.595594
O O9 0.205837 0.172987 0.199154
O O10 0.376791 0.230723 0.050441
O O11 0.578249 0.843134 0.802673
O O12 0.584888 0.853862 0.658306
O O13 0.774154 0.858357 0.491331
O O14 0.628410 0.000000 0.682711
O O15 0.059231 0.160473 0.811013
O O16 0.000000 0.233778 0.000000
O O17 0.989406 0.500000 0.724671
O O18 0.866135 0.646007 0.901697
O O19 0.602085 0.500000 0.708434
O O20 0.253380 0.500000 0.895887
#
# Coordination Sequence:
#
# PCOD8093211 Si02
#       8
#     8   8   8   8   8   8   8   8
#     4   9  18  33  54  84 116 146 185 235 288 343
#     4  10  21  37  57  86 121 149 183 235 293 347
#     4  11  21  35  55  85 118 151 190 231 288 344
#     4  10  20  39  62  82 109 149 197 239 281 336
#     4  11  24  38  55  85 118 151 190 238 289 338
#     4   9  18  33  57  84 108 144 188 234 284 330
#     4   9  20  38  59  83 113 149 189 235 287 344
#     4  10  19  35  60  86 114 149 194 237 278 335
#
# _framework density 19.757639000000001
#
# number of rings (size 3 to 8) (size 9 to 14) (size 15 to 20)
#    0.000    2.125    1.250    1.875    1.750    3.000 
#    0.000    0.000    0.000    0.375    0.000    1.750 
#    0.000    0.000    0.000    0.000    0.000    0.000 
#
# Total GULP energy -396823.175248 kJ/mol
# GULP energy per Si atom -12400.724227 kJ/mol
# Density = 1.971267 g / cm^3
# Si number density = 19.757639 Si / 1000 Ang^3
#
#
#
# Elastic Constant Matrix: (Units=GPa)
#
#
# Indices 1 2 3 4 5 6 
#
# 1 84.7748 42.9905 51.7411 0.0000 -13.6805 0.0000
# 2 42.9905 66.6147 40.5631 0.0000 -0.2594 0.0000
# 3 51.7411 40.5631 93.5904 0.0000 -5.0128 0.0000
# 4 0.0000 0.0000 0.0000 5.5078 0.0000 -4.8949
# 5 -13.6805 -0.2594 -5.0128 0.0000 24.9832 0.0000
# 6 0.0000 0.0000 0.0000 -4.8949 0.0000 21.7764
#
#
#
# Elastic Compliance Matrix: (Units=1/GPa)
#
#
# Indices 1 2 3 4 5 6 
#
# 1 0.023822 -0.010433 -0.008042 0.000000 0.011323 0.000000
# 2 -0.010433 0.025025 -0.005429 0.000000 -0.006542 0.000000
# 3 -0.008042 -0.005429 0.017432 0.000000 -0.000962 0.000000
# 4 0.000000 0.000000 0.000000 0.226883 0.000000 0.050998
# 5 0.011323 -0.006542 -0.000962 0.000000 0.045966 0.000000
# 6 0.000000 0.000000 0.000000 0.050998 0.000000 0.057385
#
#
# Mechanical properties :
#
#
# Convention : Reuss Voigt Hill
#
# Bulk Modulus (GPa) = 54.13518 57.28546 55.71032
# Shear Modulus (GPa) = 11.09935 17.76582 14.43259
#
# Velocity S-wave (km/s) = 2.37275 3.00190 2.70567
# Velocity P-wave (km/s) = 5.91318 6.40876 6.16595
#
# Compressibility (1/GPa) = 0.01847228
#
# Stress axis : x y z
#
# Youngs Moduli (GPa) = 41.97808 39.96029 57.36594
#
# Poissons Ratio (x) = 0.41690 0.46132
# Poissons Ratio (y) = 0.43795 0.31142
# Poissons Ratio (z) = 0.33757 0.21693
#
# Static dielectric constant tensor:
#      x y z
#    x 3.729230 0.000000 -0.210680 
#    y 0.000000 3.643860 0.000000 
#    z -0.210680 0.000000 3.593130 
# 
# 
# High freq. dielectric constant tensor:
#      x y z
#    x 1.767630 0.000000 -0.018770 
#    y 0.000000 1.777300 0.000000 
#    z -0.018770 0.000000 1.752650 
# 
# From -- ./inp_files/330346.got.cif
#   From: 2010.06.25/outbox.cif.g09.slc.cpg/sg12_166_cif.got.tgz:330346.got - 2010.06.28 00:19:55.
