data_PCOD8093632
_publ_section_title
;
Structure prediction by ZEFSAII (Michael W. Deem and Ramdas Pophale) SiO2 
 PCOD8093632
Probable space group: C 2/M
;
_chemical_formula_sum "Si O2"
_cell_formula_units_Z 56
_cell_length_a 15.010819
_cell_length_b 8.822822
_cell_length_c 28.823310
_cell_angle_alpha 90.000000
_cell_angle_beta 130.629335
_cell_angle_gamma 90.000000
_cell_volume 2897.090529
_symmetry_space_group_name_H-M "C 2/M"
_symmetry_group_IT_number 12
_symmetry_cell_setting 'monoclinic'
loop_
_space_group_symop_operation_xyz
x,y,z
-x,y,-z
-x,-y,-z
x,-y,z
1/2+x,1/2+y,z
1/2-x,1/2+y,-z
1/2-x,1/2-y,-z
1/2+x,1/2-y,z
loop_
_atom_site_type_symbol
_atom_site_label
_atom_site_fract_x
_atom_site_fract_y
_atom_site_fract_z
Si Si1 0.436882 0.820528 0.848760
Si Si2 0.299751 0.820732 0.063439
Si Si3 0.789331 0.323201 0.622735
Si Si4 0.747344 0.680960 0.711135
Si Si5 0.003275 0.679908 0.632235
Si Si6 0.141654 0.177496 0.489164
Si Si7 0.618125 0.822066 0.067292
O O1 0.567986 0.760962 0.883587
O O2 0.350489 0.759718 0.779612
O O3 0.393600 0.763390 0.884171
O O4 0.437215 0.000000 0.848949
O O5 0.225811 0.769577 0.082536
O O6 0.296443 0.000000 0.056640
O O7 0.250000 0.750000 0.000000
O O8 0.811426 0.500000 0.635656
O O9 0.775636 0.253097 0.669348
O O10 0.667872 0.293790 0.552772
O O11 0.904079 0.258693 0.634669
O O12 0.735658 0.500000 0.707309
O O13 0.627430 0.752390 0.689831
O O14 0.008196 0.500000 0.632599
O O15 0.974533 0.741295 0.570266
O O16 0.250000 0.250000 0.500000
O O17 0.132782 0.000000 0.475561
O O18 0.644798 0.000000 0.072897
O O19 0.500000 0.781015 0.000000
#
# Coordination Sequence:
#
# PCOD8093632 Si02
#       7
#     8   8   8   8   8   8   8
#     4   9  20  37  56  78 109 145 181 220 273 330
#     4  11  21  36  58  86 112 143 182 225 273 329
#     4   8  17  33  54  76 104 140 178 220 271 324
#     4  10  20  37  57  76 101 144 190 221 261 330
#     4  10  20  35  53  78 110 142 178 228 283 325
#     4   9  16  30  52  79 107 140 181 227 276 327
#     4  10  19  36  58  81 113 147 175 219 276 326
#
# _framework density 19.329737999999999
#
# number of rings (size 3 to 8) (size 9 to 14) (size 15 to 20)
#    0.000    2.429    1.429    2.143    0.000    2.000 
#    0.000   10.714    0.000    0.000    0.000    0.000 
#    0.000    0.000    0.000    0.000    0.000    0.000 
#
# Total GULP energy -347094.979450 kJ/mol
# GULP energy per Si atom -12396.249266 kJ/mol
# Density = 1.928574 g / cm^3
# Si number density = 19.329738 Si / 1000 Ang^3
#
#
#
# Elastic Constant Matrix: (Units=GPa)
#
#
# Indices 1 2 3 4 5 6 
#
# 1 108.6214 24.9985 58.0394 0.0000 3.1295 0.0000
# 2 24.9985 48.3252 33.2345 0.0000 4.8997 0.0000
# 3 58.0394 33.2345 149.5536 0.0000 4.3016 0.0000
# 4 0.0000 0.0000 0.0000 20.9199 0.0000 5.5783
# 5 3.1295 4.8997 4.3016 0.0000 37.0263 0.0000
# 6 0.0000 0.0000 0.0000 5.5783 0.0000 27.9432
#
#
#
# Elastic Compliance Matrix: (Units=1/GPa)
#
#
# Indices 1 2 3 4 5 6 
#
# 1 0.012119 -0.003573 -0.003906 0.000000 -0.000098 0.000000
# 2 -0.003573 0.025733 -0.004257 0.000000 -0.002609 0.000000
# 3 -0.003906 -0.004257 0.009153 0.000000 -0.000170 0.000000
# 4 0.000000 0.000000 0.000000 0.050489 0.000000 -0.010079
# 5 -0.000098 -0.002609 -0.000170 0.000000 0.027381 0.000000
# 6 0.000000 0.000000 0.000000 -0.010079 0.000000 0.037799
#
#
# Mechanical properties :
#
#
# Convention : Reuss Voigt Hill
#
# Bulk Modulus (GPa) = 42.49253 59.89391 51.19322
# Shear Modulus (GPa) = 25.77441 29.85974 27.81707
#
# Velocity S-wave (km/s) = 3.65555 3.93460 3.79764
# Velocity P-wave (km/s) = 6.31253 7.18986 6.76543
#
# Compressibility (1/GPa) = 0.02353355
#
# Stress axis : x y z
#
# Youngs Moduli (GPa) = 82.51818 38.85990 109.24819
#
# Poissons Ratio (x) = 0.13883 0.42676
# Poissons Ratio (y) = 0.29480 0.46508
# Poissons Ratio (z) = 0.32234 0.16543
#
# Static dielectric constant tensor:
#      x y z
#    x 3.809630 0.000000 -0.059650 
#    y 0.000000 3.291060 0.000000 
#    z -0.059650 0.000000 3.950800 
# 
# 
# High freq. dielectric constant tensor:
#      x y z
#    x 1.752600 0.000000 0.001350 
#    y 0.000000 1.724270 0.000000 
#    z 0.001350 0.000000 1.758300 
# 
# From -- ./inp_files/375142.got.cif
#   From: 2010.06.25/outbox.cif.g09.slc.cpg/sg12_188_cif.got.tgz:375142.got - 2010.06.28 00:19:55.
