data_PCOD8093670
_publ_section_title
;
Structure prediction by ZEFSAII (Michael W. Deem and Ramdas Pophale) SiO2 
 PCOD8093670
Probable space group: C 2/M
;
_chemical_formula_sum "Si O2"
_cell_formula_units_Z 36
_cell_length_a 9.172106
_cell_length_b 21.806308
_cell_length_c 14.831842
_cell_angle_alpha 90.000000
_cell_angle_beta 40.050163
_cell_angle_gamma 90.000000
_cell_volume 1908.826831
_symmetry_space_group_name_H-M "C 2/M"
_symmetry_group_IT_number 12
_symmetry_cell_setting 'monoclinic'
loop_
_space_group_symop_operation_xyz
x,y,z
-x,y,-z
-x,-y,-z
x,-y,z
1/2+x,1/2+y,z
1/2-x,1/2+y,-z
1/2-x,1/2-y,-z
1/2+x,1/2-y,z
loop_
_atom_site_type_symbol
_atom_site_label
_atom_site_fract_x
_atom_site_fract_y
_atom_site_fract_z
Si Si1 0.908823 0.500000 0.275329
Si Si2 0.251789 0.679231 0.522374
Si Si3 0.214509 0.500000 0.300893
Si Si4 0.746230 0.370630 0.291343
Si Si5 0.222339 0.000000 0.045757
Si Si6 0.000000 0.398378 0.000000
Si Si7 0.500000 0.896683 0.500000
O O1 0.758608 0.440924 0.320728
O O2 0.997100 0.500000 0.336411
O O3 0.140426 0.500000 0.110878
O O4 0.250000 0.750000 0.500000
O O5 0.178302 0.672883 0.661804
O O6 0.490423 0.646764 0.387486
O O7 0.065184 0.646244 0.551555
O O8 0.461200 0.500000 0.139243
O O9 0.203412 0.439924 0.369080
O O10 0.911862 0.358318 0.126989
O O11 0.284994 0.940209 0.074892
#
# Coordination Sequence:
#
# PCOD8093670 Si02
#       7
#     4   8   4   8   4   4   4
#     4  10  19  36  58  88 115 147 192 225 296 348
#     4  11  23  40  59  81 112 158 198 239 288 334
#     4  11  20  32  51  89 123 145 181 236 294 341
#     4  10  21  38  63  85 116 151 189 238 284 351
#     4   9  18  31  54  83 125 156 171 224 290 362
#     4   9  18  36  58  88 114 152 194 225 284 350
#     4  11  22  34  54  84 118 145 192 244 284 339
#
# _framework density 18.859753000000001
#
# number of rings (size 3 to 8) (size 9 to 14) (size 15 to 20)
#    0.000    1.778    2.222    3.667    0.000    3.556 
#    0.000    1.111    0.000    2.667    0.000    0.000 
#    0.000    0.000    0.000    0.000    0.000    0.000 
#
# Total GULP energy -223142.892484 kJ/mol
# GULP energy per Si atom -12396.827360 kJ/mol
# Density = 1.881683 g / cm^3
# Si number density = 18.859753 Si / 1000 Ang^3
#
#
#
# Elastic Constant Matrix: (Units=GPa)
#
#
# Indices 1 2 3 4 5 6 
#
# 1 87.4093 36.9988 41.8825 0.0003 5.9596 -0.0010
# 2 36.9988 122.7687 50.1582 0.0000 2.1594 -0.0003
# 3 41.8825 50.1582 122.2466 0.0009 14.4313 -0.0026
# 4 0.0003 0.0000 0.0009 18.1174 -0.0004 4.5346
# 5 5.9596 2.1594 14.4313 -0.0004 40.9334 0.0008
# 6 -0.0010 -0.0003 -0.0026 4.5346 0.0008 -7.8452
#
#
#
# Elastic Compliance Matrix: (Units=1/GPa)
#
#
# Indices 1 2 3 4 5 6 
#
# 1 0.014463 -0.002828 -0.003719 0.000000 -0.000646 -0.000001
# 2 -0.002828 0.010374 -0.003413 0.000000 0.001068 0.000001
# 3 -0.003719 -0.003413 0.011237 0.000000 -0.003240 -0.000003
# 4 0.000000 0.000000 0.000000 0.048220 0.000000 0.027871
# 5 -0.000646 0.001068 -0.003240 0.000000 0.025610 0.000003
# 6 -0.000001 0.000001 -0.000003 0.027871 0.000003 -0.111356
#
#
# Mechanical properties :
#
#
# Convention : Reuss Voigt Hill
#
# Bulk Modulus (GPa) = 61.90529 65.61150 63.75840
# Shear Modulus (GPa) = 209.62081 23.80010 116.71046
#
# Velocity S-wave (km/s) = 10.55407 3.55625 7.87513
# Velocity P-wave (km/s) = 13.46897 7.19217 10.79677
#
# Compressibility (1/GPa) = 0.01615371
#
# Stress axis : x y z
#
# Youngs Moduli (GPa) = 69.14019 96.39924 88.98963
#
# Poissons Ratio (x) = 0.27264 0.33092
# Poissons Ratio (y) = 0.19554 0.30376
# Poissons Ratio (z) = 0.25711 0.32905
#
# Static dielectric constant tensor:
#      x y z
#    x 3.518250 0.000000 0.293970 
#    y 0.000000 3.367180 0.000000 
#    z 0.293970 0.000000 3.256120 
# 
# 
# High freq. dielectric constant tensor:
#      x y z
#    x 1.743560 0.000000 0.015970 
#    y 0.000000 1.713110 0.000000 
#    z 0.015970 0.000000 1.726660 
# 
# From -- ./inp_files/120025.got.cif
#   From: 2010.06.25/outbox.cif.g09.slc.cpg/sg12_61_cif.got.tgz:120025.got - 2010.06.28 00:19:55.
