data_PCOD8093206
_publ_section_title
;
Structure prediction by ZEFSAII (Michael W. Deem and Ramdas Pophale) SiO2 
 PCOD8093206
Probable space group: C 2/M
;
_chemical_formula_sum "Si O2"
_cell_formula_units_Z 64
_cell_length_a 30.274018
_cell_length_b 9.256378
_cell_length_c 19.107657
_cell_angle_alpha 90.000000
_cell_angle_beta 141.917574
_cell_angle_gamma 90.000000
_cell_volume 3302.623427
_symmetry_space_group_name_H-M "C 2/M"
_symmetry_group_IT_number 12
_symmetry_cell_setting 'monoclinic'
loop_
_space_group_symop_operation_xyz
x,y,z
-x,y,-z
-x,-y,-z
x,-y,z
1/2+x,1/2+y,z
1/2-x,1/2+y,-z
1/2-x,1/2-y,-z
1/2+x,1/2-y,z
loop_
_atom_site_type_symbol
_atom_site_label
_atom_site_fract_x
_atom_site_fract_y
_atom_site_fract_z
Si Si1 0.845722 0.166283 0.765614
Si Si2 0.192222 0.166873 0.783756
Si Si3 0.423412 0.334380 0.246493
Si Si4 0.066856 0.837619 0.989462
Si Si5 0.675219 0.333896 0.002282
Si Si6 0.566181 0.829383 0.230776
Si Si7 0.802504 0.669022 0.353526
Si Si8 0.560901 0.168002 0.384001
O O1 0.865555 0.259039 0.722283
O O2 0.770899 0.223664 0.703001
O O3 0.837949 0.000000 0.733508
O O4 0.909038 0.186716 0.900908
O O5 0.117796 0.184123 0.731997
O O6 0.253891 0.237507 0.908134
O O7 0.182759 0.245394 0.698651
O O8 0.211569 0.000000 0.795562
O O9 0.442702 0.500000 0.255247
O O10 0.496898 0.247651 0.343966
O O11 0.375804 0.274526 0.122796
O O12 0.007147 0.722046 0.896042
O O13 0.035776 0.000000 0.940739
O O14 0.136560 0.816767 0.028496
O O15 0.696799 0.500000 0.014681
O O16 0.567443 0.777742 0.312529
O O17 0.572001 0.000000 0.230846
O O18 0.797393 0.500000 0.328316
O O19 0.865417 0.704508 0.485786
O O20 0.543020 0.000000 0.364132
#
# Coordination Sequence:
#
# PCOD8093206 Si02
#       8
#     8   8   8   8   8   8   8   8
#     4  10  21  38  60  84 111 150 195 234 277 344
#     4  11  23  37  58  91 122 149 186 241 295 338
#     4  10  22  39  60  87 120 154 191 233 286 347
#     4  10  19  35  60  86 112 152 195 227 274 347
#     4  10  19  36  61  86 116 157 193 227 279 349
#     4  11  23  37  56  88 121 147 182 239 297 338
#     4  10  22  43  63  81 111 155 201 240 281 342
#     4  10  23  41  61  84 113 151 198 245 287 334
#
# _framework density 19.378533999999998
#
# number of rings (size 3 to 8) (size 9 to 14) (size 15 to 20)
#    0.000    1.750    2.500    1.500    0.000    6.500 
#    0.000    2.500    0.000    0.000    0.000    0.000 
#    0.000    0.000    0.000    0.000    0.000    0.000 
#
# Total GULP energy -396982.959252 kJ/mol
# GULP energy per Si atom -12405.717477 kJ/mol
# Density = 1.933443 g / cm^3
# Si number density = 19.378534 Si / 1000 Ang^3
#
#
#
# Elastic Constant Matrix: (Units=GPa)
#
#
# Indices 1 2 3 4 5 6 
#
# 1 104.5622 49.5996 43.7300 0.0000 2.4124 0.0000
# 2 49.5996 71.1229 43.7260 0.0000 3.7762 0.0000
# 3 43.7300 43.7260 93.1950 0.0000 8.8493 0.0000
# 4 0.0000 0.0000 0.0000 27.6851 0.0000 0.9359
# 5 2.4124 3.7762 8.8493 0.0000 15.9515 0.0000
# 6 0.0000 0.0000 0.0000 0.9359 0.0000 36.5517
#
#
#
# Elastic Compliance Matrix: (Units=1/GPa)
#
#
# Indices 1 2 3 4 5 6 
#
# 1 0.014886 -0.008543 -0.003119 0.000000 0.001502 0.000000
# 2 -0.008543 0.024667 -0.007529 0.000000 -0.000370 0.000000
# 3 -0.003119 -0.007529 0.016375 0.000000 -0.006830 0.000000
# 4 0.000000 0.000000 0.000000 0.036152 0.000000 -0.000926
# 5 0.001502 -0.000370 -0.006830 0.000000 0.066340 0.000000
# 6 0.000000 0.000000 0.000000 -0.000926 0.000000 0.027382
#
#
# Mechanical properties :
#
#
# Convention : Reuss Voigt Hill
#
# Bulk Modulus (GPa) = 56.99908 60.33237 58.66573
# Shear Modulus (GPa) = 21.73594 24.82595 23.28095
#
# Velocity S-wave (km/s) = 3.35274 3.58314 3.46985
# Velocity P-wave (km/s) = 6.66822 6.95124 6.81120
#
# Compressibility (1/GPa) = 0.01754414
#
# Stress axis : x y z
#
# Youngs Moduli (GPa) = 67.17670 40.54028 61.06840
#
# Poissons Ratio (x) = 0.34635 0.19048
# Poissons Ratio (y) = 0.57391 0.45981
# Poissons Ratio (z) = 0.20954 0.30524
#
# Static dielectric constant tensor:
#      x y z
#    x 3.617860 0.000000 -0.046890 
#    y 0.000000 3.450560 0.000000 
#    z -0.046890 0.000000 3.457830 
# 
# 
# High freq. dielectric constant tensor:
#      x y z
#    x 1.767530 0.000000 -0.001510 
#    y 0.000000 1.746690 0.000000 
#    z -0.001510 0.000000 1.749750 
# 
# From -- ./inp_files/295525.got.cif
#   From: 2010.06.25/outbox.cif.g09.slc.cpg/sg12_148_cif.got.tgz:295525.got - 2010.06.28 00:19:55.
