data_PCOD8093071
_publ_section_title
;
Structure prediction by ZEFSAII (Michael W. Deem and Ramdas Pophale) SiO2 
 PCOD8093071
Probable space group: C 2/M
;
_chemical_formula_sum "Si O2"
_cell_formula_units_Z 64
_cell_length_a 15.981951
_cell_length_b 10.327977
_cell_length_c 20.547170
_cell_angle_alpha 90.000000
_cell_angle_beta 107.636971
_cell_angle_gamma 90.000000
_cell_volume 3232.122834
_symmetry_space_group_name_H-M "C 2/M"
_symmetry_group_IT_number 12
_symmetry_cell_setting 'monoclinic'
loop_
_space_group_symop_operation_xyz
x,y,z
-x,y,-z
-x,-y,-z
x,-y,z
1/2+x,1/2+y,z
1/2-x,1/2+y,-z
1/2-x,1/2-y,-z
1/2+x,1/2-y,z
loop_
_atom_site_type_symbol
_atom_site_label
_atom_site_fract_x
_atom_site_fract_y
_atom_site_fract_z
Si Si1 0.706784 0.300055 0.594435
Si Si2 0.345852 0.361082 0.557571
Si Si3 0.102199 0.144245 0.025694
Si Si4 0.808481 0.649992 0.868116
Si Si5 0.628147 0.652935 0.887978
Si Si6 0.463305 0.350862 0.377147
Si Si7 0.011169 0.148538 0.246394
Si Si8 0.155404 0.640419 0.271096
O O1 0.689348 0.377408 0.523891
O O2 0.767238 0.180703 0.586504
O O3 0.612669 0.265582 0.605438
O O4 0.763349 0.377884 0.660458
O O5 0.372299 0.500000 0.592368
O O6 0.440533 0.287266 0.582332
O O7 0.121703 0.250510 0.085221
O O8 0.144361 0.000000 0.048932
O O9 0.131614 0.203194 0.962824
O O10 0.000000 0.123111 0.000000
O O11 0.828992 0.500000 0.892188
O O12 0.715674 0.698840 0.873144
O O13 0.806185 0.669505 0.790749
O O14 0.620363 0.500000 0.885737
O O15 0.544060 0.704764 0.827741
O O16 0.453156 0.500000 0.399793
O O17 0.450351 0.345324 0.296263
O O18 0.093593 0.242039 0.277856
O O19 0.042511 0.000000 0.241586
O O20 0.106161 0.500000 0.259255
#
# Coordination Sequence:
#
# PCOD8093071 Si02
#       8
#     8   8   8   8   8   8   8   8
#     4  11  21  35  60  83 116 152 189 238 297 343
#     4  10  21  37  57  85 115 147 195 243 286 344
#     4  10  20  35  55  81 110 142 182 226 277 332
#     4  10  21  36  55  80 109 144 185 228 276 335
#     4   9  18  34  56  80 108 142 184 231 276 329
#     4  10  19  35  59  85 110 146 197 240 278 339
#     4  10  20  37  60  83 110 148 192 236 279 335
#     4  11  22  36  54  82 115 147 184 232 290 344
#
# _framework density 19.801228999999999
#
# number of rings (size 3 to 8) (size 9 to 14) (size 15 to 20)
#    0.000    1.875    1.250    3.375    0.000    4.750 
#    0.000    1.875    0.000    3.000    0.000    0.000 
#    0.000    0.000    0.000    0.000    0.000    0.000 
#
# Total GULP energy -396458.915911 kJ/mol
# GULP energy per Si atom -12389.341122 kJ/mol
# Density = 1.975616 g / cm^3
# Si number density = 19.801229 Si / 1000 Ang^3
#
#
#
# Elastic Constant Matrix: (Units=GPa)
#
#
# Indices 1 2 3 4 5 6 
#
# 1 127.1299 44.3665 27.4104 0.0000 -10.6152 0.0000
# 2 44.3665 71.4717 35.5031 0.0000 -0.6789 0.0000
# 3 27.4104 35.5031 115.1288 0.0000 -4.8167 0.0000
# 4 0.0000 0.0000 0.0000 8.2563 0.0000 5.4712
# 5 -10.6152 -0.6789 -4.8167 0.0000 36.2007 0.0000
# 6 0.0000 0.0000 0.0000 5.4712 0.0000 -1.7867
#
#
#
# Elastic Compliance Matrix: (Units=1/GPa)
#
#
# Indices 1 2 3 4 5 6 
#
# 1 0.010358 -0.006184 -0.000439 0.000000 0.002863 0.000000
# 2 -0.006184 0.020220 -0.004850 0.000000 -0.002080 0.000000
# 3 -0.000439 -0.004850 0.010334 0.000000 0.001155 0.000000
# 4 0.000000 0.000000 0.000000 0.039984 0.000000 0.122439
# 5 0.002863 -0.002080 0.001155 0.000000 0.028578 0.000000
# 6 0.000000 0.000000 0.000000 0.122439 0.000000 -0.184767
#
#
# Mechanical properties :
#
#
# Convention : Reuss Voigt Hill
#
# Bulk Modulus (GPa) = 55.66293 58.69895 57.18094
# Shear Modulus (GPa) = -107.85859 22.29742 -42.78059
#
# Velocity S-wave (km/s) = -7.38843 3.35933 -4.65316
# Velocity P-wave (km/s) = 6.67932 6.68993 0.26634
#
# Compressibility (1/GPa) = 0.01796528
#
# Stress axis : x y z
#
# Youngs Moduli (GPa) = 96.54381 49.45592 96.76384
#
# Poissons Ratio (x) = 0.30586 0.04249
# Poissons Ratio (y) = 0.59707 0.46930
# Poissons Ratio (z) = 0.04240 0.23986
#
# Static dielectric constant tensor:
#      x y z
#    x 3.629500 0.000000 -0.105800 
#    y 0.000000 3.328600 0.000000 
#    z -0.105800 0.000000 3.889520 
# 
# 
# High freq. dielectric constant tensor:
#      x y z
#    x 1.772550 0.000000 -0.006960 
#    y 0.000000 1.732890 0.000000 
#    z -0.006960 0.000000 1.790570 
# 
# From -- ./inp_files/309962.got.cif
#   From: 2010.06.25/outbox.cif.g09.slc.cpg/sg12_155_cif.got.tgz:309962.got - 2010.06.28 00:19:55.
