data_PCOD8093272
_publ_section_title
;
Structure prediction by ZEFSAII (Michael W. Deem and Ramdas Pophale) SiO2 
 PCOD8093272
Probable space group: C 2/M
;
_chemical_formula_sum "Si O2"
_cell_formula_units_Z 56
_cell_length_a 19.272178
_cell_length_b 8.712282
_cell_length_c 27.605043
_cell_angle_alpha 90.000000
_cell_angle_beta 38.558094
_cell_angle_gamma 90.000000
_cell_volume 2889.041174
_symmetry_space_group_name_H-M "C 2/M"
_symmetry_group_IT_number 12
_symmetry_cell_setting 'monoclinic'
loop_
_space_group_symop_operation_xyz
x,y,z
-x,y,-z
-x,-y,-z
x,-y,z
1/2+x,1/2+y,z
1/2-x,1/2+y,-z
1/2-x,1/2-y,-z
1/2+x,1/2-y,z
loop_
_atom_site_type_symbol
_atom_site_label
_atom_site_fract_x
_atom_site_fract_y
_atom_site_fract_z
Si Si1 0.427569 0.181446 0.134255
Si Si2 0.407927 0.823834 0.708342
Si Si3 0.728452 0.178840 0.869203
Si Si4 0.362472 0.821468 0.456047
Si Si5 0.876020 0.828689 0.548796
Si Si6 0.253269 0.175662 0.701878
Si Si7 0.827644 0.818409 0.999434
O O1 0.370599 0.225109 0.113858
O O2 0.360229 0.254553 0.215261
O O3 0.550530 0.246826 0.069952
O O4 0.429794 0.000000 0.139528
O O5 0.347346 0.715316 0.780098
O O6 0.533343 0.760624 0.632820
O O7 0.350891 0.809709 0.687411
O O8 0.403712 0.000000 0.728818
O O9 0.721621 0.000000 0.886348
O O10 0.721551 0.278735 0.921245
O O11 0.250000 0.750000 0.500000
O O12 0.376680 0.787215 0.504310
O O13 0.357175 0.000000 0.451316
O O14 0.787577 0.771408 0.636324
O O15 0.000000 0.830399 0.500000
O O16 0.839960 0.000000 0.552393
O O17 0.232047 0.000000 0.698730
O O18 0.834228 0.000000 0.989289
O O19 0.750000 0.750000 0.000000
#
# Coordination Sequence:
#
# PCOD8093272 Si02
#       7
#     8   8   8   8   8   8   8
#     4  10  21  39  63  92 124 155 194 242 291 350
#     4   9  19  36  59  86 118 154 196 245 295 349
#     4  10  21  38  64  93 120 153 195 242 293 350
#     4  11  23  40  59  84 119 159 202 248 300 356
#     4  11  22  36  59  88 119 156 201 248 298 352
#     4  10  19  35  60  90 120 153 198 247 296 347
#     4  12  25  42  63  88 122 159 197 241 294 352
#
# _framework density 19.383593000000001
#
# number of rings (size 3 to 8) (size 9 to 14) (size 15 to 20)
#    0.000    1.571    1.429    3.857    0.000    5.714 
#    2.571    0.000    0.000    0.000    0.000    0.000 
#    0.000    0.000    0.000    0.000    0.000    0.000 
#
# Total GULP energy -347259.761068 kJ/mol
# GULP energy per Si atom -12402.134324 kJ/mol
# Density = 1.933948 g / cm^3
# Si number density = 19.383593 Si / 1000 Ang^3
#
#
#
# Elastic Constant Matrix: (Units=GPa)
#
#
# Indices 1 2 3 4 5 6 
#
# 1 78.8017 20.2794 50.5390 0.0006 -13.3817 -0.0038
# 2 20.2794 41.9057 20.9351 0.0009 -8.0928 -0.0038
# 3 50.5390 20.9351 126.5694 -0.0005 -12.4794 -0.0006
# 4 0.0006 0.0009 -0.0005 38.6157 0.0002 1.0520
# 5 -13.3817 -8.0928 -12.4794 0.0002 26.9292 0.0008
# 6 -0.0038 -0.0038 -0.0006 1.0520 0.0008 29.8586
#
#
#
# Elastic Compliance Matrix: (Units=1/GPa)
#
#
# Indices 1 2 3 4 5 6 
#
# 1 0.018796 -0.005051 -0.006181 0.000000 0.004958 0.000002
# 2 -0.005051 0.028363 -0.002181 -0.000001 0.005003 0.000003
# 3 -0.006181 -0.002181 0.010858 0.000000 0.001305 -0.000001
# 4 0.000000 -0.000001 0.000000 0.025921 0.000000 -0.000913
# 5 0.004958 0.005003 0.001305 0.000000 0.041706 0.000000
# 6 0.000002 0.000003 -0.000001 -0.000913 0.000000 0.033523
#
#
# Mechanical properties :
#
#
# Convention : Reuss Voigt Hill
#
# Bulk Modulus (GPa) = 32.06000 47.86489 39.96245
# Shear Modulus (GPa) = 25.45938 29.44890 27.45414
#
# Velocity S-wave (km/s) = 3.62809 3.90201 3.76754
# Velocity P-wave (km/s) = 5.84178 6.71178 6.29183
#
# Compressibility (1/GPa) = 0.03119151
#
# Stress axis : x y z
#
# Youngs Moduli (GPa) = 53.20318 35.25700 92.09517
#
# Poissons Ratio (x) = 0.17807 0.56924
# Poissons Ratio (y) = 0.26871 0.20090
# Poissons Ratio (z) = 0.32885 0.07691
#
# Static dielectric constant tensor:
#      x y z
#    x 3.349760 0.000000 -0.031320 
#    y 0.000000 3.829610 0.000000 
#    z -0.031320 0.000000 3.660560 
# 
# 
# High freq. dielectric constant tensor:
#      x y z
#    x 1.736600 0.000000 -0.001430 
#    y 0.000000 1.766640 0.000000 
#    z -0.001430 0.000000 1.771820 
# 
# From -- ./inp_files/362968.got.cif
#   From: 2010.06.25/outbox.cif.g09.slc.cpg/sg12_182_cif.got.tgz:362968.got - 2010.06.28 00:19:55.
