data_PCOD8093530
_publ_section_title
;
Structure prediction by ZEFSAII (Michael W. Deem and Ramdas Pophale) SiO2 
 PCOD8093530
Probable space group: C 2/M
;
_chemical_formula_sum "Si O2"
_cell_formula_units_Z 56
_cell_length_a 14.453891
_cell_length_b 8.445864
_cell_length_c 26.354151
_cell_angle_alpha 90.000000
_cell_angle_beta 114.786667
_cell_angle_gamma 90.000000
_cell_volume 2920.814502
_symmetry_space_group_name_H-M "C 2/M"
_symmetry_group_IT_number 12
_symmetry_cell_setting 'monoclinic'
loop_
_space_group_symop_operation_xyz
x,y,z
-x,y,-z
-x,-y,-z
x,-y,z
1/2+x,1/2+y,z
1/2-x,1/2+y,-z
1/2-x,1/2-y,-z
1/2+x,1/2-y,z
loop_
_atom_site_type_symbol
_atom_site_label
_atom_site_fract_x
_atom_site_fract_y
_atom_site_fract_z
Si Si1 0.302531 0.314135 0.561962
Si Si2 0.987179 0.313581 0.354471
Si Si3 0.278435 0.681477 0.060942
Si Si4 0.566293 0.817911 0.060086
Si Si5 0.215865 0.814417 0.642186
Si Si6 0.429571 0.812920 0.732504
Si Si7 0.483010 0.814311 0.143832
O O1 0.321045 0.500000 0.562445
O O2 0.250000 0.250000 0.500000
O O3 0.411713 0.228509 0.590927
O O4 0.227697 0.276339 0.591742
O O5 0.968275 0.500000 0.352832
O O6 0.889309 0.226803 0.354720
O O7 0.004755 0.252973 0.300697
O O8 0.311722 0.500000 0.061947
O O9 0.184550 0.699651 0.077118
O O10 0.364433 0.780919 0.108840
O O11 0.250000 0.750000 0.000000
O O12 0.542052 0.738987 0.108966
O O13 0.530482 0.000000 0.054833
O O14 0.500000 0.735463 0.000000
O O15 0.310946 0.763863 0.699891
O O16 0.220110 0.000000 0.631323
O O17 0.475005 0.735677 0.794511
O O18 0.439411 0.000000 0.736744
O O19 0.502634 0.000000 0.151703
#
# Coordination Sequence:
#
# PCOD8093530 Si02
#       7
#     8   8   8   8   8   8   8
#     4  11  22  38  59  87 120 156 193 236 285 334
#     4  10  20  37  58  84 116 152 193 237 284 337
#     4  11  21  34  52  76 102 133 173 219 269 330
#     4   9  17  31  51  73  98 134 172 208 260 329
#     4  10  20  37  59  85 114 150 195 238 284 337
#     4   8  18  35  56  79 107 143 183 228 279 335
#     4  10  19  36  57  76 104 142 179 221 275 330
#
# _framework density 19.172733999999998
#
# number of rings (size 3 to 8) (size 9 to 14) (size 15 to 20)
#    0.000    2.143    1.429    3.429    0.000    1.714 
#    0.000   10.714    0.000    0.000    0.000    0.000 
#    0.000    0.000    0.000    0.000    0.000    0.000 
#
# Total GULP energy -347147.066410 kJ/mol
# GULP energy per Si atom -12398.109515 kJ/mol
# Density = 1.912910 g / cm^3
# Si number density = 19.172734 Si / 1000 Ang^3
#
#
#
# Elastic Constant Matrix: (Units=GPa)
#
#
# Indices 1 2 3 4 5 6 
#
# 1 123.4767 3.3062 61.2273 0.0000 -3.4972 0.0000
# 2 3.3062 33.1481 9.0397 0.0000 -3.9735 0.0000
# 3 61.2273 9.0397 175.1917 0.0000 -6.0366 0.0000
# 4 0.0000 0.0000 0.0000 19.6441 0.0000 4.7347
# 5 -3.4972 -3.9735 -6.0366 0.0000 21.0494 0.0000
# 6 0.0000 0.0000 0.0000 4.7347 0.0000 29.6134
#
#
#
# Elastic Compliance Matrix: (Units=1/GPa)
#
#
# Indices 1 2 3 4 5 6 
#
# 1 0.009805 0.000030 -0.003406 0.000000 0.000658 0.000000
# 2 0.000030 0.031213 -0.001432 0.000000 0.005486 0.000000
# 3 -0.003406 -0.001432 0.007013 0.000000 0.001175 0.000000
# 4 0.000000 0.000000 0.000000 0.052946 0.000000 -0.008465
# 5 0.000658 0.005486 0.001175 0.000000 0.048989 0.000000
# 6 0.000000 0.000000 0.000000 -0.008465 0.000000 0.035122
#
#
# Mechanical properties :
#
#
# Convention : Reuss Voigt Hill
#
# Bulk Modulus (GPa) = 26.03150 53.21809 39.62480
# Shear Modulus (GPa) = 24.09536 31.27761 27.68649
#
# Velocity S-wave (km/s) = 3.54891 4.04339 3.80420
# Velocity P-wave (km/s) = 5.51361 7.04387 6.32519
#
# Compressibility (1/GPa) = 0.03841500
#
# Stress axis : x y z
#
# Youngs Moduli (GPa) = 101.98584 32.03807 142.59959
#
# Poissons Ratio (x) = -0.00095 0.48565
# Poissons Ratio (y) = -0.00302 0.20418
# Poissons Ratio (z) = 0.34733 0.04587
#
# Static dielectric constant tensor:
#      x y z
#    x 3.567730 0.000000 -0.150340 
#    y 0.000000 3.325700 0.000000 
#    z -0.150340 0.000000 3.823700 
# 
# 
# High freq. dielectric constant tensor:
#      x y z
#    x 1.752280 0.000000 -0.003110 
#    y 0.000000 1.724850 0.000000 
#    z -0.003110 0.000000 1.751850 
# 
# From -- ./inp_files/360036.got.cif
#   From: 2010.06.25/outbox.cif.g09.slc.cpg/sg12_181_cif.got.tgz:360036.got - 2010.06.28 00:19:55.
