data_PCOD8093977
_publ_section_title
;
Structure prediction by ZEFSAII (Michael W. Deem and Ramdas Pophale) SiO2 
 PCOD8093977
Probable space group: C 2/M
;
_chemical_formula_sum "Si O2"
_cell_formula_units_Z 64
_cell_length_a 32.528217
_cell_length_b 8.943621
_cell_length_c 16.555100
_cell_angle_alpha 90.000000
_cell_angle_beta 137.861334
_cell_angle_gamma 90.000000
_cell_volume 3231.326521
_symmetry_space_group_name_H-M "C 2/M"
_symmetry_group_IT_number 12
_symmetry_cell_setting 'monoclinic'
loop_
_space_group_symop_operation_xyz
x,y,z
-x,y,-z
-x,-y,-z
x,-y,z
1/2+x,1/2+y,z
1/2-x,1/2+y,-z
1/2-x,1/2-y,-z
1/2+x,1/2-y,z
loop_
_atom_site_type_symbol
_atom_site_label
_atom_site_fract_x
_atom_site_fract_y
_atom_site_fract_z
Si Si1 0.594534 0.323408 0.767363
Si Si2 0.112272 0.823460 0.974357
Si Si3 0.353109 0.824404 0.303347
Si Si4 0.903271 0.669566 0.645091
Si Si5 0.276793 0.323509 0.459310
Si Si6 0.262477 0.676895 0.759703
Si Si7 0.005435 0.672593 0.917037
Si Si8 0.969117 0.671965 0.577817
O O1 0.597863 0.500000 0.769052
O O2 0.608819 0.261371 0.877851
O O3 0.645494 0.257527 0.780980
O O4 0.527676 0.270381 0.640761
O O5 0.056209 0.765101 0.944687
O O6 0.107750 0.000000 0.966180
O O7 0.175675 0.770742 0.106367
O O8 0.293654 0.771184 0.265845
O O9 0.412463 0.776257 0.440772
O O10 0.350684 0.000000 0.284515
O O11 0.877189 0.500000 0.600265
O O12 0.848384 0.785519 0.556858
O O13 0.952354 0.698661 0.646476
O O14 0.938563 0.695311 0.780275
O O15 0.267729 0.500000 0.450415
O O16 0.250000 0.250000 0.500000
O O17 0.240216 0.260455 0.329487
O O18 0.260267 0.500000 0.740663
O O19 0.025375 0.500000 0.943988
O O20 0.000000 0.733170 0.000000
O O21 0.986040 0.500000 0.585537
#
# Coordination Sequence:
#
# PCOD8093977 Si02
#       8
#     8   8   8   8   8   8   8   8
#     4  11  23  37  56  88 124 155 195 249 304 356
#     4  10  23  41  61  86 121 160 199 248 303 358
#     4  10  21  38  61  85 114 156 204 248 298 361
#     4  10  20  39  64  90 124 161 198 247 299 354
#     4  12  26  42  64  93 125 160 200 248 300 356
#     4  10  22  44  65  86 119 160 204 250 300 358
#     4  10  22  39  62  92 123 155 198 249 296 352
#     4  10  19  36  61  87 116 157 201 241 295 361
#
# _framework density 19.806108999999999
#
# number of rings (size 3 to 8) (size 9 to 14) (size 15 to 20)
#    0.000    1.625    2.500    1.875    1.750    5.250 
#    0.000    0.000    0.000    0.000    0.000    0.000 
#    0.000    0.000    0.000    0.000    0.000    0.000 
#
# Total GULP energy -396954.943643 kJ/mol
# GULP energy per Si atom -12404.841989 kJ/mol
# Density = 1.976103 g / cm^3
# Si number density = 19.806109 Si / 1000 Ang^3
#
#
#
# Elastic Constant Matrix: (Units=GPa)
#
#
# Indices 1 2 3 4 5 6 
#
# 1 95.2266 32.5960 45.1627 0.0000 -13.8734 0.0000
# 2 32.5960 51.8100 32.4117 0.0000 -1.6692 0.0000
# 3 45.1627 32.4117 112.2051 0.0000 -8.8594 0.0000
# 4 0.0000 0.0000 0.0000 26.3221 0.0000 -2.3901
# 5 -13.8734 -1.6692 -8.8594 0.0000 35.7841 0.0000
# 6 0.0000 0.0000 0.0000 -2.3901 0.0000 34.0660
#
#
#
# Elastic Compliance Matrix: (Units=1/GPa)
#
#
# Indices 1 2 3 4 5 6 
#
# 1 0.015440 -0.007210 -0.003759 0.000000 0.004719 0.000000
# 2 -0.007210 0.026938 -0.005101 0.000000 -0.002802 0.000000
# 3 -0.003759 -0.005101 0.011999 0.000000 0.001275 0.000000
# 4 0.000000 0.000000 0.000000 0.038234 0.000000 0.002683
# 5 0.004719 -0.002802 0.001275 0.000000 0.029960 0.000000
# 6 0.000000 0.000000 0.000000 0.002683 0.000000 0.029543
#
#
# Mechanical properties :
#
#
# Convention : Reuss Voigt Hill
#
# Bulk Modulus (GPa) = 44.96896 53.28695 49.12796
# Shear Modulus (GPa) = 26.08702 29.17253 27.62977
#
# Velocity S-wave (km/s) = 3.63315 3.84201 3.73904
# Velocity P-wave (km/s) = 6.35245 6.82965 6.59537
#
# Compressibility (1/GPa) = 0.02223756
#
# Stress axis : x y z
#
# Youngs Moduli (GPa) = 64.76866 37.12230 83.33777
#
# Poissons Ratio (x) = 0.26765 0.31328
# Poissons Ratio (y) = 0.46698 0.42507
# Poissons Ratio (z) = 0.24348 0.18934
#
# Static dielectric constant tensor:
#      x y z
#    x 3.693300 0.000000 -0.141750 
#    y 0.000000 3.480710 0.000000 
#    z -0.141750 0.000000 3.827150 
# 
# 
# High freq. dielectric constant tensor:
#      x y z
#    x 1.781760 0.000000 -0.009540 
#    y 0.000000 1.757870 0.000000 
#    z -0.009540 0.000000 1.781630 
# 
# From -- ./inp_files/250018.got.cif
#   From: 2010.06.25/outbox.cif.g09.slc.cpg/sg12_126_cif.got.tgz:250018.got - 2010.06.28 00:19:55.
