data_PCOD8093197
_publ_section_title
;
Structure prediction by ZEFSAII (Michael W. Deem and Ramdas Pophale) SiO2 
 PCOD8093197
Probable space group: C 2/M
;
_chemical_formula_sum "Si O2"
_cell_formula_units_Z 64
_cell_length_a 23.798601
_cell_length_b 8.862429
_cell_length_c 28.634582
_cell_angle_alpha 90.000000
_cell_angle_beta 148.999107
_cell_angle_gamma 90.000000
_cell_volume 3110.610586
_symmetry_space_group_name_H-M "C 2/M"
_symmetry_group_IT_number 12
_symmetry_cell_setting 'monoclinic'
loop_
_space_group_symop_operation_xyz
x,y,z
-x,y,-z
-x,-y,-z
x,-y,z
1/2+x,1/2+y,z
1/2-x,1/2+y,-z
1/2-x,1/2-y,-z
1/2+x,1/2-y,z
loop_
_atom_site_type_symbol
_atom_site_label
_atom_site_fract_x
_atom_site_fract_y
_atom_site_fract_z
Si Si1 0.685072 0.678396 0.996823
Si Si2 0.271646 0.176727 0.777877
Si Si3 0.438394 0.326996 0.833984
Si Si4 0.787400 0.176940 0.160260
Si Si5 0.056484 0.322039 0.588431
Si Si6 0.144949 0.825482 0.325434
Si Si7 0.628695 0.173831 0.477362
Si Si8 0.990475 0.326192 0.697956
O O1 0.695990 0.500000 0.999544
O O2 0.732509 0.729765 0.079924
O O3 0.750000 0.750000 0.000000
O O4 0.558972 0.730692 0.906182
O O5 0.387756 0.232238 0.840468
O O6 0.267715 0.221280 0.829718
O O7 0.174511 0.248836 0.678623
O O8 0.262329 0.000000 0.764998
O O9 0.443967 0.500000 0.854078
O O10 0.360054 0.306629 0.733552
O O11 0.912970 0.223883 0.252789
O O12 0.777039 0.000000 0.142331
O O13 0.074970 0.500000 0.605036
O O14 0.000000 0.274754 0.500000
O O15 0.976402 0.257342 0.571434
O O16 0.258268 0.752758 0.424706
O O17 0.045995 0.731547 0.277437
O O18 0.131475 0.000000 0.330805
O O19 0.612158 0.194669 0.410246
O O20 0.635284 0.000000 0.497187
O O21 0.028290 0.500000 0.727705
#
# Coordination Sequence:
#
# PCOD8093197 Si02
#       8
#     8   8   8   8   8   8   8   8
#     4  11  24  43  69 100 128 161 203 251 307 368
#     4  11  24  40  61  90 124 161 205 258 312 360
#     4  10  23  42  64  89 121 159 201 247 304 371
#     4  11  24  42  63  89 123 166 208 255 314 368
#     4  10  19  35  60  85 117 164 211 254 303 366
#     4  10  20  37  59  85 120 160 201 249 306 373
#     4   9  18  32  53  84 118 156 203 246 297 366
#     4  11  21  35  57  87 121 159 204 255 306 364
#
# _framework density 20.574739000000001
#
# number of rings (size 3 to 8) (size 9 to 14) (size 15 to 20)
#    0.000    1.625    1.250    3.375    0.000    6.750 
#    0.000    3.750    0.000    0.000    0.000    0.000 
#    0.000    0.000    0.000    0.000    0.000    0.000 
#
# Total GULP energy -396859.812347 kJ/mol
# GULP energy per Si atom -12401.869136 kJ/mol
# Density = 2.052791 g / cm^3
# Si number density = 20.574739 Si / 1000 Ang^3
#
#
#
# Elastic Constant Matrix: (Units=GPa)
#
#
# Indices 1 2 3 4 5 6 
#
# 1 145.4116 50.2703 51.0797 -0.0001 9.1710 -0.0002
# 2 50.2703 53.5516 35.1085 -0.0001 0.7851 -0.0007
# 3 51.0797 35.1085 111.0369 0.0004 2.5050 0.0000
# 4 -0.0001 -0.0001 0.0004 26.3947 0.0001 2.6688
# 5 9.1710 0.7851 2.5050 0.0001 33.8698 0.0000
# 6 -0.0002 -0.0007 0.0000 2.6688 0.0000 33.6656
#
#
#
# Elastic Compliance Matrix: (Units=1/GPa)
#
#
# Indices 1 2 3 4 5 6 
#
# 1 0.010801 -0.008681 -0.002166 0.000000 -0.002563 0.000000
# 2 -0.008681 0.030535 -0.005708 0.000000 0.002065 0.000001
# 3 -0.002166 -0.005708 0.011811 0.000000 -0.000155 0.000000
# 4 0.000000 0.000000 0.000000 0.038193 0.000000 -0.003028
# 5 -0.002563 0.002065 -0.000155 0.000000 0.030182 0.000000
# 6 0.000000 0.000001 0.000000 -0.003028 0.000000 0.029944
#
#
# Mechanical properties :
#
#
# Convention : Reuss Voigt Hill
#
# Bulk Modulus (GPa) = 49.90956 64.76855 57.33905
# Shear Modulus (GPa) = 26.14331 30.35545 28.24938
#
# Velocity S-wave (km/s) = 3.56849 3.84523 3.70944
# Velocity P-wave (km/s) = 6.42566 7.15977 6.80263
#
# Compressibility (1/GPa) = 0.02003624
#
# Stress axis : x y z
#
# Youngs Moduli (GPa) = 92.58608 32.74956 84.67037
#
# Poissons Ratio (x) = 0.28431 0.18338
# Poissons Ratio (y) = 0.80378 0.48326
# Poissons Ratio (z) = 0.20052 0.18692
#
# Static dielectric constant tensor:
#      x y z
#    x 3.825350 0.000000 0.073950 
#    y 0.000000 3.531410 0.000000 
#    z 0.073950 0.000000 3.767870 
# 
# 
# High freq. dielectric constant tensor:
#      x y z
#    x 1.816410 0.000000 0.000470 
#    y 0.000000 1.786580 0.000000 
#    z 0.000470 0.000000 1.808800 
# 
# From -- ./inp_files/382507.got.cif
#   From: 2010.06.25/outbox.cif.g09.slc.cpg/sg12_192_cif.got.tgz:382507.got - 2010.06.28 00:19:55.
