data_PCOD8093639
_publ_section_title
;
Structure prediction by ZEFSAII (Michael W. Deem and Ramdas Pophale) SiO2 
 PCOD8093639
Probable space group: C 2/M
;
_chemical_formula_sum "Si O2"
_cell_formula_units_Z 64
_cell_length_a 25.289407
_cell_length_b 8.746687
_cell_length_c 15.241635
_cell_angle_alpha 90.000000
_cell_angle_beta 71.018226
_cell_angle_gamma 90.000000
_cell_volume 3188.096059
_symmetry_space_group_name_H-M "C 2/M"
_symmetry_group_IT_number 12
_symmetry_cell_setting 'monoclinic'
loop_
_space_group_symop_operation_xyz
x,y,z
-x,y,-z
-x,-y,-z
x,-y,z
1/2+x,1/2+y,z
1/2-x,1/2+y,-z
1/2-x,1/2-y,-z
1/2+x,1/2-y,z
loop_
_atom_site_type_symbol
_atom_site_label
_atom_site_fract_x
_atom_site_fract_y
_atom_site_fract_z
Si Si1 0.621770 0.181792 0.741925
Si Si2 0.028352 0.175659 0.395817
Si Si3 0.707155 0.181156 0.188244
Si Si4 0.499859 0.180207 0.233549
Si Si5 0.824177 0.318852 0.106926
Si Si6 0.188708 0.318875 0.535816
Si Si7 0.384574 0.180976 0.899873
Si Si8 0.346092 0.323657 0.621392
O O1 0.558296 0.247030 0.773011
O O2 0.650250 0.241287 0.815560
O O3 0.656957 0.242112 0.639662
O O4 0.620199 0.000000 0.741573
O O5 0.003493 0.280258 0.333611
O O6 0.094412 0.199136 0.365381
O O7 0.000000 0.233253 0.500000
O O8 0.012565 0.000000 0.385652
O O9 0.766341 0.234233 0.118362
O O10 0.659642 0.243758 0.147663
O O11 0.699929 0.254921 0.288187
O O12 0.705173 0.000000 0.198148
O O13 0.553606 0.249785 0.153061
O O14 0.499811 0.000000 0.223003
O O15 0.813790 0.500000 0.113379
O O16 0.866744 0.270067 0.007026
O O17 0.192934 0.500000 0.534063
O O18 0.250000 0.250000 0.500000
O O19 0.153966 0.264714 0.470364
O O20 0.386295 0.000000 0.890389
O O21 0.331645 0.500000 0.611386
#
# Coordination Sequence:
#
# PCOD8093639 Si02
#       8
#     8   8   8   8   8   8   8   8
#     4   9  20  36  57  83 112 147 193 235 279 337
#     4  10  21  36  54  80 111 144 184 229 280 340
#     4  11  21  36  56  85 117 147 188 238 286 342
#     4  10  19  36  58  82 113 148 185 233 283 335
#     4  10  20  37  58  83 114 151 190 234 283 340
#     4  11  22  37  56  83 116 153 196 240 283 336
#     4   9  19  34  57  86 115 145 187 236 286 338
#     4  11  22  36  56  82 111 148 188 230 286 342
#
# _framework density 20.074677000000001
#
# number of rings (size 3 to 8) (size 9 to 14) (size 15 to 20)
#    0.000    1.875    1.250    3.000    0.000    2.250 
#    0.000    5.625    0.000    0.000    0.000    1.750 
#    0.000    0.000    0.000    0.000    0.000    0.000 
#
# Total GULP energy -396883.886883 kJ/mol
# GULP energy per Si atom -12402.621465 kJ/mol
# Density = 2.002899 g / cm^3
# Si number density = 20.074677 Si / 1000 Ang^3
#
#
#
# Elastic Constant Matrix: (Units=GPa)
#
#
# Indices 1 2 3 4 5 6 
#
# 1 135.5294 25.5289 64.7384 0.0000 -12.8733 0.0000
# 2 25.5289 39.7876 21.8968 0.0000 -2.2545 0.0000
# 3 64.7384 21.8968 155.7829 0.0000 -7.9014 0.0000
# 4 0.0000 0.0000 0.0000 20.0834 0.0000 -1.3409
# 5 -12.8733 -2.2545 -7.9014 0.0000 38.3830 0.0000
# 6 0.0000 0.0000 0.0000 -1.3409 0.0000 25.1396
#
#
#
# Elastic Compliance Matrix: (Units=1/GPa)
#
#
# Indices 1 2 3 4 5 6 
#
# 1 0.010091 -0.004441 -0.003447 0.000000 0.002414 0.000000
# 2 -0.004441 0.029221 -0.002274 0.000000 -0.000241 0.000000
# 3 -0.003447 -0.002274 0.008191 0.000000 0.000397 0.000000
# 4 0.000000 0.000000 0.000000 0.049970 0.000000 0.002665
# 5 0.002414 -0.000241 0.000397 0.000000 0.026930 0.000000
# 6 0.000000 0.000000 0.000000 0.002665 0.000000 0.039920
#
#
# Mechanical properties :
#
#
# Convention : Reuss Voigt Hill
#
# Bulk Modulus (GPa) = 36.79249 61.71424 49.25337
# Shear Modulus (GPa) = 25.81232 31.31694 28.56463
#
# Velocity S-wave (km/s) = 3.58972 3.95400 3.77625
# Velocity P-wave (km/s) = 5.96230 7.18711 6.60316
#
# Compressibility (1/GPa) = 0.02717946
#
# Stress axis : x y z
#
# Youngs Moduli (GPa) = 99.10176 34.22243 122.08089
#
# Poissons Ratio (x) = 0.15197 0.42078
# Poissons Ratio (y) = 0.44009 0.27762
# Poissons Ratio (z) = 0.34158 0.07782
#
# Static dielectric constant tensor:
#      x y z
#    x 3.893570 0.000000 -0.109370 
#    y 0.000000 3.340350 0.000000 
#    z -0.109370 0.000000 3.841280 
# 
# 
# High freq. dielectric constant tensor:
#      x y z
#    x 1.794040 0.000000 -0.006290 
#    y 0.000000 1.752030 0.000000 
#    z -0.006290 0.000000 1.795140 
# 
# From -- ./inp_files/243777.got.cif
#   From: 2010.06.25/outbox.cif.g09.slc.cpg/sg12_122_cif.got.tgz:243777.got - 2010.06.28 00:19:55.
