data_PCOD8093926
_publ_section_title
;
Structure prediction by ZEFSAII (Michael W. Deem and Ramdas Pophale) SiO2 
 PCOD8093926
Probable space group: C 2/M
;
_chemical_formula_sum "Si O2"
_cell_formula_units_Z 48
_cell_length_a 24.289597
_cell_length_b 13.306807
_cell_length_c 12.133594
_cell_angle_alpha 90.000000
_cell_angle_beta 37.244332
_cell_angle_gamma 90.000000
_cell_volume 2373.523205
_symmetry_space_group_name_H-M "C 2/M"
_symmetry_group_IT_number 12
_symmetry_cell_setting 'monoclinic'
loop_
_space_group_symop_operation_xyz
x,y,z
-x,y,-z
-x,-y,-z
x,-y,z
1/2+x,1/2+y,z
1/2-x,1/2+y,-z
1/2-x,1/2-y,-z
1/2+x,1/2-y,z
loop_
_atom_site_type_symbol
_atom_site_label
_atom_site_fract_x
_atom_site_fract_y
_atom_site_fract_z
Si Si1 0.555365 0.114844 0.299022
Si Si2 0.090496 0.888273 0.787959
Si Si3 0.754408 0.119101 0.295527
Si Si4 0.414517 0.245572 0.408798
Si Si5 0.756756 0.881689 0.045094
Si Si6 0.394672 0.615383 0.640254
O O1 0.500000 0.123794 0.500000
O O2 0.509839 0.190800 0.284509
O O3 0.658191 0.150902 0.156484
O O4 0.552251 0.000000 0.259993
O O5 0.167494 0.844170 0.746103
O O6 0.071195 0.811766 0.721287
O O7 0.117442 0.000000 0.700314
O O8 0.000000 0.899331 0.000000
O O9 0.659707 0.159823 0.493670
O O10 0.773568 0.161164 0.141346
O O11 0.747377 0.000000 0.303832
O O12 0.374445 0.318061 0.566612
O O13 0.762899 0.000000 0.042956
O O14 0.834140 0.841952 0.838078
O O15 0.500000 0.626905 0.500000
O O16 0.369173 0.500000 0.655244
#
# Coordination Sequence:
#
# PCOD8093926 Si02
#       6
#     8   8   8   8   8   8
#     4  10  19  36  60  92 125 154 192 241 300 361
#     4  10  24  43  61  82 114 161 209 250 293 349
#     4  10  21  39  62  85 114 155 200 246 294 352
#     4  12  22  36  61  90 120 152 198 251 297 355
#     4   9  19  37  60  86 120 157 194 239 299 361
#     4  10  23  38  54  84 124 161 195 240 299 357
#
# _framework density 20.223102000000001
#
# number of rings (size 3 to 8) (size 9 to 14) (size 15 to 20)
#    0.000    1.833    1.667    2.000    2.333    2.000 
#    0.000    0.000    0.000    2.000    0.000    0.000 
#    0.000    0.000    0.000    0.000    0.000    0.000 
#
# Total GULP energy -297590.911462 kJ/mol
# GULP energy per Si atom -12399.621311 kJ/mol
# Density = 2.017707 g / cm^3
# Si number density = 20.223102 Si / 1000 Ang^3
#
#
#
# Elastic Constant Matrix: (Units=GPa)
#
#
# Indices 1 2 3 4 5 6 
#
# 1 144.0734 61.5974 46.0166 0.0000 -0.0883 0.0000
# 2 61.5974 77.5080 22.3596 0.0000 9.8637 0.0000
# 3 46.0166 22.3596 103.7802 0.0000 -7.7699 0.0000
# 4 0.0000 0.0000 0.0000 60.9246 0.0000 2.1969
# 5 -0.0883 9.8637 -7.7699 0.0000 31.1713 0.0000
# 6 0.0000 0.0000 0.0000 2.1969 0.0000 37.9455
#
#
#
# Elastic Compliance Matrix: (Units=1/GPa)
#
#
# Indices 1 2 3 4 5 6 
#
# 1 0.011614 -0.008568 -0.003157 0.000000 0.001957 0.000000
# 2 -0.008568 0.020954 -0.001237 0.000000 -0.006963 0.000000
# 3 -0.003157 -0.001237 0.011546 0.000000 0.003261 0.000000
# 4 0.000000 0.000000 0.000000 0.016448 0.000000 -0.000952
# 5 0.001957 -0.006963 0.003261 0.000000 0.035102 0.000000
# 6 0.000000 0.000000 0.000000 -0.000952 0.000000 0.026409
#
#
# Mechanical properties :
#
#
# Convention : Reuss Voigt Hill
#
# Bulk Modulus (GPa) = 54.97472 65.03431 60.00451
# Shear Modulus (GPa) = 32.45491 39.03414 35.74453
#
# Velocity S-wave (km/s) = 4.01040 4.39814 4.20874
# Velocity P-wave (km/s) = 6.97764 7.61707 7.30436
#
# Compressibility (1/GPa) = 0.01819018
#
# Stress axis : x y z
#
# Youngs Moduli (GPa) = 86.10607 47.72373 86.60882
#
# Poissons Ratio (x) = 0.40889 0.27343
# Poissons Ratio (y) = 0.73775 0.10712
# Poissons Ratio (z) = 0.27184 0.05903
#
# Static dielectric constant tensor:
#      x y z
#    x 3.832600 0.000000 -0.083780 
#    y 0.000000 3.916710 0.000000 
#    z -0.083780 0.000000 3.701110 
# 
# 
# High freq. dielectric constant tensor:
#      x y z
#    x 1.781310 0.000000 -0.014070 
#    y 0.000000 1.804430 0.000000 
#    z -0.014070 0.000000 1.783080 
# 
# From -- ./inp_files/143195.got.cif
#   From: 2010.06.25/outbox.cif.g09.slc.cpg/sg12_72_cif.got.tgz:143195.got - 2010.06.28 00:19:55.
