data_PCOD8093020
_publ_section_title
;
Structure prediction by ZEFSAII (Michael W. Deem and Ramdas Pophale) SiO2 
 PCOD8093020
Probable space group: C 2/M
;
_chemical_formula_sum "Si O2"
_cell_formula_units_Z 56
_cell_length_a 17.660953
_cell_length_b 14.182424
_cell_length_c 13.149223
_cell_angle_alpha 90.000000
_cell_angle_beta 64.664889
_cell_angle_gamma 90.000000
_cell_volume 2976.780932
_symmetry_space_group_name_H-M "C 2/M"
_symmetry_group_IT_number 12
_symmetry_cell_setting 'monoclinic'
loop_
_space_group_symop_operation_xyz
x,y,z
-x,y,-z
-x,-y,-z
x,-y,z
1/2+x,1/2+y,z
1/2-x,1/2+y,-z
1/2-x,1/2-y,-z
1/2+x,1/2-y,z
loop_
_atom_site_type_symbol
_atom_site_label
_atom_site_fract_x
_atom_site_fract_y
_atom_site_fract_z
Si Si1 0.813297 0.606725 0.407287
Si Si2 0.423071 0.894032 0.153200
Si Si3 0.546130 0.212281 0.569763
Si Si4 0.642266 0.390814 0.202308
Si Si5 0.370788 0.609133 0.551368
Si Si6 0.320345 0.893998 0.011527
Si Si7 0.942288 0.719193 0.824491
O O1 0.827300 0.500000 0.433899
O O2 0.847404 0.623838 0.274229
O O3 0.861741 0.669446 0.462830
O O4 0.715221 0.630391 0.459103
O O5 0.389542 0.886656 0.059332
O O6 0.492653 0.812075 0.125540
O O7 0.461060 0.000000 0.149136
O O8 0.500000 0.165558 0.500000
O O9 0.559048 0.324726 0.541292
O O10 0.483776 0.185178 0.696073
O O11 0.623131 0.500000 0.194408
O O12 0.638921 0.365514 0.323761
O O13 0.732199 0.359772 0.106968
O O14 0.573511 0.331328 0.177743
O O15 0.397914 0.500000 0.522384
O O16 0.311435 0.000000 0.976124
O O17 0.352629 0.830718 0.898450
#
# Coordination Sequence:
#
# PCOD8093020 Si02
#       7
#     8   8   8   8   8   8   8
#     4   9  18  34  56  78 103 140 177 213 262 311
#     4   9  17  32  56  84 107 130 170 223 270 311
#     4  11  22  34  50  80 114 141 171 212 262 317
#     4  10  20  35  56  78 104 139 178 221 262 305
#     4  10  19  36  58  76 101 140 184 223 255 297
#     4  10  19  35  59  83 104 132 176 224 265 311
#     4  11  21  32  50  82 113 138 168 212 273 316
#
# _framework density 18.812269000000001
#
# number of rings (size 3 to 8) (size 9 to 14) (size 15 to 20)
#    0.000    2.000    2.857    1.714    0.000    2.857 
#    0.000    0.000    0.000    1.714    0.000    0.000 
#    0.000    0.000    0.000    0.000    0.000    0.000 
#
# Total GULP energy -346996.277738 kJ/mol
# GULP energy per Si atom -12392.724205 kJ/mol
# Density = 1.876945 g / cm^3
# Si number density = 18.812269 Si / 1000 Ang^3
#
#
#
# Elastic Constant Matrix: (Units=GPa)
#
#
# Indices 1 2 3 4 5 6 
#
# 1 71.4615 39.8564 17.2116 0.0000 9.3430 0.0000
# 2 39.8564 77.0948 18.5524 0.0000 8.6324 0.0000
# 3 17.2116 18.5524 66.4217 0.0000 -9.2941 0.0000
# 4 0.0000 0.0000 0.0000 26.8389 0.0000 -3.7539
# 5 9.3430 8.6324 -9.2941 0.0000 13.6777 0.0000
# 6 0.0000 0.0000 0.0000 -3.7539 0.0000 37.1683
#
#
#
# Elastic Compliance Matrix: (Units=1/GPa)
#
#
# Indices 1 2 3 4 5 6 
#
# 1 0.021641 -0.008550 -0.005009 0.000000 -0.012790 0.000000
# 2 -0.008550 0.019579 -0.004602 0.000000 -0.009643 0.000000
# 3 -0.005009 -0.004602 0.020470 0.000000 0.020236 0.000000
# 4 0.000000 0.000000 0.000000 0.037793 0.000000 0.003817
# 5 -0.012790 -0.009643 0.020236 0.000000 0.101685 0.000000
# 6 0.000000 0.000000 0.000000 0.003817 0.000000 0.027290
#
#
# Mechanical properties :
#
#
# Convention : Reuss Voigt Hill
#
# Bulk Modulus (GPa) = 39.42232 40.69099 40.05666
# Shear Modulus (GPa) = 18.29907 24.82749 21.56328
#
# Velocity S-wave (km/s) = 3.12223 3.63678 3.38928
# Velocity P-wave (km/s) = 5.83086 6.26992 6.05437
#
# Compressibility (1/GPa) = 0.02536634
#
# Stress axis : x y z
#
# Youngs Moduli (GPa) = 46.20853 51.07579 48.85117
#
# Poissons Ratio (x) = 0.43672 0.24470
# Poissons Ratio (y) = 0.39510 0.22483
# Poissons Ratio (z) = 0.23147 0.23507
#
# Static dielectric constant tensor:
#      x y z
#    x 3.485830 0.000000 -0.152990 
#    y 0.000000 3.425020 0.000000 
#    z -0.152990 0.000000 3.435960 
# 
# 
# High freq. dielectric constant tensor:
#      x y z
#    x 1.726520 0.000000 -0.019930 
#    y 0.000000 1.717360 0.000000 
#    z -0.019930 0.000000 1.727270 
# 
# From -- ./inp_files/223150.got.cif
#   From: 2010.06.25/outbox.cif.g09.slc.cpg/sg12_112_cif.got.tgz:223150.got - 2010.06.28 00:19:55.
