data_PCOD8093731
_publ_section_title
;
Structure prediction by ZEFSAII (Michael W. Deem and Ramdas Pophale) SiO2 
 PCOD8093731
Probable space group: C 2/M
;
_chemical_formula_sum "Si O2"
_cell_formula_units_Z 56
_cell_length_a 18.441501
_cell_length_b 15.549744
_cell_length_c 10.894935
_cell_angle_alpha 90.000000
_cell_angle_beta 63.437932
_cell_angle_gamma 90.000000
_cell_volume 2794.476439
_symmetry_space_group_name_H-M "C 2/M"
_symmetry_group_IT_number 12
_symmetry_cell_setting 'monoclinic'
loop_
_space_group_symop_operation_xyz
x,y,z
-x,y,-z
-x,-y,-z
x,-y,z
1/2+x,1/2+y,z
1/2-x,1/2+y,-z
1/2-x,1/2-y,-z
1/2+x,1/2-y,z
loop_
_atom_site_type_symbol
_atom_site_label
_atom_site_fract_x
_atom_site_fract_y
_atom_site_fract_z
Si Si1 0.076065 0.723358 0.663562
Si Si2 0.951551 0.854936 0.646629
Si Si3 0.337330 0.731693 0.160642
Si Si4 0.688830 0.096250 0.955054
Si Si5 0.942682 0.403603 0.735351
Si Si6 0.656768 0.213390 0.363323
Si Si7 0.140400 0.095253 0.056122
O O1 0.106586 0.770261 0.762472
O O2 0.151475 0.705181 0.515180
O O3 0.014540 0.783683 0.639218
O O4 0.026099 0.636077 0.725637
O O5 0.869281 0.809123 0.660367
O O6 0.000000 0.906514 0.500000
O O7 0.926019 0.910833 0.783883
O O8 0.331895 0.831778 0.128990
O O9 0.248574 0.693539 0.254560
O O10 0.380330 0.670040 0.026702
O O11 0.692652 0.000000 0.892698
O O12 0.620825 0.100256 0.107930
O O13 0.773205 0.120275 0.954159
O O14 0.961478 0.500000 0.679253
O O15 0.905119 0.355717 0.646554
O O16 0.142154 0.000000 0.993149
#
# Coordination Sequence:
#
# PCOD8093731 Si02
#       7
#     8   8   8   8   8   8   8
#     4  10  23  35  54  88 120 153 197 239 301 360
#     4   9  19  38  59  82 111 147 195 242 288 351
#     4  12  21  37  61  86 121 160 193 246 305 348
#     4  10  21  36  60  89 112 147 201 249 296 359
#     4  10  20  37  60  88 119 153 201 254 299 355
#     4  10  19  36  59  82 113 160 202 237 285 357
#     4  11  22  37  61  87 110 150 204 248 292 355
#
# _framework density 20.039531
#
# number of rings (size 3 to 8) (size 9 to 14) (size 15 to 20)
#    0.000    1.714    2.857    3.857    0.000    4.286 
#    0.000    2.857    0.000    3.429    0.000    0.000 
#    0.000    0.000    0.000    0.000    0.000    0.000 
#
# Total GULP energy -347063.374523 kJ/mol
# GULP energy per Si atom -12395.120519 kJ/mol
# Density = 1.999392 g / cm^3
# Si number density = 20.039531 Si / 1000 Ang^3
#
#
#
# Elastic Constant Matrix: (Units=GPa)
#
#
# Indices 1 2 3 4 5 6 
#
# 1 61.2123 21.1535 40.7677 0.0000 4.8484 0.0000
# 2 21.1535 90.1299 36.1603 0.0000 3.5007 0.0000
# 3 40.7677 36.1603 120.8802 0.0000 -3.9454 0.0000
# 4 0.0000 0.0000 0.0000 34.6760 0.0000 -11.3578
# 5 4.8484 3.5007 -3.9454 0.0000 25.8130 0.0000
# 6 0.0000 0.0000 0.0000 -11.3578 0.0000 22.0539
#
#
#
# Elastic Compliance Matrix: (Units=1/GPa)
#
#
# Indices 1 2 3 4 5 6 
#
# 1 0.022126 -0.002209 -0.006962 0.000000 -0.004921 0.000000
# 2 -0.002209 0.012966 -0.003194 0.000000 -0.001832 0.000000
# 3 -0.006962 -0.003194 0.011691 0.000000 0.003528 0.000000
# 4 0.000000 0.000000 0.000000 0.034690 0.000000 0.017866
# 5 -0.004921 -0.001832 0.003528 0.000000 0.040452 0.000000
# 6 0.000000 0.000000 0.000000 0.017866 0.000000 0.054544
#
#
# Mechanical properties :
#
#
# Convention : Reuss Voigt Hill
#
# Bulk Modulus (GPa) = 45.34191 52.04281 48.69236
# Shear Modulus (GPa) = 23.97503 28.11795 26.04649
#
# Velocity S-wave (km/s) = 3.46263 3.74989 3.60912
# Velocity P-wave (km/s) = 6.21786 6.69144 6.45899
#
# Compressibility (1/GPa) = 0.02205465
#
# Stress axis : x y z
#
# Youngs Moduli (GPa) = 45.19474 77.12558 85.53476
#
# Poissons Ratio (x) = 0.17035 0.59551
# Poissons Ratio (y) = 0.09982 0.27316
# Poissons Ratio (z) = 0.31465 0.24630
#
# Static dielectric constant tensor:
#      x y z
#    x 3.456190 0.000000 -0.252270 
#    y 0.000000 3.591270 0.000000 
#    z -0.252270 0.000000 3.839050 
# 
# 
# High freq. dielectric constant tensor:
#      x y z
#    x 1.764560 0.000000 -0.018780 
#    y 0.000000 1.769450 0.000000 
#    z -0.018780 0.000000 1.790430 
# 
# From -- ./inp_files/75886.got.cif
#   From: 2010.06.25/outbox.cif.g09.slc.cpg/sg12_38_cif.got.tgz:75886.got - 2010.06.28 00:19:55.
