data_PCOD8093515
_publ_section_title
;
Structure prediction by ZEFSAII (Michael W. Deem and Ramdas Pophale) SiO2 
 PCOD8093515
Probable space group: C 2/M
;
_chemical_formula_sum "Si O2"
_cell_formula_units_Z 56
_cell_length_a 16.226451
_cell_length_b 22.366405
_cell_length_c 8.943019
_cell_angle_alpha 90.000000
_cell_angle_beta 117.633789
_cell_angle_gamma 90.000000
_cell_volume 2875.433909
_symmetry_space_group_name_H-M "C 2/M"
_symmetry_group_IT_number 12
_symmetry_cell_setting 'monoclinic'
loop_
_space_group_symop_operation_xyz
x,y,z
-x,y,-z
-x,-y,-z
x,-y,z
1/2+x,1/2+y,z
1/2-x,1/2+y,-z
1/2-x,1/2-y,-z
1/2+x,1/2-y,z
loop_
_atom_site_type_symbol
_atom_site_label
_atom_site_fract_x
_atom_site_fract_y
_atom_site_fract_z
Si Si1 0.391219 0.732088 0.922667
Si Si2 0.901453 0.430494 0.967565
Si Si3 0.631939 0.357556 0.844855
Si Si4 0.284720 0.929743 0.144981
Si Si5 0.528027 0.431558 0.193995
Si Si6 0.771334 0.342952 0.719752
Si Si7 0.791737 0.866430 0.653533
O O1 0.334733 0.792554 0.848884
O O2 0.357587 0.685074 0.772169
O O3 0.500000 0.745890 0.000000
O O4 0.369955 0.705378 0.068469
O O5 0.902131 0.500000 0.935623
O O6 0.821394 0.405437 0.793746
O O7 0.877187 0.417353 0.122462
O O8 0.000000 0.402135 0.000000
O O9 0.530550 0.387730 0.747105
O O10 0.670036 0.342427 0.712216
O O11 0.694829 0.407349 0.979706
O O12 0.288568 0.891098 0.301607
O O13 0.273657 0.000000 0.170814
O O14 0.504505 0.500000 0.210194
O O15 0.637392 0.421080 0.319168
O O16 0.500000 0.414853 0.000000
O O17 0.759291 0.338105 0.532280
#
# Coordination Sequence:
#
# PCOD8093515 Si02
#       7
#     8   8   8   8   8   8   8
#     4  11  20  40  61  78 105 152 202 236 277 344
#     4   9  19  38  59  81 108 145 194 241 279 334
#     4  10  19  36  56  84 112 148 197 235 275 343
#     4   9  17  32  58  83 109 148 189 224 276 351
#     4  11  19  34  61  86 115 156 194 230 278 349
#     4  11  24  35  57  83 117 148 186 241 301 333
#     4  11  21  36  54  86 120 147 183 237 290 346
#
# _framework density 19.47532
#
# number of rings (size 3 to 8) (size 9 to 14) (size 15 to 20)
#    0.000    1.714    4.286    2.143    0.000    2.286 
#    0.000    1.429    0.000    2.571    0.000    0.000 
#    0.000    0.000    0.000    0.000    0.000    0.000 
#
# Total GULP energy -347125.733645 kJ/mol
# GULP energy per Si atom -12397.347630 kJ/mol
# Density = 1.943099 g / cm^3
# Si number density = 19.475320 Si / 1000 Ang^3
#
#
#
# Elastic Constant Matrix: (Units=GPa)
#
#
# Indices 1 2 3 4 5 6 
#
# 1 135.3934 40.8263 34.0049 0.0000 -11.9338 0.0000
# 2 40.8263 68.5404 24.4737 0.0000 -5.2400 0.0000
# 3 34.0049 24.4737 65.1876 0.0000 -12.1952 0.0000
# 4 0.0000 0.0000 0.0000 11.1686 0.0000 0.3314
# 5 -11.9338 -5.2400 -12.1952 0.0000 21.5662 0.0000
# 6 0.0000 0.0000 0.0000 0.3314 0.0000 25.5713
#
#
#
# Elastic Compliance Matrix: (Units=1/GPa)
#
#
# Indices 1 2 3 4 5 6 
#
# 1 0.009713 -0.004562 -0.002858 0.000000 0.002650 0.000000
# 2 -0.004562 0.018998 -0.004877 0.000000 -0.000667 0.000000
# 3 -0.002858 -0.004877 0.020291 0.000000 0.008708 0.000000
# 4 0.000000 0.000000 0.000000 0.089571 0.000000 -0.001161
# 5 0.002650 -0.000667 0.008708 0.000000 0.052597 0.000000
# 6 0.000000 0.000000 0.000000 -0.001161 0.000000 0.039121
#
#
# Mechanical properties :
#
#
# Convention : Reuss Voigt Hill
#
# Bulk Modulus (GPa) = 40.97205 51.97014 46.47109
# Shear Modulus (GPa) = 19.00968 22.98232 20.99600
#
# Velocity S-wave (km/s) = 3.12763 3.43895 3.28698
# Velocity P-wave (km/s) = 5.84178 6.52009 6.19023
#
# Compressibility (1/GPa) = 0.02440688
#
# Stress axis : x y z
#
# Youngs Moduli (GPa) = 102.95426 52.63675 49.28201
#
# Poissons Ratio (x) = 0.24015 0.14085
# Poissons Ratio (y) = 0.46973 0.24036
# Poissons Ratio (z) = 0.29426 0.25672
#
# Static dielectric constant tensor:
#      x y z
#    x 3.909270 0.000000 -0.194310 
#    y 0.000000 3.584350 0.000000 
#    z -0.194310 0.000000 3.192580 
# 
# 
# High freq. dielectric constant tensor:
#      x y z
#    x 1.767770 0.000000 -0.012750 
#    y 0.000000 1.764270 0.000000 
#    z -0.012750 0.000000 1.716360 
# 
# From -- ./inp_files/65451.got.cif
#   From: 2010.06.25/outbox.cif.g09.slc.cpg/sg12_33_cif.got.tgz:65451.got - 2010.06.28 00:19:55.
