data_PCOD8093622
_publ_section_title
;
Structure prediction by ZEFSAII (Michael W. Deem and Ramdas Pophale) SiO2 
 PCOD8093622
Probable space group: C 2/M
;
_chemical_formula_sum "Si O2"
_cell_formula_units_Z 48
_cell_length_a 20.527595
_cell_length_b 8.886488
_cell_length_c 15.104089
_cell_angle_alpha 90.000000
_cell_angle_beta 68.833170
_cell_angle_gamma 90.000000
_cell_volume 2569.371924
_symmetry_space_group_name_H-M "C 2/M"
_symmetry_group_IT_number 12
_symmetry_cell_setting 'monoclinic'
loop_
_space_group_symop_operation_xyz
x,y,z
-x,y,-z
-x,-y,-z
x,-y,z
1/2+x,1/2+y,z
1/2-x,1/2+y,-z
1/2-x,1/2-y,-z
1/2+x,1/2-y,z
loop_
_atom_site_type_symbol
_atom_site_label
_atom_site_fract_x
_atom_site_fract_y
_atom_site_fract_z
Si Si1 0.824616 0.678182 0.741644
Si Si2 0.577847 0.178589 0.459741
Si Si3 0.919375 0.825087 0.035432
Si Si4 0.321676 0.177667 0.433286
Si Si5 0.825905 0.176493 0.246889
Si Si6 0.676652 0.177614 0.059502
O O1 0.823133 0.500000 0.735208
O O2 0.881417 0.745356 0.645591
O O3 0.747802 0.738078 0.753672
O O4 0.844223 0.729132 0.831087
O O5 0.500000 0.247672 0.500000
O O6 0.617719 0.227080 0.528952
O O7 0.574262 0.000000 0.453510
O O8 0.885061 0.785271 0.146234
O O9 0.908840 0.000000 0.018046
O O10 0.884263 0.729972 0.975218
O O11 0.000000 0.779186 0.000000
O O12 0.250000 0.250000 0.500000
O O13 0.345459 0.235644 0.326091
O O14 0.311551 0.000000 0.436879
O O15 0.822385 0.000000 0.269904
O O16 0.685750 0.000000 0.049056
O O17 0.750000 0.250000 0.000000
#
# Coordination Sequence:
#
# PCOD8093622 Si02
#       6
#     8   8   8   8   8   8
#     4   9  17  32  54  79 107 144 181 219 276 336
#     4   9  18  33  53  78 108 140 176 220 271 327
#     4  10  22  40  59  81 115 156 192 234 295 353
#     4  11  21  34  57  86 111 144 188 231 276 332
#     4  10  19  36  58  80 111 148 187 230 281 340
#     4  11  21  35  59  86 113 147 191 240 284 340
#
# _framework density 18.681608000000001
#
# number of rings (size 3 to 8) (size 9 to 14) (size 15 to 20)
#    0.000    2.000    3.333    1.000    0.000    2.333 
#    0.000    1.667    0.000    2.000    0.000    0.000 
#    0.000    0.000    0.000    0.000    0.000    0.000 
#
# Total GULP energy -297634.178769 kJ/mol
# GULP energy per Si atom -12401.424115 kJ/mol
# Density = 1.863909 g / cm^3
# Si number density = 18.681608 Si / 1000 Ang^3
#
#
#
# Elastic Constant Matrix: (Units=GPa)
#
#
# Indices 1 2 3 4 5 6 
#
# 1 164.4644 44.2721 99.9232 0.0000 -3.4358 0.0000
# 2 44.2721 48.8021 47.7140 0.0000 9.5639 0.0000
# 3 99.9232 47.7140 182.4152 0.0000 6.0049 0.0000
# 4 0.0000 0.0000 0.0000 26.2949 0.0000 7.8815
# 5 -3.4358 9.5639 6.0049 0.0000 40.5374 0.0000
# 6 0.0000 0.0000 0.0000 7.8815 0.0000 22.7157
#
#
#
# Elastic Compliance Matrix: (Units=1/GPa)
#
#
# Indices 1 2 3 4 5 6 
#
# 1 0.010236 -0.005736 -0.004200 0.000000 0.002843 0.000000
# 2 -0.005736 0.032002 -0.004988 0.000000 -0.007297 0.000000
# 3 -0.004200 -0.004988 0.009105 0.000000 -0.000528 0.000000
# 4 0.000000 0.000000 0.000000 0.042444 0.000000 -0.014727
# 5 0.002843 -0.007297 -0.000528 0.000000 0.026709 0.000000
# 6 0.000000 0.000000 0.000000 -0.014727 0.000000 0.049132
#
#
# Mechanical properties :
#
#
# Convention : Reuss Voigt Hill
#
# Bulk Modulus (GPa) = 46.52633 86.61116 66.56874
# Shear Modulus (GPa) = 24.19649 31.49444 27.84546
#
# Velocity S-wave (km/s) = 3.60280 4.11037 3.86492
# Velocity P-wave (km/s) = 6.50122 8.30597 7.45839
#
# Compressibility (1/GPa) = 0.02149321
#
# Stress axis : x y z
#
# Youngs Moduli (GPa) = 97.69715 31.24819 109.83176
#
# Poissons Ratio (x) = 0.17925 0.46130
# Poissons Ratio (y) = 0.56042 0.54786
# Poissons Ratio (z) = 0.41033 0.15587
#
# Static dielectric constant tensor:
#      x y z
#    x 3.557060 0.000000 -0.103550 
#    y 0.000000 3.144370 0.000000 
#    z -0.103550 0.000000 3.545990 
# 
# 
# High freq. dielectric constant tensor:
#      x y z
#    x 1.727490 0.000000 0.003260 
#    y 0.000000 1.693310 0.000000 
#    z 0.003260 0.000000 1.743200 
# 
# From -- ./inp_files/229893.got.cif
#   From: 2010.06.25/outbox.cif.g09.slc.cpg/sg12_115_cif.got.tgz:229893.got - 2010.06.28 00:19:55.
