data_PCOD8093403
_publ_section_title
;
Structure prediction by ZEFSAII (Michael W. Deem and Ramdas Pophale) SiO2 
 PCOD8093403
Probable space group: C 2/M
;
_chemical_formula_sum "Si O2"
_cell_formula_units_Z 48
_cell_length_a 19.392588
_cell_length_b 14.333176
_cell_length_c 10.689038
_cell_angle_alpha 90.000000
_cell_angle_beta 124.797170
_cell_angle_gamma 90.000000
_cell_volume 2439.797672
_symmetry_space_group_name_H-M "C 2/M"
_symmetry_group_IT_number 12
_symmetry_cell_setting 'monoclinic'
loop_
_space_group_symop_operation_xyz
x,y,z
-x,y,-z
-x,-y,-z
x,-y,z
1/2+x,1/2+y,z
1/2-x,1/2+y,-z
1/2-x,1/2-y,-z
1/2+x,1/2-y,z
loop_
_atom_site_type_symbol
_atom_site_label
_atom_site_fract_x
_atom_site_fract_y
_atom_site_fract_z
Si Si1 0.219510 0.604100 0.856706
Si Si2 0.629181 0.728623 0.666247
Si Si3 0.582594 0.217651 0.138177
Si Si4 0.781849 0.392543 0.867173
Si Si5 0.087963 0.894876 0.975863
Si Si6 0.522394 0.287232 0.321456
O O1 0.197966 0.500000 0.786483
O O2 0.184903 0.676541 0.717508
O O3 0.179571 0.621949 0.953663
O O4 0.318701 0.616236 0.981857
O O5 0.686765 0.644167 0.771591
O O6 0.556136 0.758232 0.687413
O O7 0.592896 0.690176 0.497567
O O8 0.665346 0.163270 0.182141
O O9 0.571225 0.218664 0.276287
O O10 0.500000 0.164748 0.000000
O O11 0.581236 0.324036 0.085082
O O12 0.781027 0.500000 0.827334
O O13 0.018138 0.874099 0.796165
O O14 0.072877 0.000000 0.009199
#
# Coordination Sequence:
#
# PCOD8093403 Si02
#       6
#     8   8   8   8   8   8
#     4  10  19  35  63  89 111 152 207 250 285 347
#     4  11  21  40  60  87 121 159 200 242 303 354
#     4  10  21  38  58  88 120 155 196 248 304 351
#     4  11  22  37  61  87 117 158 203 247 293 357
#     4  10  19  36  62  90 116 152 202 249 295 348
#     4  10  23  36  59  87 124 160 189 247 302 360
#
# _framework density 19.673763000000001
#
# number of rings (size 3 to 8) (size 9 to 14) (size 15 to 20)
#    0.000    1.667    3.333    2.500    0.000    4.667 
#    0.000    5.000    0.000    1.000    0.000    0.000 
#    0.000    0.000    0.000    0.000    0.000    0.000 
#
# Total GULP energy -297325.816611 kJ/mol
# GULP energy per Si atom -12388.575692 kJ/mol
# Density = 1.962898 g / cm^3
# Si number density = 19.673763 Si / 1000 Ang^3
#
#
#
# Elastic Constant Matrix: (Units=GPa)
#
#
# Indices 1 2 3 4 5 6 
#
# 1 100.5986 32.0696 30.9128 0.0000 -8.7956 0.0000
# 2 32.0696 110.6616 51.0254 0.0000 6.0078 0.0000
# 3 30.9128 51.0254 97.6744 0.0000 1.5281 0.0000
# 4 0.0000 0.0000 0.0000 12.4673 0.0000 4.2670
# 5 -8.7956 6.0078 1.5281 0.0000 27.6485 0.0000
# 6 0.0000 0.0000 0.0000 4.2670 0.0000 11.3002
#
#
#
# Elastic Compliance Matrix: (Units=1/GPa)
#
#
# Indices 1 2 3 4 5 6 
#
# 1 0.011914 -0.002536 -0.002516 0.000000 0.004480 0.000000
# 2 -0.002536 0.012585 -0.005721 0.000000 -0.003225 0.000000
# 3 -0.002516 -0.005721 0.014028 0.000000 -0.000333 0.000000
# 4 0.000000 0.000000 0.000000 0.092114 0.000000 -0.034782
# 5 0.004480 -0.003225 -0.000333 0.000000 0.038313 0.000000
# 6 0.000000 0.000000 0.000000 -0.034782 0.000000 0.101628
#
#
# Mechanical properties :
#
#
# Convention : Reuss Voigt Hill
#
# Bulk Modulus (GPa) = 58.89012 59.66112 59.27562
# Shear Modulus (GPa) = 16.79052 23.27833 20.03443
#
# Velocity S-wave (km/s) = 2.92455 3.44352 3.19459
# Velocity P-wave (km/s) = 6.43446 6.79717 6.61830
#
# Compressibility (1/GPa) = 0.01698078
#
# Stress axis : x y z
#
# Youngs Moduli (GPa) = 83.93723 79.46282 71.28421
#
# Poissons Ratio (x) = 0.20149 0.17935
# Poissons Ratio (y) = 0.21284 0.40783
# Poissons Ratio (z) = 0.21118 0.45462
#
# Static dielectric constant tensor:
#      x y z
#    x 3.846950 0.000000 0.068630 
#    y 0.000000 3.384890 0.000000 
#    z 0.068630 0.000000 3.448420 
# 
# 
# High freq. dielectric constant tensor:
#      x y z
#    x 1.785110 0.000000 0.006150 
#    y 0.000000 1.744100 0.000000 
#    z 0.006150 0.000000 1.746300 
# 
# From -- ./inp_files/166864.got.cif
#   From: 2010.06.25/outbox.cif.g09.slc.cpg/sg12_84_cif.got.tgz:166864.got - 2010.06.28 00:19:55.
