data_PCOD8093140
_publ_section_title
;
Structure prediction by ZEFSAII (Michael W. Deem and Ramdas Pophale) SiO2 
 PCOD8093140
Probable space group: C 2/M
;
_chemical_formula_sum "Si O2"
_cell_formula_units_Z 56
_cell_length_a 8.352997
_cell_length_b 19.011517
_cell_length_c 22.007630
_cell_angle_alpha 90.000000
_cell_angle_beta 52.560100
_cell_angle_gamma 90.000000
_cell_volume 2774.905545
_symmetry_space_group_name_H-M "C 2/M"
_symmetry_group_IT_number 12
_symmetry_cell_setting 'monoclinic'
loop_
_space_group_symop_operation_xyz
x,y,z
-x,y,-z
-x,-y,-z
x,-y,z
1/2+x,1/2+y,z
1/2-x,1/2+y,-z
1/2-x,1/2-y,-z
1/2+x,1/2-y,z
loop_
_atom_site_type_symbol
_atom_site_label
_atom_site_fract_x
_atom_site_fract_y
_atom_site_fract_z
Si Si1 0.281483 0.708452 0.054045
Si Si2 0.988019 0.078919 0.242914
Si Si3 0.991673 0.920229 0.620361
Si Si4 0.117570 0.329437 0.317751
Si Si5 0.664433 0.828504 0.513824
Si Si6 0.813878 0.303654 0.293840
Si Si7 0.344363 0.181838 0.149057
O O1 0.292108 0.761796 0.108967
O O2 0.082901 0.658182 0.099067
O O3 0.500000 0.668128 0.000000
O O4 0.250000 0.750000 0.000000
O O5 0.943971 0.080631 0.324444
O O6 0.793445 0.116506 0.259110
O O7 0.198014 0.115046 0.174179
O O8 0.000271 0.000000 0.214779
O O9 0.158480 0.883343 0.540900
O O10 0.784779 0.876937 0.663393
O O11 0.955878 0.000000 0.606008
O O12 0.195579 0.265777 0.343857
O O13 0.930920 0.358087 0.401030
O O14 0.035561 0.302953 0.271327
O O15 0.500000 0.832714 0.500000
O O16 0.750000 0.750000 0.500000
O O17 0.809558 0.286132 0.223431
#
# Coordination Sequence:
#
# PCOD8093140 Si02
#       7
#     8   8   8   8   8   8   8
#     4   9  18  33  59  94 126 149 185 230 275 337
#     4  10  22  39  58  83 116 157 205 250 301 362
#     4  10  22  40  57  79 112 154 199 253 313 367
#     4  12  22  35  57  82 112 149 203 259 306 355
#     4  12  23  37  57  79 109 152 203 258 315 367
#     4  11  22  36  58  86 114 149 196 248 299 360
#     4  10  19  35  59  88 122 160 188 232 297 343
#
# _framework density 20.180866999999999
#
# number of rings (size 3 to 8) (size 9 to 14) (size 15 to 20)
#    0.000    1.429    2.857    4.286    0.000    2.571 
#    0.000    0.714    0.000    4.286    0.000    0.000 
#    0.000    0.000    0.000    0.000    0.000    0.000 
#
# Total GULP energy -346871.944499 kJ/mol
# GULP energy per Si atom -12388.283732 kJ/mol
# Density = 2.013493 g / cm^3
# Si number density = 20.180867 Si / 1000 Ang^3
#
#
#
# Elastic Constant Matrix: (Units=GPa)
#
#
# Indices 1 2 3 4 5 6 
#
# 1 136.2776 51.9854 51.9850 0.0001 -20.2581 -0.0001
# 2 51.9854 124.3547 43.3997 0.0000 -20.6047 -0.0001
# 3 51.9850 43.3997 101.9184 0.0001 -21.4525 -0.0001
# 4 0.0001 0.0000 0.0001 19.0184 -0.0001 -4.1460
# 5 -20.2581 -20.6047 -21.4525 -0.0001 41.4677 0.0001
# 6 -0.0001 -0.0001 -0.0001 -4.1460 0.0001 22.2595
#
#
#
# Elastic Compliance Matrix: (Units=1/GPa)
#
#
# Indices 1 2 3 4 5 6 
#
# 1 0.009969 -0.002627 -0.003609 0.000000 0.001698 0.000000
# 2 -0.002627 0.010466 -0.002573 0.000000 0.002586 0.000000
# 3 -0.003609 -0.002573 0.013587 0.000000 0.003988 0.000000
# 4 0.000000 0.000000 0.000000 0.054806 0.000000 0.010208
# 5 0.001698 0.002586 0.003988 0.000000 0.028293 0.000000
# 6 0.000000 0.000000 0.000000 0.010208 0.000000 0.046826
#
#
# Mechanical properties :
#
#
# Convention : Reuss Voigt Hill
#
# Bulk Modulus (GPa) = 60.95283 73.03233 66.99258
# Shear Modulus (GPa) = 26.73339 30.89450 28.81394
#
# Velocity S-wave (km/s) = 3.64358 3.91689 3.78270
# Velocity P-wave (km/s) = 6.92602 7.53150 7.23510
#
# Compressibility (1/GPa) = 0.01640613
#
# Stress axis : x y z
#
# Youngs Moduli (GPa) = 100.31074 95.54849 73.59740
#
# Poissons Ratio (x) = 0.25097 0.26561
# Poissons Ratio (y) = 0.26348 0.18933
# Poissons Ratio (z) = 0.36202 0.24580
#
# Static dielectric constant tensor:
#      x y z
#    x 7.904090 0.000010 -6.349770 
#    y 0.000010 3.446720 -0.000020 
#    z -6.349770 -0.000020 13.435170 
# 
# 
# High freq. dielectric constant tensor:
#      x y z
#    x 1.807890 0.000000 -0.010480 
#    y 0.000000 1.745160 0.000000 
#    z -0.010480 0.000000 1.792130 
# 
# From -- ./inp_files/333567.got.cif
#   From: 2010.06.25/outbox.cif.g09.slc.cpg/sg12_167_cif.got.tgz:333567.got - 2010.06.28 00:19:55.
