data_PCOD8093038
_publ_section_title
;
Structure prediction by ZEFSAII (Michael W. Deem and Ramdas Pophale) SiO2 
 PCOD8093038
Probable space group: C 2/M
;
_chemical_formula_sum "Si O2"
_cell_formula_units_Z 64
_cell_length_a 10.182649
_cell_length_b 29.548645
_cell_length_c 14.112690
_cell_angle_alpha 90.000000
_cell_angle_beta 44.844778
_cell_angle_gamma 90.000000
_cell_volume 2994.424673
_symmetry_space_group_name_H-M "C 2/M"
_symmetry_group_IT_number 12
_symmetry_cell_setting 'monoclinic'
loop_
_space_group_symop_operation_xyz
x,y,z
-x,y,-z
-x,-y,-z
x,-y,z
1/2+x,1/2+y,z
1/2-x,1/2+y,-z
1/2-x,1/2-y,-z
1/2+x,1/2-y,z
loop_
_atom_site_type_symbol
_atom_site_label
_atom_site_fract_x
_atom_site_fract_y
_atom_site_fract_z
Si Si1 0.938925 0.050292 0.340482
Si Si2 0.418063 0.283676 0.714722
Si Si3 0.161311 0.678023 0.991875
Si Si4 0.798235 0.948719 0.090912
Si Si5 0.362640 0.363042 0.486781
Si Si6 0.869065 0.550255 0.643556
Si Si7 0.611263 0.794540 0.712379
Si Si8 0.797431 0.579089 0.059198
O O1 0.825033 0.087911 0.459436
O O2 0.841366 0.047969 0.288494
O O3 0.152785 0.064992 0.215049
O O4 0.933035 0.000000 0.391611
O O5 0.539607 0.328542 0.636396
O O6 0.559307 0.241829 0.657436
O O7 0.276562 0.276336 0.697910
O O8 0.310115 0.287591 0.870432
O O9 0.078329 0.695246 0.133297
O O10 0.252800 0.628813 0.955447
O O11 0.000000 0.670654 0.000000
O O12 0.651367 0.926132 0.242024
O O13 0.819620 0.000000 0.117571
O O14 0.717905 0.951282 0.026400
O O15 0.000000 0.924577 0.000000
O O16 0.500000 0.374742 0.500000
O O17 0.176537 0.339953 0.624738
O O18 0.959045 0.500000 0.608775
O O19 0.000000 0.576981 0.500000
O O20 0.000000 0.573522 0.000000
#
# Coordination Sequence:
#
# PCOD8093038 Si02
#       8
#     8   8   8   8   8   8   8   8
#     4  11  22  40  64  89 124 170 223 276 317 375
#     4  10  19  39  62  92 122 160 201 250 313 385
#     4   9  19  36  60  87 124 167 196 246 318 387
#     4  10  19  35  59  83 114 159 210 263 319 375
#     4  10  22  39  62  87 125 169 206 253 324 386
#     4   9  19  37  59  82 113 158 207 259 322 379
#     4  10  21  37  65  92 124 161 205 252 316 386
#     4  11  22  37  63  92 128 164 218 269 325 377
#
# _framework density 21.373055000000001
#
# number of rings (size 3 to 8) (size 9 to 14) (size 15 to 20)
#    0.000    2.000    2.500    1.125    1.750    2.250 
#    0.000    3.750    0.000    0.000    0.000    0.000 
#    0.000    0.000    0.000    0.000    0.000    0.000 
#
# Total GULP energy -396469.561907 kJ/mol
# GULP energy per Si atom -12389.673810 kJ/mol
# Density = 2.132441 g / cm^3
# Si number density = 21.373055 Si / 1000 Ang^3
#
#
#
# Elastic Constant Matrix: (Units=GPa)
#
#
# Indices 1 2 3 4 5 6 
#
# 1 74.1983 31.9298 33.2694 0.0000 3.2190 0.0000
# 2 31.9298 116.0744 29.3813 0.0000 9.2923 0.0000
# 3 33.2694 29.3813 133.5325 0.0000 11.6605 0.0000
# 4 0.0000 0.0000 0.0000 12.2798 0.0000 2.1623
# 5 3.2190 9.2923 11.6605 0.0000 27.2585 0.0000
# 6 0.0000 0.0000 0.0000 2.1623 0.0000 22.4348
#
#
#
# Elastic Compliance Matrix: (Units=1/GPa)
#
#
# Indices 1 2 3 4 5 6 
#
# 1 0.016576 -0.003769 -0.003368 0.000000 0.000768 0.000000
# 2 -0.003769 0.010126 -0.001066 0.000000 -0.002551 0.000000
# 3 -0.003368 -0.001066 0.008826 0.000000 -0.003014 0.000000
# 4 0.000000 0.000000 0.000000 0.082841 0.000000 -0.007984
# 5 0.000768 -0.002551 -0.003014 0.000000 0.038754 0.000000
# 6 0.000000 0.000000 0.000000 -0.007984 0.000000 0.045343
#
#
# Mechanical properties :
#
#
# Convention : Reuss Voigt Hill
#
# Bulk Modulus (GPa) = 52.29544 56.99622 54.64583
# Shear Modulus (GPa) = 22.19807 27.67627 24.93717
#
# Velocity S-wave (km/s) = 3.22623 3.60240 3.41949
# Velocity P-wave (km/s) = 6.19670 6.63538 6.41979
#
# Compressibility (1/GPa) = 0.01912213
#
# Stress axis : x y z
#
# Youngs Moduli (GPa) = 60.32852 98.75595 113.30546
#
# Poissons Ratio (x) = 0.37218 0.38158
# Poissons Ratio (y) = 0.22736 0.12082
# Poissons Ratio (z) = 0.20317 0.10531
#
# Static dielectric constant tensor:
#      x y z
#    x 3.547250 0.000000 -0.105710 
#    y 0.000000 3.731380 0.000000 
#    z -0.105710 0.000000 4.315470 
# 
# 
# High freq. dielectric constant tensor:
#      x y z
#    x 1.816020 0.000000 0.000020 
#    y 0.000000 1.813340 0.000000 
#    z 0.000020 0.000000 1.856960 
# 
# From -- ./inp_files/209846.got.cif
#   From: 2010.06.25/outbox.cif.g09.slc.cpg/sg12_105_cif.got.tgz:209846.got - 2010.06.28 00:19:55.
