data_PCOD8093026
_publ_section_title
;
Structure prediction by ZEFSAII (Michael W. Deem and Ramdas Pophale) SiO2 
 PCOD8093026
Probable space group: C 2/M
;
_chemical_formula_sum "Si O2"
_cell_formula_units_Z 64
_cell_length_a 25.702854
_cell_length_b 9.496078
_cell_length_c 30.112821
_cell_angle_alpha 90.000000
_cell_angle_beta 27.861299
_cell_angle_gamma 90.000000
_cell_volume 3434.814524
_symmetry_space_group_name_H-M "C 2/M"
_symmetry_group_IT_number 12
_symmetry_cell_setting 'monoclinic'
loop_
_space_group_symop_operation_xyz
x,y,z
-x,y,-z
-x,-y,-z
x,-y,z
1/2+x,1/2+y,z
1/2-x,1/2+y,-z
1/2-x,1/2-y,-z
1/2+x,1/2-y,z
loop_
_atom_site_type_symbol
_atom_site_label
_atom_site_fract_x
_atom_site_fract_y
_atom_site_fract_z
Si Si1 0.250596 0.159686 0.109988
Si Si2 0.720396 0.165457 0.386243
Si Si3 0.423193 0.162560 0.271107
Si Si4 0.125377 0.665413 0.895208
Si Si5 0.461008 0.837727 0.727111
Si Si6 0.497874 0.833263 0.600371
Si Si7 0.349653 0.160415 0.944228
Si Si8 0.725056 0.834670 0.279259
O O1 0.301367 0.210924 0.117930
O O2 0.147115 0.255615 0.174493
O O3 0.207467 0.000000 0.146281
O O4 0.346048 0.171377 0.000404
O O5 0.820769 0.242632 0.334571
O O6 0.606346 0.225258 0.493418
O O7 0.717427 0.200988 0.336693
O O8 0.734317 0.000000 0.384306
O O9 0.442263 0.183066 0.309533
O O10 0.531378 0.216309 0.162397
O O11 0.397780 0.000000 0.278933
O O12 0.133300 0.500000 0.878899
O O13 0.169229 0.751541 0.819848
O O14 0.000000 0.710974 0.000000
O O15 0.501443 0.780568 0.648738
O O16 0.426007 0.000000 0.749602
O O17 0.386902 0.777091 0.659896
O O18 0.499136 0.000000 0.596315
O O19 0.333944 0.000000 0.939616
O O20 0.250000 0.250000 0.000000
O O21 0.741844 0.000000 0.258007
#
# Coordination Sequence:
#
# PCOD8093026 Si02
#       8
#     8   8   8   8   8   8   8   8
#     4  10  20  34  53  80 110 145 186 224 268 325
#     4  10  22  38  57  83 111 145 186 227 278 333
#     4  10  22  37  54  81 115 148 184 226 275 329
#     4  10  22  37  55  81 115 151 181 216 273 335
#     4  10  19  35  59  83 108 145 187 228 276 324
#     4   9  18  36  61  83 107 140 183 234 281 326
#     4  10  20  34  54  78 108 144 182 220 264 319
#     4  10  20  37  61  85 109 142 186 232 274 325
#
# _framework density 18.632736999999999
#
# number of rings (size 3 to 8) (size 9 to 14) (size 15 to 20)
#    0.000    2.125    2.500    0.375    1.750    3.750 
#    0.000    1.250    0.000    1.500    0.000    0.000 
#    0.000    0.000    0.000    0.000    0.000    0.000 
#
# Total GULP energy -396864.199103 kJ/mol
# GULP energy per Si atom -12402.006222 kJ/mol
# Density = 1.859033 g / cm^3
# Si number density = 18.632737 Si / 1000 Ang^3
#
#
#
# Elastic Constant Matrix: (Units=GPa)
#
#
# Indices 1 2 3 4 5 6 
#
# 1 111.2168 39.2178 61.8029 0.0205 6.2003 -0.0140
# 2 39.2178 44.4021 44.4953 0.0789 -3.1557 -0.0586
# 3 61.8029 44.4953 145.3309 0.0014 1.5156 -0.0036
# 4 0.0205 0.0789 0.0014 26.4176 -0.0340 -3.3111
# 5 6.2003 -3.1557 1.5156 -0.0340 32.7113 0.0191
# 6 -0.0140 -0.0586 -0.0036 -3.3111 0.0191 27.8901
#
#
#
# Elastic Compliance Matrix: (Units=1/GPa)
#
#
# Indices 1 2 3 4 5 6 
#
# 1 0.014369 -0.009891 -0.003045 0.000013 -0.003537 -0.000010
# 2 -0.009891 0.039727 -0.008020 -0.000095 0.006079 0.000062
# 3 -0.003045 -0.008020 0.010639 0.000023 -0.000689 -0.000014
# 4 0.000013 -0.000095 0.000023 0.038426 0.000025 0.004562
# 5 -0.003537 0.006079 -0.000689 0.000025 0.031859 -0.000008
# 6 -0.000010 0.000062 -0.000014 0.004562 -0.000008 0.036397
#
#
# Mechanical properties :
#
#
# Convention : Reuss Voigt Hill
#
# Bulk Modulus (GPa) = 43.81838 65.77575 54.79706
# Shear Modulus (GPa) = 22.63112 27.76605 25.19859
#
# Velocity S-wave (km/s) = 3.48888 3.86447 3.68146
# Velocity P-wave (km/s) = 6.30853 7.43572 6.89520
#
# Compressibility (1/GPa) = 0.02282147
#
# Stress axis : x y z
#
# Youngs Moduli (GPa) = 69.59659 25.17203 93.99753
#
# Poissons Ratio (x) = 0.24897 0.28625
# Poissons Ratio (y) = 0.68835 0.75388
# Poissons Ratio (z) = 0.21194 0.20189
#
# Static dielectric constant tensor:
#      x y z
#    x 3.532890 0.000000 0.190500 
#    y 0.000000 3.200440 0.000010 
#    z 0.190500 0.000010 3.542650 
# 
# 
# High freq. dielectric constant tensor:
#      x y z
#    x 1.732650 0.000000 0.011740 
#    y 0.000000 1.702060 0.000000 
#    z 0.011740 0.000000 1.726250 
# 
# From -- ./inp_files/382350.got.cif
#   From: 2010.06.25/outbox.cif.g09.slc.cpg/sg12_192_cif.got.tgz:382350.got - 2010.06.28 00:19:55.
