data_PCOD8093719
_publ_section_title
;
Structure prediction by ZEFSAII (Michael W. Deem and Ramdas Pophale) SiO2 
 PCOD8093719
Probable space group: C 2/M
;
_chemical_formula_sum "Si O2"
_cell_formula_units_Z 56
_cell_length_a 20.526134
_cell_length_b 9.044253
_cell_length_c 22.123996
_cell_angle_alpha 90.000000
_cell_angle_beta 48.223922
_cell_angle_gamma 90.000000
_cell_volume 3062.944697
_symmetry_space_group_name_H-M "C 2/M"
_symmetry_group_IT_number 12
_symmetry_cell_setting 'monoclinic'
loop_
_space_group_symop_operation_xyz
x,y,z
-x,y,-z
-x,-y,-z
x,-y,z
1/2+x,1/2+y,z
1/2-x,1/2+y,-z
1/2-x,1/2-y,-z
1/2+x,1/2-y,z
loop_
_atom_site_type_symbol
_atom_site_label
_atom_site_fract_x
_atom_site_fract_y
_atom_site_fract_z
Si Si1 0.805484 0.324378 0.269774
Si Si2 0.932415 0.329156 0.987827
Si Si3 0.998083 0.328066 0.598196
Si Si4 0.263491 0.175304 0.161676
Si Si5 0.858796 0.672624 0.584628
Si Si6 0.013159 0.173903 0.825177
Si Si7 0.573086 0.326423 0.246828
O O1 0.811994 0.500000 0.268116
O O2 0.786193 0.264098 0.214243
O O3 0.728988 0.268856 0.361286
O O4 0.895619 0.257399 0.236992
O O5 0.931643 0.500000 0.967419
O O6 0.958468 0.226506 0.916391
O O7 0.837600 0.274045 0.068706
O O8 0.000000 0.306956 0.000000
O O9 0.990478 0.500000 0.617009
O O10 0.090025 0.292588 0.509032
O O11 0.918757 0.278398 0.603941
O O12 0.994143 0.240917 0.663331
O O13 0.170463 0.238899 0.197201
O O14 0.262047 0.000000 0.165576
O O15 0.835606 0.500000 0.603297
O O16 0.956777 0.216611 0.801510
O O17 0.030403 0.000000 0.819176
O O18 0.573258 0.500000 0.256908
#
# Coordination Sequence:
#
# PCOD8093719 Si02
#       7
#     8   8   8   8   8   8   8
#     4  11  20  35  59  84 108 144 190 230 271 327
#     4  10  19  36  59  82 108 142 185 230 275 326
#     4   9  18  33  55  83 116 148 178 222 277 330
#     4   9  18  34  57  81 107 140 182 230 270 316
#     4   9  18  33  54  85 118 143 176 228 282 323
#     4  11  24  38  54  80 116 149 180 229 284 329
#     4  10  21  38  56  79 114 151 185 225 275 326
#
# _framework density 18.283061
#
# number of rings (size 3 to 8) (size 9 to 14) (size 15 to 20)
#    0.000    2.143    2.857    1.714    0.000    2.571 
#    0.000    2.857    0.000    0.000    0.000    0.000 
#    0.000    0.000    0.000    0.000    0.000    0.000 
#
# Total GULP energy -347252.177684 kJ/mol
# GULP energy per Si atom -12401.863489 kJ/mol
# Density = 1.824145 g / cm^3
# Si number density = 18.283061 Si / 1000 Ang^3
#
#
#
# Elastic Constant Matrix: (Units=GPa)
#
#
# Indices 1 2 3 4 5 6 
#
# 1 97.3905 43.8914 55.1263 0.0002 -11.0561 -0.0001
# 2 43.8914 54.5241 45.0556 0.0003 -0.2125 0.0003
# 3 55.1263 45.0556 128.8045 0.0001 -11.6101 -0.0002
# 4 0.0002 0.0003 0.0001 36.9745 -0.0001 -0.8706
# 5 -11.0561 -0.2125 -11.6101 -0.0001 27.9417 0.0002
# 6 -0.0001 0.0003 -0.0002 -0.8706 0.0002 23.6188
#
#
#
# Elastic Compliance Matrix: (Units=1/GPa)
#
#
# Indices 1 2 3 4 5 6 
#
# 1 0.018041 -0.012029 -0.002990 0.000000 0.005804 0.000000
# 2 -0.012029 0.034190 -0.007498 0.000000 -0.007615 0.000000
# 3 -0.002990 -0.007498 0.012004 0.000000 0.003748 0.000000
# 4 0.000000 0.000000 0.000000 0.027069 0.000000 0.000998
# 5 0.005804 -0.007615 0.003748 0.000000 0.039585 0.000000
# 6 0.000000 0.000000 0.000000 0.000998 0.000000 0.042376
#
#
# Mechanical properties :
#
#
# Convention : Reuss Voigt Hill
#
# Bulk Modulus (GPa) = 52.08187 63.20729 57.64458
# Shear Modulus (GPa) = 22.25211 26.81673 24.53442
#
# Velocity S-wave (km/s) = 3.49247 3.83398 3.66720
# Velocity P-wave (km/s) = 6.69413 7.36517 7.03765
#
# Compressibility (1/GPa) = 0.01920054
#
# Stress axis : x y z
#
# Youngs Moduli (GPa) = 55.43061 29.24864 83.30614
#
# Poissons Ratio (x) = 0.35183 0.24910
# Poissons Ratio (y) = 0.66677 0.62460
# Poissons Ratio (z) = 0.16575 0.21930
#
# Static dielectric constant tensor:
#      x y z
#    x 3.379040 0.000000 -0.133960 
#    y 0.000000 3.163190 0.000000 
#    z -0.133960 0.000000 3.487500 
# 
# 
# High freq. dielectric constant tensor:
#      x y z
#    x 1.696630 0.000000 -0.010090 
#    y 0.000000 1.693920 0.000000 
#    z -0.010090 0.000000 1.720630 
# 
# From -- ./inp_files/275493.got.cif
#   From: 2010.06.25/outbox.cif.g09.slc.cpg/sg12_138_cif.got.tgz:275493.got - 2010.06.28 00:19:55.
