data_PCOD8093746
_publ_section_title
;
Structure prediction by ZEFSAII (Michael W. Deem and Ramdas Pophale) SiO2 
 PCOD8093746
Probable space group: C 2/M
;
_chemical_formula_sum "Si O2"
_cell_formula_units_Z 56
_cell_length_a 16.843728
_cell_length_b 17.262489
_cell_length_c 14.057210
_cell_angle_alpha 90.000000
_cell_angle_beta 48.682806
_cell_angle_gamma 90.000000
_cell_volume 3069.862275
_symmetry_space_group_name_H-M "C 2/M"
_symmetry_group_IT_number 12
_symmetry_cell_setting 'monoclinic'
loop_
_space_group_symop_operation_xyz
x,y,z
-x,y,-z
-x,-y,-z
x,-y,z
1/2+x,1/2+y,z
1/2-x,1/2+y,-z
1/2-x,1/2-y,-z
1/2+x,1/2-y,z
loop_
_atom_site_type_symbol
_atom_site_label
_atom_site_fract_x
_atom_site_fract_y
_atom_site_fract_z
Si Si1 0.488998 0.792149 0.397197
Si Si2 0.670555 0.679904 0.549183
Si Si3 0.935621 0.163606 0.174223
Si Si4 0.175407 0.314476 0.105430
Si Si5 0.005606 0.657948 0.888332
Si Si6 0.855663 0.908617 0.049238
Si Si7 0.362069 0.911948 0.370520
O O1 0.500000 0.811354 0.500000
O O2 0.427506 0.709767 0.437154
O O3 0.599911 0.783888 0.251577
O O4 0.419761 0.860262 0.404996
O O5 0.750000 0.750000 0.500000
O O6 0.628498 0.646044 0.681018
O O7 0.738697 0.609962 0.451371
O O8 0.951753 0.254880 0.150451
O O9 0.865804 0.133115 0.142547
O O10 0.047448 0.119542 0.093015
O O11 0.245160 0.384664 0.090367
O O12 0.107831 0.348172 0.072055
O O13 0.250000 0.250000 0.000000
O O14 0.084794 0.600045 0.773536
O O15 0.000000 0.628602 0.000000
O O16 0.859606 0.000000 0.060033
O O17 0.371814 0.000000 0.396254
#
# Coordination Sequence:
#
# PCOD8093746 Si02
#       7
#     8   8   8   8   8   8   8
#     4  10  22  37  60  87 120 152 198 253 296 356
#     4  10  19  36  59  83 113 155 201 233 286 356
#     4  11  18  38  59  86 120 153 197 240 300 363
#     4  11  20  37  58  86 122 161 202 238 298 364
#     4  11  20  37  64  86 112 162 207 251 285 355
#     4  11  24  36  59  94 126 149 191 254 312 356
#     4  10  23  39  57  87 121 152 199 250 302 355
#
# _framework density 18.241861
#
# number of rings (size 3 to 8) (size 9 to 14) (size 15 to 20)
#    0.000    1.429    7.143    0.857    4.000    5.143 
#    0.000    0.000    0.000    0.429    0.000    0.000 
#    0.000    0.000    0.000    0.000    0.000    0.000 
#
# Total GULP energy -347103.632362 kJ/mol
# GULP energy per Si atom -12396.558299 kJ/mol
# Density = 1.820034 g / cm^3
# Si number density = 18.241861 Si / 1000 Ang^3
#
#
#
# Elastic Constant Matrix: (Units=GPa)
#
#
# Indices 1 2 3 4 5 6 
#
# 1 109.2119 36.3485 72.9565 0.0000 5.0215 0.0000
# 2 36.3485 94.0124 29.9297 0.0000 -8.9299 0.0000
# 3 72.9565 29.9297 120.1565 0.0000 -0.8407 0.0000
# 4 0.0000 0.0000 0.0000 21.4577 0.0000 -1.6764
# 5 5.0215 -8.9299 -0.8407 0.0000 26.3229 0.0000
# 6 0.0000 0.0000 0.0000 -1.6764 0.0000 19.0352
#
#
#
# Elastic Compliance Matrix: (Units=1/GPa)
#
#
# Indices 1 2 3 4 5 6 
#
# 1 0.016959 -0.004056 -0.009321 0.000000 -0.004909 0.000000
# 2 -0.004056 0.012922 -0.000720 0.000000 0.005134 0.000000
# 3 -0.009321 -0.000720 0.014175 0.000000 0.001987 0.000000
# 4 0.000000 0.000000 0.000000 0.046926 0.000000 0.004133
# 5 -0.004909 0.005134 0.001987 0.000000 0.040731 0.000000
# 6 0.000000 0.000000 0.000000 0.004133 0.000000 0.052898
#
#
# Mechanical properties :
#
#
# Convention : Reuss Voigt Hill
#
# Bulk Modulus (GPa) = 63.04384 66.87223 64.95804
# Shear Modulus (GPa) = 22.92593 25.63957 24.28275
#
# Velocity S-wave (km/s) = 3.54895 3.75311 3.65246
# Velocity P-wave (km/s) = 7.17136 7.45113 7.31259
#
# Compressibility (1/GPa) = 0.01586198
#
# Stress axis : x y z
#
# Youngs Moduli (GPa) = 58.96629 77.38763 70.54467
#
# Poissons Ratio (x) = 0.31386 0.65756
# Poissons Ratio (y) = 0.23915 0.05081
# Poissons Ratio (z) = 0.54964 0.05574
#
# Static dielectric constant tensor:
#      x y z
#    x 3.697410 0.000000 -0.185620 
#    y 0.000000 3.274350 0.000000 
#    z -0.185620 0.000000 3.185470 
# 
# 
# High freq. dielectric constant tensor:
#      x y z
#    x 1.700440 0.000000 -0.009310 
#    y 0.000000 1.687980 0.000000 
#    z -0.009310 0.000000 1.723120 
# 
# From -- ./inp_files/216297.got.cif
#   From: 2010.06.25/outbox.cif.g09.slc.cpg/sg12_109_cif.got.tgz:216297.got - 2010.06.28 00:19:55.
