data_PCOD8093046
_publ_section_title
;
Structure prediction by ZEFSAII (Michael W. Deem and Ramdas Pophale) SiO2 
 PCOD8093046
Probable space group: C 2/M
;
_chemical_formula_sum "Si O2"
_cell_formula_units_Z 48
_cell_length_a 11.804083
_cell_length_b 24.631231
_cell_length_c 8.462606
_cell_angle_alpha 90.000000
_cell_angle_beta 105.608548
_cell_angle_gamma 90.000000
_cell_volume 2369.757973
_symmetry_space_group_name_H-M "C 2/M"
_symmetry_group_IT_number 12
_symmetry_cell_setting 'monoclinic'
loop_
_space_group_symop_operation_xyz
x,y,z
-x,y,-z
-x,-y,-z
x,-y,z
1/2+x,1/2+y,z
1/2-x,1/2+y,-z
1/2-x,1/2-y,-z
1/2+x,1/2-y,z
loop_
_atom_site_type_symbol
_atom_site_label
_atom_site_fract_x
_atom_site_fract_y
_atom_site_fract_z
Si Si1 0.319399 0.500000 0.326740
Si Si2 0.369496 0.695232 0.929167
Si Si3 0.811175 0.313097 0.878393
Si Si4 0.229607 0.908270 0.258067
Si Si5 0.066527 0.000000 0.287628
Si Si6 0.674884 0.899920 0.357640
Si Si7 0.564491 0.094810 0.880869
O O1 0.423918 0.500000 0.233888
O O2 0.383154 0.500000 0.518353
O O3 0.236634 0.447424 0.277126
O O4 0.369513 0.755501 0.854361
O O5 0.303499 0.653574 0.789389
O O6 0.500000 0.673338 0.000000
O O7 0.311496 0.697623 0.080085
O O8 0.780472 0.343827 0.703303
O O9 0.897889 0.347967 0.023778
O O10 0.115166 0.946712 0.215545
O O11 0.293642 0.907378 0.449539
O O12 0.320897 0.931518 0.159198
O O13 0.533151 0.899307 0.292459
O O14 0.500000 0.060869 0.000000
#
# Coordination Sequence:
#
# PCOD8093046 Si02
#       7
#     4   8   8   8   4   8   8
#     4   9  20  35  57  79 114 158 182 222 297 332
#     4  10  20  36  56  79 112 152 189 224 285 345
#     4   9  20  37  56  80 113 151 183 229 288 336
#     4  10  21  35  58  85 109 147 192 237 274 333
#     4   9  20  39  52  78 121 149 182 237 282 335
#     4  10  19  35  59  84 110 145 194 234 279 328
#     4   9  18  36  58  79 113 146 179 225 288 340
#
# _framework density 20.255234000000002
#
# number of rings (size 3 to 8) (size 9 to 14) (size 15 to 20)
#    0.000    2.500    0.000    2.000    2.333    1.333 
#    0.000   14.583    0.000    0.000    0.000    0.000 
#    0.000    0.000    0.000    0.000    0.000    0.000 
#
# Total GULP energy -297380.744005 kJ/mol
# GULP energy per Si atom -12390.864334 kJ/mol
# Density = 2.020913 g / cm^3
# Si number density = 20.255234 Si / 1000 Ang^3
#
#
#
# Elastic Constant Matrix: (Units=GPa)
#
#
# Indices 1 2 3 4 5 6 
#
# 1 142.4814 36.2735 30.3394 0.0000 -13.2789 0.0000
# 2 36.2735 94.3482 19.6285 0.0000 -11.4234 0.0000
# 3 30.3394 19.6285 59.7190 0.0000 -10.2648 0.0000
# 4 0.0000 0.0000 0.0000 23.2348 0.0000 -7.6035
# 5 -13.2789 -11.4234 -10.2648 0.0000 28.7460 0.0000
# 6 0.0000 0.0000 0.0000 -7.6035 0.0000 21.2284
#
#
#
# Elastic Compliance Matrix: (Units=1/GPa)
#
#
# Indices 1 2 3 4 5 6 
#
# 1 0.008476 -0.002369 -0.003214 0.000000 0.001826 0.000000
# 2 -0.002369 0.012359 -0.002346 0.000000 0.002979 0.000000
# 3 -0.003214 -0.002346 0.019958 0.000000 0.004710 0.000000
# 4 0.000000 0.000000 0.000000 0.048753 0.000000 0.017462
# 5 0.001826 0.002979 0.004710 0.000000 0.038497 0.000000
# 6 0.000000 0.000000 0.000000 0.017462 0.000000 0.053361
#
#
# Mechanical properties :
#
#
# Convention : Reuss Voigt Hill
#
# Bulk Modulus (GPa) = 40.10401 52.11459 46.10930
# Shear Modulus (GPa) = 24.32205 28.66231 26.49218
#
# Velocity S-wave (km/s) = 3.46898 3.76581 3.62044
# Velocity P-wave (km/s) = 5.99061 6.68530 6.34747
#
# Compressibility (1/GPa) = 0.02493516
#
# Stress axis : x y z
#
# Youngs Moduli (GPa) = 117.97901 80.91461 50.10399
#
# Poissons Ratio (x) = 0.19169 0.16101
# Poissons Ratio (y) = 0.27950 0.11757
# Poissons Ratio (z) = 0.37913 0.18986
#
# Static dielectric constant tensor:
#      x y z
#    x 4.112530 0.000000 -0.168500 
#    y 0.000000 3.628390 0.000000 
#    z -0.168500 0.000000 3.400040 
# 
# 
# High freq. dielectric constant tensor:
#      x y z
#    x 1.811080 0.000000 -0.004350 
#    y 0.000000 1.780950 0.000000 
#    z -0.004350 0.000000 1.767650 
# 
# From -- ./inp_files/51508.got.cif
#   From: 2010.06.25/outbox.cif.g09.slc.cpg/sg12_26_cif.got.tgz:51508.got - 2010.06.28 00:19:55.
