data_PCOD8093980
_publ_section_title
;
Structure prediction by ZEFSAII (Michael W. Deem and Ramdas Pophale) SiO2 
 PCOD8093980
Probable space group: C 2/M
;
_chemical_formula_sum "Si O2"
_cell_formula_units_Z 56
_cell_length_a 14.654104
_cell_length_b 14.269875
_cell_length_c 26.967555
_cell_angle_alpha 90.000000
_cell_angle_beta 151.142092
_cell_angle_gamma 90.000000
_cell_volume 2721.720423
_symmetry_space_group_name_H-M "C 2/M"
_symmetry_group_IT_number 12
_symmetry_cell_setting 'monoclinic'
loop_
_space_group_symop_operation_xyz
x,y,z
-x,y,-z
-x,-y,-z
x,-y,z
1/2+x,1/2+y,z
1/2-x,1/2+y,-z
1/2-x,1/2-y,-z
1/2+x,1/2-y,z
loop_
_atom_site_type_symbol
_atom_site_label
_atom_site_fract_x
_atom_site_fract_y
_atom_site_fract_z
Si Si1 0.233131 0.607298 0.236400
Si Si2 0.184229 0.249569 0.052238
Si Si3 0.493763 0.603691 0.444446
Si Si4 0.827015 0.394265 0.449080
Si Si5 0.699806 0.891480 0.973100
Si Si6 0.553742 0.725661 0.735678
Si Si7 0.353993 0.842314 0.567413
O O1 0.296478 0.500000 0.258671
O O2 0.357379 0.654617 0.339720
O O3 0.280996 0.660755 0.208464
O O4 0.015886 0.615842 0.147457
O O5 0.174651 0.162712 0.008535
O O6 0.371161 0.240146 0.175353
O O7 0.210661 0.344839 0.032852
O O8 0.000000 0.249877 0.000000
O O9 0.500000 0.659005 0.500000
O O10 0.408445 0.500000 0.412992
O O11 0.705806 0.593748 0.526019
O O12 0.774410 0.500000 0.407900
O O13 0.643362 0.329970 0.353571
O O14 0.911909 0.396710 0.545388
O O15 0.000000 0.352999 0.500000
O O16 0.766119 0.000000 0.008336
O O17 0.525719 0.815995 0.686284
O O18 0.250000 0.750000 0.500000
#
# Coordination Sequence:
#
# PCOD8093980 Si02
#       7
#     8   8   8   8   8   8   8
#     4  10  19  36  61  87 117 156 208 265 314 369
#     4  11  24  45  68  97 130 166 217 271 327 392
#     4  10  20  33  53  81 115 153 196 245 297 358
#     4  10  21  38  57  83 123 168 209 250 302 369
#     4  10  24  44  68  97 128 165 213 271 330 390
#     4  11  22  37  60  89 119 163 205 261 315 372
#     4  10  20  33  50  79 113 151 193 237 295 354
#
# _framework density 20.575220999999999
#
# number of rings (size 3 to 8) (size 9 to 14) (size 15 to 20)
#    0.000    1.714    4.286    0.857    2.000    5.143 
#    0.000    0.714    0.000    0.000    0.000    0.000 
#    0.000    0.000    0.000    0.000    0.000    0.000 
#
# Total GULP energy -347018.450293 kJ/mol
# GULP energy per Si atom -12393.516082 kJ/mol
# Density = 2.052839 g / cm^3
# Si number density = 20.575221 Si / 1000 Ang^3
#
#
#
# Elastic Constant Matrix: (Units=GPa)
#
#
# Indices 1 2 3 4 5 6 
#
# 1 144.0076 26.8759 37.4988 0.0001 -9.1450 -0.0002
# 2 26.8759 74.3208 23.2590 -0.0002 -4.2646 -0.0002
# 3 37.4988 23.2590 97.4601 0.0006 -20.6018 -0.0004
# 4 0.0001 -0.0002 0.0006 28.9358 0.0000 2.4329
# 5 -9.1450 -4.2646 -20.6018 0.0000 33.2567 -0.0001
# 6 -0.0002 -0.0002 -0.0004 2.4329 -0.0001 23.7616
#
#
#
# Elastic Compliance Matrix: (Units=1/GPa)
#
#
# Indices 1 2 3 4 5 6 
#
# 1 0.008010 -0.002092 -0.002501 0.000000 0.000385 0.000000
# 2 -0.002092 0.015091 -0.002887 0.000000 -0.000429 0.000000
# 3 -0.002501 -0.002887 0.013450 0.000000 0.007274 0.000000
# 4 0.000000 0.000000 0.000000 0.034859 0.000000 -0.003569
# 5 0.000385 -0.000429 0.007274 0.000000 0.034626 0.000000
# 6 0.000000 0.000000 0.000000 -0.003569 0.000000 0.042450
#
#
# Mechanical properties :
#
#
# Convention : Reuss Voigt Hill
#
# Bulk Modulus (GPa) = 46.31840 54.56178 50.44009
# Shear Modulus (GPa) = 29.30089 32.40113 30.85101
#
# Velocity S-wave (km/s) = 3.77780 3.97264 3.87644
# Velocity P-wave (km/s) = 6.44900 6.90060 6.67862
#
# Compressibility (1/GPa) = 0.02158969
#
# Stress axis : x y z
#
# Youngs Moduli (GPa) = 124.83976 66.26656 74.35117
#
# Poissons Ratio (x) = 0.13861 0.18599
# Poissons Ratio (y) = 0.26113 0.21467
# Poissons Ratio (z) = 0.31229 0.19132
#
# Static dielectric constant tensor:
#      x y z
#    x 4.115630 0.000000 -0.315360 
#    y 0.000000 3.659450 0.000000 
#    z -0.315360 0.000000 3.798860 
# 
# 
# High freq. dielectric constant tensor:
#      x y z
#    x 1.812230 0.000000 -0.012870 
#    y 0.000000 1.792370 0.000000 
#    z -0.012870 0.000000 1.789960 
# 
# From -- ./inp_files/361459.got.cif
#   From: 2010.06.25/outbox.cif.g09.slc.cpg/sg12_181_cif.got.tgz:361459.got - 2010.06.28 00:19:55.
