data_PCOD8093677
_publ_section_title
;
Structure prediction by ZEFSAII (Michael W. Deem and Ramdas Pophale) SiO2 
 PCOD8093677
Probable space group: C 2/M
;
_chemical_formula_sum "Si O2"
_cell_formula_units_Z 40
_cell_length_a 8.430611
_cell_length_b 17.370914
_cell_length_c 12.536884
_cell_angle_alpha 90.000000
_cell_angle_beta 101.164347
_cell_angle_gamma 90.000000
_cell_volume 1801.249632
_symmetry_space_group_name_H-M "C 2/M"
_symmetry_group_IT_number 12
_symmetry_cell_setting 'monoclinic'
loop_
_space_group_symop_operation_xyz
x,y,z
-x,y,-z
-x,-y,-z
x,-y,z
1/2+x,1/2+y,z
1/2-x,1/2+y,-z
1/2-x,1/2-y,-z
1/2+x,1/2-y,z
loop_
_atom_site_type_symbol
_atom_site_label
_atom_site_fract_x
_atom_site_fract_y
_atom_site_fract_z
Si Si1 0.829828 0.412334 0.029053
Si Si2 0.873423 0.168590 0.162863
Si Si3 0.745068 0.166851 0.778794
Si Si4 0.627875 0.411491 0.634070
Si Si5 0.208655 0.834276 0.451048
O O1 0.781538 0.500000 0.999934
O O2 0.835276 0.398466 0.157353
O O3 0.697667 0.355417 0.960530
O O4 0.000000 0.390819 0.000000
O O5 0.821966 0.252874 0.189399
O O6 0.799387 0.108258 0.240707
O O7 0.064401 0.163016 0.180466
O O8 0.695456 0.152466 0.647965
O O9 0.570718 0.500000 0.621519
O O10 0.754574 0.393559 0.553657
O O11 0.480071 0.350853 0.599618
O O12 0.250000 0.750000 0.500000
#
# Coordination Sequence:
#
# PCOD8093677 Si02
#       5
#     8   8   8   8   8
#     4  11  25  44  64  90 130 170 212 271 335 388
#     4  11  22  40  65  95 128 168 218 267 321 396
#     4  11  23  38  65  94 126 169 216 267 320 389
#     4  10  21  37  62  94 129 168 216 273 327 382
#     4  10  19  36  58  91 127 165 211 265 320 384
#
# _framework density 22.206807000000001
#
# number of rings (size 3 to 8) (size 9 to 14) (size 15 to 20)
#    0.000    1.400    2.000    4.200    0.000    5.600 
#    0.000    0.000    0.000    0.000    0.000   16.800 
#    0.000    0.000    0.000    0.000    0.000    0.000 
#
# Total GULP energy -247830.042159 kJ/mol
# GULP energy per Si atom -12391.502108 kJ/mol
# Density = 2.215626 g / cm^3
# Si number density = 22.206807 Si / 1000 Ang^3
#
#
#
# Elastic Constant Matrix: (Units=GPa)
#
#
# Indices 1 2 3 4 5 6 
#
# 1 58.6024 30.5730 27.9398 0.0000 -17.9160 0.0000
# 2 30.5730 91.6193 24.8525 0.0000 -5.0127 0.0000
# 3 27.9398 24.8525 142.2988 0.0000 -35.6218 0.0000
# 4 0.0000 0.0000 0.0000 35.8722 0.0000 -8.7471
# 5 -17.9160 -5.0127 -35.6218 0.0000 29.2748 0.0000
# 6 0.0000 0.0000 0.0000 -8.7471 0.0000 22.6760
#
#
#
# Elastic Compliance Matrix: (Units=1/GPa)
#
#
# Indices 1 2 3 4 5 6 
#
# 1 0.025445 -0.007686 -0.000122 0.000000 0.014108 0.000000
# 2 -0.007686 0.013789 -0.002136 0.000000 -0.004942 0.000000
# 3 -0.000122 -0.002136 0.010518 0.000000 0.012358 0.000000
# 4 0.000000 0.000000 0.000000 0.030771 0.000000 0.011870
# 5 0.014108 -0.004942 0.012358 0.000000 0.056984 0.000000
# 6 0.000000 0.000000 0.000000 0.011870 0.000000 0.048678
#
#
# Mechanical properties :
#
#
# Convention : Reuss Voigt Hill
#
# Bulk Modulus (GPa) = 33.48601 51.02790 42.25696
# Shear Modulus (GPa) = 23.14513 31.50828 27.32670
#
# Velocity S-wave (km/s) = 3.23190 3.77086 3.51173
# Velocity P-wave (km/s) = 5.38876 6.47978 5.95929
#
# Compressibility (1/GPa) = 0.02986322
#
# Stress axis : x y z
#
# Youngs Moduli (GPa) = 39.30024 72.52375 95.07384
#
# Poissons Ratio (x) = 0.55741 0.01161
# Poissons Ratio (y) = 0.30206 0.20310
# Poissons Ratio (z) = 0.00480 0.15493
#
# Static dielectric constant tensor:
#      x y z
#    x 3.709300 0.000000 -0.374050 
#    y 0.000000 3.831430 0.000000 
#    z -0.374050 0.000000 5.186510 
# 
# 
# High freq. dielectric constant tensor:
#      x y z
#    x 1.837940 0.000000 -0.016820 
#    y 0.000000 1.867010 0.000000 
#    z -0.016820 0.000000 1.911840 
# 
# From -- ./inp_files/119046.got.cif
#   From: 2010.06.25/outbox.cif.g09.slc.cpg/sg12_60_cif.got.tgz:119046.got - 2010.06.28 00:19:55.
