data_PCOD8093718
_publ_section_title
;
Structure prediction by ZEFSAII (Michael W. Deem and Ramdas Pophale) SiO2 
 PCOD8093718
Probable space group: C 2/M
;
_chemical_formula_sum "Si O2"
_cell_formula_units_Z 48
_cell_length_a 9.320666
_cell_length_b 18.643298
_cell_length_c 29.815621
_cell_angle_alpha 90.000000
_cell_angle_beta 150.807617
_cell_angle_gamma 90.000000
_cell_volume 2526.999361
_symmetry_space_group_name_H-M "C 2/M"
_symmetry_group_IT_number 12
_symmetry_cell_setting 'monoclinic'
loop_
_space_group_symop_operation_xyz
x,y,z
-x,y,-z
-x,-y,-z
x,-y,z
1/2+x,1/2+y,z
1/2-x,1/2+y,-z
1/2-x,1/2-y,-z
1/2+x,1/2-y,z
loop_
_atom_site_type_symbol
_atom_site_label
_atom_site_fract_x
_atom_site_fract_y
_atom_site_fract_z
Si Si1 0.663057 0.322726 0.407633
Si Si2 0.326632 0.082244 0.766447
Si Si3 0.314225 0.329584 0.065155
Si Si4 0.821404 0.822744 0.407716
Si Si5 0.317104 0.169448 0.066069
Si Si6 0.841818 0.417965 0.234163
O O1 0.479610 0.382665 0.331663
O O2 0.651792 0.249893 0.375392
O O3 0.536175 0.310057 0.423420
O O4 0.000000 0.349829 0.500000
O O5 0.454253 0.120878 0.844800
O O6 0.562298 0.089918 0.791173
O O7 0.263119 0.000000 0.761004
O O8 0.455551 0.249653 0.098726
O O9 0.530226 0.378006 0.154144
O O10 0.247702 0.366707 0.999437
O O11 0.000000 0.321927 0.000000
O O12 0.581583 0.883049 0.332074
O O13 0.000000 0.849890 0.500000
O O14 0.000000 0.174956 0.000000
O O15 0.805420 0.500000 0.238984
#
# Coordination Sequence:
#
# PCOD8093718 Si02
#       6
#     8   8   8   8   8   8
#     4  10  20  37  60  85 112 141 180 231 275 320
#     4  10  21  36  57  83 110 147 188 223 269 328
#     4  10  21  36  56  83 113 142 184 233 276 319
#     4  10  20  37  61  85 108 143 185 227 272 325
#     4  10  19  36  59  82 106 145 189 227 270 323
#     4  10  21  37  56  80 114 150 181 222 276 331
#
# _framework density 18.994859000000002
#
# number of rings (size 3 to 8) (size 9 to 14) (size 15 to 20)
#    0.000    2.000    1.667    3.000    0.000    2.000 
#    6.000    0.000    0.000    0.000    0.000    0.000 
#    0.000    0.000    0.000    0.000    0.000    0.000 
#
# Total GULP energy -297497.770220 kJ/mol
# GULP energy per Si atom -12395.740426 kJ/mol
# Density = 1.895163 g / cm^3
# Si number density = 18.994859 Si / 1000 Ang^3
#
#
#
# Elastic Constant Matrix: (Units=GPa)
#
#
# Indices 1 2 3 4 5 6 
#
# 1 84.3055 31.1045 38.5181 -0.0035 -13.2671 -0.0008
# 2 31.1045 130.6976 89.2993 -0.0088 -10.3400 -0.0040
# 3 38.5181 89.2993 130.1794 0.0243 -12.5927 -0.0060
# 4 -0.0035 -0.0088 0.0243 18.6199 -0.0028 1.3578
# 5 -13.2671 -10.3400 -12.5927 -0.0028 31.3445 0.0014
# 6 -0.0008 -0.0040 -0.0060 1.3578 0.0014 21.3970
#
#
#
# Elastic Compliance Matrix: (Units=1/GPa)
#
#
# Indices 1 2 3 4 5 6 
#
# 1 0.014360 -0.000858 -0.003225 0.000007 0.004499 -0.000001
# 2 -0.000858 0.014472 -0.009621 0.000019 0.000546 -0.000001
# 3 -0.003225 -0.009621 0.015395 -0.000025 0.001646 0.000004
# 4 0.000007 0.000019 -0.000025 0.053956 0.000004 -0.003424
# 5 0.004499 0.000546 0.001646 0.000004 0.034649 -0.000002
# 6 -0.000001 -0.000001 0.000004 -0.003424 -0.000002 0.046953
#
#
# Mechanical properties :
#
#
# Convention : Reuss Voigt Hill
#
# Bulk Modulus (GPa) = 59.45672 73.66959 66.56316
# Shear Modulus (GPa) = 23.49646 26.68965 25.09306
#
# Velocity S-wave (km/s) = 3.52090 3.75253 3.63856
# Velocity P-wave (km/s) = 6.92087 7.59233 7.26436
#
# Compressibility (1/GPa) = 0.01681896
#
# Stress axis : x y z
#
# Youngs Moduli (GPa) = 69.63931 69.09913 64.95741
#
# Poissons Ratio (x) = 0.05928 0.20949
# Poissons Ratio (y) = 0.05975 0.62494
# Poissons Ratio (z) = 0.22459 0.66478
#
# Static dielectric constant tensor:
#      x y z
#    x 3.395360 0.000000 -0.048120 
#    y 0.000000 3.460900 -0.000010 
#    z -0.048120 -0.000010 3.455260 
# 
# 
# High freq. dielectric constant tensor:
#      x y z
#    x 1.732720 0.000000 -0.005030 
#    y 0.000000 1.729820 0.000000 
#    z -0.005030 0.000000 1.748460 
# 
# From -- ./inp_files/197198.got.cif
#   From: 2010.06.25/outbox.cif.g09.slc.cpg/sg12_99_cif.got.tgz:197198.got - 2010.06.28 00:19:55.
