data_PCOD8093605
_publ_section_title
;
Structure prediction by ZEFSAII (Michael W. Deem and Ramdas Pophale) SiO2 
 PCOD8093605
Probable space group: C 2/M
;
_chemical_formula_sum "Si O2"
_cell_formula_units_Z 64
_cell_length_a 14.578036
_cell_length_b 8.951379
_cell_length_c 29.599086
_cell_angle_alpha 90.000000
_cell_angle_beta 60.358881
_cell_angle_gamma 90.000000
_cell_volume 3357.044616
_symmetry_space_group_name_H-M "C 2/M"
_symmetry_group_IT_number 12
_symmetry_cell_setting 'monoclinic'
loop_
_space_group_symop_operation_xyz
x,y,z
-x,y,-z
-x,-y,-z
x,-y,z
1/2+x,1/2+y,z
1/2-x,1/2+y,-z
1/2-x,1/2-y,-z
1/2+x,1/2-y,z
loop_
_atom_site_type_symbol
_atom_site_label
_atom_site_fract_x
_atom_site_fract_y
_atom_site_fract_z
Si Si1 0.410733 0.822650 0.311595
Si Si2 0.333993 0.323792 0.244253
Si Si3 0.085602 0.676884 0.943994
Si Si4 0.099431 0.327108 0.506480
Si Si5 0.020496 0.328548 0.861339
Si Si6 0.334587 0.327121 0.420113
Si Si7 0.358600 0.176550 0.769674
Si Si8 0.705283 0.829011 0.117244
O O1 0.332922 0.753675 0.293253
O O2 0.376521 0.769870 0.368875
O O3 0.527939 0.760360 0.272625
O O4 0.404869 0.000000 0.310820
O O5 0.341590 0.500000 0.248625
O O6 0.431814 0.269682 0.190329
O O7 0.225370 0.274004 0.247300
O O8 0.086427 0.500000 0.946081
O O9 0.200383 0.738213 0.929068
O O10 0.058224 0.733457 0.900330
O O11 0.000000 0.741534 0.000000
O O12 0.086337 0.500000 0.523715
O O13 0.208654 0.302064 0.453165
O O14 0.103659 0.227653 0.550409
O O15 0.000000 0.275735 0.500000
O O16 0.055144 0.500000 0.845049
O O17 0.894383 0.314292 0.891387
O O18 0.361788 0.500000 0.406019
O O19 0.323146 0.241441 0.826821
O O20 0.366848 0.000000 0.772341
O O21 0.741306 0.000000 0.114003
#
# Coordination Sequence:
#
# PCOD8093605 Si02
#       8
#     8   8   8   8   8   8   8   8
#     4  11  22  39  58  80 116 156 188 223 280 342
#     4  11  21  35  56  82 108 139 184 233 274 320
#     4  10  22  38  55  81 114 143 178 231 286 330
#     4   9  19  38  63  85 112 156 198 230 282 344
#     4  10  20  36  57  78 107 145 180 219 276 340
#     4  10  21  37  57  87 120 147 189 244 282 322
#     4   9  19  35  55  78 107 144 183 223 270 332
#     4  10  19  36  58  79 104 141 186 222 267 333
#
# _framework density 19.064388000000001
#
# number of rings (size 3 to 8) (size 9 to 14) (size 15 to 20)
#    0.000    2.000    2.500    1.125    0.000    3.000 
#    0.000    7.500    0.000    0.000    0.000    0.000 
#    0.000    0.000    0.000    0.000    0.000    0.000 
#
# Total GULP energy -396887.429928 kJ/mol
# GULP energy per Si atom -12402.732185 kJ/mol
# Density = 1.902100 g / cm^3
# Si number density = 19.064388 Si / 1000 Ang^3
#
#
#
# Elastic Constant Matrix: (Units=GPa)
#
#
# Indices 1 2 3 4 5 6 
#
# 1 95.8027 24.4022 15.2577 0.0000 -0.0960 0.0000
# 2 24.4022 48.6066 19.5677 0.0000 2.1560 0.0000
# 3 15.2577 19.5677 69.7192 0.0000 -2.2456 0.0000
# 4 0.0000 0.0000 0.0000 29.7213 0.0000 -0.8879
# 5 -0.0960 2.1560 -2.2456 0.0000 24.3485 0.0000
# 6 0.0000 0.0000 0.0000 -0.8879 0.0000 28.2022
#
#
#
# Elastic Compliance Matrix: (Units=1/GPa)
#
#
# Indices 1 2 3 4 5 6 
#
# 1 0.012042 -0.005649 -0.001035 0.000000 0.000452 0.000000
# 2 -0.005649 0.026017 -0.006159 0.000000 -0.002894 0.000000
# 3 -0.001035 -0.006159 0.016365 0.000000 0.002051 0.000000
# 4 0.000000 0.000000 0.000000 0.033678 0.000000 0.001060
# 5 0.000452 -0.002894 0.002051 0.000000 0.041517 0.000000
# 6 0.000000 0.000000 0.000000 0.001060 0.000000 0.035492
#
#
# Mechanical properties :
#
#
# Convention : Reuss Voigt Hill
#
# Bulk Modulus (GPa) = 34.79805 36.95376 35.87591
# Shear Modulus (GPa) = 24.95306 26.78113 25.86710
#
# Velocity S-wave (km/s) = 3.62177 3.75210 3.68751
# Velocity P-wave (km/s) = 5.98182 6.18035 6.08190
#
# Compressibility (1/GPa) = 0.02873724
#
# Stress axis : x y z
#
# Youngs Moduli (GPa) = 83.04054 38.43627 61.10785
#
# Poissons Ratio (x) = 0.21712 0.06327
# Poissons Ratio (y) = 0.46909 0.37637
# Poissons Ratio (z) = 0.08598 0.23673
#
# Static dielectric constant tensor:
#      x y z
#    x 3.630070 0.000000 -0.000800 
#    y 0.000000 3.331160 0.000000 
#    z -0.000800 0.000000 3.464270 
# 
# 
# High freq. dielectric constant tensor:
#      x y z
#    x 1.751440 0.000000 0.001560 
#    y 0.000000 1.727900 0.000000 
#    z 0.001560 0.000000 1.737270 
# 
# From -- ./inp_files/374986.got.cif
#   From: 2010.06.25/outbox.cif.g09.slc.cpg/sg12_188_cif.got.tgz:374986.got - 2010.06.28 00:19:55.
