data_PCOD8093921
_publ_section_title
;
Structure prediction by ZEFSAII (Michael W. Deem and Ramdas Pophale) SiO2 
 PCOD8093921
Probable space group: C 2/M
;
_chemical_formula_sum "Si O2"
_cell_formula_units_Z 48
_cell_length_a 11.892615
_cell_length_b 26.811723
_cell_length_c 14.487740
_cell_angle_alpha 90.000000
_cell_angle_beta 150.649192
_cell_angle_gamma 90.000000
_cell_volume 2264.314144
_symmetry_space_group_name_H-M "C 2/M"
_symmetry_group_IT_number 12
_symmetry_cell_setting 'monoclinic'
loop_
_space_group_symop_operation_xyz
x,y,z
-x,y,-z
-x,-y,-z
x,-y,z
1/2+x,1/2+y,z
1/2-x,1/2+y,-z
1/2-x,1/2-y,-z
1/2+x,1/2-y,z
loop_
_atom_site_type_symbol
_atom_site_label
_atom_site_fract_x
_atom_site_fract_y
_atom_site_fract_z
Si Si1 0.413908 0.500000 0.712263
Si Si2 0.243541 0.000000 0.793430
Si Si3 0.607449 0.267630 0.810052
Si Si4 0.316245 0.000000 0.283376
Si Si5 0.587931 0.918819 0.400352
Si Si6 0.753232 0.901015 0.315315
Si Si7 0.886507 0.308852 0.514707
Si Si8 0.000000 0.669016 0.000000
O O1 0.655293 0.500000 0.835519
O O2 0.428200 0.500000 0.836185
O O3 0.293382 0.449617 0.591789
O O4 0.176631 0.951007 0.689136
O O5 0.500000 0.000000 0.000000
O O6 0.388106 0.300388 0.684035
O O7 0.510058 0.220258 0.685827
O O8 0.778989 0.298519 0.868133
O O9 0.750000 0.250000 0.000000
O O10 0.500000 0.000000 0.500000
O O11 0.352358 0.950326 0.247649
O O12 0.632512 0.913302 0.324503
O O13 0.564188 0.866660 0.434574
O O14 0.000000 0.872679 0.500000
O O15 0.570747 0.865939 0.135076
O O16 0.000000 0.291438 0.500000
#
# Coordination Sequence:
#
# PCOD8093921 Si02
#       8
#     4   4   8   4   8   8   8   4
#     4  10  19  36  60  90 132 162 206 260 309 378
#     4  12  23  38  60  96 132 171 214 262 319 386
#     4  11  25  44  64  91 131 168 217 281 334 391
#     4   8  17  33  58  92 123 163 202 255 308 371
#     4  10  19  36  63  92 124 164 211 258 316 385
#     4  12  23  40  64  94 134 174 214 266 328 389
#     4  11  23  41  68  96 123 171 223 268 332 401
#     4  12  26  43  64  98 128 169 218 274 332 388
#
# _framework density 21.198471999999999
#
# number of rings (size 3 to 8) (size 9 to 14) (size 15 to 20)
#    0.000    1.333    2.500    5.750    0.000    3.333 
#    0.000    0.000    0.000    4.000    0.000    0.000 
#    0.000    1.333    0.000    0.000    0.000    0.000 
#
# Total GULP energy -297497.244954 kJ/mol
# GULP energy per Si atom -12395.718540 kJ/mol
# Density = 2.115022 g / cm^3
# Si number density = 21.198472 Si / 1000 Ang^3
#
#
#
# Elastic Constant Matrix: (Units=GPa)
#
#
# Indices 1 2 3 4 5 6 
#
# 1 188.0626 38.0908 49.6203 -0.0001 8.4513 0.0001
# 2 38.0908 120.0796 39.7378 0.0000 1.5111 0.0000
# 3 49.6203 39.7378 102.7211 -0.0005 10.9363 0.0003
# 4 -0.0001 0.0000 -0.0005 47.3653 -0.0003 -23.9126
# 5 8.4513 1.5111 10.9363 -0.0003 32.1366 0.0001
# 6 0.0001 0.0000 0.0003 -23.9126 0.0001 33.8958
#
#
#
# Elastic Compliance Matrix: (Units=1/GPa)
#
#
# Indices 1 2 3 4 5 6 
#
# 1 0.006240 -0.001145 -0.002493 0.000000 -0.000739 0.000000
# 2 -0.001145 0.009782 -0.003335 0.000000 0.000976 0.000000
# 3 -0.002493 -0.003335 0.012599 0.000000 -0.003475 0.000000
# 4 0.000000 0.000000 0.000000 0.032792 0.000000 0.023134
# 5 -0.000739 0.000976 -0.003475 0.000000 0.032448 0.000000
# 6 0.000000 0.000000 0.000000 0.023134 0.000000 0.045822
#
#
# Mechanical properties :
#
#
# Convention : Reuss Voigt Hill
#
# Bulk Modulus (GPa) = 68.13811 73.97347 71.05579
# Shear Modulus (GPa) = 31.54131 41.57383 36.55757
#
# Velocity S-wave (km/s) = 3.86152 4.43332 4.15726
# Velocity P-wave (km/s) = 7.21765 7.82158 7.52568
#
# Compressibility (1/GPa) = 0.01467607
#
# Stress axis : x y z
#
# Youngs Moduli (GPa) = 160.24999 102.22342 79.36890
#
# Poissons Ratio (x) = 0.11708 0.19784
# Poissons Ratio (y) = 0.18353 0.26470
# Poissons Ratio (z) = 0.39945 0.34092
#
# Static dielectric constant tensor:
#      x y z
#    x 4.417400 0.000000 0.302340 
#    y 0.000000 3.918020 0.000000 
#    z 0.302340 0.000000 3.657710 
# 
# 
# High freq. dielectric constant tensor:
#      x y z
#    x 1.858600 0.000000 0.003340 
#    y 0.000000 1.834620 0.000000 
#    z 0.003340 0.000000 1.818380 
# 
# From -- ./inp_files/209523.got.cif
#   From: 2010.06.25/outbox.cif.g09.slc.cpg/sg12_105_cif.got.tgz:209523.got - 2010.06.28 00:19:55.
