data_PCOD8093438
_publ_section_title
;
Structure prediction by ZEFSAII (Michael W. Deem and Ramdas Pophale) SiO2 
 PCOD8093438
Probable space group: C 2/M
;
_chemical_formula_sum "Si O2"
_cell_formula_units_Z 40
_cell_length_a 22.269242
_cell_length_b 13.679725
_cell_length_c 19.064126
_cell_angle_alpha 90.000000
_cell_angle_beta 19.329942
_cell_angle_gamma 90.000000
_cell_volume 1922.372836
_symmetry_space_group_name_H-M "C 2/M"
_symmetry_group_IT_number 12
_symmetry_cell_setting 'monoclinic'
loop_
_space_group_symop_operation_xyz
x,y,z
-x,y,-z
-x,-y,-z
x,-y,z
1/2+x,1/2+y,z
1/2-x,1/2+y,-z
1/2-x,1/2-y,-z
1/2+x,1/2-y,z
loop_
_atom_site_type_symbol
_atom_site_label
_atom_site_fract_x
_atom_site_fract_y
_atom_site_fract_z
Si Si1 0.316756 0.387594 0.388702
Si Si2 0.899938 0.386834 0.820408
Si Si3 0.181425 0.790211 0.182073
Si Si4 0.499356 0.753202 0.922699
Si Si5 0.327866 0.385744 0.537650
O O1 0.354823 0.500000 0.330503
O O2 0.439824 0.326714 0.200578
O O3 0.370839 0.361346 0.408742
O O4 0.107413 0.361085 0.608511
O O5 0.873055 0.500000 0.829318
O O6 0.832119 0.320756 0.831067
O O7 0.783506 0.363376 0.017083
O O8 0.981480 0.833815 0.415645
O O9 0.295196 0.787362 0.128755
O O10 0.631477 0.846388 0.775805
O O11 0.500000 0.707589 0.000000
O O12 0.326862 0.500000 0.553376
#
# Coordination Sequence:
#
# PCOD8093438 Si02
#       5
#     8   8   8   8   8
#     4  10  20  40  68  94 123 157 202 256 307 358
#     4  10  19  35  65  98 122 151 201 261 308 354
#     4  11  22  37  64  91 124 158 203 252 307 360
#     4  12  26  42  60  89 130 167 203 245 303 370
#     4  11  23  42  67  93 120 156 209 260 305 355
#
# _framework density 20.807618999999999
#
# number of rings (size 3 to 8) (size 9 to 14) (size 15 to 20)
#    0.000    1.200    4.000    3.600    0.000    4.800 
#    0.000    1.000    0.000    2.400    0.000    0.000 
#    0.000    0.000    0.000    0.000    0.000    0.000 
#
# Total GULP energy -248089.032374 kJ/mol
# GULP energy per Si atom -12404.451619 kJ/mol
# Density = 2.076026 g / cm^3
# Si number density = 20.807619 Si / 1000 Ang^3
#
#
#
# Elastic Constant Matrix: (Units=GPa)
#
#
# Indices 1 2 3 4 5 6 
#
# 1 87.6071 28.3679 39.1475 -0.0772 -37.5864 0.0685
# 2 28.3679 97.4959 33.4355 0.1032 -12.8640 -0.0336
# 3 39.1475 33.4355 64.5859 0.0210 -33.8521 -0.0189
# 4 -0.0772 0.1032 0.0210 22.6221 -0.0764 -9.2614
# 5 -37.5864 -12.8640 -33.8521 -0.0764 36.4309 0.0396
# 6 0.0685 -0.0336 -0.0189 -9.2614 0.0396 15.8482
#
#
#
# Elastic Compliance Matrix: (Units=1/GPa)
#
#
# Indices 1 2 3 4 5 6 
#
# 1 0.021572 -0.003374 -0.000561 0.000127 0.020544 -0.000078
# 2 -0.003374 0.013182 -0.008118 -0.000086 -0.006369 -0.000002
# 3 -0.000561 -0.008118 0.035519 0.000109 0.029560 0.000018
# 4 0.000127 -0.000086 0.000109 0.058108 0.000287 0.033956
# 5 0.020544 -0.006369 0.029560 0.000287 0.073864 -0.000084
# 6 -0.000078 -0.000002 0.000018 0.033956 -0.000084 0.082942
#
#
# Mechanical properties :
#
#
# Convention : Reuss Voigt Hill
#
# Bulk Modulus (GPa) = 21.65985 50.17675 35.91830
# Shear Modulus (GPa) = 15.39972 24.89611 20.14791
#
# Velocity S-wave (km/s) = 2.72343 3.46278 3.11512
# Velocity P-wave (km/s) = 4.50795 6.33678 5.49893
#
# Compressibility (1/GPa) = 0.04616836
#
# Stress axis : x y z
#
# Youngs Moduli (GPa) = 46.35642 75.86048 28.15372
#
# Poissons Ratio (x) = 0.25594 0.01579
# Poissons Ratio (y) = 0.15640 0.22854
# Poissons Ratio (z) = 0.02601 0.61581
#
# Static dielectric constant tensor:
#      x y z
#    x 3.738300 0.000000 -0.376240 
#    y 0.000000 3.792980 0.000110 
#    z -0.376240 0.000110 3.799650 
# 
# 
# High freq. dielectric constant tensor:
#      x y z
#    x 1.797360 0.000000 -0.032800 
#    y 0.000000 1.822020 0.000000 
#    z -0.032800 0.000000 1.814920 
# 
# From -- ./inp_files/103869.got.cif
#   From: 2010.06.25/outbox.cif.g09.slc.cpg/sg12_52_cif.got.tgz:103869.got - 2010.06.28 00:19:55.
