data_PCOD8093309
_publ_section_title
;
Structure prediction by ZEFSAII (Michael W. Deem and Ramdas Pophale) SiO2 
 PCOD8093309
Probable space group: C 2/M
;
_chemical_formula_sum "Si O2"
_cell_formula_units_Z 40
_cell_length_a 19.059216
_cell_length_b 10.800035
_cell_length_c 14.941949
_cell_angle_alpha 90.000000
_cell_angle_beta 138.097610
_cell_angle_gamma 90.000000
_cell_volume 2054.117206
_symmetry_space_group_name_H-M "C 2/M"
_symmetry_group_IT_number 12
_symmetry_cell_setting 'monoclinic'
loop_
_space_group_symop_operation_xyz
x,y,z
-x,y,-z
-x,-y,-z
x,-y,z
1/2+x,1/2+y,z
1/2-x,1/2+y,-z
1/2-x,1/2-y,-z
1/2+x,1/2-y,z
loop_
_atom_site_type_symbol
_atom_site_label
_atom_site_fract_x
_atom_site_fract_y
_atom_site_fract_z
Si Si1 0.947112 0.356576 0.040610
Si Si2 0.211968 0.854366 0.764878
Si Si3 0.423026 0.807214 0.675030
Si Si4 0.938189 0.363934 0.351657
Si Si5 0.212161 0.133567 0.564669
O O1 0.978268 0.500000 0.086014
O O2 0.993839 0.276722 0.167156
O O3 0.822759 0.339843 0.919264
O O4 0.000000 0.307787 0.000000
O O5 0.136090 0.754226 0.740982
O O6 0.222429 0.803931 0.672377
O O7 0.175361 0.000000 0.737869
O O8 0.480818 0.883925 0.652801
O O9 0.324673 0.879269 0.623886
O O10 0.375681 0.685842 0.584510
O O11 0.881460 0.500000 0.308249
O O12 0.000000 0.329905 0.500000
O O13 0.168117 0.000000 0.545075
#
# Coordination Sequence:
#
# PCOD8093309 Si02
#       5
#     8   8   8   8   8
#     4  10  19  35  61  87 112 145 193 247 291 335
#     4  10  21  39  62  88 116 150 196 247 289 334
#     4  11  21  36  59  86 115 154 191 240 290 347
#     4  11  23  38  56  85 123 160 190 228 290 357
#     4  10  20  36  60  88 111 146 200 250 287 330
#
# _framework density 19.473087
#
# number of rings (size 3 to 8) (size 9 to 14) (size 15 to 20)
#    0.000    1.600    4.000    1.800    0.000    2.000 
#    0.000    1.000    0.000    1.200    0.000    0.000 
#    0.000    0.000    0.000    0.000    0.000    0.000 
#
# Total GULP energy -247767.000925 kJ/mol
# GULP energy per Si atom -12388.350046 kJ/mol
# Density = 1.942876 g / cm^3
# Si number density = 19.473087 Si / 1000 Ang^3
#
#
#
# Elastic Constant Matrix: (Units=GPa)
#
#
# Indices 1 2 3 4 5 6 
#
# 1 86.9808 27.8628 36.7654 0.0000 -5.1895 0.0000
# 2 27.8628 86.8944 46.8549 0.0000 15.8622 0.0000
# 3 36.7654 46.8549 146.2641 0.0000 -12.9554 0.0000
# 4 0.0000 0.0000 0.0000 13.3452 0.0000 -5.6632
# 5 -5.1895 15.8622 -12.9554 0.0000 32.6434 0.0000
# 6 0.0000 0.0000 0.0000 -5.6632 0.0000 17.4184
#
#
#
# Elastic Compliance Matrix: (Units=1/GPa)
#
#
# Indices 1 2 3 4 5 6 
#
# 1 0.013783 -0.004033 -0.001871 0.000000 0.003408 0.000000
# 2 -0.004033 0.018081 -0.005818 0.000000 -0.011736 0.000000
# 3 -0.001871 -0.005818 0.009737 0.000000 0.006394 0.000000
# 4 0.000000 0.000000 0.000000 0.086927 0.000000 0.028262
# 5 0.003408 -0.011736 0.006394 0.000000 0.039416 0.000000
# 6 0.000000 0.000000 0.000000 0.028262 0.000000 0.066599
#
#
# Mechanical properties :
#
#
# Convention : Reuss Voigt Hill
#
# Bulk Modulus (GPa) = 55.07253 60.34504 57.70879
# Shear Modulus (GPa) = 18.93662 26.59184 22.76423
#
# Velocity S-wave (km/s) = 3.12180 3.69937 3.42279
# Velocity P-wave (km/s) = 6.42938 7.02163 6.73202
#
# Compressibility (1/GPa) = 0.01815787
#
# Stress axis : x y z
#
# Youngs Moduli (GPa) = 72.55460 55.30716 102.69850
#
# Poissons Ratio (x) = 0.22305 0.19211
# Poissons Ratio (y) = 0.29261 0.59749
# Poissons Ratio (z) = 0.13572 0.32177
#
# Static dielectric constant tensor:
#      x y z
#    x 3.585930 0.000000 -0.113390 
#    y 0.000000 3.327280 0.000000 
#    z -0.113390 0.000000 3.566650 
# 
# 
# High freq. dielectric constant tensor:
#      x y z
#    x 1.758920 0.000000 -0.009430 
#    y 0.000000 1.733810 0.000000 
#    z -0.009430 0.000000 1.760150 
# 
# From -- ./inp_files/153290.got.cif
#   From: 2010.06.25/outbox.cif.g09.slc.cpg/sg12_77_cif.got.tgz:153290.got - 2010.06.28 00:19:55.
