data_PCOD8093275
_publ_section_title
;
Structure prediction by ZEFSAII (Michael W. Deem and Ramdas Pophale) SiO2 
 PCOD8093275
Probable space group: C 2/M
;
_chemical_formula_sum "Si O2"
_cell_formula_units_Z 64
_cell_length_a 27.475471
_cell_length_b 17.042828
_cell_length_c 9.336734
_cell_angle_alpha 90.000000
_cell_angle_beta 135.968016
_cell_angle_gamma 90.000000
_cell_volume 3038.812992
_symmetry_space_group_name_H-M "C 2/M"
_symmetry_group_IT_number 12
_symmetry_cell_setting 'monoclinic'
loop_
_space_group_symop_operation_xyz
x,y,z
-x,y,-z
-x,-y,-z
x,-y,z
1/2+x,1/2+y,z
1/2-x,1/2+y,-z
1/2-x,1/2-y,-z
1/2+x,1/2-y,z
loop_
_atom_site_type_symbol
_atom_site_label
_atom_site_fract_x
_atom_site_fract_y
_atom_site_fract_z
Si Si1 0.205877 0.142276 0.340505
Si Si2 0.130764 0.912819 0.929594
Si Si3 0.531026 0.087639 0.907390
Si Si4 0.648447 0.808177 0.264154
Si Si5 0.067950 0.710895 0.384052
Si Si6 0.321326 0.708709 0.202079
Si Si7 0.003898 0.134026 0.179825
Si Si8 0.844813 0.086190 0.474152
O O1 0.196953 0.093306 0.176238
O O2 0.286960 0.138340 0.551390
O O3 0.176696 0.230078 0.245829
O O4 0.162290 0.101869 0.373300
O O5 0.130577 0.000000 0.858630
O O6 0.139185 0.845693 0.829098
O O7 0.062368 0.903556 0.883068
O O8 0.472025 0.127925 0.680794
O O9 0.546811 0.000000 0.882917
O O10 0.500000 0.083464 0.000000
O O11 0.601597 0.139713 0.057283
O O12 0.607973 0.781697 0.319123
O O13 0.122656 0.724998 0.629463
O O14 0.007314 0.776156 0.241121
O O15 0.301996 0.652159 0.295049
O O16 0.250000 0.750000 0.000000
O O17 0.072649 0.090532 0.385710
O O18 0.000000 0.126763 0.000000
O O19 0.816289 0.000000 0.373520
#
# Coordination Sequence:
#
# PCOD8093275 Si02
#       8
#     8   8   8   8   8   8   8   8
#     4  11  21  35  63  94 123 168 210 262 315 387
#     4  12  25  39  63  98 132 163 211 265 317 378
#     4   9  18  32  56  89 123 153 202 274 330 363
#     4  10  19  35  60  90 125 162 215 260 317 379
#     4  10  19  38  60  87 120 170 211 257 310 382
#     4  11  25  45  63  85 125 175 216 256 314 385
#     4  11  20  37  64  96 131 169 203 255 321 387
#     4  11  23  40  62  90 128 166 207 261 323 379
#
# _framework density 21.060855
#
# number of rings (size 3 to 8) (size 9 to 14) (size 15 to 20)
#    0.000    1.375    3.750    3.750    1.750    3.500 
#    0.000    6.875    0.000    0.000    0.000    2.625 
#    0.000    0.000    0.000    0.000    0.000    0.000 
#
# Total GULP energy -396702.538719 kJ/mol
# GULP energy per Si atom -12396.954335 kJ/mol
# Density = 2.101292 g / cm^3
# Si number density = 21.060855 Si / 1000 Ang^3
#
#
#
# Elastic Constant Matrix: (Units=GPa)
#
#
# Indices 1 2 3 4 5 6 
#
# 1 26.3735 21.7071 21.3806 0.0000 4.7485 0.0000
# 2 21.7071 138.8856 70.3645 0.0000 12.8229 0.0000
# 3 21.3806 70.3645 128.6043 0.0000 10.9304 0.0000
# 4 0.0000 0.0000 0.0000 23.8550 0.0000 -1.2652
# 5 4.7485 12.8229 10.9304 0.0000 33.8377 0.0000
# 6 0.0000 0.0000 0.0000 -1.2652 0.0000 13.0671
#
#
#
# Elastic Compliance Matrix: (Units=1/GPa)
#
#
# Indices 1 2 3 4 5 6 
#
# 1 0.046157 -0.004384 -0.005003 0.000000 -0.003200 0.000000
# 2 -0.004384 0.010521 -0.004875 0.000000 -0.001797 0.000000
# 3 -0.005003 -0.004875 0.011370 0.000000 -0.001123 0.000000
# 4 0.000000 0.000000 0.000000 0.042136 0.000000 0.004080
# 5 -0.003200 -0.001797 -0.001123 0.000000 0.031046 0.000000
# 6 0.000000 0.000000 0.000000 0.004080 0.000000 0.076923
#
#
# Mechanical properties :
#
#
# Convention : Reuss Voigt Hill
#
# Bulk Modulus (GPa) = 25.30064 57.86307 41.58186
# Shear Modulus (GPa) = 19.24165 26.17936 22.71051
#
# Velocity S-wave (km/s) = 3.02590 3.52949 3.28735
# Velocity P-wave (km/s) = 4.92415 6.64407 5.84769
#
# Compressibility (1/GPa) = 0.03952469
#
# Stress axis : x y z
#
# Youngs Moduli (GPa) = 21.66509 95.04706 87.94835
#
# Poissons Ratio (x) = 0.41668 0.44001
# Poissons Ratio (y) = 0.09498 0.42874
# Poissons Ratio (z) = 0.10839 0.46335
#
# Static dielectric constant tensor:
#      x y z
#    x 3.580350 0.000000 0.118180 
#    y 0.000000 4.046190 0.000000 
#    z 0.118180 0.000000 3.880650 
# 
# 
# High freq. dielectric constant tensor:
#      x y z
#    x 1.799690 0.000000 0.013920 
#    y 0.000000 1.826190 0.000000 
#    z 0.013920 0.000000 1.822340 
# 
# From -- ./inp_files/112904.got.cif
#   From: 2010.06.25/outbox.cif.g09.slc.cpg/sg12_57_cif.got.tgz:112904.got - 2010.06.28 00:19:55.
