data_PCOD8093245
_publ_section_title
;
Structure prediction by ZEFSAII (Michael W. Deem and Ramdas Pophale) SiO2 
 PCOD8093245
Probable space group: C 2/M
;
_chemical_formula_sum "Si O2"
_cell_formula_units_Z 64
_cell_length_a 30.343334
_cell_length_b 9.211712
_cell_length_c 11.775527
_cell_angle_alpha 90.000000
_cell_angle_beta 88.028806
_cell_angle_gamma 90.000000
_cell_volume 3289.477577
_symmetry_space_group_name_H-M "C 2/M"
_symmetry_group_IT_number 12
_symmetry_cell_setting 'monoclinic'
loop_
_space_group_symop_operation_xyz
x,y,z
-x,y,-z
-x,-y,-z
x,-y,z
1/2+x,1/2+y,z
1/2-x,1/2+y,-z
1/2-x,1/2-y,-z
1/2+x,1/2-y,z
loop_
_atom_site_type_symbol
_atom_site_label
_atom_site_fract_x
_atom_site_fract_y
_atom_site_fract_z
Si Si1 0.318730 0.835322 0.737893
Si Si2 0.418101 0.831771 0.749188
Si Si3 0.339015 0.830545 0.255164
Si Si4 0.991388 0.170793 0.873194
Si Si5 0.075510 0.828011 0.720272
Si Si6 0.294994 0.834172 0.488784
Si Si7 0.051905 0.332542 0.499196
Si Si8 0.253649 0.170163 0.118432
O O1 0.367024 0.804476 0.784258
O O2 0.322311 0.814234 0.601976
O O3 0.284103 0.724391 0.793311
O O4 0.303801 0.000000 0.767805
O O5 0.446432 0.743793 0.836795
O O6 0.428193 0.777516 0.621162
O O7 0.430962 0.000000 0.757699
O O8 0.382289 0.738941 0.218463
O O9 0.323843 0.776695 0.381227
O O10 0.301211 0.794941 0.167319
O O11 0.351008 0.000000 0.253802
O O12 0.032069 0.221419 0.791854
O O13 0.984465 0.000000 0.867230
O O14 0.000000 0.223186 0.000000
O O15 0.073496 0.765389 0.593930
O O16 0.080221 0.000000 0.715892
O O17 0.250000 0.750000 0.500000
O O18 0.282410 0.000000 0.465947
O O19 0.064367 0.500000 0.522323
O O20 0.000000 0.308628 0.500000
O O21 0.247004 0.000000 0.100396
O O22 0.250000 0.250000 0.000000
#
# Coordination Sequence:
#
# PCOD8093245 Si02
#       8
#     8   8   8   8   8   8   8   8
#     4  10  21  37  60  89 122 153 190 241 292 345
#     4  10  21  38  61  89 117 153 196 237 285 345
#     4  10  22  40  61  86 119 156 193 236 291 351
#     4  10  23  42  59  80 115 154 194 245 298 343
#     4  11  23  37  59  89 119 152 194 243 293 347
#     4  10  19  35  60  88 120 153 188 236 288 349
#     4  10  19  35  61  88 120 157 190 232 291 351
#     4  11  24  42  63  86 116 155 200 246 293 347
#
# _framework density 19.455977000000001
#
# number of rings (size 3 to 8) (size 9 to 14) (size 15 to 20)
#    0.000    1.750    2.500    1.500    0.000    6.500 
#    0.000    3.750    0.000    0.000    0.000    0.000 
#    0.000    0.000    0.000    0.000    0.000    0.000 
#
# Total GULP energy -396945.228759 kJ/mol
# GULP energy per Si atom -12404.538399 kJ/mol
# Density = 1.941169 g / cm^3
# Si number density = 19.455977 Si / 1000 Ang^3
#
#
#
# Elastic Constant Matrix: (Units=GPa)
#
#
# Indices 1 2 3 4 5 6 
#
# 1 104.0860 46.8558 28.2153 0.0000 25.6251 0.0000
# 2 46.8558 67.3481 37.8626 0.0000 14.5798 0.0000
# 3 28.2153 37.8626 91.9638 0.0000 24.3532 0.0000
# 4 0.0000 0.0000 0.0000 30.5492 0.0000 5.1674
# 5 25.6251 14.5798 24.3532 0.0000 23.0022 0.0000
# 6 0.0000 0.0000 0.0000 5.1674 0.0000 34.5477
#
#
#
# Elastic Compliance Matrix: (Units=1/GPa)
#
#
# Indices 1 2 3 4 5 6 
#
# 1 0.017419 -0.010431 0.003249 0.000000 -0.016233 0.000000
# 2 -0.010431 0.026046 -0.008655 0.000000 0.004275 0.000000
# 3 0.003249 -0.008655 0.017990 0.000000 -0.017180 0.000000
# 4 0.000000 0.000000 0.000000 0.033584 0.000000 -0.005023
# 5 -0.016233 0.004275 -0.017180 0.000000 0.077038 0.000000
# 6 0.000000 0.000000 0.000000 -0.005023 0.000000 0.029697
#
#
# Mechanical properties :
#
#
# Convention : Reuss Voigt Hill
#
# Bulk Modulus (GPa) = 33.57908 54.36281 43.97094
# Shear Modulus (GPa) = 20.54449 27.65077 24.09763
#
# Velocity S-wave (km/s) = 3.25306 3.77397 3.52315
# Velocity P-wave (km/s) = 5.60414 6.85511 6.26095
#
# Compressibility (1/GPa) = 0.02978045
#
# Stress axis : x y z
#
# Youngs Moduli (GPa) = 57.40872 38.39393 55.58678
#
# Poissons Ratio (x) = 0.40049 -0.18061
# Poissons Ratio (y) = 0.59884 0.48111
# Poissons Ratio (z) = -0.18653 0.33230
#
# Static dielectric constant tensor:
#      x y z
#    x 3.642990 0.000000 0.065970 
#    y 0.000000 3.492380 0.000000 
#    z 0.065970 0.000000 3.555070 
# 
# 
# High freq. dielectric constant tensor:
#      x y z
#    x 1.769070 0.000000 0.004260 
#    y 0.000000 1.749840 0.000000 
#    z 0.004260 0.000000 1.757400 
# 
# From -- ./inp_files/187438.got.cif
#   From: 2010.06.25/outbox.cif.g09.slc.cpg/sg12_94_cif.got.tgz:187438.got - 2010.06.28 00:19:55.
