data_PCOD8093448
_publ_section_title
;
Structure prediction by ZEFSAII (Michael W. Deem and Ramdas Pophale) SiO2 
 PCOD8093448
Probable space group: C 2/M
;
_chemical_formula_sum "Si O2"
_cell_formula_units_Z 64
_cell_length_a 19.240331
_cell_length_b 14.315891
_cell_length_c 24.844799
_cell_angle_alpha 90.000000
_cell_angle_beta 148.808050
_cell_angle_gamma 90.000000
_cell_volume 3544.198563
_symmetry_space_group_name_H-M "C 2/M"
_symmetry_group_IT_number 12
_symmetry_cell_setting 'monoclinic'
loop_
_space_group_symop_operation_xyz
x,y,z
-x,y,-z
-x,-y,-z
x,-y,z
1/2+x,1/2+y,z
1/2-x,1/2+y,-z
1/2-x,1/2-y,-z
1/2+x,1/2-y,z
loop_
_atom_site_type_symbol
_atom_site_label
_atom_site_fract_x
_atom_site_fract_y
_atom_site_fract_z
Si Si1 0.900234 0.394617 0.983028
Si Si2 0.139686 0.395445 0.444963
Si Si3 0.022677 0.744869 0.599501
Si Si4 0.056448 0.606920 0.188981
Si Si5 0.053492 0.604235 0.770340
Si Si6 0.373768 0.295306 0.221494
Si Si7 0.781462 0.249579 0.365807
Si Si8 0.119122 0.888418 0.329650
O O1 0.854659 0.500000 0.965976
O O2 0.975580 0.351175 0.084722
O O3 0.771615 0.336521 0.881917
O O4 0.000000 0.391217 0.000000
O O5 0.136280 0.500000 0.462959
O O6 0.290674 0.360644 0.557845
O O7 0.024398 0.350572 0.404786
O O8 0.098796 0.383064 0.355167
O O9 0.076174 0.811298 0.683665
O O10 0.141014 0.718726 0.636685
O O11 0.891741 0.787228 0.482310
O O12 0.098932 0.500000 0.205967
O O13 0.191500 0.662293 0.289834
O O14 0.954909 0.614897 0.171591
O O15 0.108117 0.500000 0.791255
O O16 0.144469 0.685585 0.805423
O O17 0.473824 0.345303 0.245496
O O18 0.689520 0.336223 0.325643
O O19 0.107582 0.000000 0.311053
#
# Coordination Sequence:
#
# PCOD8093448 Si02
#       8
#     8   8   8   8   8   8   8   8
#     4  10  22  39  57  76 103 140 179 214 258 325
#     4   8  16  30  49  75 108 144 180 211 255 315
#     4   9  20  31  53  77 110 147 176 215 265 320
#     4  10  20  35  55  74 100 138 177 216 262 313
#     4   9  18  32  52  80 105 135 174 216 262 313
#     4  11  20  35  57  81 107 139 178 225 266 312
#     4  10  19  36  51  79 112 142 178 219 266 316
#     4  10  20  32  52  82 113 144 177 221 269 314
#
# _framework density 18.057679
#
# number of rings (size 3 to 8) (size 9 to 14) (size 15 to 20)
#    0.000    2.375    1.250    1.125    1.750    2.500 
#    0.000    5.000    0.000    0.375    0.000    0.000 
#    0.000    0.000    0.000    0.000    0.000    0.000 
#
# Total GULP energy -396517.901240 kJ/mol
# GULP energy per Si atom -12391.184414 kJ/mol
# Density = 1.801658 g / cm^3
# Si number density = 18.057679 Si / 1000 Ang^3
#
#
#
# Elastic Constant Matrix: (Units=GPa)
#
#
# Indices 1 2 3 4 5 6 
#
# 1 78.8352 24.5327 41.6819 0.0044 -8.1098 0.0006
# 2 24.5327 77.1159 49.6074 0.0142 2.0555 0.0018
# 3 41.6819 49.6074 103.5292 0.0241 -7.5294 0.0031
# 4 0.0044 0.0142 0.0241 -33.1898 -0.0005 -8.4415
# 5 -8.1098 2.0555 -7.5294 -0.0005 30.2408 -0.0002
# 6 0.0006 0.0018 0.0031 -8.4415 -0.0002 17.8686
#
#
#
# Elastic Compliance Matrix: (Units=1/GPa)
#
#
# Indices 1 2 3 4 5 6 
#
# 1 0.016502 -0.001746 -0.005578 -0.000003 0.003155 -0.000001
# 2 -0.001746 0.019318 -0.008843 0.000002 -0.003983 0.000000
# 3 -0.005578 -0.008843 0.016374 0.000007 0.003182 0.000002
# 4 -0.000003 0.000002 0.000007 -0.026898 0.000000 -0.012707
# 5 0.003155 -0.003983 0.003182 0.000000 0.034977 0.000000
# 6 -0.000001 0.000000 0.000002 -0.012707 0.000000 0.049961
#
#
# Mechanical properties :
#
#
# Convention : Reuss Voigt Hill
#
# Bulk Modulus (GPa) = 50.35352 54.56938 52.46145
# Shear Modulus (GPa) = 33.51517 12.56113 23.03815
#
# Velocity S-wave (km/s) = 4.31281 2.64031 3.57572
# Velocity P-wave (km/s) = 7.26263 6.29127 6.79433
#
# Compressibility (1/GPa) = 0.01985958
#
# Stress axis : x y z
#
# Youngs Moduli (GPa) = 60.60020 51.76607 61.07414
#
# Poissons Ratio (x) = 0.09036 0.34066
# Poissons Ratio (y) = 0.10578 0.54009
# Poissons Ratio (z) = 0.33802 0.45778
#
# Static dielectric constant tensor:
#      x y z
#    x 3.348460 0.000000 -0.255430 
#    y 0.000000 3.358180 0.000000 
#    z -0.255430 0.000000 3.399900 
# 
# 
# High freq. dielectric constant tensor:
#      x y z
#    x 1.693980 0.000000 -0.014010 
#    y 0.000000 1.691700 0.000000 
#    z -0.014010 0.000000 1.693110 
# 
# From -- ./inp_files/344080.got.cif
#   From: 2010.06.25/outbox.cif.g09.slc.cpg/sg12_173_cif.got.tgz:344080.got - 2010.06.28 00:19:55.
