data_PCOD8093326
_publ_section_title
;
Structure prediction by ZEFSAII (Michael W. Deem and Ramdas Pophale) SiO2 
 PCOD8093326
Probable space group: C 2/M
;
_chemical_formula_sum "Si O2"
_cell_formula_units_Z 56
_cell_length_a 14.798119
_cell_length_b 14.990349
_cell_length_c 23.260889
_cell_angle_alpha 90.000000
_cell_angle_beta 29.758794
_cell_angle_gamma 90.000000
_cell_volume 2561.134451
_symmetry_space_group_name_H-M "C 2/M"
_symmetry_group_IT_number 12
_symmetry_cell_setting 'monoclinic'
loop_
_space_group_symop_operation_xyz
x,y,z
-x,y,-z
-x,-y,-z
x,-y,z
1/2+x,1/2+y,z
1/2-x,1/2+y,-z
1/2-x,1/2-y,-z
1/2+x,1/2-y,z
loop_
_atom_site_type_symbol
_atom_site_label
_atom_site_fract_x
_atom_site_fract_y
_atom_site_fract_z
Si Si1 0.552252 0.102686 0.909560
Si Si2 0.188401 0.604006 0.062223
Si Si3 0.108201 0.895551 0.817731
Si Si4 0.396835 0.598907 0.653145
Si Si5 0.655990 0.103409 0.207844
Si Si6 0.806502 0.263800 0.624918
Si Si7 0.279624 0.827373 0.440105
O O1 0.443297 0.146510 0.914792
O O2 0.771122 0.112465 0.779562
O O3 0.490386 0.000000 0.946667
O O4 0.500000 0.147859 0.000000
O O5 0.142308 0.500000 0.091530
O O6 0.156717 0.647323 0.143382
O O7 0.395113 0.622549 0.930843
O O8 0.185286 0.860561 0.836972
O O9 0.196966 0.840448 0.717267
O O10 0.154723 0.000000 0.783748
O O11 0.353745 0.500000 0.651611
O O12 0.340124 0.674590 0.641546
O O13 0.613424 0.604246 0.542619
O O14 0.466289 0.119130 0.345977
O O15 0.693758 0.000000 0.177915
O O16 0.697428 0.224974 0.631945
O O17 0.000000 0.306320 0.500000
O O18 0.250000 0.750000 0.500000
#
# Coordination Sequence:
#
# PCOD8093326 Si02
#       7
#     8   8   8   8   8   8   8
#     4   9  18  34  56  85 121 157 196 244 296 356
#     4   9  18  34  58  87 117 151 197 251 301 353
#     4  10  21  39  62  87 120 162 201 242 300 363
#     4  10  21  39  63  87 114 153 198 245 300 351
#     4  10  19  35  61  89 116 152 200 250 299 354
#     4  10  22  39  58  83 117 153 198 252 296 349
#     4  11  23  38  56  83 121 156 194 248 301 355
#
# _framework density 21.865310999999998
#
# number of rings (size 3 to 8) (size 9 to 14) (size 15 to 20)
#    0.000    2.143    0.000    3.429    0.000    7.429 
#    0.000    8.571    0.000    0.000    0.000    0.000 
#    0.000    0.000    0.000    0.000    0.000    0.000 
#
# Total GULP energy -346941.138741 kJ/mol
# GULP energy per Si atom -12390.754955 kJ/mol
# Density = 2.181554 g / cm^3
# Si number density = 21.865311 Si / 1000 Ang^3
#
#
#
# Elastic Constant Matrix: (Units=GPa)
#
#
# Indices 1 2 3 4 5 6 
#
# 1 68.9367 3.2888 46.5115 0.0016 -8.2648 -0.0022
# 2 3.2888 47.6729 37.4811 -0.0005 3.8900 -0.0040
# 3 46.5115 37.4811 136.3197 0.0228 3.9790 -0.0147
# 4 0.0016 -0.0005 0.0228 27.3437 -0.0102 14.1423
# 5 -8.2648 3.8900 3.9790 -0.0102 31.9976 0.0034
# 6 -0.0022 -0.0040 -0.0147 14.1423 0.0034 4.3089
#
#
#
# Elastic Compliance Matrix: (Units=1/GPa)
#
#
# Indices 1 2 3 4 5 6 
#
# 1 0.020771 0.004843 -0.008589 -0.000026 0.005844 0.000065
# 2 0.004843 0.028067 -0.009340 -0.000013 -0.001000 0.000040
# 3 -0.008589 -0.009340 0.012913 0.000041 -0.002689 -0.000101
# 4 -0.000026 -0.000013 0.000041 -0.052432 -0.000045 0.172085
# 5 0.005844 -0.001000 -0.002689 -0.000045 0.033218 0.000115
# 6 0.000065 0.000040 -0.000101 0.172085 0.000115 -0.332722
#
#
# Mechanical properties :
#
#
# Convention : Reuss Voigt Hill
#
# Bulk Modulus (GPa) = 28.10717 47.49912 37.80315
# Shear Modulus (GPa) = -19.82924 23.77325 1.97201
#
# Velocity S-wave (km/s) = -3.01471 3.30094 0.95071
# Velocity P-wave (km/s) = 0.87441 6.02486 4.30485
#
# Compressibility (1/GPa) = 0.03557811
#
# Stress axis : x y z
#
# Youngs Moduli (GPa) = 48.14485 35.62874 77.44256
#
# Poissons Ratio (x) = -0.17255 0.66515
# Poissons Ratio (y) = -0.23317 0.72334
# Poissons Ratio (z) = 0.41352 0.33278
#
# Static dielectric constant tensor:
#      x y z
#    x 4.057370 -0.000010 0.002300 
#    y -0.000010 3.525900 0.000190 
#    z 0.002300 0.000190 4.486910 
# 
# 
# High freq. dielectric constant tensor:
#      x y z
#    x 1.854110 0.000000 -0.000500 
#    y 0.000000 1.833610 0.000000 
#    z -0.000500 0.000000 1.876350 
# 
# From -- ./inp_files/340286.got.cif
#   From: 2010.06.25/outbox.cif.g09.slc.cpg/sg12_171_cif.got.tgz:340286.got - 2010.06.28 00:19:55.
