data_PCOD8093777
_publ_section_title
;
Structure prediction by ZEFSAII (Michael W. Deem and Ramdas Pophale) SiO2 
 PCOD8093777
Probable space group: C 2/M
;
_chemical_formula_sum "Si O2"
_cell_formula_units_Z 64
_cell_length_a 30.311937
_cell_length_b 8.757808
_cell_length_c 14.418171
_cell_angle_alpha 90.000000
_cell_angle_beta 53.452277
_cell_angle_gamma 90.000000
_cell_volume 3074.893665
_symmetry_space_group_name_H-M "C 2/M"
_symmetry_group_IT_number 12
_symmetry_cell_setting 'monoclinic'
loop_
_space_group_symop_operation_xyz
x,y,z
-x,y,-z
-x,-y,-z
x,-y,z
1/2+x,1/2+y,z
1/2-x,1/2+y,-z
1/2-x,1/2-y,-z
1/2+x,1/2-y,z
loop_
_atom_site_type_symbol
_atom_site_label
_atom_site_fract_x
_atom_site_fract_y
_atom_site_fract_z
Si Si1 0.056857 0.172377 0.875823
Si Si2 0.256073 0.680551 0.594481
Si Si3 0.835306 0.678683 0.638426
Si Si4 0.452474 0.319789 0.488090
Si Si5 0.301132 0.179072 0.883241
Si Si6 0.498029 0.319279 0.238058
Si Si7 0.844328 0.322247 0.151764
Si Si8 0.878920 0.819137 0.924485
O O1 0.044916 0.230491 0.786985
O O2 0.098754 0.289643 0.868018
O O3 0.081422 0.000000 0.847309
O O4 0.000000 0.173841 0.000000
O O5 0.259070 0.500000 0.580081
O O6 0.250000 0.750000 0.500000
O O7 0.310751 0.737461 0.578725
O O8 0.204609 0.734451 0.720816
O O9 0.835657 0.500000 0.617138
O O10 0.896666 0.734284 0.582779
O O11 0.799662 0.716933 0.775261
O O12 0.500000 0.276039 0.500000
O O13 0.440947 0.500000 0.501539
O O14 0.473844 0.255951 0.363434
O O15 0.356169 0.250114 0.857719
O O16 0.301089 0.000000 0.900635
O O17 0.250000 0.250000 0.000000
O O18 0.503471 0.500000 0.234410
O O19 0.559111 0.255679 0.141190
O O20 0.839184 0.500000 0.136336
O O21 0.841820 0.232680 0.057870
O O22 0.876529 0.000000 0.920826
#
# Coordination Sequence:
#
# PCOD8093777 Si02
#       8
#     8   8   8   8   8   8   8   8
#     4  10  19  36  59  86 121 163 207 250 302 370
#     4  11  26  46  67  91 123 164 214 265 316 374
#     4  11  25  44  65  93 130 167 209 259 317 376
#     4  10  21  39  64  93 126 167 213 258 307 367
#     4  11  24  41  63  92 124 160 202 251 308 368
#     4   9  19  35  57  87 119 157 205 249 300 363
#     4  11  24  40  60  91 127 160 204 260 316 372
#     4  11  21  38  64  92 123 161 202 250 304 366
#
# _framework density 20.813727
#
# number of rings (size 3 to 8) (size 9 to 14) (size 15 to 20)
#    0.000    1.500    1.250    3.375    1.750    7.500 
#    0.000    1.250    0.000    0.000    0.000    0.000 
#    0.000    0.000    0.000    0.000    0.000    0.000 
#
# Total GULP energy -396889.697265 kJ/mol
# GULP energy per Si atom -12402.803040 kJ/mol
# Density = 2.076635 g / cm^3
# Si number density = 20.813727 Si / 1000 Ang^3
#
#
#
# Elastic Constant Matrix: (Units=GPa)
#
#
# Indices 1 2 3 4 5 6 
#
# 1 110.4679 33.9693 38.5101 0.0000 14.4729 0.0000
# 2 33.9693 73.2623 38.7828 0.0000 6.0677 0.0000
# 3 38.5101 38.7828 111.3514 0.0000 13.7982 0.0000
# 4 0.0000 0.0000 0.0000 24.8217 0.0000 3.1836
# 5 14.4729 6.0677 13.7982 0.0000 41.3806 0.0000
# 6 0.0000 0.0000 0.0000 3.1836 0.0000 33.8853
#
#
#
# Elastic Compliance Matrix: (Units=1/GPa)
#
#
# Indices 1 2 3 4 5 6 
#
# 1 0.011375 -0.003857 -0.002261 0.000000 -0.002659 0.000000
# 2 -0.003857 0.018054 -0.005000 0.000000 0.000369 0.000000
# 3 -0.002261 -0.005000 0.011803 0.000000 -0.002412 0.000000
# 4 0.000000 0.000000 0.000000 0.040779 0.000000 -0.003831
# 5 -0.002659 0.000369 -0.002412 0.000000 0.025846 0.000000
# 6 0.000000 0.000000 0.000000 -0.003831 0.000000 0.029871
#
#
# Mechanical properties :
#
#
# Convention : Reuss Voigt Hill
#
# Bulk Modulus (GPa) = 52.64283 57.51179 55.07731
# Shear Modulus (GPa) = 30.06680 32.27213 31.16946
#
# Velocity S-wave (km/s) = 3.80487 3.94194 3.87401
# Velocity P-wave (km/s) = 6.68206 6.95774 6.82129
#
# Compressibility (1/GPa) = 0.01899594
#
# Stress axis : x y z
#
# Youngs Moduli (GPa) = 87.91154 55.38865 84.72536
#
# Poissons Ratio (x) = 0.21364 0.19157
# Poissons Ratio (y) = 0.33908 0.42362
# Poissons Ratio (z) = 0.19878 0.27694
#
# Static dielectric constant tensor:
#      x y z
#    x 4.097950 0.000000 0.170810 
#    y 0.000000 3.591620 0.000000 
#    z 0.170810 0.000000 3.974080 
# 
# 
# High freq. dielectric constant tensor:
#      x y z
#    x 1.829350 0.000000 0.006780 
#    y 0.000000 1.799590 0.000000 
#    z 0.006780 0.000000 1.824120 
# 
# From -- ./inp_files/249656.got.cif
#   From: 2010.06.25/outbox.cif.g09.slc.cpg/sg12_125_cif.got.tgz:249656.got - 2010.06.28 00:19:55.
