data_PCOD8093348
_publ_section_title
;
Structure prediction by ZEFSAII (Michael W. Deem and Ramdas Pophale) SiO2 
 PCOD8093348
Probable space group: C 2/M
;
_chemical_formula_sum "Si O2"
_cell_formula_units_Z 56
_cell_length_a 25.998518
_cell_length_b 16.159060
_cell_length_c 18.201546
_cell_angle_alpha 90.000000
_cell_angle_beta 20.312032
_cell_angle_gamma 90.000000
_cell_volume 2654.412190
_symmetry_space_group_name_H-M "C 2/M"
_symmetry_group_IT_number 12
_symmetry_cell_setting 'monoclinic'
loop_
_space_group_symop_operation_xyz
x,y,z
-x,y,-z
-x,-y,-z
x,-y,z
1/2+x,1/2+y,z
1/2-x,1/2+y,-z
1/2-x,1/2-y,-z
1/2+x,1/2-y,z
loop_
_atom_site_type_symbol
_atom_site_label
_atom_site_fract_x
_atom_site_fract_y
_atom_site_fract_z
Si Si1 0.304013 0.593696 0.919486
Si Si2 0.481752 0.869739 0.607832
Si Si3 0.344839 0.761969 0.246229
Si Si4 0.760176 0.904881 0.814676
Si Si5 0.567943 0.093695 0.771059
Si Si6 0.292241 0.091353 0.568582
Si Si7 0.560620 0.693587 0.535706
O O1 0.357997 0.500000 0.843558
O O2 0.249158 0.626793 0.913376
O O3 0.450979 0.647754 0.740534
O O4 0.176341 0.599914 0.150906
O O5 0.500000 0.903055 0.500000
O O6 0.618649 0.901092 0.474233
O O7 0.474990 0.771282 0.617020
O O8 0.336428 0.830840 0.322409
O O9 0.328384 0.663816 0.287665
O O10 0.208143 0.778792 0.377664
O O11 0.500000 0.776231 0.000000
O O12 0.895934 0.863322 0.590779
O O13 0.798254 0.000000 0.763177
O O14 0.604519 0.887679 0.982117
O O15 0.587492 0.095197 0.657360
O O16 0.609863 0.000000 0.744570
O O17 0.214154 0.000000 0.672828
#
# Coordination Sequence:
#
# PCOD8093348 Si02
#       7
#     8   8   8   8   8   8   8
#     4  11  22  38  61  89 125 164 204 254 316 378
#     4  11  23  40  62  91 126 166 208 256 311 378
#     4  11  23  40  61  92 126 167 212 257 315 371
#     4  10  19  35  61  90 123 161 202 252 317 387
#     4  10  20  38  64  91 123 165 208 254 314 377
#     4  10  22  42  65  89 120 166 219 261 307 369
#     4  11  23  38  59  92 129 160 205 257 312 375
#
# _framework density 21.09695
#
# number of rings (size 3 to 8) (size 9 to 14) (size 15 to 20)
#    0.000    1.429    2.857    3.000    0.000    4.000 
#    0.000    1.429    0.000    0.000    0.000    0.000 
#    0.000    0.000    0.000    0.000    0.000    0.000 
#
# Total GULP energy -346998.626839 kJ/mol
# GULP energy per Si atom -12392.808101 kJ/mol
# Density = 2.104893 g / cm^3
# Si number density = 21.096950 Si / 1000 Ang^3
#
#
#
# Elastic Constant Matrix: (Units=GPa)
#
#
# Indices 1 2 3 4 5 6 
#
# 1 62.6114 45.6586 25.1268 0.0021 12.2667 -0.0020
# 2 45.6586 135.1183 34.0546 0.0001 -4.5802 -0.0004
# 3 25.1268 34.0546 74.6630 0.0014 7.3764 -0.0015
# 4 0.0021 0.0001 0.0014 37.7100 -0.0011 2.0801
# 5 12.2667 -4.5802 7.3764 -0.0011 32.2914 0.0014
# 6 -0.0020 -0.0004 -0.0015 2.0801 0.0014 16.2327
#
#
#
# Elastic Compliance Matrix: (Units=1/GPa)
#
#
# Indices 1 2 3 4 5 6 
#
# 1 0.025194 -0.007855 -0.003929 -0.000002 -0.009787 0.000004
# 2 -0.007855 0.010953 -0.002865 0.000001 0.005192 -0.000002
# 3 -0.003929 -0.002865 0.016283 -0.000001 -0.002633 0.000001
# 4 -0.000002 0.000001 -0.000001 0.026707 0.000002 -0.003422
# 5 -0.009787 0.005192 -0.002633 0.000002 0.036024 -0.000005
# 6 0.000004 -0.000002 0.000001 -0.003422 -0.000005 0.062043
#
#
# Mechanical properties :
#
#
# Convention : Reuss Voigt Hill
#
# Bulk Modulus (GPa) = 43.23121 53.56363 48.39742
# Shear Modulus (GPa) = 23.34122 28.41697 25.87910
#
# Velocity S-wave (km/s) = 3.32984 3.67409 3.50619
# Velocity P-wave (km/s) = 5.94306 6.59113 6.27546
#
# Compressibility (1/GPa) = 0.02313144
#
# Stress axis : x y z
#
# Youngs Moduli (GPa) = 39.69212 91.29562 61.41406
#
# Poissons Ratio (x) = 0.71712 0.24130
# Poissons Ratio (y) = 0.31178 0.17598
# Poissons Ratio (z) = 0.15595 0.26160
#
# Static dielectric constant tensor:
#      x y z
#    x 3.635630 0.000000 0.013240 
#    y 0.000000 4.298980 0.000000 
#    z 0.013240 0.000000 3.757500 
# 
# 
# High freq. dielectric constant tensor:
#      x y z
#    x 1.804140 0.000000 0.004230 
#    y 0.000000 1.846210 0.000000 
#    z 0.004230 0.000000 1.821090 
# 
# From -- ./inp_files/293868.got.cif
#   From: 2010.06.25/outbox.cif.g09.slc.cpg/sg12_147_cif.got.tgz:293868.got - 2010.06.28 00:19:55.
