data_PCOD8093156
_publ_section_title
;
Structure prediction by ZEFSAII (Michael W. Deem and Ramdas Pophale) SiO2 
 PCOD8093156
Probable space group: C 2/M
;
_chemical_formula_sum "Si O2"
_cell_formula_units_Z 48
_cell_length_a 23.917019
_cell_length_b 9.265512
_cell_length_c 10.891503
_cell_angle_alpha 90.000000
_cell_angle_beta 100.679144
_cell_angle_gamma 90.000000
_cell_volume 2371.791691
_symmetry_space_group_name_H-M "C 2/M"
_symmetry_group_IT_number 12
_symmetry_cell_setting 'monoclinic'
loop_
_space_group_symop_operation_xyz
x,y,z
-x,y,-z
-x,-y,-z
x,-y,z
1/2+x,1/2+y,z
1/2-x,1/2+y,-z
1/2-x,1/2-y,-z
1/2+x,1/2-y,z
loop_
_atom_site_type_symbol
_atom_site_label
_atom_site_fract_x
_atom_site_fract_y
_atom_site_fract_z
Si Si1 0.192320 0.836656 0.477414
Si Si2 0.009362 0.167199 0.645899
Si Si3 0.859158 0.162734 0.287657
Si Si4 0.852352 0.834690 0.793516
Si Si5 0.961551 0.671182 0.865741
Si Si6 0.764007 0.333352 0.125385
O O1 0.250000 0.750000 0.500000
O O2 0.153594 0.803076 0.577165
O O3 0.148059 0.802164 0.351162
O O4 0.213371 0.000000 0.477887
O O5 0.074793 0.184886 0.708593
O O6 0.000000 0.222121 0.500000
O O7 0.978208 0.256417 0.741535
O O8 0.989330 0.000000 0.645422
O O9 0.824533 0.277121 0.195277
O O10 0.840339 0.000000 0.244671
O O11 0.898475 0.729527 0.874905
O O12 0.787460 0.799992 0.803619
O O13 0.868312 0.000000 0.832938
O O14 0.960910 0.500000 0.846548
O O15 0.000000 0.713408 0.000000
O O16 0.770958 0.500000 0.099358
O O17 0.750000 0.250000 0.000000
#
# Coordination Sequence:
#
# PCOD8093156 Si02
#       6
#     8   8   8   8   8   8
#     4  10  19  35  59  90 124 154 194 243 296 360
#     4  10  22  43  69  94 125 167 214 261 309 373
#     4  10  21  37  62  93 124 159 200 247 304 365
#     4  10  22  41  64  89 120 162 207 248 300 369
#     4  11  26  44  63  93 128 164 210 265 319 370
#     4  11  24  40  60  88 123 161 204 251 303 363
#
# _framework density 20.237866
#
# number of rings (size 3 to 8) (size 9 to 14) (size 15 to 20)
#    0.000    1.667    1.667    2.000    2.333    7.000 
#    0.000    1.667    0.000    0.000    0.000    0.000 
#    0.000    0.000    0.000    0.000    0.000    0.000 
#
# Total GULP energy -297493.818702 kJ/mol
# GULP energy per Si atom -12395.575779 kJ/mol
# Density = 2.019180 g / cm^3
# Si number density = 20.237866 Si / 1000 Ang^3
#
#
#
# Elastic Constant Matrix: (Units=GPa)
#
#
# Indices 1 2 3 4 5 6 
#
# 1 56.9530 29.1179 9.8709 0.0000 8.7535 0.0000
# 2 29.1179 82.6288 46.6145 0.0000 1.3938 0.0000
# 3 9.8709 46.6145 110.6836 0.0000 4.4029 0.0000
# 4 0.0000 0.0000 0.0000 35.4956 0.0000 3.1601
# 5 8.7535 1.3938 4.4029 0.0000 28.3207 0.0000
# 6 0.0000 0.0000 0.0000 3.1601 0.0000 36.6051
#
#
#
# Elastic Compliance Matrix: (Units=1/GPa)
#
#
# Indices 1 2 3 4 5 6 
#
# 1 0.022941 -0.009141 0.002081 0.000000 -0.006964 0.000000
# 2 -0.009141 0.019518 -0.007525 0.000000 0.003035 0.000000
# 3 0.002081 -0.007525 0.012104 0.000000 -0.002155 0.000000
# 4 0.000000 0.000000 0.000000 0.028391 0.000000 -0.002451
# 5 -0.006964 0.003035 -0.002155 0.000000 0.037648 0.000000
# 6 0.000000 0.000000 0.000000 -0.002451 0.000000 0.027530
#
#
# Mechanical properties :
#
#
# Convention : Reuss Voigt Hill
#
# Bulk Modulus (GPa) = 39.38176 46.83022 43.10599
# Shear Modulus (GPa) = 26.91536 31.06176 28.98856
#
# Velocity S-wave (km/s) = 3.65081 3.92195 3.78880
# Velocity P-wave (km/s) = 6.10515 6.61052 6.36286
#
# Compressibility (1/GPa) = 0.02539247
#
# Stress axis : x y z
#
# Youngs Moduli (GPa) = 43.58920 51.23548 82.61556
#
# Poissons Ratio (x) = 0.46833 -0.17190
# Poissons Ratio (y) = 0.39844 0.62172
# Poissons Ratio (z) = -0.09070 0.38557
#
# Static dielectric constant tensor:
#      x y z
#    x 3.502190 0.000000 0.027640 
#    y 0.000000 3.652000 0.000000 
#    z 0.027640 0.000000 3.634900 
# 
# 
# High freq. dielectric constant tensor:
#      x y z
#    x 1.800400 0.000000 0.002160 
#    y 0.000000 1.781550 0.000000 
#    z 0.002160 0.000000 1.802010 
# 
# From -- ./inp_files/173066.got.cif
#   From: 2010.06.25/outbox.cif.g09.slc.cpg/sg12_87_cif.got.tgz:173066.got - 2010.06.28 00:19:55.
