data_PCOD8093325
_publ_section_title
;
Structure prediction by ZEFSAII (Michael W. Deem and Ramdas Pophale) SiO2 
 PCOD8093325
Probable space group: C 2/M
;
_chemical_formula_sum "Si O2"
_cell_formula_units_Z 48
_cell_length_a 18.709387
_cell_length_b 17.451710
_cell_length_c 14.319209
_cell_angle_alpha 90.000000
_cell_angle_beta 148.673515
_cell_angle_gamma 90.000000
_cell_volume 2430.793752
_symmetry_space_group_name_H-M "C 2/M"
_symmetry_group_IT_number 12
_symmetry_cell_setting 'monoclinic'
loop_
_space_group_symop_operation_xyz
x,y,z
-x,y,-z
-x,-y,-z
x,-y,z
1/2+x,1/2+y,z
1/2-x,1/2+y,-z
1/2-x,1/2-y,-z
1/2+x,1/2-y,z
loop_
_atom_site_type_symbol
_atom_site_label
_atom_site_fract_x
_atom_site_fract_y
_atom_site_fract_z
Si Si1 0.616022 0.089679 0.196076
Si Si2 0.954434 0.591418 0.678710
Si Si3 0.344116 0.410482 0.309679
Si Si4 0.752903 0.660538 0.986901
Si Si5 0.418556 0.590660 0.046562
Si Si6 0.700630 0.590870 0.278162
O O1 0.601498 0.122833 0.284127
O O2 0.765263 0.106855 0.318710
O O3 0.588217 0.000000 0.172084
O O4 0.500000 0.127074 0.000000
O O5 0.969151 0.500000 0.693459
O O6 0.845155 0.621197 0.479720
O O7 0.100704 0.627588 0.817166
O O8 0.500000 0.385212 0.500000
O O9 0.331853 0.500000 0.268458
O O10 0.274741 0.360573 0.151315
O O11 0.631218 0.624986 0.912107
O O12 0.750000 0.750000 0.000000
O O13 0.417145 0.500000 0.053971
O O14 0.318374 0.617734 0.850128
O O15 0.572865 0.620816 0.198185
O O16 0.697284 0.500000 0.279087
#
# Coordination Sequence:
#
# PCOD8093325 Si02
#       6
#     8   8   8   8   8   8
#     4   9  16  30  55  85 112 136 174 234 290 334
#     4  10  19  35  61  89 113 143 189 242 291 343
#     4  10  21  38  62  89 113 146 194 244 293 341
#     4  12  25  39  52  81 120 159 194 232 287 345
#     4   9  18  37  61  83 111 144 186 239 285 338
#     4   8  17  34  61  91 108 133 185 241 292 339
#
# _framework density 19.746635999999999
#
# number of rings (size 3 to 8) (size 9 to 14) (size 15 to 20)
#    0.000    2.333    1.667    2.500    2.333    0.667 
#    3.000    6.667    0.000    0.000    0.000    0.000 
#    0.000    0.000    0.000    0.000    0.000    0.000 
#
# Total GULP energy -297549.316316 kJ/mol
# GULP energy per Si atom -12397.888180 kJ/mol
# Density = 1.970169 g / cm^3
# Si number density = 19.746636 Si / 1000 Ang^3
#
#
#
# Elastic Constant Matrix: (Units=GPa)
#
#
# Indices 1 2 3 4 5 6 
#
# 1 64.2552 13.8730 0.7396 0.0000 10.8380 0.0000
# 2 13.8730 46.1693 21.5149 0.0000 0.7821 0.0000
# 3 0.7396 21.5149 112.8515 0.0000 10.2234 0.0000
# 4 0.0000 0.0000 0.0000 3.6166 0.0000 -3.7524
# 5 10.8380 0.7821 10.2234 0.0000 31.5133 0.0000
# 6 0.0000 0.0000 0.0000 -3.7524 0.0000 8.3213
#
#
#
# Elastic Compliance Matrix: (Units=1/GPa)
#
#
# Indices 1 2 3 4 5 6 
#
# 1 0.017954 -0.006042 0.001628 0.000000 -0.006553 0.000000
# 2 -0.006042 0.025830 -0.005167 0.000000 0.003113 0.000000
# 3 0.001628 -0.005167 0.010174 0.000000 -0.003732 0.000000
# 4 0.000000 0.000000 0.000000 0.519614 0.000000 0.234317
# 5 -0.006553 0.003113 -0.003732 0.000000 0.035120 0.000000
# 6 0.000000 0.000000 0.000000 0.234317 0.000000 0.225837
#
#
# Mechanical properties :
#
#
# Convention : Reuss Voigt Hill
#
# Bulk Modulus (GPa) = 28.73974 32.83679 30.78826
# Shear Modulus (GPa) = 5.77841 21.16681 13.47261
#
# Velocity S-wave (km/s) = 1.71249 3.27757 2.61487
# Velocity P-wave (km/s) = 4.30070 5.56673 4.97416
#
# Compressibility (1/GPa) = 0.03479503
#
# Stress axis : x y z
#
# Youngs Moduli (GPa) = 55.69764 38.71448 98.29266
#
# Poissons Ratio (x) = 0.23393 -0.16002
# Poissons Ratio (y) = 0.33655 0.50787
# Poissons Ratio (z) = -0.09067 0.20003
#
# Static dielectric constant tensor:
#      x y z
#    x 4.012440 0.000000 0.065460 
#    y 0.000000 3.133770 0.000000 
#    z 0.065460 0.000000 3.885050 
# 
# 
# High freq. dielectric constant tensor:
#      x y z
#    x 1.780180 0.000000 0.004480 
#    y 0.000000 1.712640 0.000000 
#    z 0.004480 0.000000 1.778150 
# 
# From -- ./inp_files/75052.got.cif
#   From: 2010.06.25/outbox.cif.g09.slc.cpg/sg12_38_cif.got.tgz:75052.got - 2010.06.28 00:19:55.
