data_PCOD8093228
_publ_section_title
;
Structure prediction by ZEFSAII (Michael W. Deem and Ramdas Pophale) SiO2 
 PCOD8093228
Probable space group: C 2/M
;
_chemical_formula_sum "Si O2"
_cell_formula_units_Z 56
_cell_length_a 19.462192
_cell_length_b 7.839671
_cell_length_c 29.026160
_cell_angle_alpha 90.000000
_cell_angle_beta 141.430350
_cell_angle_gamma 90.000000
_cell_volume 2761.160321
_symmetry_space_group_name_H-M "C 2/M"
_symmetry_group_IT_number 12
_symmetry_cell_setting 'monoclinic'
loop_
_space_group_symop_operation_xyz
x,y,z
-x,y,-z
-x,-y,-z
x,-y,z
1/2+x,1/2+y,z
1/2-x,1/2+y,-z
1/2-x,1/2-y,-z
1/2+x,1/2-y,z
loop_
_atom_site_type_symbol
_atom_site_label
_atom_site_fract_x
_atom_site_fract_y
_atom_site_fract_z
Si Si1 0.168878 0.798635 0.863567
Si Si2 0.479956 0.303651 0.131273
Si Si3 0.933938 0.500000 0.530111
Si Si4 0.675452 0.192084 0.287865
Si Si5 0.826536 0.500000 0.382915
Si Si6 0.417803 0.202233 0.997184
Si Si7 0.125190 0.807966 0.439522
Si Si8 0.472154 0.194286 0.702446
O O1 0.293714 0.731771 0.922577
O O2 0.119430 0.738355 0.887320
O O3 0.097962 0.723257 0.784250
O O4 0.166451 0.000000 0.858768
O O5 0.503015 0.500000 0.154458
O O6 0.592029 0.201254 0.200946
O O7 0.452860 0.280095 0.063990
O O8 0.829185 0.500000 0.440219
O O9 0.933977 0.674178 0.558700
O O10 0.048303 0.500000 0.564907
O O11 0.772094 0.329288 0.333711
O O12 0.607418 0.242721 0.297415
O O13 0.724408 0.000000 0.316131
O O14 0.422084 0.000000 0.003186
O O15 0.500000 0.267590 0.000000
O O16 0.250000 0.750000 0.500000
O O17 0.060968 0.812764 0.357385
O O18 0.120747 0.000000 0.457804
O O19 0.455919 0.000000 0.678363
#
# Coordination Sequence:
#
# PCOD8093228 Si02
#       8
#     8   8   4   8   4   8   8   8
#     4   9  19  35  56  83 115 158 203 259 313 360
#     4  10  19  35  60  87 113 153 212 257 303 363
#     4  11  26  44  62  96 127 165 209 246 315 377
#     4  10  21  38  65  94 121 163 206 255 308 362
#     4  11  24  44  66  88 130 167 203 255 300 376
#     4  10  21  37  54  80 120 160 201 252 313 376
#     4  12  23  40  65  94 128 163 205 260 315 366
#     4  10  20  36  61  93 123 155 208 260 313 370
#
# _framework density 20.281327999999998
#
# number of rings (size 3 to 8) (size 9 to 14) (size 15 to 20)
#    0.000    1.714    2.143    2.143    2.000    3.714 
#    2.571    1.429    0.000    0.000    0.000    0.000 
#    0.000    0.000    0.000    0.000    0.000    0.000 
#
# Total GULP energy -347196.520063 kJ/mol
# GULP energy per Si atom -12399.875717 kJ/mol
# Density = 2.023517 g / cm^3
# Si number density = 20.281328 Si / 1000 Ang^3
#
#
#
# Elastic Constant Matrix: (Units=GPa)
#
#
# Indices 1 2 3 4 5 6 
#
# 1 81.7742 29.1023 52.6951 0.0003 4.7864 -0.0009
# 2 29.1023 104.7265 39.5593 0.0001 4.4946 -0.0004
# 3 52.6951 39.5593 125.9549 0.0002 0.6703 -0.0006
# 4 0.0003 0.0001 0.0002 30.9172 -0.0001 -3.5234
# 5 4.7864 4.4946 0.6703 -0.0001 28.7306 0.0003
# 6 -0.0009 -0.0004 -0.0006 -3.5234 0.0003 20.0740
#
#
#
# Elastic Compliance Matrix: (Units=1/GPa)
#
#
# Indices 1 2 3 4 5 6 
#
# 1 0.017397 -0.002255 -0.006557 0.000000 -0.002393 0.000001
# 2 -0.002255 0.011202 -0.002568 0.000000 -0.001317 0.000000
# 3 -0.006557 -0.002568 0.011483 0.000000 0.001226 0.000000
# 4 0.000000 0.000000 0.000000 0.033005 0.000000 0.005793
# 5 -0.002393 -0.001317 0.001226 0.000000 0.035382 -0.000001
# 6 0.000001 0.000000 0.000000 0.005793 -0.000001 0.050832
#
#
# Mechanical properties :
#
#
# Convention : Reuss Voigt Hill
#
# Bulk Modulus (GPa) = 57.73220 61.68545 59.70882
# Shear Modulus (GPa) = 26.61923 28.68428 27.65176
#
# Velocity S-wave (km/s) = 3.62677 3.76482 3.69644
# Velocity P-wave (km/s) = 6.78715 7.02705 6.90814
#
# Compressibility (1/GPa) = 0.01732136
#
# Stress axis : x y z
#
# Youngs Moduli (GPa) = 57.48183 89.27182 87.08762
#
# Poissons Ratio (x) = 0.20128 0.57106
# Poissons Ratio (y) = 0.12961 0.22363
# Poissons Ratio (z) = 0.37693 0.22924
#
# Static dielectric constant tensor:
#      x y z
#    x 3.627820 0.000000 0.006680 
#    y 0.000000 4.067590 0.000000 
#    z 0.006680 0.000000 3.923580 
# 
# 
# High freq. dielectric constant tensor:
#      x y z
#    x 1.765870 0.000000 -0.001570 
#    y 0.000000 1.798040 0.000000 
#    z -0.001570 0.000000 1.804370 
# 
# From -- ./inp_files/363256.got.cif
#   From: 2010.06.25/outbox.cif.g09.slc.cpg/sg12_182_cif.got.tgz:363256.got - 2010.06.28 00:19:55.
