data_PCOD8093614
_publ_section_title
;
Structure prediction by ZEFSAII (Michael W. Deem and Ramdas Pophale) SiO2 
 PCOD8093614
Probable space group: C 2/M
;
_chemical_formula_sum "Si O2"
_cell_formula_units_Z 64
_cell_length_a 20.364632
_cell_length_b 8.946154
_cell_length_c 20.035852
_cell_angle_alpha 90.000000
_cell_angle_beta 66.327987
_cell_angle_gamma 90.000000
_cell_volume 3343.099360
_symmetry_space_group_name_H-M "C 2/M"
_symmetry_group_IT_number 12
_symmetry_cell_setting 'monoclinic'
loop_
_space_group_symop_operation_xyz
x,y,z
-x,y,-z
-x,-y,-z
x,-y,z
1/2+x,1/2+y,z
1/2-x,1/2+y,-z
1/2-x,1/2-y,-z
1/2+x,1/2-y,z
loop_
_atom_site_type_symbol
_atom_site_label
_atom_site_fract_x
_atom_site_fract_y
_atom_site_fract_z
Si Si1 0.174935 0.826990 0.543841
Si Si2 0.303388 0.175324 0.067883
Si Si3 0.805378 0.174755 0.204200
Si Si4 0.402937 0.328867 0.289051
Si Si5 0.852975 0.824478 0.918553
Si Si6 0.916466 0.674867 0.528623
Si Si7 0.448498 0.823460 0.773906
Si Si8 0.148643 0.677279 0.307527
O O1 0.250000 0.750000 0.500000
O O2 0.154044 0.800368 0.629152
O O3 0.112782 0.759576 0.523602
O O4 0.183372 0.000000 0.523669
O O5 0.328236 0.235901 0.129144
O O6 0.220100 0.216644 0.090514
O O7 0.316883 0.000000 0.057909
O O8 0.352052 0.254609 0.992532
O O9 0.864680 0.208853 0.235229
O O10 0.728872 0.234829 0.261581
O O11 0.800094 0.000000 0.189100
O O12 0.430005 0.500000 0.279318
O O13 0.469308 0.218650 0.271129
O O14 0.919700 0.754522 0.852366
O O15 0.864209 0.000000 0.920625
O O16 0.901017 0.500000 0.525530
O O17 0.877708 0.739239 0.610485
O O18 0.000000 0.708938 0.500000
O O19 0.403416 0.762512 0.729271
O O20 0.440682 0.000000 0.785091
O O21 0.145083 0.500000 0.310883
#
# Coordination Sequence:
#
# PCOD8093614 Si02
#       8
#     8   8   8   8   8   8   8   8
#     4  11  23  40  61  84 114 153 198 245 292 348
#     4  10  20  34  56  87 118 146 186 237 281 326
#     4  10  19  36  58  79 109 150 192 232 280 340
#     4  10  23  40  58  81 116 156 190 232 289 349
#     4  10  20  35  57  85 119 154 186 226 281 340
#     4  10  20  36  58  84 116 151 191 238 291 350
#     4  11  21  36  60  87 116 151 192 237 283 337
#     4   9  18  33  56  83 110 146 189 233 283 340
#
# _framework density 19.143912
#
# number of rings (size 3 to 8) (size 9 to 14) (size 15 to 20)
#    0.000    1.875    1.250    3.000    0.000    5.750 
#    0.000    3.750    0.000    3.750    0.000    0.000 
#    0.000    0.000    0.000    0.000    0.000    0.000 
#
# Total GULP energy -396970.521219 kJ/mol
# GULP energy per Si atom -12405.328788 kJ/mol
# Density = 1.910034 g / cm^3
# Si number density = 19.143912 Si / 1000 Ang^3
#
#
#
# Elastic Constant Matrix: (Units=GPa)
#
#
# Indices 1 2 3 4 5 6 
#
# 1 79.5479 37.0243 25.9146 -0.0001 7.0404 -0.0002
# 2 37.0243 75.5866 37.1611 -0.0002 5.0455 -0.0004
# 3 25.9146 37.1611 96.1983 0.0000 15.8987 -0.0001
# 4 -0.0001 -0.0002 0.0000 31.6105 0.0000 0.0165
# 5 7.0404 5.0455 15.8987 0.0000 31.3879 0.0000
# 6 -0.0002 -0.0004 -0.0001 0.0165 0.0000 30.0836
#
#
#
# Elastic Compliance Matrix: (Units=1/GPa)
#
#
# Indices 1 2 3 4 5 6 
#
# 1 0.016588 -0.007352 -0.001320 0.000000 -0.001871 0.000000
# 2 -0.007352 0.019601 -0.005831 0.000000 0.001452 0.000000
# 3 -0.001320 -0.005831 0.013969 0.000000 -0.005842 0.000000
# 4 0.000000 0.000000 0.000000 0.031635 0.000000 -0.000017
# 5 -0.001871 0.001452 -0.005842 0.000000 0.035005 0.000000
# 6 0.000000 0.000000 0.000000 -0.000017 0.000000 0.033241
#
#
# Mechanical properties :
#
#
# Convention : Reuss Voigt Hill
#
# Bulk Modulus (GPa) = 47.27502 50.17033 48.72267
# Shear Modulus (GPa) = 26.86805 28.69857 27.78331
#
# Velocity S-wave (km/s) = 3.75037 3.87602 3.81371
# Velocity P-wave (km/s) = 6.59559 6.80406 6.70063
#
# Compressibility (1/GPa) = 0.02115282
#
# Stress axis : x y z
#
# Youngs Moduli (GPa) = 60.28371 51.01810 71.58812
#
# Poissons Ratio (x) = 0.37507 0.09446
# Poissons Ratio (y) = 0.44319 0.41745
# Poissons Ratio (z) = 0.07955 0.29750
#
# Static dielectric constant tensor:
#      x y z
#    x 3.451560 0.000000 0.096230 
#    y 0.000000 3.358000 0.000000 
#    z 0.096230 0.000000 3.640430 
# 
# 
# High freq. dielectric constant tensor:
#      x y z
#    x 1.736920 0.000000 0.004400 
#    y 0.000000 1.734330 0.000000 
#    z 0.004400 0.000000 1.759300 
# 
# From -- ./inp_files/319892.got.cif
#   From: 2010.06.25/outbox.cif.g09.slc.cpg/sg12_160_cif.got.tgz:319892.got - 2010.06.28 00:19:55.
