data_PCOD8093505
_publ_section_title
;
Structure prediction by ZEFSAII (Michael W. Deem and Ramdas Pophale) SiO2 
 PCOD8093505
Probable space group: C 2/M
;
_chemical_formula_sum "Si O2"
_cell_formula_units_Z 44
_cell_length_a 12.773464
_cell_length_b 22.779292
_cell_length_c 10.452569
_cell_angle_alpha 90.000000
_cell_angle_beta 54.149993
_cell_angle_gamma 90.000000
_cell_volume 2465.206777
_symmetry_space_group_name_H-M "C 2/M"
_symmetry_group_IT_number 12
_symmetry_cell_setting 'monoclinic'
loop_
_space_group_symop_operation_xyz
x,y,z
-x,y,-z
-x,-y,-z
x,-y,z
1/2+x,1/2+y,z
1/2-x,1/2+y,-z
1/2-x,1/2-y,-z
1/2+x,1/2-y,z
loop_
_atom_site_type_symbol
_atom_site_label
_atom_site_fract_x
_atom_site_fract_y
_atom_site_fract_z
Si Si1 0.706806 0.296258 0.200989
Si Si2 0.273652 0.432556 0.533276
Si Si3 0.500000 0.637118 0.500000
Si Si4 0.353118 0.931972 0.642757
Si Si5 0.828044 0.331350 0.856543
Si Si6 0.925067 0.639391 0.176642
O O1 0.574791 0.322614 0.346799
O O2 0.693607 0.226296 0.212333
O O3 0.826485 0.309262 0.208522
O O4 0.730641 0.326726 0.046149
O O5 0.297072 0.500000 0.543034
O O6 0.403879 0.400881 0.482529
O O7 0.242097 0.420111 0.407742
O O8 0.150480 0.414168 0.705587
O O9 0.500000 0.915792 0.500000
O O10 0.302148 0.890443 0.793791
O O11 0.345865 0.000000 0.692706
O O12 0.976046 0.331190 0.795996
O O13 0.000000 0.613471 0.000000
#
# Coordination Sequence:
#
# PCOD8093505 Si02
#       6
#     8   8   4   8   8   8
#     4   9  21  35  54  80 109 143 186 218 269 327
#     4  10  20  35  54  78 108 143 181 225 268 321
#     4  10  21  38  54  76 109 148 184 218 264 334
#     4  10  20  34  55  83 110 137 177 226 277 326
#     4  10  19  36  56  80 111 141 175 234 274 315
#     4   9  18  33  52  77 106 138 182 229 270 317
#
# _framework density 17.848402
#
# number of rings (size 3 to 8) (size 9 to 14) (size 15 to 20)
#    0.000    2.364    1.818    0.273    1.273    1.818 
#    0.000   14.545    0.000    2.182    0.000    0.000 
#    0.000    0.000    0.000    0.000    0.000    0.000 
#
# Total GULP energy -272785.492045 kJ/mol
# GULP energy per Si atom -12399.340547 kJ/mol
# Density = 1.780778 g / cm^3
# Si number density = 17.848402 Si / 1000 Ang^3
#
#
#
# Elastic Constant Matrix: (Units=GPa)
#
#
# Indices 1 2 3 4 5 6 
#
# 1 94.1386 49.8570 51.8730 0.0000 -0.0598 0.0000
# 2 49.8570 120.6210 73.8007 0.0000 7.2285 0.0000
# 3 51.8730 73.8007 98.8720 0.0000 -6.6403 0.0000
# 4 0.0000 0.0000 0.0000 32.3937 0.0000 6.4185
# 5 -0.0598 7.2285 -6.6403 0.0000 27.5339 0.0000
# 6 0.0000 0.0000 0.0000 6.4185 0.0000 19.1574
#
#
#
# Elastic Compliance Matrix: (Units=1/GPa)
#
#
# Indices 1 2 3 4 5 6 
#
# 1 0.015395 -0.002460 -0.006297 0.000000 -0.000839 0.000000
# 2 -0.002460 0.017045 -0.011926 0.000000 -0.007356 0.000000
# 3 -0.006297 -0.011926 0.022900 0.000000 0.008640 0.000000
# 4 0.000000 0.000000 0.000000 0.033065 0.000000 -0.011078
# 5 -0.000839 -0.007356 0.008640 0.000000 0.040332 0.000000
# 6 0.000000 0.000000 0.000000 -0.011078 0.000000 0.055911
#
#
# Mechanical properties :
#
#
# Convention : Reuss Voigt Hill
#
# Bulk Modulus (GPa) = 71.56484 73.85476 72.70980
# Shear Modulus (GPa) = 21.67577 25.02373 23.34975
#
# Velocity S-wave (km/s) = 3.48866 3.74841 3.62087
# Velocity P-wave (km/s) = 7.51070 7.75905 7.63589
#
# Compressibility (1/GPa) = 0.01397334
#
# Stress axis : x y z
#
# Youngs Moduli (GPa) = 64.95700 58.66770 43.66819
#
# Poissons Ratio (x) = 0.14434 0.27497
# Poissons Ratio (y) = 0.15982 0.52080
# Poissons Ratio (z) = 0.40902 0.69968
#
# Static dielectric constant tensor:
#      x y z
#    x 3.412220 0.000000 0.035300 
#    y 0.000000 3.223380 0.000000 
#    z 0.035300 0.000000 3.325600 
# 
# 
# High freq. dielectric constant tensor:
#      x y z
#    x 1.699050 0.000000 0.004800 
#    y 0.000000 1.687300 0.000000 
#    z 0.004800 0.000000 1.686900 
# 
# From -- ./inp_files/51224.got.cif
#   From: 2010.06.25/outbox.cif.g09.slc.cpg/sg12_26_cif.got.tgz:51224.got - 2010.06.28 00:19:55.
