data_PCOD8093378
_publ_section_title
;
Structure prediction by ZEFSAII (Michael W. Deem and Ramdas Pophale) SiO2 
 PCOD8093378
Probable space group: C 2/M
;
_chemical_formula_sum "Si O2"
_cell_formula_units_Z 56
_cell_length_a 27.819029
_cell_length_b 16.431499
_cell_length_c 9.922448
_cell_angle_alpha 90.000000
_cell_angle_beta 141.569394
_cell_angle_gamma 90.000000
_cell_volume 2819.197220
_symmetry_space_group_name_H-M "C 2/M"
_symmetry_group_IT_number 12
_symmetry_cell_setting 'monoclinic'
loop_
_space_group_symop_operation_xyz
x,y,z
-x,y,-z
-x,-y,-z
x,-y,z
1/2+x,1/2+y,z
1/2-x,1/2+y,-z
1/2-x,1/2-y,-z
1/2+x,1/2-y,z
loop_
_atom_site_type_symbol
_atom_site_label
_atom_site_fract_x
_atom_site_fract_y
_atom_site_fract_z
Si Si1 0.182291 0.408217 0.253013
Si Si2 0.573015 0.090432 0.253882
Si Si3 0.571497 0.500000 0.053963
Si Si4 0.610531 0.761072 0.988781
Si Si5 0.156752 0.840732 0.325371
Si Si6 0.592004 0.328493 0.692978
Si Si7 0.077657 0.000000 0.750992
Si Si8 0.932470 0.756098 0.635571
O O1 0.189683 0.500000 0.212490
O O2 0.150652 0.409647 0.335749
O O3 0.263291 0.361156 0.425960
O O4 0.122174 0.358568 0.025658
O O5 0.582967 0.158481 0.391810
O O6 0.560633 0.000000 0.290224
O O7 0.500000 0.113939 0.000000
O O8 0.623397 0.422914 0.193738
O O9 0.500000 0.500000 0.000000
O O10 0.551726 0.500000 0.851171
O O11 0.631671 0.734209 0.884011
O O12 0.524125 0.729916 0.830103
O O13 0.668268 0.720459 0.225029
O O14 0.097032 0.799806 0.296185
O O15 0.500000 0.325902 0.500000
O O16 0.623693 0.418717 0.803726
O O17 0.613257 0.297530 0.589867
O O18 0.000000 0.000000 0.500000
#
# Coordination Sequence:
#
# PCOD8093378 Si02
#       8
#     8   8   4   8   8   8   4   8
#     4  11  23  39  58  89 125 160 194 245 314 360
#     4  10  19  35  62  89 115 151 201 253 298 350
#     4  12  24  36  62  94 125 155 208 255 291 352
#     4  11  20  38  61  86 117 158 200 248 296 357
#     4  12  23  37  59  91 124 152 199 251 299 356
#     4   9  21  35  57  83 122 158 196 244 300 359
#     4  10  20  38  54  84 128 165 195 239 305 359
#     4  11  21  37  60  95 116 150 204 250 300 351
#
# _framework density 19.863810999999998
#
# number of rings (size 3 to 8) (size 9 to 14) (size 15 to 20)
#    0.000    1.286    5.000    1.714    4.000    0.000 
#    0.000    1.429    0.000    2.571    0.000    0.000 
#    0.000    0.000    0.000    0.000    0.000    0.000 
#
# Total GULP energy -347077.423616 kJ/mol
# GULP energy per Si atom -12395.622272 kJ/mol
# Density = 1.981860 g / cm^3
# Si number density = 19.863811 Si / 1000 Ang^3
#
#
#
# Elastic Constant Matrix: (Units=GPa)
#
#
# Indices 1 2 3 4 5 6 
#
# 1 41.6125 35.9536 36.4360 0.0000 -13.1444 0.0000
# 2 35.9536 155.4020 47.6949 0.0000 -25.1275 0.0000
# 3 36.4360 47.6949 73.7161 0.0000 -19.4494 0.0000
# 4 0.0000 0.0000 0.0000 30.2450 0.0000 1.0670
# 5 -13.1444 -25.1275 -19.4494 0.0000 38.7997 0.0000
# 6 0.0000 0.0000 0.0000 1.0670 0.0000 72.1606
#
#
#
# Elastic Compliance Matrix: (Units=1/GPa)
#
#
# Indices 1 2 3 4 5 6 
#
# 1 0.045021 -0.004155 -0.018727 0.000000 0.003174 0.000000
# 2 -0.004155 0.008726 -0.002849 0.000000 0.002815 0.000000
# 3 -0.018727 -0.002849 0.025935 0.000000 0.004811 0.000000
# 4 0.000000 0.000000 0.000000 0.033081 0.000000 -0.000489
# 5 0.003174 0.002815 0.004811 0.000000 0.031083 0.000000
# 6 0.000000 0.000000 0.000000 -0.000489 0.000000 0.013865
#
#
# Mechanical properties :
#
#
# Convention : Reuss Voigt Hill
#
# Bulk Modulus (GPa) = 35.43721 56.76662 46.10191
# Shear Modulus (GPa) = 22.87487 38.28414 30.57951
#
# Velocity S-wave (km/s) = 3.39718 4.39490 3.92785
# Velocity P-wave (km/s) = 5.76772 7.37519 6.62043
#
# Compressibility (1/GPa) = 0.02821893
#
# Stress axis : x y z
#
# Youngs Moduli (GPa) = 22.21163 114.60106 38.55853
#
# Poissons Ratio (x) = 0.47621 0.72209
# Poissons Ratio (y) = 0.09230 0.10986
# Poissons Ratio (z) = 0.41596 0.32651
#
# Static dielectric constant tensor:
#      x y z
#    x 3.444250 0.000000 -0.118100 
#    y 0.000000 -48.138420 0.000000 
#    z -0.118100 0.000000 3.552210 
# 
# 
# High freq. dielectric constant tensor:
#      x y z
#    x 1.744390 0.000000 -0.002880 
#    y 0.000000 1.800780 0.000000 
#    z -0.002880 0.000000 1.748850 
# 
# From -- ./inp_files/106074.got.cif
#   From: 2010.06.25/outbox.cif.g09.slc.cpg/sg12_54_cif.got.tgz:106074.got - 2010.06.28 00:19:55.
