data_PCOD8093120
_publ_section_title
;
Structure prediction by ZEFSAII (Michael W. Deem and Ramdas Pophale) SiO2 
 PCOD8093120
Probable space group: C 2/M
;
_chemical_formula_sum "Si O2"
_cell_formula_units_Z 64
_cell_length_a 21.760036
_cell_length_b 13.584566
_cell_length_c 9.591276
_cell_angle_alpha 90.000000
_cell_angle_beta 97.834727
_cell_angle_gamma 90.000000
_cell_volume 2808.722037
_symmetry_space_group_name_H-M "C 2/M"
_symmetry_group_IT_number 12
_symmetry_cell_setting 'monoclinic'
loop_
_space_group_symop_operation_xyz
x,y,z
-x,y,-z
-x,-y,-z
x,-y,z
1/2+x,1/2+y,z
1/2-x,1/2+y,-z
1/2-x,1/2-y,-z
1/2+x,1/2-y,z
loop_
_atom_site_type_symbol
_atom_site_label
_atom_site_fract_x
_atom_site_fract_y
_atom_site_fract_z
Si Si1 0.519928 0.287808 0.678850
Si Si2 0.591936 0.611991 0.227428
Si Si3 0.736659 0.304065 0.687291
Si Si4 0.117412 0.886493 0.532523
Si Si5 0.429806 0.756200 0.024123
Si Si6 0.843928 0.612576 0.863745
Si Si7 0.694778 0.113793 0.559545
Si Si8 0.572137 0.111559 0.379061
O O1 0.475813 0.372703 0.726795
O O2 0.555546 0.323162 0.549838
O O3 0.486099 0.184496 0.634343
O O4 0.571533 0.276727 0.816422
O O5 0.600350 0.500000 0.181654
O O6 0.636738 0.638071 0.375765
O O7 0.601583 0.677792 0.093206
O O8 0.671367 0.360527 0.657251
O O9 0.777796 0.329833 0.835319
O O10 0.722950 0.186464 0.685304
O O11 0.777294 0.347942 0.575300
O O12 0.099978 0.000000 0.541381
O O13 0.384218 0.850329 0.007377
O O14 0.500000 0.782238 0.000000
O O15 0.826686 0.500000 0.877301
O O16 0.889032 0.633221 0.747611
O O17 0.619793 0.125892 0.524300
O O18 0.713394 0.000000 0.594578
O O19 0.546086 0.000000 0.371233
#
# Coordination Sequence:
#
# PCOD8093120 Si02
#       8
#     8   8   8   8   8   8   8   8
#     4  11  21  36  56  83 119 154 195 238 289 347
#     4  10  21  36  55  81 114 150 193 242 288 341
#     4  10  20  34  56  83 118 152 198 242 284 350
#     4  11  23  38  58  85 118 160 199 234 288 357
#     4  10  21  36  56  86 115 147 193 245 296 338
#     4  10  19  35  59  87 114 146 195 251 295 340
#     4   9  18  32  56  85 116 152 192 247 301 341
#     4   9  17  32  56  86 116 147 192 246 298 343
#
# _framework density 22.786163999999999
#
# number of rings (size 3 to 8) (size 9 to 14) (size 15 to 20)
#    0.000    2.000    2.500    3.375    3.500    4.500 
#    0.000    1.250    0.000    3.750    0.000    0.000 
#    0.000    0.000    0.000    0.000    0.000    0.000 
#
# Total GULP energy -396546.903619 kJ/mol
# GULP energy per Si atom -12392.090738 kJ/mol
# Density = 2.273430 g / cm^3
# Si number density = 22.786164 Si / 1000 Ang^3
#
#
#
# Elastic Constant Matrix: (Units=GPa)
#
#
# Indices 1 2 3 4 5 6 
#
# 1 64.0288 47.8940 17.7204 0.0000 22.7375 0.0000
# 2 47.8940 155.6208 38.2624 0.0000 16.3201 0.0000
# 3 17.7204 38.2624 63.8995 0.0000 9.0354 0.0000
# 4 0.0000 0.0000 0.0000 19.9199 0.0000 9.1662
# 5 22.7375 16.3201 9.0354 0.0000 28.2119 0.0000
# 6 0.0000 0.0000 0.0000 9.1662 0.0000 31.4359
#
#
#
# Elastic Compliance Matrix: (Units=1/GPa)
#
#
# Indices 1 2 3 4 5 6 
#
# 1 0.026794 -0.006075 -0.001295 0.000000 -0.017666 0.000000
# 2 -0.006075 0.009172 -0.003927 0.000000 0.000848 0.000000
# 3 -0.001295 -0.003927 0.018740 0.000000 -0.002686 0.000000
# 4 0.000000 0.000000 0.000000 0.057980 0.000000 -0.016906
# 5 -0.017666 0.000848 -0.002686 0.000000 0.050053 0.000000
# 6 0.000000 0.000000 0.000000 -0.016906 0.000000 0.036740
#
#
# Mechanical properties :
#
#
# Convention : Reuss Voigt Hill
#
# Bulk Modulus (GPa) = 31.14136 54.58919 42.86527
# Shear Modulus (GPa) = 21.47962 27.89170 24.68566
#
# Velocity S-wave (km/s) = 3.07361 3.50246 3.29502
# Velocity P-wave (km/s) = 5.12763 6.35338 5.77313
#
# Compressibility (1/GPa) = 0.03211164
#
# Stress axis : x y z
#
# Youngs Moduli (GPa) = 37.32210 109.02437 53.36119
#
# Poissons Ratio (x) = 0.66234 0.06909
# Poissons Ratio (y) = 0.22674 0.20957
# Poissons Ratio (z) = 0.04832 0.42819
#
# Static dielectric constant tensor:
#      x y z
#    x 4.056750 0.000000 0.529440 
#    y 0.000000 4.189280 0.000000 
#    z 0.529440 0.000000 4.300340 
# 
# 
# High freq. dielectric constant tensor:
#      x y z
#    x 1.877220 0.000000 0.037920 
#    y 0.000000 1.907350 0.000000 
#    z 0.037920 0.000000 1.876300 
# 
# From -- ./inp_files/176148.got.cif
#   From: 2010.06.25/outbox.cif.g09.slc.cpg/sg12_89_cif.got.tgz:176148.got - 2010.06.28 00:19:55.
