data_PCOD8093371
_publ_section_title
;
Structure prediction by ZEFSAII (Michael W. Deem and Ramdas Pophale) SiO2 
 PCOD8093371
Probable space group: C 2/M
;
_chemical_formula_sum "Si O2"
_cell_formula_units_Z 48
_cell_length_a 29.522706
_cell_length_b 9.058807
_cell_length_c 14.874230
_cell_angle_alpha 90.000000
_cell_angle_beta 38.444270
_cell_angle_gamma 90.000000
_cell_volume 2473.316162
_symmetry_space_group_name_H-M "C 2/M"
_symmetry_group_IT_number 12
_symmetry_cell_setting 'monoclinic'
loop_
_space_group_symop_operation_xyz
x,y,z
-x,y,-z
-x,-y,-z
x,-y,z
1/2+x,1/2+y,z
1/2-x,1/2+y,-z
1/2-x,1/2-y,-z
1/2+x,1/2-y,z
loop_
_atom_site_type_symbol
_atom_site_label
_atom_site_fract_x
_atom_site_fract_y
_atom_site_fract_z
Si Si1 0.787103 0.824792 0.527614
Si Si2 0.949560 0.172941 0.320329
Si Si3 0.815963 0.323685 0.949670
Si Si4 0.532487 0.832587 0.041996
Si Si5 0.694689 0.166612 0.832913
Si Si6 0.975947 0.672930 0.637552
O O1 0.750000 0.750000 0.500000
O O2 0.871587 0.781402 0.401023
O O3 0.752240 0.760452 0.674589
O O4 0.774593 0.000000 0.539511
O O5 0.010150 0.226358 0.156876
O O6 0.964802 0.248328 0.391883
O O7 0.955445 0.000000 0.325588
O O8 0.809541 0.500000 0.955084
O O9 0.893357 0.273135 0.786732
O O10 0.750000 0.250000 0.000000
O O11 0.810436 0.260228 0.060378
O O12 0.505584 0.000000 0.103270
O O13 0.500000 0.771332 0.000000
O O14 0.618676 0.826067 0.899143
O O15 0.719655 0.000000 0.811531
O O16 0.981526 0.500000 0.647546
O O17 0.000000 0.715001 0.500000
#
# Coordination Sequence:
#
# PCOD8093371 Si02
#       6
#     8   8   8   8   8   8
#     4  10  22  39  58  84 116 153 194 235 282 336
#     4  11  23  37  57  87 122 152 185 238 295 344
#     4  10  21  38  60  85 114 147 187 236 285 339
#     4  10  19  35  62  86 108 149 196 234 280 341
#     4   9  18  36  58  80 111 148 188 231 275 334
#     4  10  22  41  63  86 114 150 195 240 284 345
#
# _framework density 19.407142
#
# number of rings (size 3 to 8) (size 9 to 14) (size 15 to 20)
#    0.000    2.000    1.667    1.500    2.333    4.000 
#    0.000    1.667    0.000    0.000    0.000    0.000 
#    0.000    0.000    0.000    0.000    0.000    0.000 
#
# Total GULP energy -297576.269458 kJ/mol
# GULP energy per Si atom -12399.011227 kJ/mol
# Density = 1.936297 g / cm^3
# Si number density = 19.407142 Si / 1000 Ang^3
#
#
#
# Elastic Constant Matrix: (Units=GPa)
#
#
# Indices 1 2 3 4 5 6 
#
# 1 126.3586 38.0227 31.2112 0.0000 9.2081 0.0000
# 2 38.0227 35.9436 23.8318 -0.0006 1.4368 0.0002
# 3 31.2112 23.8318 108.0289 -0.0001 12.0628 0.0000
# 4 0.0000 -0.0006 -0.0001 12.8036 0.0000 -2.0123
# 5 9.2081 1.4368 12.0628 0.0000 34.0023 0.0000
# 6 0.0000 0.0002 0.0000 -2.0123 0.0000 36.2143
#
#
#
# Elastic Compliance Matrix: (Units=1/GPa)
#
#
# Indices 1 2 3 4 5 6 
#
# 1 0.011868 -0.012144 -0.000467 -0.000001 -0.002535 0.000000
# 2 -0.012144 0.045063 -0.006859 0.000002 0.003818 0.000000
# 3 -0.000467 -0.006859 0.011306 0.000000 -0.003595 0.000000
# 4 -0.000001 0.000002 0.000000 0.078791 0.000000 0.004378
# 5 -0.002535 0.003818 -0.003595 0.000000 0.031210 0.000000
# 6 0.000000 0.000000 0.000000 0.004378 0.000000 0.027857
#
#
# Mechanical properties :
#
#
# Convention : Reuss Voigt Hill
#
# Bulk Modulus (GPa) = 34.13193 50.71804 42.42499
# Shear Modulus (GPa) = 19.62316 28.42171 24.02244
#
# Velocity S-wave (km/s) = 3.18328 3.83103 3.52208
# Velocity P-wave (km/s) = 5.58001 6.76457 6.20064
#
# Compressibility (1/GPa) = 0.02929808
#
# Stress axis : x y z
#
# Youngs Moduli (GPa) = 84.25809 22.19124 88.44745
#
# Poissons Ratio (x) = 0.26949 0.04129
# Poissons Ratio (y) = 1.02323 0.60665
# Poissons Ratio (z) = 0.03933 0.15221
#
# Static dielectric constant tensor:
#      x y z
#    x 3.684650 0.000000 0.083590 
#    y 0.000000 3.272410 0.000000 
#    z 0.083590 0.000000 3.785760 
# 
# 
# High freq. dielectric constant tensor:
#      x y z
#    x 1.768920 0.000000 0.003120 
#    y 0.000000 1.725070 0.000000 
#    z 0.003120 0.000000 1.767820 
# 
# From -- ./inp_files/230446.got.cif
#   From: 2010.06.25/outbox.cif.g09.slc.cpg/sg12_116_cif.got.tgz:230446.got - 2010.06.28 00:19:55.
