data_PCOD8093963
_publ_section_title
;
Structure prediction by ZEFSAII (Michael W. Deem and Ramdas Pophale) SiO2 
 PCOD8093963
Probable space group: C 2/M
;
_chemical_formula_sum "Si O2"
_cell_formula_units_Z 48
_cell_length_a 18.762883
_cell_length_b 13.704053
_cell_length_c 9.256274
_cell_angle_alpha 90.000000
_cell_angle_beta 92.181054
_cell_angle_gamma 90.000000
_cell_volume 2378.318782
_symmetry_space_group_name_H-M "C 2/M"
_symmetry_group_IT_number 12
_symmetry_cell_setting 'monoclinic'
loop_
_space_group_symop_operation_xyz
x,y,z
-x,y,-z
-x,-y,-z
x,-y,z
1/2+x,1/2+y,z
1/2-x,1/2+y,-z
1/2-x,1/2-y,-z
1/2+x,1/2-y,z
loop_
_atom_site_type_symbol
_atom_site_label
_atom_site_fract_x
_atom_site_fract_y
_atom_site_fract_z
Si Si1 0.609899 0.393822 0.567003
Si Si2 0.655361 0.111751 0.163541
Si Si3 0.770671 0.239233 0.335507
Si Si4 0.536923 0.607912 0.280175
Si Si5 0.509015 0.190128 0.162657
Si Si6 0.140747 0.614141 0.823206
O O1 0.646238 0.500000 0.573370
O O2 0.657968 0.323751 0.665086
O O3 0.533727 0.398238 0.633067
O O4 0.600740 0.363692 0.396841
O O5 0.709726 0.186068 0.240839
O O6 0.577209 0.130625 0.228735
O O7 0.677815 0.000000 0.195007
O O8 0.654380 0.135282 0.992955
O O9 0.750000 0.250000 0.500000
O O10 0.792947 0.341246 0.262254
O O11 0.551242 0.500000 0.209935
O O12 0.528153 0.694190 0.163893
O O13 0.435006 0.161526 0.236669
O O14 0.500000 0.154069 0.000000
O O15 0.138287 0.500000 0.789143
#
# Coordination Sequence:
#
# PCOD8093963 Si02
#       6
#     8   8   8   8   8   8
#     4   9  18  33  54  75 106 149 187 227 281 345
#     4  10  22  40  62  87 118 157 196 240 296 355
#     4  12  23  37  59  88 119 152 194 245 299 351
#     4   9  17  32  54  81 110 145 189 231 281 340
#     4  10  19  36  61  86 115 151 196 244 290 343
#     4  10  22  41  62  85 116 157 202 242 289 351
#
# _framework density 20.182323
#
# number of rings (size 3 to 8) (size 9 to 14) (size 15 to 20)
#    0.000    2.000    1.667    3.500    0.000    3.667 
#    0.000    0.833    0.000    3.000    0.000    0.000 
#    0.000    0.000    0.000    0.000    0.000    0.000 
#
# Total GULP energy -297397.261843 kJ/mol
# GULP energy per Si atom -12391.552577 kJ/mol
# Density = 2.013639 g / cm^3
# Si number density = 20.182323 Si / 1000 Ang^3
#
#
#
# Elastic Constant Matrix: (Units=GPa)
#
#
# Indices 1 2 3 4 5 6 
#
# 1 103.1267 51.0696 38.1907 0.0000 12.5617 0.0000
# 2 51.0696 121.9556 36.5444 0.0000 9.1615 0.0000
# 3 38.1907 36.5444 59.6429 0.0000 -0.3923 0.0000
# 4 0.0000 0.0000 0.0000 30.8582 0.0000 1.3525
# 5 12.5617 9.1615 -0.3923 0.0000 29.0300 0.0000
# 6 0.0000 0.0000 0.0000 1.3525 0.0000 30.1071
#
#
#
# Elastic Compliance Matrix: (Units=1/GPa)
#
#
# Indices 1 2 3 4 5 6 
#
# 1 0.014862 -0.003622 -0.007333 0.000000 -0.005387 0.000000
# 2 -0.003622 0.011243 -0.004583 0.000000 -0.002043 0.000000
# 3 -0.007333 -0.004583 0.024303 0.000000 0.004948 0.000000
# 4 0.000000 0.000000 0.000000 0.032470 0.000000 -0.001459
# 5 -0.005387 -0.002043 0.004948 0.000000 0.037490 0.000000
# 6 0.000000 0.000000 0.000000 -0.001459 0.000000 0.033280
#
#
# Mechanical properties :
#
#
# Convention : Reuss Voigt Hill
#
# Bulk Modulus (GPa) = 51.72710 59.59274 55.65992
# Shear Modulus (GPa) = 26.15498 28.59377 27.37438
#
# Velocity S-wave (km/s) = 3.60382 3.76809 3.68687
# Velocity P-wave (km/s) = 6.55761 6.96582 6.76479
#
# Compressibility (1/GPa) = 0.01933223
#
# Stress axis : x y z
#
# Youngs Moduli (GPa) = 67.28559 88.94308 41.14753
#
# Poissons Ratio (x) = 0.32211 0.30173
# Poissons Ratio (y) = 0.24368 0.18860
# Poissons Ratio (z) = 0.49340 0.40766
#
# Static dielectric constant tensor:
#      x y z
#    x 3.841720 0.000000 0.239730 
#    y 0.000000 3.988740 0.000000 
#    z 0.239730 0.000000 3.522250 
# 
# 
# High freq. dielectric constant tensor:
#      x y z
#    x 1.792180 0.000000 0.013450 
#    y 0.000000 1.797880 0.000000 
#    z 0.013450 0.000000 1.758470 
# 
# From -- ./inp_files/73639.got.cif
#   From: 2010.06.25/outbox.cif.g09.slc.cpg/sg12_37_cif.got.tgz:73639.got - 2010.06.28 00:19:55.
