data_PCOD8093791
_publ_section_title
;
Structure prediction by ZEFSAII (Michael W. Deem and Ramdas Pophale) SiO2 
 PCOD8093791
Probable space group: C 2/M
;
_chemical_formula_sum "Si O2"
_cell_formula_units_Z 56
_cell_length_a 14.732469
_cell_length_b 21.605672
_cell_length_c 9.284508
_cell_angle_alpha 90.000000
_cell_angle_beta 60.618927
_cell_angle_gamma 90.000000
_cell_volume 2575.181049
_symmetry_space_group_name_H-M "C 2/M"
_symmetry_group_IT_number 12
_symmetry_cell_setting 'monoclinic'
loop_
_space_group_symop_operation_xyz
x,y,z
-x,y,-z
-x,-y,-z
x,-y,z
1/2+x,1/2+y,z
1/2-x,1/2+y,-z
1/2-x,1/2-y,-z
1/2+x,1/2-y,z
loop_
_atom_site_type_symbol
_atom_site_label
_atom_site_fract_x
_atom_site_fract_y
_atom_site_fract_z
Si Si1 0.531748 0.123120 0.133658
Si Si2 0.883711 0.929570 0.970990
Si Si3 0.518577 0.319957 0.830556
Si Si4 0.667191 0.929782 0.601398
Si Si5 0.273053 0.068845 0.142133
Si Si6 0.926522 0.270310 0.690331
Si Si7 0.759621 0.845071 0.288517
O O1 0.454568 0.070993 0.257901
O O2 0.520456 0.179098 0.251298
O O3 0.500000 0.145168 0.000000
O O4 0.650230 0.101033 0.032307
O O5 0.805468 0.891061 0.133201
O O6 0.899795 0.000000 0.014986
O O7 0.839269 0.930941 0.842984
O O8 0.993488 0.893758 0.868737
O O9 0.436700 0.292529 0.777540
O O10 0.642691 0.314283 0.699724
O O11 0.500000 0.286986 0.000000
O O12 0.731226 0.903651 0.691715
O O13 0.687840 0.884388 0.451972
O O14 0.698029 0.000000 0.534114
O O15 0.317845 0.000000 0.129526
O O16 0.809813 0.290356 0.731988
O O17 0.000000 0.258793 0.500000
#
# Coordination Sequence:
#
# PCOD8093791 Si02
#       7
#     8   8   8   8   8   8   8
#     4  10  19  36  59  89 128 168 207 255 309 372
#     4  10  21  41  68  95 125 162 211 261 309 375
#     4  10  26  45  64  92 124 167 215 259 314 370
#     4  10  20  35  59  94 133 167 204 255 317 379
#     4   9  18  34  59  91 126 167 209 250 307 373
#     4  12  24  43  63  93 128 162 216 263 310 372
#     4  11  23  42  64  94 127 166 208 259 324 367
#
# _framework density 21.746043
#
# number of rings (size 3 to 8) (size 9 to 14) (size 15 to 20)
#    0.000    1.714    2.857    1.286    0.000    8.857 
#    5.143    0.714    0.000    3.000    0.000    0.000 
#    0.000    0.000    0.000    0.000    0.000    0.000 
#
# Total GULP energy -346914.080229 kJ/mol
# GULP energy per Si atom -12389.788580 kJ/mol
# Density = 2.169655 g / cm^3
# Si number density = 21.746043 Si / 1000 Ang^3
#
#
#
# Elastic Constant Matrix: (Units=GPa)
#
#
# Indices 1 2 3 4 5 6 
#
# 1 123.3466 39.1664 36.4167 0.0000 -5.1134 0.0000
# 2 39.1664 92.6103 31.8854 0.0000 2.3466 0.0000
# 3 36.4167 31.8854 86.7306 0.0000 5.7054 0.0000
# 4 0.0000 0.0000 0.0000 21.9499 0.0000 4.4152
# 5 -5.1134 2.3466 5.7054 0.0000 26.0003 0.0000
# 6 0.0000 0.0000 0.0000 4.4152 0.0000 37.2449
#
#
#
# Elastic Compliance Matrix: (Units=1/GPa)
#
#
# Indices 1 2 3 4 5 6 
#
# 1 0.010247 -0.003275 -0.003298 0.000000 0.003034 0.000000
# 2 -0.003275 0.013410 -0.003483 0.000000 -0.001090 0.000000
# 3 -0.003298 -0.003483 0.014426 0.000000 -0.003500 0.000000
# 4 0.000000 0.000000 0.000000 0.046671 0.000000 -0.005533
# 5 0.003034 -0.001090 -0.003500 0.000000 0.039924 0.000000
# 6 0.000000 0.000000 0.000000 -0.005533 0.000000 0.027505
#
#
# Mechanical properties :
#
#
# Convention : Reuss Voigt Hill
#
# Bulk Modulus (GPa) = 55.64900 57.51385 56.58142
# Shear Modulus (GPa) = 28.04506 30.05362 29.04934
#
# Velocity S-wave (km/s) = 3.59508 3.72160 3.65889
# Velocity P-wave (km/s) = 6.54819 6.70615 6.62764
#
# Compressibility (1/GPa) = 0.01796978
#
# Stress axis : x y z
#
# Youngs Moduli (GPa) = 97.59331 74.57242 69.32163
#
# Poissons Ratio (x) = 0.24421 0.22863
# Poissons Ratio (y) = 0.31960 0.24146
# Poissons Ratio (z) = 0.32187 0.25975
#
# Static dielectric constant tensor:
#      x y z
#    x 4.068490 0.000000 0.203780 
#    y 0.000000 3.789950 0.000000 
#    z 0.203780 0.000000 3.860800 
# 
# 
# High freq. dielectric constant tensor:
#      x y z
#    x 1.863840 0.000000 0.016590 
#    y 0.000000 1.839340 0.000000 
#    z 0.016590 0.000000 1.845630 
# 
# From -- ./inp_files/65774.got.cif
#   From: 2010.06.25/outbox.cif.g09.slc.cpg/sg12_33_cif.got.tgz:65774.got - 2010.06.28 00:19:55.
