data_PCOD8093610
_publ_section_title
;
Structure prediction by ZEFSAII (Michael W. Deem and Ramdas Pophale) SiO2 
 PCOD8093610
Probable space group: C 2/M
;
_chemical_formula_sum "Si O2"
_cell_formula_units_Z 48
_cell_length_a 26.175138
_cell_length_b 12.179752
_cell_length_c 14.927879
_cell_angle_alpha 90.000000
_cell_angle_beta 28.343221
_cell_angle_gamma 90.000000
_cell_volume 2259.397134
_symmetry_space_group_name_H-M "C 2/M"
_symmetry_group_IT_number 12
_symmetry_cell_setting 'monoclinic'
loop_
_space_group_symop_operation_xyz
x,y,z
-x,y,-z
-x,-y,-z
x,-y,z
1/2+x,1/2+y,z
1/2-x,1/2+y,-z
1/2-x,1/2-y,-z
1/2+x,1/2-y,z
loop_
_atom_site_type_symbol
_atom_site_label
_atom_site_fract_x
_atom_site_fract_y
_atom_site_fract_z
Si Si1 0.964771 0.245697 0.459881
Si Si2 0.198857 0.126592 0.407373
Si Si3 0.670149 0.123618 0.075608
Si Si4 0.868072 0.806927 0.115578
Si Si5 0.401104 0.375938 0.253663
Si Si6 0.759083 0.676117 0.848402
O O1 0.910393 0.157986 0.477216
O O2 0.876259 0.337389 0.622794
O O3 0.000000 0.188778 0.500000
O O4 0.061317 0.308449 0.261802
O O5 0.305123 0.191095 0.212083
O O6 0.179840 0.154030 0.541736
O O7 0.223996 0.000000 0.352869
O O8 0.743223 0.113825 0.053190
O O9 0.647119 0.000000 0.076354
O O10 0.736307 0.192576 0.899982
O O11 0.840372 0.867848 0.251689
O O12 0.825666 0.872956 0.092793
O O13 0.996539 0.793353 0.905403
O O14 0.444979 0.500000 0.197758
#
# Coordination Sequence:
#
# PCOD8093610 Si02
#       6
#     8   8   8   8   8   8
#     4   9  19  36  55  81 111 142 181 221 263 317
#     4  10  21  37  57  80 109 144 179 220 269 318
#     4  10  20  36  56  79 110 145 180 220 266 316
#     4  10  19  36  58  79 108 141 180 222 265 320
#     4  10  21  37  58  82 107 139 179 224 271 316
#     4   9  20  34  53  82 111 140 179 223 266 316
#
# _framework density 21.244603999999999
#
# number of rings (size 3 to 8) (size 9 to 14) (size 15 to 20)
#    0.000    2.333    0.000    2.500    0.000    7.333 
#    0.000   16.667    0.000   11.000    0.000    0.000 
#    0.000    0.000    0.000    0.000    0.000    0.000 
#
# Total GULP energy -297371.817692 kJ/mol
# GULP energy per Si atom -12390.492404 kJ/mol
# Density = 2.119625 g / cm^3
# Si number density = 21.244604 Si / 1000 Ang^3
#
#
#
# Elastic Constant Matrix: (Units=GPa)
#
#
# Indices 1 2 3 4 5 6 
#
# 1 128.9565 11.0327 13.5889 0.0000 -0.5336 0.0000
# 2 11.0327 92.6935 34.8714 0.0000 -8.6185 0.0000
# 3 13.5889 34.8714 62.7539 0.0000 -8.9462 0.0000
# 4 0.0000 0.0000 0.0000 22.5050 0.0000 -4.4280
# 5 -0.5336 -8.6185 -8.9462 0.0000 26.3879 0.0000
# 6 0.0000 0.0000 0.0000 -4.4280 0.0000 17.5054
#
#
#
# Elastic Compliance Matrix: (Units=1/GPa)
#
#
# Indices 1 2 3 4 5 6 
#
# 1 0.007952 -0.000403 -0.001570 0.000000 -0.000503 0.000000
# 2 -0.000403 0.013759 -0.007271 0.000000 0.002021 0.000000
# 3 -0.001570 -0.007271 0.020987 0.000000 0.004709 0.000000
# 4 0.000000 0.000000 0.000000 0.046762 0.000000 0.011828
# 5 -0.000503 0.002021 0.004709 0.000000 0.040142 0.000000
# 6 0.000000 0.000000 0.000000 0.011828 0.000000 0.060117
#
#
# Mechanical properties :
#
#
# Convention : Reuss Voigt Hill
#
# Bulk Modulus (GPa) = 41.30198 44.82110 43.06154
# Shear Modulus (GPa) = 23.11856 28.27373 25.69614
#
# Velocity S-wave (km/s) = 3.30238 3.65206 3.48161
# Velocity P-wave (km/s) = 5.83304 6.23914 6.03950
#
# Compressibility (1/GPa) = 0.02421192
#
# Stress axis : x y z
#
# Youngs Moduli (GPa) = 125.74881 72.67844 47.64939
#
# Poissons Ratio (x) = 0.02926 0.07481
# Poissons Ratio (y) = 0.05063 0.34644
# Poissons Ratio (z) = 0.19742 0.52841
#
# Static dielectric constant tensor:
#      x y z
#    x 4.247900 0.000000 0.159810 
#    y 0.000000 3.393820 0.000000 
#    z 0.159810 0.000000 3.753280 
# 
# 
# High freq. dielectric constant tensor:
#      x y z
#    x 1.851050 0.000000 0.015970 
#    y 0.000000 1.790120 0.000000 
#    z 0.015970 0.000000 1.833860 
# 
# From -- ./inp_files/213242.got.cif
#   From: 2010.06.25/outbox.cif.g09.slc.cpg/sg12_107_cif.got.tgz:213242.got - 2010.06.28 00:19:55.
