data_PCOD8093203
_publ_section_title
;
Structure prediction by ZEFSAII (Michael W. Deem and Ramdas Pophale) SiO2 
 PCOD8093203
Probable space group: C 2/M
;
_chemical_formula_sum "Si O2"
_cell_formula_units_Z 48
_cell_length_a 29.736834
_cell_length_b 8.834796
_cell_length_c 15.127065
_cell_angle_alpha 90.000000
_cell_angle_beta 140.276984
_cell_angle_gamma 90.000000
_cell_volume 2539.796994
_symmetry_space_group_name_H-M "C 2/M"
_symmetry_group_IT_number 12
_symmetry_cell_setting 'monoclinic'
loop_
_space_group_symop_operation_xyz
x,y,z
-x,y,-z
-x,-y,-z
x,-y,z
1/2+x,1/2+y,z
1/2-x,1/2+y,-z
1/2-x,1/2-y,-z
1/2+x,1/2-y,z
loop_
_atom_site_type_symbol
_atom_site_label
_atom_site_fract_x
_atom_site_fract_y
_atom_site_fract_z
Si Si1 0.576309 0.180188 0.141977
Si Si2 0.327385 0.178676 0.357942
Si Si3 0.573611 0.175837 0.823532
Si Si4 0.422991 0.179519 0.660832
Si Si5 0.422681 0.321285 0.355115
Si Si6 0.177701 0.324061 0.141560
O O1 0.595739 0.240324 0.269440
O O2 0.634784 0.237235 0.161495
O O3 0.573077 0.000000 0.133428
O O4 0.500000 0.245620 0.000000
O O5 0.364645 0.238436 0.503925
O O6 0.364127 0.252213 0.329624
O O7 0.246735 0.224388 0.238442
O O8 0.334698 0.000000 0.360638
O O9 0.499421 0.239723 0.747071
O O10 0.595779 0.269372 0.771293
O O11 0.567237 0.000000 0.788409
O O12 0.632223 0.203128 0.985614
O O13 0.425634 0.000000 0.667925
O O14 0.500000 0.261962 0.500000
O O15 0.418176 0.500000 0.354897
O O16 0.197624 0.500000 0.182276
#
# Coordination Sequence:
#
# PCOD8093203 Si02
#       6
#     8   8   8   8   8   8
#     4   9  15  29  56  87 113 143 187 234 276 324
#     4  11  23  38  57  81 117 155 186 229 282 339
#     4  10  19  35  60  86 111 146 191 233 275 330
#     4   9  17  31  55  85 111 144 191 230 269 329
#     4  11  23  38  59  86 113 143 185 237 287 335
#     4  10  21  36  58  87 118 148 186 236 281 326
#
# _framework density 18.899146999999999
#
# number of rings (size 3 to 8) (size 9 to 14) (size 15 to 20)
#    0.000    2.000    3.333    1.000    0.000    2.667 
#    0.000    0.000    0.000    2.500    0.000    0.000 
#    0.000    0.000    0.000    0.000    0.000    0.000 
#
# Total GULP energy -297641.324341 kJ/mol
# GULP energy per Si atom -12401.721848 kJ/mol
# Density = 1.885613 g / cm^3
# Si number density = 18.899147 Si / 1000 Ang^3
#
#
#
# Elastic Constant Matrix: (Units=GPa)
#
#
# Indices 1 2 3 4 5 6 
#
# 1 173.5835 36.0296 72.5142 0.0000 -8.4606 0.0000
# 2 36.0296 39.5596 32.3412 0.0000 -1.3331 0.0000
# 3 72.5142 32.3412 113.1700 0.0000 -1.9884 0.0000
# 4 0.0000 0.0000 0.0000 20.8167 0.0000 4.3976
# 5 -8.4606 -1.3331 -1.9884 0.0000 38.6580 0.0000
# 6 0.0000 0.0000 0.0000 4.3976 0.0000 11.2363
#
#
#
# Elastic Compliance Matrix: (Units=1/GPa)
#
#
# Indices 1 2 3 4 5 6 
#
# 1 0.008461 -0.004234 -0.004185 0.000000 0.001490 0.000000
# 2 -0.004234 0.035120 -0.007325 0.000000 -0.000092 0.000000
# 3 -0.004185 -0.007325 0.013603 0.000000 -0.000469 0.000000
# 4 0.000000 0.000000 0.000000 0.052368 0.000000 -0.020495
# 5 0.001490 -0.000092 -0.000469 0.000000 0.026167 0.000000
# 6 0.000000 0.000000 0.000000 -0.020495 0.000000 0.097018
#
#
# Mechanical properties :
#
#
# Convention : Reuss Voigt Hill
#
# Bulk Modulus (GPa) = 38.91772 67.56479 53.24126
# Shear Modulus (GPa) = 18.32911 26.50407 22.41659
#
# Velocity S-wave (km/s) = 3.11760 3.74892 3.44774
# Velocity P-wave (km/s) = 5.79623 7.38695 6.63940
#
# Compressibility (1/GPa) = 0.02569523
#
# Stress axis : x y z
#
# Youngs Moduli (GPa) = 118.19349 28.47384 73.51353
#
# Poissons Ratio (x) = 0.12056 0.30766
# Poissons Ratio (y) = 0.50044 0.53849
# Poissons Ratio (z) = 0.49465 0.20857
#
# Static dielectric constant tensor:
#      x y z
#    x 3.667550 0.000000 -0.146920 
#    y 0.000000 3.076910 0.000000 
#    z -0.146920 0.000000 3.562860 
# 
# 
# High freq. dielectric constant tensor:
#      x y z
#    x 1.748340 0.000000 -0.008650 
#    y 0.000000 1.697450 0.000000 
#    z -0.008650 0.000000 1.740640 
# 
# From -- ./inp_files/229916.got.cif
#   From: 2010.06.25/outbox.cif.g09.slc.cpg/sg12_115_cif.got.tgz:229916.got - 2010.06.28 00:19:55.
