data_PCOD8093857
_publ_section_title
;
Structure prediction by ZEFSAII (Michael W. Deem and Ramdas Pophale) SiO2 
 PCOD8093857
Probable space group: C 2/M
;
_chemical_formula_sum "Si O2"
_cell_formula_units_Z 64
_cell_length_a 25.397018
_cell_length_b 8.987158
_cell_length_c 15.159685
_cell_angle_alpha 90.000000
_cell_angle_beta 70.720664
_cell_angle_gamma 90.000000
_cell_volume 3266.107774
_symmetry_space_group_name_H-M "C 2/M"
_symmetry_group_IT_number 12
_symmetry_cell_setting 'monoclinic'
loop_
_space_group_symop_operation_xyz
x,y,z
-x,y,-z
-x,-y,-z
x,-y,z
1/2+x,1/2+y,z
1/2-x,1/2+y,-z
1/2-x,1/2-y,-z
1/2+x,1/2-y,z
loop_
_atom_site_type_symbol
_atom_site_label
_atom_site_fract_x
_atom_site_fract_y
_atom_site_fract_z
Si Si1 0.149202 0.673604 0.371765
Si Si2 0.110550 0.826427 0.098248
Si Si3 0.309817 0.822565 0.465644
Si Si4 0.327603 0.672314 0.112341
Si Si5 0.624371 0.176037 0.743908
Si Si6 0.529537 0.823063 0.397853
Si Si7 0.703176 0.172935 0.165658
Si Si8 0.499679 0.823620 0.223161
O O1 0.140731 0.500000 0.390737
O O2 0.161670 0.740753 0.460950
O O3 0.092266 0.740058 0.363292
O O4 0.197006 0.707381 0.273677
O O5 0.158715 0.765235 0.134881
O O6 0.050645 0.750294 0.142925
O O7 0.104680 0.000000 0.120877
O O8 0.127578 0.794641 0.988063
O O9 0.250000 0.750000 0.500000
O O10 0.345826 0.767076 0.362044
O O11 0.303934 0.000000 0.469406
O O12 0.325880 0.500000 0.140146
O O13 0.343072 0.763292 0.190202
O O14 0.266635 0.719743 0.108434
O O15 0.559779 0.229090 0.782918
O O16 0.626777 0.000000 0.745109
O O17 0.500000 0.754133 0.500000
O O18 0.500052 0.769715 0.324604
O O19 0.527526 0.000000 0.402864
O O20 0.691417 0.000000 0.151901
O O21 0.507469 0.000000 0.211580
#
# Coordination Sequence:
#
# PCOD8093857 Si02
#       8
#     8   8   8   8   8   8   8   8
#     4   9  16  28  51  80 106 138 177 219 268 328
#     4  11  23  38  57  85 116 148 187 238 298 349
#     4  10  20  35  55  83 117 151 190 231 277 334
#     4  10  23  40  59  82 111 151 195 237 290 352
#     4  10  22  38  58  86 117 150 195 245 284 325
#     4   9  15  26  50  81 106 133 177 227 269 315
#     4  10  19  36  60  85 111 145 191 236 282 343
#     4  10  20  37  59  84 114 149 192 238 283 337
#
# _framework density 19.595189000000001
#
# number of rings (size 3 to 8) (size 9 to 14) (size 15 to 20)
#    0.000    2.125    1.250    2.250    0.000    7.000 
#    0.000    3.125    0.000    0.375    0.000    0.000 
#    0.000    0.000    0.000    0.000    0.000    0.000 
#
# Total GULP energy -396716.364415 kJ/mol
# GULP energy per Si atom -12397.386388 kJ/mol
# Density = 1.955059 g / cm^3
# Si number density = 19.595189 Si / 1000 Ang^3
#
#
#
# Elastic Constant Matrix: (Units=GPa)
#
#
# Indices 1 2 3 4 5 6 
#
# 1 121.2282 32.9020 39.9753 0.0000 -10.8925 0.0000
# 2 32.9020 37.0141 31.8380 0.0000 -4.4061 0.0000
# 3 39.9753 31.8380 95.5769 0.0000 -8.9436 0.0000
# 4 0.0000 0.0000 0.0000 22.6830 0.0000 0.4627
# 5 -10.8925 -4.4061 -8.9436 0.0000 40.1943 0.0000
# 6 0.0000 0.0000 0.0000 0.4627 0.0000 30.9059
#
#
#
# Elastic Compliance Matrix: (Units=1/GPa)
#
#
# Indices 1 2 3 4 5 6 
#
# 1 0.011231 -0.008235 -0.001791 0.000000 0.001742 0.000000
# 2 -0.008235 0.043980 -0.011197 0.000000 0.000098 0.000000
# 3 -0.001791 -0.011197 0.015096 0.000000 0.001646 0.000000
# 4 0.000000 0.000000 0.000000 0.044099 0.000000 -0.000660
# 5 0.001742 0.000098 0.001646 0.000000 0.025728 0.000000
# 6 0.000000 0.000000 0.000000 -0.000660 0.000000 0.032366
#
#
# Mechanical properties :
#
#
# Convention : Reuss Voigt Hill
#
# Bulk Modulus (GPa) = 35.89332 51.47220 43.68276
# Shear Modulus (GPa) = 22.29818 28.69690 25.49754
#
# Velocity S-wave (km/s) = 3.37700 3.83101 3.61115
# Velocity P-wave (km/s) = 5.79333 6.77449 6.30303
#
# Compressibility (1/GPa) = 0.02786034
#
# Stress axis : x y z
#
# Youngs Moduli (GPa) = 89.03756 22.73776 66.24401
#
# Poissons Ratio (x) = 0.18726 0.11865
# Poissons Ratio (y) = 0.73326 0.74171
# Poissons Ratio (z) = 0.15948 0.25459
#
# Static dielectric constant tensor:
#      x y z
#    x 3.789670 0.000000 -0.059510 
#    y 0.000000 3.205670 0.000000 
#    z -0.059510 0.000000 3.797470 
# 
# 
# High freq. dielectric constant tensor:
#      x y z
#    x 1.774340 0.000000 -0.005120 
#    y 0.000000 1.722220 0.000000 
#    z -0.005120 0.000000 1.778210 
# 
# From -- ./inp_files/243831.got.cif
#   From: 2010.06.25/outbox.cif.g09.slc.cpg/sg12_122_cif.got.tgz:243831.got - 2010.06.28 00:19:55.
