data_PCOD8093608
_publ_section_title
;
Structure prediction by ZEFSAII (Michael W. Deem and Ramdas Pophale) SiO2 
 PCOD8093608
Probable space group: C 2/M
;
_chemical_formula_sum "Si O2"
_cell_formula_units_Z 64
_cell_length_a 30.125220
_cell_length_b 8.864383
_cell_length_c 19.768902
_cell_angle_alpha 90.000000
_cell_angle_beta 141.542579
_cell_angle_gamma 90.000000
_cell_volume 3283.256415
_symmetry_space_group_name_H-M "C 2/M"
_symmetry_group_IT_number 12
_symmetry_cell_setting 'monoclinic'
loop_
_space_group_symop_operation_xyz
x,y,z
-x,y,-z
-x,-y,-z
x,-y,z
1/2+x,1/2+y,z
1/2-x,1/2+y,-z
1/2-x,1/2-y,-z
1/2+x,1/2-y,z
loop_
_atom_site_type_symbol
_atom_site_label
_atom_site_fract_x
_atom_site_fract_y
_atom_site_fract_z
Si Si1 0.088010 0.172682 0.726168
Si Si2 0.918228 0.179140 0.894394
Si Si3 0.186219 0.173374 0.963372
Si Si4 0.175976 0.323240 0.329470
Si Si5 0.655206 0.825588 0.683426
Si Si6 0.575514 0.323499 0.468257
Si Si7 0.822884 0.323761 0.513187
Si Si8 0.317806 0.675293 0.892143
O O1 0.113745 0.191121 0.834143
O O2 0.135741 0.280940 0.736590
O O3 0.006589 0.224317 0.625196
O O4 0.097125 0.000000 0.712524
O O5 0.887091 0.248193 0.788492
O O6 0.873888 0.245296 0.905620
O O7 0.911200 0.000000 0.880868
O O8 0.000000 0.230387 0.000000
O O9 0.208517 0.000000 0.999703
O O10 0.250000 0.250000 0.000000
O O11 0.173639 0.247737 0.022564
O O12 0.176197 0.500000 0.316141
O O13 0.162292 0.282643 0.391361
O O14 0.252952 0.258300 0.400164
O O15 0.611102 0.719256 0.581354
O O16 0.738501 0.795826 0.769716
O O17 0.635948 0.000000 0.647663
O O18 0.584785 0.500000 0.465238
O O19 0.608973 0.230910 0.446785
O O20 0.810846 0.500000 0.487975
O O21 0.335296 0.500000 0.919059
#
# Coordination Sequence:
#
# PCOD8093608 Si02
#       8
#     8   8   8   8   8   8   8   8
#     4  10  22  37  55  80 113 149 187 237 290 343
#     4  10  21  37  59  86 117 156 199 241 289 348
#     4  10  19  36  58  79 107 143 186 237 286 335
#     4  10  21  38  61  86 115 151 190 239 295 345
#     4  11  21  35  57  81 110 151 193 237 287 342
#     4  11  23  37  54  82 117 151 188 232 288 347
#     4  10  21  38  60  86 114 148 192 239 287 348
#     4   9  19  35  56  83 111 142 187 239 285 333
#
# _framework density 19.492842
#
# number of rings (size 3 to 8) (size 9 to 14) (size 15 to 20)
#    0.000    1.875    1.250    2.625    0.000    6.250 
#    0.000    3.750    0.000    0.000    0.000    0.000 
#    0.000    0.000    0.000    0.000    0.000    0.000 
#
# Total GULP energy -396904.986542 kJ/mol
# GULP energy per Si atom -12403.280829 kJ/mol
# Density = 1.944847 g / cm^3
# Si number density = 19.492842 Si / 1000 Ang^3
#
#
#
# Elastic Constant Matrix: (Units=GPa)
#
#
# Indices 1 2 3 4 5 6 
#
# 1 91.8437 27.6120 55.3841 0.0000 8.6131 0.0000
# 2 27.6120 40.5750 37.9522 0.0000 2.8921 0.0000
# 3 55.3841 37.9522 127.9576 0.0000 1.7690 0.0000
# 4 0.0000 0.0000 0.0000 28.8570 0.0000 -2.3210
# 5 8.6131 2.8921 1.7690 0.0000 29.6650 0.0000
# 6 0.0000 0.0000 0.0000 -2.3210 0.0000 30.1611
#
#
#
# Elastic Compliance Matrix: (Units=1/GPa)
#
#
# Indices 1 2 3 4 5 6 
#
# 1 0.016138 -0.005849 -0.005197 0.000000 -0.003805 0.000000
# 2 -0.005849 0.036450 -0.008260 0.000000 -0.001363 0.000000
# 3 -0.005197 -0.008260 0.012493 0.000000 0.001569 0.000000
# 4 0.000000 0.000000 0.000000 0.034869 0.000000 0.002683
# 5 -0.003805 -0.001363 0.001569 0.000000 0.034854 0.000000
# 6 0.000000 0.000000 0.000000 0.002683 0.000000 0.033362
#
#
# Mechanical properties :
#
#
# Convention : Reuss Voigt Hill
#
# Bulk Modulus (GPa) = 37.78390 55.80810 46.79600
# Shear Modulus (GPa) = 23.19090 27.03182 25.11136
#
# Velocity S-wave (km/s) = 3.45296 3.72796 3.59309
# Velocity P-wave (km/s) = 5.94330 6.87186 6.42438
#
# Compressibility (1/GPa) = 0.02646630
#
# Stress axis : x y z
#
# Youngs Moduli (GPa) = 61.96703 27.43499 80.04480
#
# Poissons Ratio (x) = 0.16048 0.41602
# Poissons Ratio (y) = 0.36246 0.66120
# Poissons Ratio (z) = 0.32206 0.22662
#
# Static dielectric constant tensor:
#      x y z
#    x 3.699700 0.000000 -0.102060 
#    y 0.000000 3.414500 0.000000 
#    z -0.102060 0.000000 3.695510 
# 
# 
# High freq. dielectric constant tensor:
#      x y z
#    x 1.763180 0.000000 -0.006270 
#    y 0.000000 1.745810 0.000000 
#    z -0.006270 0.000000 1.768270 
# 
# From -- ./inp_files/295868.got.cif
#   From: 2010.06.25/outbox.cif.g09.slc.cpg/sg12_148_cif.got.tgz:295868.got - 2010.06.28 00:19:55.
