data_PCOD8093050
_publ_section_title
;
Structure prediction by ZEFSAII (Michael W. Deem and Ramdas Pophale) SiO2 
 PCOD8093050
Probable space group: C 2/M
;
_chemical_formula_sum "Si O2"
_cell_formula_units_Z 56
_cell_length_a 17.988956
_cell_length_b 14.659887
_cell_length_c 12.069119
_cell_angle_alpha 90.000000
_cell_angle_beta 53.146895
_cell_angle_gamma 90.000000
_cell_volume 2546.816026
_symmetry_space_group_name_H-M "C 2/M"
_symmetry_group_IT_number 12
_symmetry_cell_setting 'monoclinic'
loop_
_space_group_symop_operation_xyz
x,y,z
-x,y,-z
-x,-y,-z
x,-y,z
1/2+x,1/2+y,z
1/2-x,1/2+y,-z
1/2-x,1/2-y,-z
1/2+x,1/2-y,z
loop_
_atom_site_type_symbol
_atom_site_label
_atom_site_fract_x
_atom_site_fract_y
_atom_site_fract_z
Si Si1 0.550517 0.104782 0.184327
Si Si2 0.850266 0.105068 0.606096
Si Si3 0.197364 0.399289 0.231046
Si Si4 0.776689 0.768973 0.319410
Si Si5 0.974911 0.895075 0.699741
Si Si6 0.989149 0.772363 0.132928
Si Si7 0.868451 0.399056 0.480320
O O1 0.646675 0.125744 0.161772
O O2 0.540896 0.173446 0.089516
O O3 0.464947 0.131330 0.340930
O O4 0.546617 0.000000 0.147702
O O5 0.760852 0.167122 0.665256
O O6 0.927825 0.127966 0.445676
O O7 0.891068 0.127462 0.691087
O O8 0.818950 0.000000 0.627044
O O9 0.244170 0.500000 0.178759
O O10 0.272714 0.324259 0.204116
O O11 0.117927 0.402419 0.398426
O O12 0.881975 0.762327 0.263792
O O13 0.715518 0.825389 0.466996
O O14 0.960754 0.837837 0.824004
O O15 0.972434 0.000000 0.736732
O O16 0.000000 0.812244 0.000000
O O17 0.838433 0.500000 0.463222
#
# Coordination Sequence:
#
# PCOD8093050 Si02
#       7
#     8   8   8   8   8   8   8
#     4  10  19  35  59  84 112 146 180 223 278 335
#     4   9  18  36  64  92 112 135 177 234 290 338
#     4   8  16  32  57  89 114 133 171 225 285 338
#     4  10  20  34  54  81 116 149 178 231 280 325
#     4   9  20  39  62  87 113 143 182 229 281 333
#     4  12  27  41  52  74 114 162 199 221 262 330
#     4   8  16  30  57  91 113 130 166 227 293 336
#
# _framework density 21.988240000000001
#
# number of rings (size 3 to 8) (size 9 to 14) (size 15 to 20)
#    0.857    1.714    0.000    3.000    0.000    7.429 
#    0.000    5.714    0.000    3.429    0.000    0.000 
#    0.000    0.000    0.000    0.000    0.000    0.000 
#
# Total GULP energy -346980.575727 kJ/mol
# GULP energy per Si atom -12392.163419 kJ/mol
# Density = 2.193819 g / cm^3
# Si number density = 21.988240 Si / 1000 Ang^3
#
#
#
# Elastic Constant Matrix: (Units=GPa)
#
#
# Indices 1 2 3 4 5 6 
#
# 1 39.2488 28.9307 -1.7074 0.0000 10.1765 0.0000
# 2 28.9307 106.5111 10.8096 0.0000 13.1948 0.0000
# 3 -1.7074 10.8096 38.3917 0.0000 22.6358 0.0000
# 4 0.0000 0.0000 0.0000 15.1487 0.0000 2.4084
# 5 10.1765 13.1948 22.6358 0.0000 25.4525 0.0000
# 6 0.0000 0.0000 0.0000 2.4084 0.0000 12.3214
#
#
#
# Elastic Compliance Matrix: (Units=1/GPa)
#
#
# Indices 1 2 3 4 5 6 
#
# 1 0.042586 -0.009879 0.024588 0.000000 -0.033772 0.000000
# 2 -0.009879 0.012329 -0.005195 0.000000 0.002178 0.000000
# 3 0.024588 -0.005195 0.068984 0.000000 -0.068487 0.000000
# 4 0.000000 0.000000 0.000000 0.068130 0.000000 -0.013317
# 5 -0.033772 0.002178 -0.068487 0.000000 0.112570 0.000000
# 6 0.000000 0.000000 0.000000 -0.013317 0.000000 0.083762
#
#
# Mechanical properties :
#
#
# Convention : Reuss Voigt Hill
#
# Bulk Modulus (GPa) = 6.99660 28.91306 17.95483
# Shear Modulus (GPa) = 11.99107 20.32577 16.15842
#
# Velocity S-wave (km/s) = 2.33779 3.04368 2.71378
# Velocity P-wave (km/s) = 3.23664 5.05271 4.24298
#
# Compressibility (1/GPa) = 0.14292646
#
# Stress axis : x y z
#
# Youngs Moduli (GPa) = 23.48165 81.10688 14.49620
#
# Poissons Ratio (x) = 0.80125 -0.35643
# Poissons Ratio (y) = 0.23197 0.07531
# Poissons Ratio (z) = -0.57736 0.42137
#
# Static dielectric constant tensor:
#      x y z
#    x 3.679150 0.000000 0.161510 
#    y 0.000000 4.082160 0.000000 
#    z 0.161510 0.000000 3.372660 
# 
# 
# High freq. dielectric constant tensor:
#      x y z
#    x 1.853480 0.000000 0.016020 
#    y 0.000000 1.876750 0.000000 
#    z 0.016020 0.000000 1.815690 
# 
# From -- ./inp_files/156546.got.cif
#   From: 2010.06.25/outbox.cif.g09.slc.cpg/sg12_79_cif.got.tgz:156546.got - 2010.06.28 00:19:55.
