data_PCOD8093370
_publ_section_title
;
Structure prediction by ZEFSAII (Michael W. Deem and Ramdas Pophale) SiO2 
 PCOD8093370
Probable space group: C 2/M
;
_chemical_formula_sum "Si O2"
_cell_formula_units_Z 32
_cell_length_a 9.630850
_cell_length_b 32.765939
_cell_length_c 5.210467
_cell_angle_alpha 90.000000
_cell_angle_beta 58.536391
_cell_angle_gamma 90.000000
_cell_volume 1402.486170
_symmetry_space_group_name_H-M "C 2/M"
_symmetry_group_IT_number 12
_symmetry_cell_setting 'monoclinic'
loop_
_space_group_symop_operation_xyz
x,y,z
-x,y,-z
-x,-y,-z
x,-y,z
1/2+x,1/2+y,z
1/2-x,1/2+y,-z
1/2-x,1/2-y,-z
1/2+x,1/2-y,z
loop_
_atom_site_type_symbol
_atom_site_label
_atom_site_fract_x
_atom_site_fract_y
_atom_site_fract_z
Si Si1 0.804305 0.796363 0.935162
Si Si2 0.665355 0.331052 0.599246
Si Si3 0.164056 0.075583 0.721160
Si Si4 0.328519 0.952916 0.061050
O O1 0.732763 0.819377 0.753631
O O2 0.998933 0.804461 0.752524
O O3 0.750000 0.750000 0.000000
O O4 0.727131 0.817242 0.261559
O O5 0.629307 0.378676 0.657992
O O6 0.205854 0.051450 0.420310
O O7 0.291661 0.072268 0.834729
O O8 0.000000 0.056617 0.000000
O O9 0.338046 0.000000 0.969291
O O10 0.500000 0.936186 0.000000
#
# Coordination Sequence:
#
# PCOD8093370 Si02
#       4
#     8   8   8   8
#     4  10  19  35  62  85 120 164 211 260 339 401
#     4  10  21  37  61  92 125 170 210 281 339 388
#     4  12  23  41  75 102 139 181 229 295 344 405
#     4  11  26  46  69  99 143 188 229 281 347 416
#
# _framework density 22.816621999999999
#
# number of rings (size 3 to 8) (size 9 to 14) (size 15 to 20)
#    0.000    1.250    2.500    4.500    3.500    5.000 
#    0.000    0.000   55.000    0.000    0.000    0.000 
#    0.000    0.000    0.000    0.000    0.000    0.000 
#
# Total GULP energy -198221.720481 kJ/mol
# GULP energy per Si atom -12388.857530 kJ/mol
# Density = 2.276469 g / cm^3
# Si number density = 22.816622 Si / 1000 Ang^3
#
#
#
# Elastic Constant Matrix: (Units=GPa)
#
#
# Indices 1 2 3 4 5 6 
#
# 1 70.5208 39.9661 34.7344 0.0000 22.3685 0.0000
# 2 39.9661 91.1809 31.4608 0.0000 5.4350 0.0000
# 3 34.7344 31.4608 143.8939 0.0000 54.9925 0.0000
# 4 0.0000 0.0000 0.0000 34.9079 0.0000 -7.2400
# 5 22.3685 5.4350 54.9925 0.0000 52.1407 0.0000
# 6 0.0000 0.0000 0.0000 -7.2400 0.0000 15.1245
#
#
#
# Elastic Compliance Matrix: (Units=1/GPa)
#
#
# Indices 1 2 3 4 5 6 
#
# 1 0.022079 -0.009134 -0.000128 0.000000 -0.008385 0.000000
# 2 -0.009134 0.015840 -0.003560 0.000000 0.006022 0.000000
# 3 -0.000128 -0.003560 0.012725 0.000000 -0.012995 0.000000
# 4 0.000000 0.000000 0.000000 0.031804 0.000000 0.015225
# 5 -0.008385 0.006022 -0.012995 0.000000 0.035854 0.000000
# 6 0.000000 0.000000 0.000000 0.015225 0.000000 0.073406
#
#
# Mechanical properties :
#
#
# Convention : Reuss Voigt Hill
#
# Bulk Modulus (GPa) = 39.99862 57.54647 48.77254
# Shear Modulus (GPa) = 22.15466 33.73023 27.94244
#
# Velocity S-wave (km/s) = 3.11945 3.84906 3.50330
# Velocity P-wave (km/s) = 5.52658 6.71042 6.14707
#
# Compressibility (1/GPa) = 0.02500087
#
# Stress axis : x y z
#
# Youngs Moduli (GPa) = 45.29142 63.13143 78.58373
#
# Poissons Ratio (x) = 0.57662 0.01008
# Poissons Ratio (y) = 0.41368 0.27975
# Poissons Ratio (z) = 0.00581 0.22474
#
# Static dielectric constant tensor:
#      x y z
#    x 3.676270 0.000000 0.188750 
#    y 0.000000 3.874690 0.000000 
#    z 0.188750 0.000000 4.543280 
# 
# 
# High freq. dielectric constant tensor:
#      x y z
#    x 1.878610 0.000000 0.041930 
#    y 0.000000 1.891630 0.000000 
#    z 0.041930 0.000000 1.925360 
# 
# From -- ./inp_files/7912.got.cif
#   From: 2010.06.25/outbox.cif.g09.slc.cpg/sg12_4_cif.got.tgz:7912.got - 2010.06.28 00:19:55.
