data_PCOD8093519
_publ_section_title
;
Structure prediction by ZEFSAII (Michael W. Deem and Ramdas Pophale) SiO2 
 PCOD8093519
Probable space group: C 2/M
;
_chemical_formula_sum "Si O2"
_cell_formula_units_Z 64
_cell_length_a 28.160106
_cell_length_b 12.935139
_cell_length_c 14.185233
_cell_angle_alpha 90.000000
_cell_angle_beta 42.041377
_cell_angle_gamma 90.000000
_cell_volume 3460.196999
_symmetry_space_group_name_H-M "C 2/M"
_symmetry_group_IT_number 12
_symmetry_cell_setting 'monoclinic'
loop_
_space_group_symop_operation_xyz
x,y,z
-x,y,-z
-x,-y,-z
x,-y,z
1/2+x,1/2+y,z
1/2-x,1/2+y,-z
1/2-x,1/2-y,-z
1/2+x,1/2-y,z
loop_
_atom_site_type_symbol
_atom_site_label
_atom_site_fract_x
_atom_site_fract_y
_atom_site_fract_z
Si Si1 0.665647 0.617474 0.962002
Si Si2 0.331697 0.729474 0.857532
Si Si3 0.410589 0.881062 0.419999
Si Si4 0.232799 0.881056 0.423034
Si Si5 0.700120 0.747905 0.297823
Si Si6 0.457217 0.882024 0.652414
Si Si7 0.418967 0.387858 0.094749
Si Si8 0.858762 0.726245 0.321390
O O1 0.691707 0.500000 0.927796
O O2 0.640440 0.648632 0.105225
O O3 0.731424 0.684535 0.828768
O O4 0.598771 0.631417 0.989757
O O5 0.334156 0.693627 0.744471
O O6 0.382717 0.829081 0.787211
O O7 0.250000 0.750000 0.000000
O O8 0.356966 0.821787 0.568238
O O9 0.491467 0.872117 0.333741
O O10 0.411806 0.831004 0.314295
O O11 0.385527 0.000000 0.453275
O O12 0.224577 0.845815 0.327456
O O13 0.183478 0.813333 0.561248
O O14 0.312153 0.863506 0.342768
O O15 0.211353 0.000000 0.463165
O O16 0.500000 0.833781 0.500000
O O17 0.437732 0.000000 0.657014
O O18 0.383205 0.500000 0.175318
O O19 0.395414 0.286759 0.183819
O O20 0.500000 0.400124 0.000000
#
# Coordination Sequence:
#
# PCOD8093519 Si02
#       8
#     8   8   8   8   8   8   8   8
#     4  10  21  37  57  79 107 146 194 239 280 332
#     4  10  22  36  57  84 116 150 191 236 287 336
#     4  10  20  33  58  90 115 144 182 230 287 347
#     4  10  20  34  55  83 114 144 179 226 284 338
#     4  10  19  36  56  85 113 146 185 232 283 343
#     4  10  20  37  62  89 116 149 191 241 294 347
#     4  10  21  37  57  77 103 144 193 236 277 331
#     4  10  20  35  56  82 112 143 182 229 281 334
#
# _framework density 18.496055999999999
#
# number of rings (size 3 to 8) (size 9 to 14) (size 15 to 20)
#    0.000    2.000    2.500    1.125    1.750    2.500 
#    0.000    1.875    0.000    1.875    0.000    0.000 
#    0.000    0.000    0.000    0.000    0.000    0.000 
#
# Total GULP energy -396504.595567 kJ/mol
# GULP energy per Si atom -12390.768611 kJ/mol
# Density = 1.845396 g / cm^3
# Si number density = 18.496056 Si / 1000 Ang^3
#
#
#
# Elastic Constant Matrix: (Units=GPa)
#
#
# Indices 1 2 3 4 5 6 
#
# 1 141.3083 48.4154 43.7090 0.0000 17.7467 0.0000
# 2 48.4154 76.7475 36.7940 0.0000 8.0401 0.0000
# 3 43.7090 36.7940 52.1413 0.0000 4.8600 0.0000
# 4 0.0000 0.0000 0.0000 4.7350 0.0000 3.6903
# 5 17.7467 8.0401 4.8600 0.0000 35.5155 0.0000
# 6 0.0000 0.0000 0.0000 3.6903 0.0000 20.3994
#
#
#
# Elastic Compliance Matrix: (Units=1/GPa)
#
#
# Indices 1 2 3 4 5 6 
#
# 1 0.010596 -0.003331 -0.006187 0.000000 -0.003694 0.000000
# 2 -0.003331 0.020976 -0.011874 0.000000 -0.001459 0.000000
# 3 -0.006187 -0.011874 0.032622 0.000000 0.001316 0.000000
# 4 0.000000 0.000000 0.000000 0.245858 0.000000 -0.044477
# 5 -0.003694 -0.001459 0.001316 0.000000 0.030153 0.000000
# 6 0.000000 0.000000 0.000000 -0.044477 0.000000 0.057067
#
#
# Mechanical properties :
#
#
# Convention : Reuss Voigt Hill
#
# Bulk Modulus (GPa) = 46.70849 58.67045 52.68947
# Shear Modulus (GPa) = 11.18086 21.54854 16.36470
#
# Velocity S-wave (km/s) = 2.46132 3.41696 2.97773
# Velocity P-wave (km/s) = 5.77802 6.88163 6.35383
#
# Compressibility (1/GPa) = 0.02140939
#
# Stress axis : x y z
#
# Youngs Moduli (GPa) = 94.37750 47.67240 30.65435
#
# Poissons Ratio (x) = 0.15879 0.18967
# Poissons Ratio (y) = 0.31436 0.36399
# Poissons Ratio (z) = 0.58395 0.56606
#
# Static dielectric constant tensor:
#      x y z
#    x 3.810990 0.000000 0.368010 
#    y 0.000000 3.479210 0.000000 
#    z 0.368010 0.000000 3.123500 
# 
# 
# High freq. dielectric constant tensor:
#      x y z
#    x 1.745080 0.000000 0.009760 
#    y 0.000000 1.706990 0.000000 
#    z 0.009760 0.000000 1.691980 
# 
# From -- ./inp_files/250823.got.cif
#   From: 2010.06.25/outbox.cif.g09.slc.cpg/sg12_126_cif.got.tgz:250823.got - 2010.06.28 00:19:55.
