data_PCOD8093666
_publ_section_title
;
Structure prediction by ZEFSAII (Michael W. Deem and Ramdas Pophale) SiO2 
 PCOD8093666
Probable space group: C 2/M
;
_chemical_formula_sum "Si O2"
_cell_formula_units_Z 64
_cell_length_a 16.378333
_cell_length_b 16.462662
_cell_length_c 18.815860
_cell_angle_alpha 90.000000
_cell_angle_beta 140.877229
_cell_angle_gamma 90.000000
_cell_volume 3201.196275
_symmetry_space_group_name_H-M "C 2/M"
_symmetry_group_IT_number 12
_symmetry_cell_setting 'monoclinic'
loop_
_space_group_symop_operation_xyz
x,y,z
-x,y,-z
-x,-y,-z
x,-y,z
1/2+x,1/2+y,z
1/2-x,1/2+y,-z
1/2-x,1/2-y,-z
1/2+x,1/2-y,z
loop_
_atom_site_type_symbol
_atom_site_label
_atom_site_fract_x
_atom_site_fract_y
_atom_site_fract_z
Si Si1 0.461837 0.676854 0.550516
Si Si2 0.377068 0.197212 0.870378
Si Si3 0.004153 0.405397 0.325600
Si Si4 0.831772 0.316441 0.306075
Si Si5 0.453562 0.407460 0.686974
Si Si6 0.018062 0.595220 0.850547
Si Si7 0.204561 0.678289 0.561720
Si Si8 0.742710 0.592917 0.894123
O O1 0.500000 0.638328 0.500000
O O2 0.565968 0.745340 0.639460
O O3 0.461637 0.604974 0.607358
O O4 0.321910 0.723879 0.457264
O O5 0.312269 0.281837 0.802864
O O6 0.414604 0.144370 0.827204
O O7 0.275537 0.146079 0.847754
O O8 0.500000 0.220765 0.000000
O O9 0.028723 0.500000 0.341629
O O10 0.869299 0.386526 0.275438
O O11 0.992070 0.373175 0.236859
O O12 0.127041 0.365772 0.446863
O O13 0.843107 0.352974 0.393168
O O14 0.408184 0.500000 0.670719
O O15 0.355841 0.342276 0.655002
O O16 0.594200 0.390943 0.816796
O O17 0.985434 0.500000 0.835268
O O18 0.163743 0.613429 0.976547
O O19 0.761321 0.500000 0.882931
#
# Coordination Sequence:
#
# PCOD8093666 Si02
#       8
#     8   8   8   8   8   8   8   8
#     4   9  19  36  56  77 109 149 186 228 280 333
#     4  10  19  36  58  86 115 148 190 229 271 338
#     4  10  21  39  62  85 109 141 192 243 280 328
#     4  10  21  38  57  81 111 146 187 232 285 328
#     4  11  21  34  55  83 117 148 183 228 278 344
#     4   9  19  36  61  88 112 146 188 234 279 324
#     4  10  22  38  57  80 111 152 193 232 277 331
#     4   9  18  35  58  85 119 153 182 223 281 338
#
# _framework density 19.992525000000001
#
# number of rings (size 3 to 8) (size 9 to 14) (size 15 to 20)
#    0.000    2.250    1.250    2.250    0.000    7.250 
#    2.250    1.250    0.000    0.375    0.000    0.000 
#    0.000    0.000    0.000    0.000    0.000    0.000 
#
# Total GULP energy -396726.416860 kJ/mol
# GULP energy per Si atom -12397.700527 kJ/mol
# Density = 1.994702 g / cm^3
# Si number density = 19.992525 Si / 1000 Ang^3
#
#
#
# Elastic Constant Matrix: (Units=GPa)
#
#
# Indices 1 2 3 4 5 6 
#
# 1 96.1846 19.0122 57.5870 -0.0001 -6.2087 -0.0001
# 2 19.0122 22.4942 26.0150 -0.0001 2.2182 0.0000
# 3 57.5870 26.0150 95.1515 -0.0002 -2.5512 -0.0002
# 4 -0.0001 -0.0001 -0.0002 28.9291 -0.0002 0.0128
# 5 -6.2087 2.2182 -2.5512 -0.0002 40.7823 -0.0001
# 6 -0.0001 0.0000 -0.0002 0.0128 -0.0001 29.3818
#
#
#
# Elastic Compliance Matrix: (Units=1/GPa)
#
#
# Indices 1 2 3 4 5 6 
#
# 1 0.016683 -0.003960 -0.008955 0.000000 0.002195 0.000000
# 2 -0.003960 0.066848 -0.016021 0.000000 -0.005241 0.000000
# 3 -0.008955 -0.016021 0.020330 0.000000 0.000780 0.000000
# 4 0.000000 0.000000 0.000000 0.034567 0.000000 -0.000015
# 5 0.002195 -0.005241 0.000780 0.000000 0.025188 0.000000
# 6 0.000000 0.000000 0.000000 -0.000015 0.000000 0.034035
#
#
# Mechanical properties :
#
#
# Convention : Reuss Voigt Hill
#
# Bulk Modulus (GPa) = 21.74400 46.56209 34.15304
# Shear Modulus (GPa) = 18.46026 27.23303 22.84665
#
# Velocity S-wave (km/s) = 3.04198 3.69475 3.38414
# Velocity P-wave (km/s) = 4.82056 6.44530 5.69121
#
# Compressibility (1/GPa) = 0.04598970
#
# Stress axis : x y z
#
# Youngs Moduli (GPa) = 59.94277 14.95934 49.18775
#
# Poissons Ratio (x) = 0.05924 0.44048
# Poissons Ratio (y) = 0.23737 0.78801
# Poissons Ratio (z) = 0.53679 0.23966
#
# Static dielectric constant tensor:
#      x y z
#    x 3.732680 0.000000 0.033810 
#    y 0.000000 3.414290 0.000000 
#    z 0.033810 0.000000 3.777790 
# 
# 
# High freq. dielectric constant tensor:
#      x y z
#    x 1.781170 0.000000 0.000110 
#    y 0.000000 1.754790 0.000000 
#    z 0.000110 0.000000 1.782610 
# 
# From -- ./inp_files/271736.got.cif
#   From: 2010.06.25/outbox.cif.g09.slc.cpg/sg12_136_cif.got.tgz:271736.got - 2010.06.28 00:19:55.
