data_PCOD8093548
_publ_section_title
;
Structure prediction by ZEFSAII (Michael W. Deem and Ramdas Pophale) SiO2 
 PCOD8093548
Probable space group: C 2/M
;
_chemical_formula_sum "Si O2"
_cell_formula_units_Z 56
_cell_length_a 14.126641
_cell_length_b 17.173241
_cell_length_c 20.244560
_cell_angle_alpha 90.000000
_cell_angle_beta 37.187735
_cell_angle_gamma 90.000000
_cell_volume 2968.551007
_symmetry_space_group_name_H-M "C 2/M"
_symmetry_group_IT_number 12
_symmetry_cell_setting 'monoclinic'
loop_
_space_group_symop_operation_xyz
x,y,z
-x,y,-z
-x,-y,-z
x,-y,z
1/2+x,1/2+y,z
1/2-x,1/2+y,-z
1/2-x,1/2-y,-z
1/2+x,1/2-y,z
loop_
_atom_site_type_symbol
_atom_site_label
_atom_site_fract_x
_atom_site_fract_y
_atom_site_fract_z
Si Si1 0.454116 0.274295 0.455247
Si Si2 0.174387 0.911658 0.290413
Si Si3 0.594895 0.254371 0.011189
Si Si4 0.115015 0.846068 0.184510
Si Si5 0.089320 0.717335 0.655960
Si Si6 0.664216 0.415344 0.025684
Si Si7 0.496026 0.862207 0.169925
O O1 0.500000 0.234911 0.500000
O O2 0.555244 0.352949 0.392473
O O3 0.273210 0.297641 0.553787
O O4 0.483214 0.213238 0.378522
O O5 0.191279 0.890471 0.203903
O O6 0.343640 0.907634 0.230254
O O7 0.111307 0.000000 0.332705
O O8 0.507754 0.219860 0.123907
O O9 0.500000 0.229361 0.000000
O O10 0.769703 0.220887 0.908348
O O11 0.603139 0.347818 0.011389
O O12 0.951841 0.804681 0.295442
O O13 0.086323 0.906794 0.141527
O O14 0.012744 0.653271 0.746327
O O15 0.615148 0.500000 0.024807
O O16 0.852435 0.413989 0.928997
#
# Coordination Sequence:
#
# PCOD8093548 Si02
#       7
#     8   8   8   8   8   8   8
#     4  10  21  35  56  81 111 139 190 239 273 324
#     4  11  22  34  55  86 118 146 173 223 293 343
#     4  11  20  34  56  79 107 147 191 228 257 322
#     4  10  19  37  56  78 111 148 191 223 265 335
#     4  10  19  36  57  79 105 148 195 230 270 322
#     4  11  22  34  52  82 116 145 180 231 278 324
#     4  11  19  36  55  81 113 149 184 219 271 340
#
# _framework density 18.864422999999999
#
# number of rings (size 3 to 8) (size 9 to 14) (size 15 to 20)
#    0.000    1.429    5.714    1.714    0.000    0.571 
#    0.000    2.143    0.000    0.000    0.000    0.000 
#    0.000   10.857    0.000    0.000    0.000    0.000 
#
# Total GULP energy -347109.174322 kJ/mol
# GULP energy per Si atom -12396.756226 kJ/mol
# Density = 1.882149 g / cm^3
# Si number density = 18.864423 Si / 1000 Ang^3
#
#
#
# Elastic Constant Matrix: (Units=GPa)
#
#
# Indices 1 2 3 4 5 6 
#
# 1 72.1363 10.9381 24.5938 0.0005 19.7239 -0.0002
# 2 10.9381 83.7722 12.6074 0.0016 5.8557 -0.0008
# 3 24.5938 12.6074 78.3613 0.0025 11.0315 -0.0016
# 4 0.0005 0.0016 0.0025 4.7710 -0.0018 -0.9597
# 5 19.7239 5.8557 11.0315 -0.0018 36.6453 0.0008
# 6 -0.0002 -0.0008 -0.0016 -0.9597 0.0008 21.6367
#
#
#
# Elastic Compliance Matrix: (Units=1/GPa)
#
#
# Indices 1 2 3 4 5 6 
#
# 1 0.017679 -0.001107 -0.004235 -0.000002 -0.008064 0.000000
# 2 -0.001107 0.012374 -0.001513 -0.000003 -0.000926 0.000000
# 3 -0.004235 -0.001513 0.014598 -0.000007 -0.001873 0.000001
# 4 -0.000002 -0.000003 -0.000007 0.211487 0.000014 0.009381
# 5 -0.008064 -0.000926 -0.001873 0.000014 0.032341 -0.000001
# 6 0.000000 0.000000 0.000001 0.009381 -0.000001 0.046634
#
#
# Mechanical properties :
#
#
# Convention : Reuss Voigt Hill
#
# Bulk Modulus (GPa) = 32.32063 36.72760 34.52412
# Shear Modulus (GPa) = 13.92224 25.01930 19.47077
#
# Velocity S-wave (km/s) = 2.71959 3.64575 3.21618
# Velocity P-wave (km/s) = 5.19922 6.10192 5.66857
#
# Compressibility (1/GPa) = 0.03093999
#
# Stress axis : x y z
#
# Youngs Moduli (GPa) = 56.56307 80.81380 68.50362
#
# Poissons Ratio (x) = 0.08949 0.29014
# Poissons Ratio (y) = 0.06263 0.10364
# Poissons Ratio (z) = 0.23956 0.12227
#
# Static dielectric constant tensor:
#      x y z
#    x 3.502050 0.000000 0.226440 
#    y 0.000000 3.185560 0.000000 
#    z 0.226440 0.000000 3.620120 
# 
# 
# High freq. dielectric constant tensor:
#      x y z
#    x 1.730130 0.000000 0.014770 
#    y 0.000000 1.699460 0.000000 
#    z 0.014770 0.000000 1.740580 
# 
# From -- ./inp_files/310753.got.cif
#   From: 2010.06.25/outbox.cif.g09.slc.cpg/sg12_156_cif.got.tgz:310753.got - 2010.06.28 00:19:55.
