data_PCOD8093458
_publ_section_title
;
Structure prediction by ZEFSAII (Michael W. Deem and Ramdas Pophale) SiO2 
 PCOD8093458
Probable space group: C 2/M
;
_chemical_formula_sum "Si O2"
_cell_formula_units_Z 56
_cell_length_a 21.644195
_cell_length_b 12.854927
_cell_length_c 11.029081
_cell_angle_alpha 90.000000
_cell_angle_beta 85.033432
_cell_angle_gamma 90.000000
_cell_volume 3057.149669
_symmetry_space_group_name_H-M "C 2/M"
_symmetry_group_IT_number 12
_symmetry_cell_setting 'monoclinic'
loop_
_space_group_symop_operation_xyz
x,y,z
-x,y,-z
-x,-y,-z
x,-y,z
1/2+x,1/2+y,z
1/2-x,1/2+y,-z
1/2-x,1/2-y,-z
1/2+x,1/2-y,z
loop_
_atom_site_type_symbol
_atom_site_label
_atom_site_fract_x
_atom_site_fract_y
_atom_site_fract_z
Si Si1 0.553981 0.118644 0.075628
Si Si2 0.082752 0.619230 0.564901
Si Si3 0.311054 0.266171 0.414235
Si Si4 0.542994 0.207955 0.335474
Si Si5 0.191075 0.382588 0.011707
Si Si6 0.633515 0.622058 0.384581
Si Si7 0.236810 0.234751 0.204865
O O1 0.560030 0.185999 0.194956
O O2 0.618332 0.126594 0.991602
O O3 0.537900 0.000000 0.114040
O O4 0.500000 0.165257 0.000000
O O5 0.073778 0.500000 0.607856
O O6 0.149644 0.658964 0.596586
O O7 0.078168 0.627145 0.419344
O O8 0.030694 0.694597 0.632831
O O9 0.250000 0.250000 0.500000
O O10 0.350876 0.356089 0.475347
O O11 0.289022 0.290491 0.280876
O O12 0.567599 0.324100 0.362929
O O13 0.211056 0.500000 0.033062
O O14 0.202984 0.323547 0.135221
O O15 0.229891 0.343125 0.892132
O O16 0.627338 0.500000 0.362619
O O17 0.687369 0.670033 0.291426
#
# Coordination Sequence:
#
# PCOD8093458 Si02
#       7
#     8   8   8   8   8   8   8
#     4  10  20  33  53  83 114 142 176 225 285 333
#     4  10  20  34  58  84 110 143 177 227 290 340
#     4   9  21  36  53  83 113 143 185 229 273 326
#     4  10  19  36  53  82 111 142 182 230 277 338
#     4  10  21  35  56  83 111 151 189 228 281 330
#     4  10  20  37  59  80 109 151 189 229 280 333
#     4  10  20  38  55  80 115 148 191 232 273 333
#
# _framework density 18.317716999999998
#
# number of rings (size 3 to 8) (size 9 to 14) (size 15 to 20)
#    0.000    2.143    1.429    2.143    2.000    3.429 
#    0.000    5.714    0.000    0.429    0.000    0.000 
#    0.000    0.000    0.000    0.000    0.000    0.000 
#
# Total GULP energy -347075.128793 kJ/mol
# GULP energy per Si atom -12395.540314 kJ/mol
# Density = 1.827602 g / cm^3
# Si number density = 18.317717 Si / 1000 Ang^3
#
#
#
# Elastic Constant Matrix: (Units=GPa)
#
#
# Indices 1 2 3 4 5 6 
#
# 1 114.8929 52.4501 37.3925 0.0000 3.9359 0.0000
# 2 52.4501 116.6105 43.5984 0.0000 -2.0334 0.0000
# 3 37.3925 43.5984 81.6918 0.0000 6.6476 0.0000
# 4 0.0000 0.0000 0.0000 12.6181 0.0000 -4.2870
# 5 3.9359 -2.0334 6.6476 0.0000 23.6635 0.0000
# 6 0.0000 0.0000 0.0000 -4.2870 0.0000 25.0223
#
#
#
# Elastic Compliance Matrix: (Units=1/GPa)
#
#
# Indices 1 2 3 4 5 6 
#
# 1 0.011613 -0.004129 -0.002994 0.000000 -0.001445 0.000000
# 2 -0.004129 0.012338 -0.004950 0.000000 0.003138 0.000000
# 3 -0.002994 -0.004950 0.016628 0.000000 -0.004598 0.000000
# 4 0.000000 0.000000 0.000000 0.084150 0.000000 0.014417
# 5 -0.001445 0.003138 -0.004598 0.000000 0.044061 0.000000
# 6 0.000000 0.000000 0.000000 0.014417 0.000000 0.042434
#
#
# Mechanical properties :
#
#
# Convention : Reuss Voigt Hill
#
# Bulk Modulus (GPa) = 60.85745 64.45302 62.65524
# Shear Modulus (GPa) = 20.76000 24.24437 22.50219
#
# Velocity S-wave (km/s) = 3.37015 3.64201 3.50871
# Velocity P-wave (km/s) = 6.95983 7.27655 7.11995
#
# Compressibility (1/GPa) = 0.01643184
#
# Stress axis : x y z
#
# Youngs Moduli (GPa) = 86.11278 81.04897 60.14041
#
# Poissons Ratio (x) = 0.33465 0.18007
# Poissons Ratio (y) = 0.35556 0.29771
# Poissons Ratio (z) = 0.25784 0.40121
#
# Static dielectric constant tensor:
#      x y z
#    x 3.604670 0.000000 0.170300 
#    y 0.000000 3.212530 0.000000 
#    z 0.170300 0.000000 3.584120 
# 
# 
# High freq. dielectric constant tensor:
#      x y z
#    x 1.720860 0.000000 0.000620 
#    y 0.000000 1.681320 0.000000 
#    z 0.000620 0.000000 1.711870 
# 
# From -- ./inp_files/164847.got.cif
#   From: 2010.06.25/outbox.cif.g09.slc.cpg/sg12_83_cif.got.tgz:164847.got - 2010.06.28 00:19:55.
