data_PCOD8093602
_publ_section_title
;
Structure prediction by ZEFSAII (Michael W. Deem and Ramdas Pophale) SiO2 
 PCOD8093602
Probable space group: C 2/M
;
_chemical_formula_sum "Si O2"
_cell_formula_units_Z 56
_cell_length_a 19.159006
_cell_length_b 8.559046
_cell_length_c 21.023996
_cell_angle_alpha 90.000000
_cell_angle_beta 58.038363
_cell_angle_gamma 90.000000
_cell_volume 2924.931172
_symmetry_space_group_name_H-M "C 2/M"
_symmetry_group_IT_number 12
_symmetry_cell_setting 'monoclinic'
loop_
_space_group_symop_operation_xyz
x,y,z
-x,y,-z
-x,-y,-z
x,-y,z
1/2+x,1/2+y,z
1/2-x,1/2+y,-z
1/2-x,1/2-y,-z
1/2+x,1/2-y,z
loop_
_atom_site_type_symbol
_atom_site_label
_atom_site_fract_x
_atom_site_fract_y
_atom_site_fract_z
Si Si1 0.469669 0.329881 0.321994
Si Si2 0.293714 0.183594 0.711641
Si Si3 0.846305 0.170986 0.810308
Si Si4 0.993972 0.816253 0.931515
Si Si5 0.962011 0.813164 0.584552
Si Si6 0.111913 0.814882 0.763106
Si Si7 0.662423 0.819942 0.056359
O O1 0.427295 0.500000 0.350508
O O2 0.563589 0.352712 0.258995
O O3 0.476392 0.248245 0.388753
O O4 0.422172 0.240157 0.287408
O O5 0.287994 0.264624 0.783010
O O6 0.369945 0.244947 0.633300
O O7 0.207955 0.227185 0.719013
O O8 0.302804 0.000000 0.717094
O O9 0.851067 0.299705 0.862481
O O10 0.813223 0.000000 0.849415
O O11 0.903451 0.778948 0.950776
O O12 0.062019 0.747096 0.848713
O O13 0.007109 0.000000 0.929322
O O14 0.000000 0.743964 0.000000
O O15 0.000000 0.756072 0.500000
O O16 0.956223 0.000000 0.592052
O O17 0.095574 0.000000 0.769167
O O18 0.655700 0.000000 0.040338
O O19 0.750000 0.750000 0.000000
#
# Coordination Sequence:
#
# PCOD8093602 Si02
#       7
#     8   8   8   8   8   8   8
#     4   8  14  29  55  77  98 135 180 217 262 328
#     4  10  20  32  53  84 114 143 180 226 275 333
#     4  10  19  36  58  78 104 143 185 229 276 330
#     4  10  21  38  59  81 110 150 190 232 285 341
#     4   9  18  34  56  80 107 143 187 233 277 326
#     4   9  17  32  53  79 109 144 183 221 274 338
#     4  12  25  39  56  80 110 144 189 241 289 337
#
# _framework density 19.145748000000001
#
# number of rings (size 3 to 8) (size 9 to 14) (size 15 to 20)
#    0.000    2.286    1.429    3.000    2.000    0.571 
#    0.000    2.143    0.000    0.000    0.000    0.000 
#    0.000    0.000    0.000    0.000    0.000    0.000 
#
# Total GULP energy -346929.218381 kJ/mol
# GULP energy per Si atom -12390.329228 kJ/mol
# Density = 1.910217 g / cm^3
# Si number density = 19.145748 Si / 1000 Ang^3
#
#
#
# Elastic Constant Matrix: (Units=GPa)
#
#
# Indices 1 2 3 4 5 6 
#
# 1 152.2506 11.2921 75.8142 0.0000 18.6923 -0.0002
# 2 11.2921 31.4331 10.9591 0.0000 1.2408 -0.0008
# 3 75.8142 10.9591 124.9440 0.0000 26.3224 0.0000
# 4 0.0000 0.0000 0.0000 16.0332 0.0000 -6.1826
# 5 18.6923 1.2408 26.3224 0.0000 30.0928 0.0000
# 6 -0.0002 -0.0008 0.0000 -6.1826 0.0000 19.4262
#
#
#
# Elastic Compliance Matrix: (Units=1/GPa)
#
#
# Indices 1 2 3 4 5 6 
#
# 1 0.009506 -0.001487 -0.005402 0.000000 -0.001118 0.000000
# 2 -0.001487 0.033100 -0.002339 0.000001 0.001605 0.000001
# 3 -0.005402 -0.002339 0.013190 0.000000 -0.008085 0.000000
# 4 0.000000 0.000001 0.000000 0.071096 0.000000 0.022627
# 5 -0.001118 0.001605 -0.008085 0.000000 0.040931 0.000000
# 6 0.000000 0.000001 0.000000 0.022627 0.000000 0.058678
#
#
# Mechanical properties :
#
#
# Convention : Reuss Voigt Hill
#
# Bulk Modulus (GPa) = 26.78143 56.08429 41.43286
# Shear Modulus (GPa) = 19.42475 27.14793 23.28634
#
# Velocity S-wave (km/s) = 3.18869 3.76967 3.49129
# Velocity P-wave (km/s) = 5.25124 6.95012 6.15953
#
# Compressibility (1/GPa) = 0.03733930
#
# Stress axis : x y z
#
# Youngs Moduli (GPa) = 105.20123 30.21152 75.81557
#
# Poissons Ratio (x) = 0.04493 0.40954
# Poissons Ratio (y) = 0.15647 0.17732
# Poissons Ratio (z) = 0.56828 0.07066
#
# Static dielectric constant tensor:
#      x y z
#    x 3.578030 0.000000 0.212650 
#    y 0.000000 3.379870 0.000000 
#    z 0.212650 0.000000 3.425090 
# 
# 
# High freq. dielectric constant tensor:
#      x y z
#    x 1.750590 0.000000 0.016190 
#    y 0.000000 1.712480 0.000000 
#    z 0.016190 0.000000 1.737760 
# 
# From -- ./inp_files/313711.got.cif
#   From: 2010.06.25/outbox.cif.g09.slc.cpg/sg12_157_cif.got.tgz:313711.got - 2010.06.28 00:19:55.
