data_PCOD8093683
_publ_section_title
;
Structure prediction by ZEFSAII (Michael W. Deem and Ramdas Pophale) SiO2 
 PCOD8093683
Probable space group: C 2/M
;
_chemical_formula_sum "Si O2"
_cell_formula_units_Z 48
_cell_length_a 26.887295
_cell_length_b 18.653244
_cell_length_c 5.216234
_cell_angle_alpha 90.000000
_cell_angle_beta 66.794183
_cell_angle_gamma 90.000000
_cell_volume 2404.468615
_symmetry_space_group_name_H-M "C 2/M"
_symmetry_group_IT_number 12
_symmetry_cell_setting 'monoclinic'
loop_
_space_group_symop_operation_xyz
x,y,z
-x,y,-z
-x,-y,-z
x,-y,z
1/2+x,1/2+y,z
1/2-x,1/2+y,-z
1/2-x,1/2-y,-z
1/2+x,1/2-y,z
loop_
_atom_site_type_symbol
_atom_site_label
_atom_site_fract_x
_atom_site_fract_y
_atom_site_fract_z
Si Si1 0.880823 0.719443 0.606255
Si Si2 0.130182 0.919340 0.686084
Si Si3 0.256288 0.419952 0.832096
Si Si4 0.816187 0.177762 0.032860
Si Si5 0.534899 0.329504 0.673342
Si Si6 0.831159 0.323180 0.201424
O O1 0.842532 0.790286 0.717196
O O2 0.940684 0.750065 0.433055
O O3 0.861644 0.670235 0.409129
O O4 0.875833 0.672892 0.879079
O O5 0.185506 0.921001 0.415198
O O6 0.081053 0.889108 0.618243
O O7 0.115674 0.000000 0.803406
O O8 0.138417 0.870810 0.921704
O O9 0.238862 0.500000 0.950848
O O10 0.262453 0.368606 0.071484
O O11 0.211373 0.387819 0.733458
O O12 0.800364 0.245671 0.245031
O O13 0.500000 0.354299 0.500000
O O14 0.500000 0.323305 0.000000
#
# Coordination Sequence:
#
# PCOD8093683 Si02
#       6
#     8   8   8   8   8   8
#     4  10  21  40  60  85 111 147 201 249 286 336
#     4  11  23  38  54  81 123 164 200 240 284 334
#     4  11  23  36  56  88 125 160 195 231 283 354
#     4  10  19  36  59  77 116 157 202 235 274 336
#     4  12  23  40  61  82 113 150 204 255 296 333
#     4  10  21  37  63  84 114 154 199 231 292 349
#
# _framework density 19.962831000000001
#
# number of rings (size 3 to 8) (size 9 to 14) (size 15 to 20)
#    1.000    0.333    3.333    3.000    2.333    2.000 
#    0.000    0.000    0.000    0.000    0.000    0.000 
#    0.000   13.333    0.000    0.000    0.000    0.000 
#
# Total GULP energy -297421.285448 kJ/mol
# GULP energy per Si atom -12392.553560 kJ/mol
# Density = 1.991739 g / cm^3
# Si number density = 19.962831 Si / 1000 Ang^3
#
#
#
# Elastic Constant Matrix: (Units=GPa)
#
#
# Indices 1 2 3 4 5 6 
#
# 1 70.9441 28.5603 29.8793 0.0000 7.0347 0.0000
# 2 28.5603 52.1243 10.8338 0.0000 -5.3147 0.0000
# 3 29.8793 10.8338 87.5571 0.0000 10.6924 0.0000
# 4 0.0000 0.0000 0.0000 8.8487 0.0000 6.2781
# 5 7.0347 -5.3147 10.6924 0.0000 34.7466 0.0000
# 6 0.0000 0.0000 0.0000 6.2781 0.0000 13.1678
#
#
#
# Elastic Compliance Matrix: (Units=1/GPa)
#
#
# Indices 1 2 3 4 5 6 
#
# 1 0.021176 -0.010931 -0.005347 0.000000 -0.004314 0.000000
# 2 -0.010931 0.025859 -0.000231 0.000000 0.006240 0.000000
# 3 -0.005347 -0.000231 0.013660 0.000000 -0.003156 0.000000
# 4 0.000000 0.000000 0.000000 0.170782 0.000000 -0.081425
# 5 -0.004314 0.006240 -0.003156 0.000000 0.031579 0.000000
# 6 0.000000 0.000000 0.000000 -0.081425 0.000000 0.114765
#
#
# Mechanical properties :
#
#
# Convention : Reuss Voigt Hill
#
# Bulk Modulus (GPa) = 36.13314 38.79694 37.46504
# Shear Modulus (GPa) = 11.90293 20.77608 16.33950
#
# Velocity S-wave (km/s) = 2.44448 3.22955 2.86404
# Velocity P-wave (km/s) = 5.10948 5.77784 5.45391
#
# Compressibility (1/GPa) = 0.02767542
#
# Stress axis : x y z
#
# Youngs Moduli (GPa) = 47.22311 38.67160 73.20713
#
# Poissons Ratio (x) = 0.42274 0.39144
# Poissons Ratio (y) = 0.51622 0.01692
# Poissons Ratio (z) = 0.25250 0.00894
#
# Static dielectric constant tensor:
#      x y z
#    x 3.538610 0.000000 0.116310 
#    y 0.000000 3.551100 0.000000 
#    z 0.116310 0.000000 3.563470 
# 
# 
# High freq. dielectric constant tensor:
#      x y z
#    x 1.756650 0.000000 0.019340 
#    y 0.000000 1.749030 0.000000 
#    z 0.019340 0.000000 1.780550 
# 
# From -- ./inp_files/24956.got.cif
#   From: 2010.06.25/outbox.cif.g09.slc.cpg/sg12_13_cif.got.tgz:24956.got - 2010.06.28 00:19:55.
