data_PCOD8093624
_publ_section_title
;
Structure prediction by ZEFSAII (Michael W. Deem and Ramdas Pophale) SiO2 
 PCOD8093624
Probable space group: C 2/M
;
_chemical_formula_sum "Si O2"
_cell_formula_units_Z 56
_cell_length_a 14.971519
_cell_length_b 7.768057
_cell_length_c 26.171119
_cell_angle_alpha 90.000000
_cell_angle_beta 115.810822
_cell_angle_gamma 90.000000
_cell_volume 2740.041892
_symmetry_space_group_name_H-M "C 2/M"
_symmetry_group_IT_number 12
_symmetry_cell_setting 'monoclinic'
loop_
_space_group_symop_operation_xyz
x,y,z
-x,y,-z
-x,-y,-z
x,-y,z
1/2+x,1/2+y,z
1/2-x,1/2+y,-z
1/2-x,1/2-y,-z
1/2+x,1/2-y,z
loop_
_atom_site_type_symbol
_atom_site_label
_atom_site_fract_x
_atom_site_fract_y
_atom_site_fract_z
Si Si1 0.585988 0.299589 0.770122
Si Si2 0.499100 0.303508 0.856979
Si Si3 0.347340 0.000000 0.935799
Si Si4 0.481735 0.704949 0.643192
Si Si5 0.293006 0.307633 0.856562
Si Si6 0.432878 0.303077 0.439093
Si Si7 0.439455 0.000000 0.061930
Si Si8 0.764479 0.201801 0.562160
O O1 0.609251 0.500000 0.768873
O O2 0.516187 0.266357 0.801637
O O3 0.528697 0.221297 0.707012
O O4 0.690735 0.202734 0.800190
O O5 0.529028 0.500000 0.878635
O O6 0.383468 0.267704 0.840315
O O7 0.568772 0.172880 0.906140
O O8 0.290319 0.829048 0.902349
O O9 0.457314 0.000000 0.941642
O O10 0.350617 0.000000 0.998307
O O11 0.483493 0.500000 0.645926
O O12 0.544460 0.778996 0.610685
O O13 0.369394 0.771313 0.608734
O O14 0.305014 0.500000 0.882529
O O15 0.500000 0.212710 0.500000
O O16 0.467309 0.500000 0.444174
O O17 0.317536 0.290853 0.423116
O O18 0.750000 0.250000 0.500000
O O19 0.754864 0.000000 0.566651
#
# Coordination Sequence:
#
# PCOD8093624 Si02
#       8
#     8   8   4   8   8   8   4   8
#     4  10  20  38  60  79 114 153 195 240 291 349
#     4   9  20  36  58  84 115 156 194 241 297 343
#     4   9  18  36  58  90 117 157 189 244 291 351
#     4   9  20  37  57  81 109 154 191 228 292 350
#     4  10  20  36  59  86 115 154 197 241 296 344
#     4  10  19  36  58  80 111 149 186 228 287 348
#     4   9  18  34  62  86 119 151 201 235 291 350
#     4  11  21  36  58  83 113 150 188 233 291 346
#
# _framework density 20.437643999999999
#
# number of rings (size 3 to 8) (size 9 to 14) (size 15 to 20)
#    0.000    2.286    2.143    0.429    1.000    2.000 
#    0.000    7.143    0.000    0.000    0.000    0.000 
#    0.000    0.000    0.000    0.000    0.000    0.000 
#
# Total GULP energy -347169.427400 kJ/mol
# GULP energy per Si atom -12398.908121 kJ/mol
# Density = 2.039113 g / cm^3
# Si number density = 20.437644 Si / 1000 Ang^3
#
#
#
# Elastic Constant Matrix: (Units=GPa)
#
#
# Indices 1 2 3 4 5 6 
#
# 1 117.5746 25.4689 72.8458 0.0000 -2.1824 0.0000
# 2 25.4689 79.5783 53.2273 0.0000 -4.9605 0.0000
# 3 72.8458 53.2273 190.5151 0.0000 -3.0103 0.0000
# 4 0.0000 0.0000 0.0000 19.0107 0.0000 2.2382
# 5 -2.1824 -4.9605 -3.0103 0.0000 31.2764 0.0000
# 6 0.0000 0.0000 0.0000 2.2382 0.0000 23.1785
#
#
#
# Elastic Compliance Matrix: (Units=1/GPa)
#
#
# Indices 1 2 3 4 5 6 
#
# 1 0.011198 -0.000869 -0.004035 0.000000 0.000255 0.000000
# 2 -0.000869 0.015653 -0.004009 0.000000 0.002036 0.000000
# 3 -0.004035 -0.004009 0.007909 0.000000 -0.000156 0.000000
# 4 0.000000 0.000000 0.000000 0.053207 0.000000 -0.005138
# 5 0.000255 0.002036 -0.000156 0.000000 0.032299 0.000000
# 6 0.000000 0.000000 0.000000 -0.005138 0.000000 0.043640
#
#
# Mechanical properties :
#
#
# Convention : Reuss Voigt Hill
#
# Bulk Modulus (GPa) = 59.05097 76.75021 67.90059
# Shear Modulus (GPa) = 26.68441 30.43485 28.55963
#
# Velocity S-wave (km/s) = 3.61730 3.86315 3.74224
# Velocity P-wave (km/s) = 6.81193 7.58508 7.20888
#
# Compressibility (1/GPa) = 0.01693452
#
# Stress axis : x y z
#
# Youngs Moduli (GPa) = 89.30046 63.88727 126.43540
#
# Poissons Ratio (x) = 0.05553 0.51015
# Poissons Ratio (y) = 0.07763 0.50683
# Poissons Ratio (z) = 0.36031 0.25610
#
# Static dielectric constant tensor:
#      x y z
#    x 3.667410 0.000000 -0.026400 
#    y 0.000000 3.621940 0.000000 
#    z -0.026400 0.000000 3.884320 
# 
# 
# High freq. dielectric constant tensor:
#      x y z
#    x 1.798340 0.000000 -0.001200 
#    y 0.000000 1.790830 0.000000 
#    z -0.001200 0.000000 1.788600 
# 
# From -- ./inp_files/339131.got.cif
#   From: 2010.06.25/outbox.cif.g09.slc.cpg/sg12_170_cif.got.tgz:339131.got - 2010.06.28 00:19:55.
