data_PCOD8093807
_publ_section_title
;
Structure prediction by ZEFSAII (Michael W. Deem and Ramdas Pophale) SiO2 
 PCOD8093807
Probable space group: C 2/M
;
_chemical_formula_sum "Si O2"
_cell_formula_units_Z 56
_cell_length_a 20.468625
_cell_length_b 9.272456
_cell_length_c 17.566669
_cell_angle_alpha 90.000000
_cell_angle_beta 109.720347
_cell_angle_gamma 90.000000
_cell_volume 3138.516047
_symmetry_space_group_name_H-M "C 2/M"
_symmetry_group_IT_number 12
_symmetry_cell_setting 'monoclinic'
loop_
_space_group_symop_operation_xyz
x,y,z
-x,y,-z
-x,-y,-z
x,-y,z
1/2+x,1/2+y,z
1/2-x,1/2+y,-z
1/2-x,1/2-y,-z
1/2+x,1/2-y,z
loop_
_atom_site_type_symbol
_atom_site_label
_atom_site_fract_x
_atom_site_fract_y
_atom_site_fract_z
Si Si1 0.565272 0.668823 0.236953
Si Si2 0.820920 0.671262 0.265629
Si Si3 0.076339 0.666237 0.822068
Si Si4 0.827074 0.170138 0.852421
Si Si5 0.818326 0.668205 0.000032
Si Si6 0.811822 0.668147 0.431166
Si Si7 0.344577 0.332211 0.586984
O O1 0.551215 0.500000 0.234002
O O2 0.493552 0.746997 0.194347
O O3 0.616769 0.708221 0.189079
O O4 0.598796 0.720798 0.329723
O O5 0.816583 0.500000 0.263832
O O6 0.882386 0.726875 0.235369
O O7 0.747398 0.727728 0.205515
O O8 0.834613 0.725940 0.356986
O O9 0.057414 0.500000 0.802241
O O10 0.122655 0.688644 0.914291
O O11 0.847639 0.259608 0.935120
O O12 0.825350 0.000000 0.870514
O O13 0.801052 0.500000 0.980683
O O14 0.750000 0.750000 0.000000
O O15 0.826932 0.500000 0.446156
O O16 0.730717 0.703428 0.408418
O O17 0.856980 0.749032 0.512767
O O18 0.352222 0.500000 0.572822
#
# Coordination Sequence:
#
# PCOD8093807 Si02
#       7
#     8   8   8   8   8   8   8
#     4  10  21  37  57  80 110 149 183 219 271 329
#     4   9  16  33  57  79 103 141 184 220 265 319
#     4  10  22  38  56  77 109 146 178 223 274 323
#     4  10  19  36  60  81 107 143 185 226 267 319
#     4  11  22  37  58  84 111 142 181 227 275 320
#     4   9  16  29  54  81 103 134 181 225 262 316
#     4   9  17  31  51  78 110 139 171 220 276 318
#
# _framework density 17.842827
#
# number of rings (size 3 to 8) (size 9 to 14) (size 15 to 20)
#    0.000    2.286    2.857    0.429    0.000    2.857 
#    0.000    5.000    0.000    4.286    0.000    0.000 
#    0.000    0.000    0.000    0.000    0.000    0.000 
#
# Total GULP energy -347215.838332 kJ/mol
# GULP energy per Si atom -12400.565655 kJ/mol
# Density = 1.780222 g / cm^3
# Si number density = 17.842827 Si / 1000 Ang^3
#
#
#
# Elastic Constant Matrix: (Units=GPa)
#
#
# Indices 1 2 3 4 5 6 
#
# 1 105.2673 46.2266 56.7834 0.0000 -1.6658 0.0000
# 2 46.2266 54.7609 54.9477 0.0000 -3.1000 0.0000
# 3 56.7834 54.9477 132.7507 0.0000 -18.4900 0.0000
# 4 0.0000 0.0000 0.0000 33.8872 0.0000 -0.1124
# 5 -1.6658 -3.1000 -18.4900 0.0000 27.9190 0.0000
# 6 0.0000 0.0000 0.0000 -0.1124 0.0000 28.9951
#
#
#
# Elastic Compliance Matrix: (Units=1/GPa)
#
#
# Indices 1 2 3 4 5 6 
#
# 1 0.015508 -0.010737 -0.002452 0.000000 -0.001891 0.000000
# 2 -0.010737 0.039486 -0.012371 0.000000 -0.004449 0.000000
# 3 -0.002452 -0.012371 0.014862 0.000000 0.008323 0.000000
# 4 0.000000 0.000000 0.000000 0.029510 0.000000 0.000114
# 5 -0.001891 -0.004449 0.008323 0.000000 0.040723 0.000000
# 6 0.000000 0.000000 0.000000 0.000114 0.000000 0.034489
#
#
# Mechanical properties :
#
#
# Convention : Reuss Voigt Hill
#
# Bulk Modulus (GPa) = 53.37731 67.63270 60.50500
# Shear Modulus (GPa) = 21.55698 27.14832 24.35265
#
# Velocity S-wave (km/s) = 3.47963 3.90491 3.69839
# Velocity P-wave (km/s) = 6.79146 7.63662 7.22641
#
# Compressibility (1/GPa) = 0.01873455
#
# Stress axis : x y z
#
# Youngs Moduli (GPa) = 64.48439 25.32530 67.28701
#
# Poissons Ratio (x) = 0.27192 0.16502
# Poissons Ratio (y) = 0.69237 0.83241
# Poissons Ratio (z) = 0.15815 0.31330
#
# Static dielectric constant tensor:
#      x y z
#    x 3.209890 0.000000 -0.167790 
#    y 0.000000 3.211380 0.000000 
#    z -0.167790 0.000000 3.594280 
# 
# 
# High freq. dielectric constant tensor:
#      x y z
#    x 1.678090 0.000000 -0.010230 
#    y 0.000000 1.671770 0.000000 
#    z -0.010230 0.000000 1.705590 
# 
# From -- ./inp_files/275597.got.cif
#   From: 2010.06.25/outbox.cif.g09.slc.cpg/sg12_138_cif.got.tgz:275597.got - 2010.06.28 00:19:55.
