data_PCOD8093303
_publ_section_title
;
Structure prediction by ZEFSAII (Michael W. Deem and Ramdas Pophale) SiO2 
 PCOD8093303
Probable space group: C 2/M
;
_chemical_formula_sum "Si O2"
_cell_formula_units_Z 64
_cell_length_a 22.367070
_cell_length_b 15.179912
_cell_length_c 12.568670
_cell_angle_alpha 90.000000
_cell_angle_beta 129.784196
_cell_angle_gamma 90.000000
_cell_volume 3279.359079
_symmetry_space_group_name_H-M "C 2/M"
_symmetry_group_IT_number 12
_symmetry_cell_setting 'monoclinic'
loop_
_space_group_symop_operation_xyz
x,y,z
-x,y,-z
-x,-y,-z
x,-y,z
1/2+x,1/2+y,z
1/2-x,1/2+y,-z
1/2-x,1/2-y,-z
1/2+x,1/2-y,z
loop_
_atom_site_type_symbol
_atom_site_label
_atom_site_fract_x
_atom_site_fract_y
_atom_site_fract_z
Si Si1 0.383954 0.098144 0.399147
Si Si2 0.537187 0.221364 0.344671
Si Si3 0.788552 0.596085 0.707458
Si Si4 0.292054 0.599885 0.767804
Si Si5 0.537234 0.100038 0.151946
Si Si6 0.783196 0.732322 0.887185
Si Si7 0.128507 0.284033 0.807804
Si Si8 0.816230 0.824251 0.572531
O O1 0.436726 0.165318 0.524150
O O2 0.299851 0.099043 0.358962
O O3 0.379494 0.126677 0.270481
O O4 0.419451 0.000000 0.444605
O O5 0.508683 0.157539 0.217607
O O6 0.454917 0.267156 0.284341
O O7 0.601909 0.290417 0.381330
O O8 0.785189 0.500000 0.759042
O O9 0.869724 0.607453 0.739006
O O10 0.782854 0.673745 0.783430
O O11 0.717395 0.600696 0.543198
O O12 0.321055 0.500000 0.828544
O O13 0.308389 0.667361 0.884061
O O14 0.333667 0.635178 0.708278
O O15 0.508699 0.000000 0.135697
O O16 0.500000 0.137216 0.000000
O O17 0.695250 0.723933 0.831187
O O18 0.843521 0.693222 0.040742
O O19 0.750000 0.750000 0.500000
#
# Coordination Sequence:
#
# PCOD8093303 Si02
#       8
#     8   8   8   8   8   8   8   8
#     4  10  20  34  53  82 116 146 183 228 277 342
#     4  12  21  33  55  80 111 150 185 222 282 329
#     4  11  21  35  57  83 111 148 185 221 276 334
#     4  10  19  35  61  86 110 146 186 229 282 333
#     4  10  20  32  49  81 118 143 172 217 273 346
#     4  10  20  41  58  78 110 144 191 234 275 328
#     4  10  23  36  55  78 106 148 190 232 277 328
#     4  12  19  34  56  81 115 147 177 226 265 328
#
# _framework density 19.516009
#
# number of rings (size 3 to 8) (size 9 to 14) (size 15 to 20)
#    0.000    1.375    3.750    2.625    0.000    4.000 
#    0.000    1.875    0.000    4.500    0.000    0.000 
#    0.000    0.000    0.000    0.000    0.000    0.000 
#
# Total GULP energy -396678.640661 kJ/mol
# GULP energy per Si atom -12396.207521 kJ/mol
# Density = 1.947159 g / cm^3
# Si number density = 19.516009 Si / 1000 Ang^3
#
#
#
# Elastic Constant Matrix: (Units=GPa)
#
#
# Indices 1 2 3 4 5 6 
#
# 1 91.1069 43.7745 34.2305 0.0000 11.9243 0.0000
# 2 43.7745 69.8418 40.4191 0.0000 1.4456 0.0000
# 3 34.2305 40.4191 102.2569 0.0000 -12.6381 0.0000
# 4 0.0000 0.0000 0.0000 14.3919 0.0000 -0.8707
# 5 11.9243 1.4456 -12.6381 0.0000 33.7526 0.0000
# 6 0.0000 0.0000 0.0000 -0.8707 0.0000 16.0862
#
#
#
# Elastic Compliance Matrix: (Units=1/GPa)
#
#
# Indices 1 2 3 4 5 6 
#
# 1 0.017342 -0.008910 -0.003139 0.000000 -0.006920 0.000000
# 2 -0.008910 0.023597 -0.006376 0.000000 -0.000250 0.000000
# 3 -0.003139 -0.006376 0.014177 0.000000 0.006690 0.000000
# 4 0.000000 0.000000 0.000000 0.069712 0.000000 0.003773
# 5 -0.006920 -0.000250 0.006690 0.000000 0.034588 0.000000
# 6 0.000000 0.000000 0.000000 0.003773 0.000000 0.062369
#
#
# Mechanical properties :
#
#
# Convention : Reuss Voigt Hill
#
# Bulk Modulus (GPa) = 54.74074 55.56153 55.15114
# Shear Modulus (GPa) = 18.88765 22.49826 20.69295
#
# Velocity S-wave (km/s) = 3.11433 3.39899 3.25977
# Velocity P-wave (km/s) = 6.40641 6.62840 6.51835
#
# Compressibility (1/GPa) = 0.01826793
#
# Stress axis : x y z
#
# Youngs Moduli (GPa) = 57.66330 42.37767 70.53670
#
# Poissons Ratio (x) = 0.37757 0.22140
# Poissons Ratio (y) = 0.51376 0.44972
# Poissons Ratio (z) = 0.18099 0.27019
#
# Static dielectric constant tensor:
#      x y z
#    x 3.622840 0.000000 -0.029240 
#    y 0.000000 3.499570 0.000000 
#    z -0.029240 0.000000 3.649060 
# 
# 
# High freq. dielectric constant tensor:
#      x y z
#    x 1.764210 0.000000 -0.008830 
#    y 0.000000 1.732860 0.000000 
#    z -0.008830 0.000000 1.760130 
# 
# From -- ./inp_files/177146.got.cif
#   From: 2010.06.25/outbox.cif.g09.slc.cpg/sg12_89_cif.got.tgz:177146.got - 2010.06.28 00:19:55.
