data_PCOD8093503
_publ_section_title
;
Structure prediction by ZEFSAII (Michael W. Deem and Ramdas Pophale) SiO2 
 PCOD8093503
Probable space group: C 2/M
;
_chemical_formula_sum "Si O2"
_cell_formula_units_Z 44
_cell_length_a 12.682893
_cell_length_b 22.840843
_cell_length_c 9.415096
_cell_angle_alpha 90.000000
_cell_angle_beta 53.709157
_cell_angle_gamma 90.000000
_cell_volume 2198.379086
_symmetry_space_group_name_H-M "C 2/M"
_symmetry_group_IT_number 12
_symmetry_cell_setting 'monoclinic'
loop_
_space_group_symop_operation_xyz
x,y,z
-x,y,-z
-x,-y,-z
x,-y,z
1/2+x,1/2+y,z
1/2-x,1/2+y,-z
1/2-x,1/2-y,-z
1/2+x,1/2-y,z
loop_
_atom_site_type_symbol
_atom_site_label
_atom_site_fract_x
_atom_site_fract_y
_atom_site_fract_z
Si Si1 0.848988 0.432953 0.129847
Si Si2 0.197341 0.567015 0.508398
Si Si3 0.178879 0.165619 0.144214
Si Si4 0.926488 0.861078 0.204935
Si Si5 0.000000 0.356949 0.500000
Si Si6 0.734643 0.782467 0.217888
O O1 0.833132 0.500000 0.090951
O O2 0.790504 0.424244 0.332867
O O3 0.766644 0.392088 0.089914
O O4 0.000000 0.414063 0.000000
O O5 0.171918 0.500000 0.489340
O O6 0.330101 0.586432 0.324815
O O7 0.072220 0.603058 0.557039
O O8 0.209795 0.212326 0.245398
O O9 0.025985 0.147797 0.257349
O O10 0.203075 0.198964 0.979345
O O11 0.839036 0.801834 0.255452
O O12 0.000000 0.878830 0.000000
O O13 0.901657 0.315633 0.662343
#
# Coordination Sequence:
#
# PCOD8093503 Si02
#       6
#     8   8   8   8   4   8
#     4  10  22  38  56  81 110 143 185 225 266 322
#     4  10  21  36  56  81 110 145 184 226 270 321
#     4  10  20  37  58  79 111 149 175 220 280 322
#     4   9  20  37  54  80 111 140 183 227 267 325
#     4  10  19  36  56  80 109 140 184 230 270 318
#     4   9  20  35  56  82 108 141 185 225 268 324
#
# _framework density 20.014745999999999
#
# number of rings (size 3 to 8) (size 9 to 14) (size 15 to 20)
#    0.000    2.364    0.000    1.364    0.000    8.364 
#    0.000   14.545    0.000    0.000    0.000    0.000 
#    0.000    0.000    0.000    0.000    0.000    0.000 
#
# Total GULP energy -272779.911739 kJ/mol
# GULP energy per Si atom -12399.086897 kJ/mol
# Density = 1.996919 g / cm^3
# Si number density = 20.014746 Si / 1000 Ang^3
#
#
#
# Elastic Constant Matrix: (Units=GPa)
#
#
# Indices 1 2 3 4 5 6 
#
# 1 131.8150 64.6701 11.5908 0.0000 -22.7521 0.0000
# 2 64.6701 116.1878 13.4921 0.0000 -11.2772 0.0000
# 3 11.5908 13.4921 52.9692 0.0000 -21.4828 0.0000
# 4 0.0000 0.0000 0.0000 -14.4598 0.0000 -44.1314
# 5 -22.7521 -11.2772 -21.4828 0.0000 29.6155 0.0000
# 6 0.0000 0.0000 0.0000 -44.1314 0.0000 -31.8728
#
#
#
# Elastic Compliance Matrix: (Units=1/GPa)
#
#
# Indices 1 2 3 4 5 6 
#
# 1 0.011798 -0.006020 0.002406 0.000000 0.008517 0.000000
# 2 -0.006020 0.012069 -0.002506 0.000000 -0.001847 0.000000
# 3 0.002406 -0.002506 0.027420 0.000000 0.020785 0.000000
# 4 0.000000 0.000000 0.000000 0.021439 0.000000 -0.029684
# 5 0.008517 -0.001847 0.020785 0.000000 0.054683 0.000000
# 6 0.000000 0.000000 0.000000 -0.029684 0.000000 0.009726
#
#
# Mechanical properties :
#
#
# Convention : Reuss Voigt Hill
#
# Bulk Modulus (GPa) = 25.60926 53.38644 39.49785
# Shear Modulus (GPa) = 30.78991 10.73783 20.76387
#
# Velocity S-wave (km/s) = 3.92645 2.31875 3.22441
# Velocity P-wave (km/s) = 5.77745 5.82239 5.79997
#
# Compressibility (1/GPa) = 0.03904838
#
# Stress axis : x y z
#
# Youngs Moduli (GPa) = 84.75846 82.85671 36.46921
#
# Poissons Ratio (x) = 0.49876 -0.08774
# Poissons Ratio (y) = 0.51021 0.09139
# Poissons Ratio (z) = -0.20392 0.20763
#
# Static dielectric constant tensor:
#      x y z
#    x 3.836400 0.000000 -0.133700 
#    y 0.000000 3.729640 0.000000 
#    z -0.133700 0.000000 3.539880 
# 
# 
# High freq. dielectric constant tensor:
#      x y z
#    x 1.783650 0.000000 -0.014560 
#    y 0.000000 1.780430 0.000000 
#    z -0.014560 0.000000 1.774950 
# 
# From -- ./inp_files/51205.got.cif
#   From: 2010.06.25/outbox.cif.g09.slc.cpg/sg12_26_cif.got.tgz:51205.got - 2010.06.28 00:19:55.
