data_PCOD8093516
_publ_section_title
;
Structure prediction by ZEFSAII (Michael W. Deem and Ramdas Pophale) SiO2 
 PCOD8093516
Probable space group: C 2/M
;
_chemical_formula_sum "Si O2"
_cell_formula_units_Z 64
_cell_length_a 15.286582
_cell_length_b 19.918523
_cell_length_c 11.573985
_cell_angle_alpha 90.000000
_cell_angle_beta 109.912951
_cell_angle_gamma 90.000000
_cell_volume 3313.415052
_symmetry_space_group_name_H-M "C 2/M"
_symmetry_group_IT_number 12
_symmetry_cell_setting 'monoclinic'
loop_
_space_group_symop_operation_xyz
x,y,z
-x,y,-z
-x,-y,-z
x,-y,z
1/2+x,1/2+y,z
1/2-x,1/2+y,-z
1/2-x,1/2-y,-z
1/2+x,1/2-y,z
loop_
_atom_site_type_symbol
_atom_site_label
_atom_site_fract_x
_atom_site_fract_y
_atom_site_fract_z
Si Si1 0.231103 0.134933 0.797194
Si Si2 0.831528 0.717689 0.186445
Si Si3 0.363553 0.668754 0.914390
Si Si4 0.905407 0.687426 0.986420
Si Si5 0.113996 0.284005 0.540660
Si Si6 0.577038 0.426197 0.860754
Si Si7 0.124464 0.076935 0.297467
Si Si8 0.268268 0.651788 0.460923
O O1 0.174989 0.203373 0.793651
O O2 0.326309 0.136634 0.910879
O O3 0.166873 0.076475 0.819350
O O4 0.253004 0.119986 0.673326
O O5 0.739651 0.685939 0.085996
O O6 0.855008 0.686176 0.321274
O O7 0.908507 0.703922 0.124494
O O8 0.407247 0.742440 0.913085
O O9 0.346763 0.627160 0.791210
O O10 0.422608 0.627520 0.035036
O O11 0.000000 0.648768 0.000000
O O12 0.165913 0.331585 0.469574
O O13 0.158977 0.212529 0.527519
O O14 0.000000 0.282561 0.500000
O O15 0.574285 0.500000 0.917098
O O16 0.486917 0.415081 0.739327
O O17 0.177304 0.097908 0.437175
O O18 0.151477 0.000000 0.279842
#
# Coordination Sequence:
#
# PCOD8093516 Si02
#       8
#     8   8   8   8   8   8   8   8
#     4  10  21  37  53  82 118 147 190 233 281 344
#     4  10  19  36  56  84 116 147 181 227 292 339
#     4  11  19  37  56  84 119 146 183 235 285 337
#     4  11  21  32  59  89 116 147 180 234 294 341
#     4  10  22  36  61  87 115 150 191 236 283 343
#     4  11  22  36  57  83 113 155 195 230 280 343
#     4  11  24  38  57  83 114 153 195 233 278 339
#     4  10  23  39  55  85 118 152 189 236 286 334
#
# _framework density 19.315418999999999
#
# number of rings (size 3 to 8) (size 9 to 14) (size 15 to 20)
#    0.000    1.500    3.750    2.250    7.000    1.500 
#    0.000    1.250    0.000    0.750    0.000    0.000 
#    0.000    0.000    0.000    0.000    0.000    0.000 
#
# Total GULP energy -396463.488688 kJ/mol
# GULP energy per Si atom -12389.484021 kJ/mol
# Density = 1.927146 g / cm^3
# Si number density = 19.315419 Si / 1000 Ang^3
#
#
#
# Elastic Constant Matrix: (Units=GPa)
#
#
# Indices 1 2 3 4 5 6 
#
# 1 121.2281 16.2304 25.2573 0.0000 3.5202 0.0000
# 2 16.2304 50.8363 9.1613 0.0000 2.3194 0.0000
# 3 25.2573 9.1613 90.2046 0.0000 -11.5685 0.0000
# 4 0.0000 0.0000 0.0000 22.4690 0.0000 4.3997
# 5 3.5202 2.3194 -11.5685 0.0000 28.0313 0.0000
# 6 0.0000 0.0000 0.0000 4.3997 0.0000 20.3873
#
#
#
# Elastic Compliance Matrix: (Units=1/GPa)
#
#
# Indices 1 2 3 4 5 6 
#
# 1 0.009163 -0.002367 -0.002584 0.000000 -0.002021 0.000000
# 2 -0.002367 0.020836 -0.001728 0.000000 -0.002140 0.000000
# 3 -0.002584 -0.001728 0.012718 0.000000 0.005716 0.000000
# 4 0.000000 0.000000 0.000000 0.046469 0.000000 -0.010028
# 5 -0.002021 -0.002140 0.005716 0.000000 0.038464 0.000000
# 6 0.000000 0.000000 0.000000 -0.010028 0.000000 0.051214
#
#
# Mechanical properties :
#
#
# Convention : Reuss Voigt Hill
#
# Bulk Modulus (GPa) = 34.06245 40.39633 37.22939
# Shear Modulus (GPa) = 24.75124 28.28553 26.51839
#
# Velocity S-wave (km/s) = 3.58358 3.83090 3.70930
# Velocity P-wave (km/s) = 5.89880 6.36610 6.13690
#
# Compressibility (1/GPa) = 0.02935784
#
# Stress axis : x y z
#
# Youngs Moduli (GPa) = 109.13415 47.99427 78.62803
#
# Poissons Ratio (x) = 0.11363 0.20321
# Poissons Ratio (y) = 0.25837 0.13584
# Poissons Ratio (z) = 0.28205 0.08292
#
# Static dielectric constant tensor:
#      x y z
#    x 3.682230 0.000000 -0.063960 
#    y 0.000000 3.232980 0.000000 
#    z -0.063960 0.000000 3.668200 
# 
# 
# High freq. dielectric constant tensor:
#      x y z
#    x 1.758180 0.000000 -0.005490 
#    y 0.000000 1.709990 0.000000 
#    z -0.005490 0.000000 1.757340 
# 
# From -- ./inp_files/147670.got.cif
#   From: 2010.06.25/outbox.cif.g09.slc.cpg/sg12_74_cif.got.tgz:147670.got - 2010.06.28 00:19:55.
