data_PCOD8093559
_publ_section_title
;
Structure prediction by ZEFSAII (Michael W. Deem and Ramdas Pophale) SiO2 
 PCOD8093559
Probable space group: C 2/M
;
_chemical_formula_sum "Si O2"
_cell_formula_units_Z 56
_cell_length_a 18.131398
_cell_length_b 13.380203
_cell_length_c 22.553133
_cell_angle_alpha 90.000000
_cell_angle_beta 145.219902
_cell_angle_gamma 90.000000
_cell_volume 3121.058724
_symmetry_space_group_name_H-M "C 2/M"
_symmetry_group_IT_number 12
_symmetry_cell_setting 'monoclinic'
loop_
_space_group_symop_operation_xyz
x,y,z
-x,y,-z
-x,-y,-z
x,-y,z
1/2+x,1/2+y,z
1/2-x,1/2+y,-z
1/2-x,1/2-y,-z
1/2+x,1/2-y,z
loop_
_atom_site_type_symbol
_atom_site_label
_atom_site_fract_x
_atom_site_fract_y
_atom_site_fract_z
Si Si1 0.245072 0.613771 0.911518
Si Si2 0.763395 0.113533 0.787376
Si Si3 0.008222 0.710552 0.574593
Si Si4 0.958136 0.886006 0.616368
Si Si5 0.007286 0.246919 0.751454
Si Si6 0.656929 0.886629 0.435584
Si Si7 0.009398 0.115201 0.149375
O O1 0.196713 0.500000 0.888929
O O2 0.291174 0.629596 0.874755
O O3 0.131598 0.689846 0.852905
O O4 0.364059 0.637501 0.033021
O O5 0.650270 0.185442 0.691362
O O6 0.895001 0.141258 0.841015
O O7 0.720876 0.000000 0.745804
O O8 0.000000 0.686826 0.500000
O O9 0.981799 0.827997 0.570110
O O10 0.901948 0.646224 0.540125
O O11 0.043819 0.833031 0.724100
O O12 0.810266 0.875087 0.539656
O O13 0.001168 0.000000 0.636230
O O14 0.897420 0.321145 0.654380
O O15 0.952883 0.186974 0.771602
O O16 0.615143 0.000000 0.395609
O O17 0.024682 0.000000 0.179569
#
# Coordination Sequence:
#
# PCOD8093559 Si02
#       7
#     8   8   8   8   8   8   8
#     4  10  19  36  57  80 107 139 178 221 268 315
#     4  10  20  35  54  79 110 140 168 214 274 323
#     4  11  22  34  56  82 108 136 177 220 265 318
#     4  10  22  38  55  75 107 145 179 216 260 314
#     4  11  19  34  56  81 107 140 178 218 264 312
#     4  10  21  37  56  79 108 142 176 217 266 317
#     4  10  22  34  53  83 111 138 176 221 265 315
#
# _framework density 17.942629
#
# number of rings (size 3 to 8) (size 9 to 14) (size 15 to 20)
#    0.000    1.714    2.857    3.857    4.000    3.143 
#    0.000    0.000    0.000    0.000    0.000    1.000 
#    0.000    0.000    0.000    0.000    0.000    0.000 
#
# Total GULP energy -347221.210846 kJ/mol
# GULP energy per Si atom -12400.757530 kJ/mol
# Density = 1.790179 g / cm^3
# Si number density = 17.942629 Si / 1000 Ang^3
#
#
#
# Elastic Constant Matrix: (Units=GPa)
#
#
# Indices 1 2 3 4 5 6 
#
# 1 63.7267 34.0856 18.1291 0.0002 -9.2753 0.0001
# 2 34.0856 117.1783 38.6157 0.0003 -2.6990 0.0001
# 3 18.1291 38.6157 54.7237 0.0005 -6.3950 0.0002
# 4 0.0002 0.0003 0.0005 27.6404 0.0002 3.1471
# 5 -9.2753 -2.6990 -6.3950 0.0002 30.8307 0.0001
# 6 0.0001 0.0001 0.0002 3.1471 0.0001 22.0244
#
#
#
# Elastic Compliance Matrix: (Units=1/GPa)
#
#
# Indices 1 2 3 4 5 6 
#
# 1 0.019699 -0.004765 -0.002583 0.000000 0.004974 0.000000
# 2 -0.004765 0.012286 -0.007310 0.000000 -0.001874 0.000000
# 3 -0.002583 -0.007310 0.024721 0.000000 0.003711 0.000000
# 4 0.000000 0.000000 0.000000 0.036777 0.000000 -0.005255
# 5 0.004974 -0.001874 0.003711 0.000000 0.034537 0.000000
# 6 0.000000 0.000000 0.000000 -0.005255 0.000000 0.046155
#
#
# Mechanical properties :
#
#
# Convention : Reuss Voigt Hill
#
# Bulk Modulus (GPa) = 36.50769 46.36550 41.43660
# Shear Modulus (GPa) = 23.51607 25.75231 24.63419
#
# Velocity S-wave (km/s) = 3.62418 3.79259 3.70934
# Velocity P-wave (km/s) = 6.15662 6.71382 6.44125
#
# Compressibility (1/GPa) = 0.02739149
#
# Stress axis : x y z
#
# Youngs Moduli (GPa) = 50.76391 81.39509 40.45117
#
# Poissons Ratio (x) = 0.38781 0.10447
# Poissons Ratio (y) = 0.24186 0.29570
# Poissons Ratio (z) = 0.13111 0.59500
#
# Static dielectric constant tensor:
#      x y z
#    x 3.256870 0.000000 -0.027110 
#    y 0.000000 3.536110 0.000000 
#    z -0.027110 0.000000 3.300130 
# 
# 
# High freq. dielectric constant tensor:
#      x y z
#    x 1.683520 0.000000 -0.000980 
#    y 0.000000 1.698340 0.000000 
#    z -0.000980 0.000000 1.694510 
# 
# From -- ./inp_files/310800.got.cif
#   From: 2010.06.25/outbox.cif.g09.slc.cpg/sg12_156_cif.got.tgz:310800.got - 2010.06.28 00:19:55.
