data_PCOD8093086
_publ_section_title
;
Structure prediction by ZEFSAII (Michael W. Deem and Ramdas Pophale) SiO2 
 PCOD8093086
Probable space group: C 2/M
;
_chemical_formula_sum "Si O2"
_cell_formula_units_Z 64
_cell_length_a 12.460753
_cell_length_b 14.064315
_cell_length_c 17.668685
_cell_angle_alpha 90.000000
_cell_angle_beta 90.433930
_cell_angle_gamma 90.000000
_cell_volume 3096.382791
_symmetry_space_group_name_H-M "C 2/M"
_symmetry_group_IT_number 12
_symmetry_cell_setting 'monoclinic'
loop_
_space_group_symop_operation_xyz
x,y,z
-x,y,-z
-x,-y,-z
x,-y,z
1/2+x,1/2+y,z
1/2-x,1/2+y,-z
1/2-x,1/2-y,-z
1/2+x,1/2-y,z
loop_
_atom_site_type_symbol
_atom_site_label
_atom_site_fract_x
_atom_site_fract_y
_atom_site_fract_z
Si Si1 0.507882 0.389055 0.179654
Si Si2 0.798552 0.855756 0.079806
Si Si3 0.258967 0.891980 0.661790
Si Si4 0.217245 0.147531 0.087998
Si Si5 0.917389 0.757906 0.306385
Si Si6 0.385510 0.896609 0.200701
Si Si7 0.376929 0.105037 0.808146
Si Si8 0.969927 0.608354 0.583974
O O1 0.532627 0.500000 0.198621
O O2 0.402273 0.385444 0.127436
O O3 0.608007 0.342330 0.135530
O O4 0.491013 0.328823 0.256267
O O5 0.783201 0.743946 0.078537
O O6 0.691085 0.898699 0.115566
O O7 0.810767 0.895815 0.994428
O O8 0.158346 0.824159 0.642288
O O9 0.312588 0.846419 0.738448
O O10 0.341108 0.889366 0.592182
O O11 0.217365 0.000000 0.675456
O O12 0.303935 0.083558 0.131652
O O13 0.842691 0.686974 0.255300
O O14 0.985707 0.686205 0.357832
O O15 0.503249 0.854680 0.175776
O O16 0.396475 0.000000 0.241085
O O17 0.396587 0.000000 0.777016
O O18 0.011444 0.500000 0.600517
O O19 0.000000 0.640134 0.500000
#
# Coordination Sequence:
#
# PCOD8093086 Si02
#       8
#     8   8   8   8   8   8   8   8
#     4  12  25  42  64  91 126 174 224 265 319 386
#     4  11  23  40  62  83 120 170 223 272 324 379
#     4  10  20  38  64  93 125 163 207 253 301 372
#     4  11  25  40  56  88 127 166 213 280 332 375
#     4  12  22  37  67  95 124 159 210 259 302 364
#     4  11  22  37  59  90 125 163 207 268 333 380
#     4  10  19  35  59  85 115 158 214 261 307 373
#     4  10  23  44  70  99 130 163 199 245 310 385
#
# _framework density 20.669279
#
# number of rings (size 3 to 8) (size 9 to 14) (size 15 to 20)
#    0.000    1.125    3.750    2.625    1.750    3.500 
#    0.000    1.250    0.000    1.500    0.000    0.000 
#    0.000    0.000    0.000    0.000    0.000    0.000 
#
# Total GULP energy -396488.784079 kJ/mol
# GULP energy per Si atom -12390.274502 kJ/mol
# Density = 2.062223 g / cm^3
# Si number density = 20.669279 Si / 1000 Ang^3
#
#
#
# Elastic Constant Matrix: (Units=GPa)
#
#
# Indices 1 2 3 4 5 6 
#
# 1 87.0567 27.8223 16.9951 0.0000 -13.6084 0.0000
# 2 27.8223 103.6865 31.9572 0.0000 -4.3471 0.0000
# 3 16.9951 31.9572 88.7612 0.0000 -19.1806 0.0000
# 4 0.0000 0.0000 0.0000 24.6693 0.0000 1.1241
# 5 -13.6084 -4.3471 -19.1806 0.0000 30.9654 0.0000
# 6 0.0000 0.0000 0.0000 1.1241 0.0000 30.4276
#
#
#
# Elastic Compliance Matrix: (Units=1/GPa)
#
#
# Indices 1 2 3 4 5 6 
#
# 1 0.013415 -0.003305 -0.000237 0.000000 0.005285 0.000000
# 2 -0.003305 0.011691 -0.004082 0.000000 -0.002340 0.000000
# 3 -0.000237 -0.004082 0.014587 0.000000 0.008359 0.000000
# 4 0.000000 0.000000 0.000000 0.040605 0.000000 -0.001500
# 5 0.005285 -0.002340 0.008359 0.000000 0.039466 0.000000
# 6 0.000000 0.000000 0.000000 -0.001500 0.000000 0.032920
#
#
# Mechanical properties :
#
#
# Convention : Reuss Voigt Hill
#
# Bulk Modulus (GPa) = 40.90570 48.11705 44.51137
# Shear Modulus (GPa) = 28.39589 30.72777 29.56183
#
# Velocity S-wave (km/s) = 3.71053 3.85988 3.78594
# Velocity P-wave (km/s) = 6.17988 6.57229 6.37910
#
# Compressibility (1/GPa) = 0.02444647
#
# Stress axis : x y z
#
# Youngs Moduli (GPa) = 74.54099 85.53296 68.55212
#
# Poissons Ratio (x) = 0.28271 0.01622
# Poissons Ratio (y) = 0.24638 0.27983
# Poissons Ratio (z) = 0.01763 0.34915
#
# Static dielectric constant tensor:
#      x y z
#    x 3.737560 0.000000 -0.156340 
#    y 0.000000 4.378390 0.000000 
#    z -0.156340 0.000000 3.650660 
# 
# 
# High freq. dielectric constant tensor:
#      x y z
#    x 1.805040 0.000000 -0.014290 
#    y 0.000000 1.827390 0.000000 
#    z -0.014290 0.000000 1.775800 
# 
# From -- ./inp_files/263334.got.cif
#   From: 2010.06.25/outbox.cif.g09.slc.cpg/sg12_132_cif.got.tgz:263334.got - 2010.06.28 00:19:55.
