data_PCOD8093244
_publ_section_title
;
Structure prediction by ZEFSAII (Michael W. Deem and Ramdas Pophale) SiO2 
 PCOD8093244
Probable space group: C 2/M
;
_chemical_formula_sum "Si O2"
_cell_formula_units_Z 64
_cell_length_a 32.259995
_cell_length_b 8.757249
_cell_length_c 20.079617
_cell_angle_alpha 90.000000
_cell_angle_beta 146.038799
_cell_angle_gamma 90.000000
_cell_volume 3168.930710
_symmetry_space_group_name_H-M "C 2/M"
_symmetry_group_IT_number 12
_symmetry_cell_setting 'monoclinic'
loop_
_space_group_symop_operation_xyz
x,y,z
-x,y,-z
-x,-y,-z
x,-y,z
1/2+x,1/2+y,z
1/2-x,1/2+y,-z
1/2-x,1/2-y,-z
1/2+x,1/2-y,z
loop_
_atom_site_type_symbol
_atom_site_label
_atom_site_fract_x
_atom_site_fract_y
_atom_site_fract_z
Si Si1 0.445601 0.320101 0.986476
Si Si2 0.203086 0.320734 0.176967
Si Si3 0.186538 0.326020 0.456858
Si Si4 0.851647 0.825657 0.169886
Si Si5 0.520580 0.176510 0.212027
Si Si6 0.276164 0.676353 0.931174
Si Si7 0.339517 0.818420 0.430769
Si Si8 0.987815 0.822202 0.656470
O O1 0.433183 0.500000 0.966094
O O2 0.365846 0.239283 0.870740
O O3 0.500000 0.263517 0.000000
O O4 0.478725 0.277334 0.102080
O O5 0.210896 0.500000 0.197678
O O6 0.189658 0.278494 0.082125
O O7 0.279348 0.238408 0.298319
O O8 0.208749 0.500000 0.493121
O O9 0.250000 0.250000 0.500000
O O10 0.108234 0.303556 0.315681
O O11 0.183805 0.256911 0.527381
O O12 0.809322 0.719844 0.166726
O O13 0.939455 0.797030 0.292050
O O14 0.830759 0.000000 0.158589
O O15 0.826498 0.785281 0.061628
O O16 0.501089 0.232523 0.259786
O O17 0.496493 0.000000 0.172708
O O18 0.280256 0.500000 0.915531
O O19 0.419716 0.744219 0.522465
O O20 0.347494 0.000000 0.438699
O O21 0.975725 0.000000 0.656725
#
# Coordination Sequence:
#
# PCOD8093244 Si02
#       8
#     8   8   8   8   8   8   8   8
#     4  11  25  42  60  84 114 152 194 240 293 349
#     4  12  25  41  62  85 117 157 195 240 294 354
#     4   9  20  35  55  81 109 143 185 237 288 337
#     4   9  19  35  58  89 123 153 192 241 288 343
#     4  10  21  37  56  83 115 149 192 239 287 344
#     4  10  20  36  60  90 122 158 195 235 289 348
#     4  10  22  40  58  82 115 153 198 244 293 351
#     4  10  19  35  60  88 118 155 196 241 293 345
#
# _framework density 20.196086999999999
#
# number of rings (size 3 to 8) (size 9 to 14) (size 15 to 20)
#    0.000    1.875    0.000    4.500    1.750    6.500 
#    0.000    0.625    0.000    3.750    0.000    0.000 
#    0.000    0.000    0.000    0.000    0.000    0.000 
#
# Total GULP energy -396902.122736 kJ/mol
# GULP energy per Si atom -12403.191336 kJ/mol
# Density = 2.015012 g / cm^3
# Si number density = 20.196087 Si / 1000 Ang^3
#
#
#
# Elastic Constant Matrix: (Units=GPa)
#
#
# Indices 1 2 3 4 5 6 
#
# 1 86.8629 33.2996 23.5544 0.0000 23.7533 0.0000
# 2 33.2996 77.0342 21.0976 0.0000 15.8790 0.0000
# 3 23.5544 21.0976 71.7925 0.0000 14.7976 0.0000
# 4 0.0000 0.0000 0.0000 33.2775 0.0000 4.1051
# 5 23.7533 15.8790 14.7976 0.0000 28.7549 0.0000
# 6 0.0000 0.0000 0.0000 4.1051 0.0000 36.3056
#
#
#
# Elastic Compliance Matrix: (Units=1/GPa)
#
#
# Indices 1 2 3 4 5 6 
#
# 1 0.016567 -0.004516 -0.002015 0.000000 -0.010154 0.000000
# 2 -0.004516 0.016461 -0.002518 0.000000 -0.004063 0.000000
# 3 -0.002015 -0.002518 0.016445 0.000000 -0.005407 0.000000
# 4 0.000000 0.000000 0.000000 0.030475 0.000000 -0.003446
# 5 -0.010154 -0.004063 -0.005407 0.000000 0.048191 0.000000
# 6 0.000000 0.000000 0.000000 -0.003446 0.000000 0.027934
#
#
# Mechanical properties :
#
#
# Convention : Reuss Voigt Hill
#
# Bulk Modulus (GPa) = 31.87447 43.51032 37.69239
# Shear Modulus (GPa) = 27.08120 30.18346 28.63233
#
# Velocity S-wave (km/s) = 3.66582 3.87010 3.76934
# Velocity P-wave (km/s) = 5.80813 6.44677 6.13577
#
# Compressibility (1/GPa) = 0.03137308
#
# Stress axis : x y z
#
# Youngs Moduli (GPa) = 60.36083 60.75059 60.80971
#
# Poissons Ratio (x) = 0.27438 0.12255
# Poissons Ratio (y) = 0.27262 0.15312
# Poissons Ratio (z) = 0.12164 0.15297
#
# Static dielectric constant tensor:
#      x y z
#    x 3.524030 0.000000 0.261430 
#    y 0.000000 3.684590 0.000000 
#    z 0.261430 0.000000 3.646890 
# 
# 
# High freq. dielectric constant tensor:
#      x y z
#    x 1.786050 0.000000 0.017180 
#    y 0.000000 1.794820 0.000000 
#    z 0.017180 0.000000 1.783980 
# 
# From -- ./inp_files/295763.got.cif
#   From: 2010.06.25/outbox.cif.g09.slc.cpg/sg12_148_cif.got.tgz:295763.got - 2010.06.28 00:19:55.
