data_PCOD8093384
_publ_section_title
;
Structure prediction by ZEFSAII (Michael W. Deem and Ramdas Pophale) SiO2 
 PCOD8093384
Probable space group: C 2/M
;
_chemical_formula_sum "Si O2"
_cell_formula_units_Z 64
_cell_length_a 15.180152
_cell_length_b 17.884914
_cell_length_c 19.238577
_cell_angle_alpha 90.000000
_cell_angle_beta 39.557611
_cell_angle_gamma 90.000000
_cell_volume 3326.408986
_symmetry_space_group_name_H-M "C 2/M"
_symmetry_group_IT_number 12
_symmetry_cell_setting 'monoclinic'
loop_
_space_group_symop_operation_xyz
x,y,z
-x,y,-z
-x,-y,-z
x,-y,z
1/2+x,1/2+y,z
1/2-x,1/2+y,-z
1/2-x,1/2-y,-z
1/2+x,1/2-y,z
loop_
_atom_site_type_symbol
_atom_site_label
_atom_site_fract_x
_atom_site_fract_y
_atom_site_fract_z
Si Si1 0.784352 0.169340 0.508475
Si Si2 0.295325 0.415942 0.367457
Si Si3 0.378367 0.414912 0.825574
Si Si4 0.924325 0.208649 0.697050
Si Si5 0.316403 0.913383 0.927539
Si Si6 0.548855 0.804549 0.746722
Si Si7 0.282154 0.302364 0.265976
Si Si8 0.343920 0.580964 0.113372
O O1 0.750000 0.250000 0.500000
O O2 0.753018 0.104507 0.471608
O O3 0.689663 0.154492 0.633731
O O4 0.948557 0.171457 0.423082
O O5 0.245780 0.500000 0.382112
O O6 0.459684 0.406872 0.254046
O O7 0.217386 0.357648 0.363891
O O8 0.345628 0.500000 0.822659
O O9 0.340590 0.358746 0.785563
O O10 0.285881 0.391212 0.947672
O O11 0.833120 0.247489 0.693898
O O12 0.972115 0.267059 0.727566
O O13 0.454961 0.864037 0.844507
O O14 0.240854 0.894121 0.902110
O O15 0.358482 0.000000 0.907128
O O16 0.590822 0.743144 0.778082
O O17 0.340034 0.353681 0.170551
O O18 0.287616 0.500000 0.175775
O O19 0.500000 0.567771 0.000000
#
# Coordination Sequence:
#
# PCOD8093384 Si02
#       8
#     8   8   8   8   8   8   8   8
#     4   9  18  39  58  79 116 154 194 235 287 340
#     4  10  19  35  62  91 116 150 194 241 293 347
#     4   9  18  37  61  83 114 153 198 242 287 338
#     4  10  21  37  58  87 111 153 197 242 292 345
#     4  10  21  38  59  83 120 161 189 239 300 351
#     4  11  22  39  57  83 121 155 197 235 292 355
#     4  12  21  35  58  88 119 150 188 245 293 346
#     4  10  21  35  54  86 123 155 192 236 293 356
#
# _framework density 19.239968000000001
#
# number of rings (size 3 to 8) (size 9 to 14) (size 15 to 20)
#    0.000    1.875    5.000    1.125    0.000    4.500 
#    0.000    0.625    0.000    4.500    0.000    4.375 
#    0.000    0.000    0.000    0.000    0.000    0.000 
#
# Total GULP energy -396621.551197 kJ/mol
# GULP energy per Si atom -12394.423475 kJ/mol
# Density = 1.919618 g / cm^3
# Si number density = 19.239968 Si / 1000 Ang^3
#
#
#
# Elastic Constant Matrix: (Units=GPa)
#
#
# Indices 1 2 3 4 5 6 
#
# 1 78.0106 55.2004 18.0407 0.0001 5.1340 0.0000
# 2 55.2004 112.6989 55.4124 0.0001 11.1615 -0.0001
# 3 18.0407 55.4124 118.1096 0.0006 7.3788 -0.0005
# 4 0.0001 0.0001 0.0006 32.0306 -0.0002 11.7911
# 5 5.1340 11.1615 7.3788 -0.0002 13.1732 0.0002
# 6 0.0000 -0.0001 -0.0005 11.7911 0.0002 24.3124
#
#
#
# Elastic Compliance Matrix: (Units=1/GPa)
#
#
# Indices 1 2 3 4 5 6 
#
# 1 0.019976 -0.010789 0.001996 0.000000 0.000238 0.000000
# 2 -0.010789 0.018017 -0.006336 0.000000 -0.007512 0.000000
# 3 0.001996 -0.006336 0.011241 0.000000 -0.001706 0.000000
# 4 0.000000 0.000000 0.000000 0.038005 0.000001 -0.018432
# 5 0.000238 -0.007512 -0.001706 0.000001 0.083139 -0.000001
# 6 0.000000 0.000000 0.000000 -0.018432 -0.000001 0.050070
#
#
# Mechanical properties :
#
#
# Convention : Reuss Voigt Hill
#
# Bulk Modulus (GPa) = 52.69890 62.90290 57.80090
# Shear Modulus (GPa) = 19.45281 25.91427 22.68354
#
# Velocity S-wave (km/s) = 3.18317 3.67399 3.43735
# Velocity P-wave (km/s) = 6.39999 7.12478 6.77209
#
# Compressibility (1/GPa) = 0.01897573
#
# Stress axis : x y z
#
# Youngs Moduli (GPa) = 50.06004 55.50349 88.96129
#
# Poissons Ratio (x) = 0.59884 -0.17755
# Poissons Ratio (y) = 0.54011 0.56362
# Poissons Ratio (z) = -0.09991 0.35164
#
# Static dielectric constant tensor:
#      x y z
#    x 3.300870 0.000000 0.021230 
#    y 0.000000 3.731020 0.000000 
#    z 0.021230 0.000000 3.755750 
# 
# 
# High freq. dielectric constant tensor:
#      x y z
#    x 1.719690 0.000000 0.006890 
#    y 0.000000 1.754490 0.000000 
#    z 0.006890 0.000000 1.744380 
# 
# From -- ./inp_files/271720.got.cif
#   From: 2010.06.25/outbox.cif.g09.slc.cpg/sg12_136_cif.got.tgz:271720.got - 2010.06.28 00:19:55.
