data_PCOD8093625
_publ_section_title
;
Structure prediction by ZEFSAII (Michael W. Deem and Ramdas Pophale) SiO2 
 PCOD8093625
Probable space group: C 2/M
;
_chemical_formula_sum "Si O2"
_cell_formula_units_Z 64
_cell_length_a 19.597099
_cell_length_b 8.974814
_cell_length_c 31.263093
_cell_angle_alpha 90.000000
_cell_angle_beta 143.369799
_cell_angle_gamma 90.000000
_cell_volume 3280.706265
_symmetry_space_group_name_H-M "C 2/M"
_symmetry_group_IT_number 12
_symmetry_cell_setting 'monoclinic'
loop_
_space_group_symop_operation_xyz
x,y,z
-x,y,-z
-x,-y,-z
x,-y,z
1/2+x,1/2+y,z
1/2-x,1/2+y,-z
1/2-x,1/2-y,-z
1/2+x,1/2-y,z
loop_
_atom_site_type_symbol
_atom_site_label
_atom_site_fract_x
_atom_site_fract_y
_atom_site_fract_z
Si Si1 0.043628 0.176779 0.225612
Si Si2 0.230119 0.827638 0.768566
Si Si3 0.102766 0.173635 0.022244
Si Si4 0.460647 0.673652 0.871513
Si Si5 0.184949 0.823800 0.507146
Si Si6 0.719862 0.177419 0.614617
Si Si7 0.829074 0.826966 0.167738
Si Si8 0.578579 0.674764 0.613741
O O1 0.018991 0.238298 0.165607
O O2 0.167170 0.231510 0.303409
O O3 0.943875 0.242789 0.205271
O O4 0.040565 0.000000 0.225609
O O5 0.348824 0.745591 0.835602
O O6 0.158293 0.798803 0.775411
O O7 0.159169 0.765566 0.692577
O O8 0.256109 0.000000 0.774617
O O9 0.219773 0.253567 0.091337
O O10 0.120022 0.000000 0.039864
O O11 0.000000 0.235577 0.000000
O O12 0.069938 0.207129 0.956308
O O13 0.434724 0.500000 0.856347
O O14 0.250000 0.750000 0.500000
O O15 0.230016 0.750436 0.573291
O O16 0.050066 0.789518 0.436475
O O17 0.209270 0.000000 0.519516
O O18 0.610735 0.238221 0.586333
O O19 0.710506 0.000000 0.605345
O O20 0.818495 0.000000 0.151684
O O21 0.594612 0.500000 0.613043
#
# Coordination Sequence:
#
# PCOD8093625 Si02
#       8
#     8   8   8   8   8   8   8   8
#     4   9  20  37  58  84 114 150 189 236 290 342
#     4  10  20  34  57  85 110 144 191 241 284 337
#     4  10  20  34  54  79 112 149 187 235 291 346
#     4  10  19  36  58  80 111 150 190 234 287 344
#     4  11  25  43  63  90 125 161 196 242 296 348
#     4  11  22  39  66  91 119 158 200 241 289 353
#     4  10  21  36  56  81 112 148 191 236 288 347
#     4  10  22  40  62  87 120 157 196 243 297 347
#
# _framework density 19.507994
#
# number of rings (size 3 to 8) (size 9 to 14) (size 15 to 20)
#    0.000    1.875    2.500    1.125    1.750    3.750 
#    0.000    1.875    0.000    0.000    0.000    0.000 
#    0.000    0.000    0.000    0.000    0.000    0.000 
#
# Total GULP energy -396825.680700 kJ/mol
# GULP energy per Si atom -12400.802522 kJ/mol
# Density = 1.946359 g / cm^3
# Si number density = 19.507994 Si / 1000 Ang^3
#
#
#
# Elastic Constant Matrix: (Units=GPa)
#
#
# Indices 1 2 3 4 5 6 
#
# 1 148.2221 50.7543 56.3810 -0.0001 -3.4002 -0.0001
# 2 50.7543 56.5865 36.5540 0.0000 -3.9361 -0.0002
# 3 56.3810 36.5540 92.6363 0.0000 -10.2458 0.0000
# 4 -0.0001 0.0000 0.0000 28.8822 0.0000 -2.7351
# 5 -3.4002 -3.9361 -10.2458 0.0000 37.0768 0.0000
# 6 -0.0001 -0.0002 0.0000 -2.7351 0.0000 27.2594
#
#
#
# Elastic Compliance Matrix: (Units=1/GPa)
#
#
# Indices 1 2 3 4 5 6 
#
# 1 0.010591 -0.007159 -0.003711 0.000000 -0.000814 0.000000
# 2 -0.007159 0.028557 -0.006858 0.000000 0.000480 0.000000
# 3 -0.003711 -0.006858 0.016135 0.000000 0.003390 0.000000
# 4 0.000000 0.000000 0.000000 0.034956 0.000000 0.003507
# 5 -0.000814 0.000480 0.003390 0.000000 0.027884 0.000000
# 6 0.000000 0.000000 0.000000 0.003507 0.000000 0.037036
#
#
# Mechanical properties :
#
#
# Convention : Reuss Voigt Hill
#
# Bulk Modulus (GPa) = 50.43858 64.98039 57.70948
# Shear Modulus (GPa) = 25.35195 28.89406 27.12300
#
# Velocity S-wave (km/s) = 3.60886 3.85273 3.73279
# Velocity P-wave (km/s) = 6.57850 7.29200 6.94442
#
# Compressibility (1/GPa) = 0.01982610
#
# Stress axis : x y z
#
# Youngs Moduli (GPa) = 94.42105 35.01821 61.97739
#
# Poissons Ratio (x) = 0.25068 0.23001
# Poissons Ratio (y) = 0.67592 0.42506
# Poissons Ratio (z) = 0.35042 0.24017
#
# Static dielectric constant tensor:
#      x y z
#    x 3.804360 0.000000 -0.121950 
#    y 0.000000 3.365540 0.000000 
#    z -0.121950 0.000000 3.710930 
# 
# 
# High freq. dielectric constant tensor:
#      x y z
#    x 1.768970 0.000000 -0.008860 
#    y 0.000000 1.740820 0.000000 
#    z -0.008860 0.000000 1.769810 
# 
# From -- ./inp_files/378401.got.cif
#   From: 2010.06.25/outbox.cif.g09.slc.cpg/sg12_190_cif.got.tgz:378401.got - 2010.06.28 00:19:55.
