data_PCOD8093255
_publ_section_title
;
Structure prediction by ZEFSAII (Michael W. Deem and Ramdas Pophale) SiO2 
 PCOD8093255
Probable space group: C 2/M
;
_chemical_formula_sum "Si O2"
_cell_formula_units_Z 52
_cell_length_a 10.645444
_cell_length_b 24.755825
_cell_length_c 12.042146
_cell_angle_alpha 90.000000
_cell_angle_beta 129.394051
_cell_angle_gamma 90.000000
_cell_volume 2452.516226
_symmetry_space_group_name_H-M "C 2/M"
_symmetry_group_IT_number 12
_symmetry_cell_setting 'monoclinic'
loop_
_space_group_symop_operation_xyz
x,y,z
-x,y,-z
-x,-y,-z
x,-y,z
1/2+x,1/2+y,z
1/2-x,1/2+y,-z
1/2-x,1/2-y,-z
1/2+x,1/2-y,z
loop_
_atom_site_type_symbol
_atom_site_label
_atom_site_fract_x
_atom_site_fract_y
_atom_site_fract_z
Si Si1 0.728857 0.936715 0.341249
Si Si2 0.104366 0.060640 0.799018
Si Si3 0.321955 0.632026 0.603501
Si Si4 0.000000 0.675236 0.500000
Si Si5 0.530098 0.720770 0.637687
Si Si6 0.335228 0.214743 0.954957
Si Si7 0.415767 0.095856 0.063375
O O1 0.819679 0.921603 0.277354
O O2 0.806668 0.900270 0.480003
O O3 0.536217 0.921555 0.230089
O O4 0.750902 0.000000 0.381750
O O5 0.954505 0.098916 0.748574
O O6 0.039862 0.000000 0.758940
O O7 0.239843 0.067322 0.971859
O O8 0.154188 0.635861 0.576553
O O9 0.387785 0.693851 0.631217
O O10 0.012739 0.713727 0.617520
O O11 0.500000 0.694409 0.500000
O O12 0.707746 0.704679 0.783727
O O13 0.500000 0.243005 0.000000
O O14 0.250000 0.250000 0.000000
O O15 0.392845 0.160033 0.045916
O O16 0.500000 0.072968 0.000000
#
# Coordination Sequence:
#
# PCOD8093255 Si02
#       7
#     8   8   8   4   8   8   8
#     4  10  21  36  61  91 119 154 198 255 310 363
#     4  10  19  35  60  89 117 150 195 250 307 365
#     4  12  22  40  60  87 118 158 207 251 308 362
#     4  10  28  38  61  82 123 162 208 244 310 368
#     4  10  24  41  64  88 123 166 205 255 307 372
#     4  11  25  39  62  94 127 166 211 258 313 376
#     4   9  19  34  56  86 124 153 188 244 318 362
#
# _framework density 21.202714
#
# number of rings (size 3 to 8) (size 9 to 14) (size 15 to 20)
#    0.462    1.231    1.538    2.769    8.615    3.077 
#    0.000    1.538    0.000    0.000    0.000    2.154 
#    0.000    0.000    0.000    0.000    0.000    0.000 
#
# Total GULP energy -322248.714387 kJ/mol
# GULP energy per Si atom -12394.181323 kJ/mol
# Density = 2.115446 g / cm^3
# Si number density = 21.202714 Si / 1000 Ang^3
#
#
#
# Elastic Constant Matrix: (Units=GPa)
#
#
# Indices 1 2 3 4 5 6 
#
# 1 95.7184 42.3413 34.6215 0.0000 39.1379 0.0000
# 2 42.3413 93.8263 25.0848 0.0000 19.6844 0.0000
# 3 34.6215 25.0848 113.1446 0.0000 32.3134 0.0000
# 4 0.0000 0.0000 0.0000 28.2833 0.0000 8.9264
# 5 39.1379 19.6844 32.3134 0.0000 36.5034 0.0000
# 6 0.0000 0.0000 0.0000 8.9264 0.0000 14.2944
#
#
#
# Elastic Compliance Matrix: (Units=1/GPa)
#
#
# Indices 1 2 3 4 5 6 
#
# 1 0.020708 -0.005330 0.000489 0.000000 -0.019761 0.000000
# 2 -0.005330 0.013490 -0.001224 0.000000 -0.000477 0.000000
# 3 0.000489 -0.001224 0.011940 0.000000 -0.010433 0.000000
# 4 0.000000 0.000000 0.000000 0.044035 0.000000 -0.027499
# 5 -0.019761 -0.000477 -0.010433 0.000000 0.058075 0.000000
# 6 0.000000 0.000000 0.000000 -0.027499 0.000000 0.087129
#
#
# Mechanical properties :
#
#
# Convention : Reuss Voigt Hill
#
# Bulk Modulus (GPa) = 29.40432 56.30939 42.85686
# Shear Modulus (GPa) = 19.31659 29.19233 24.25446
#
# Velocity S-wave (km/s) = 3.02162 3.71458 3.38588
# Velocity P-wave (km/s) = 5.10607 6.70915 5.96174
#
# Compressibility (1/GPa) = 0.03400861
#
# Stress axis : x y z
#
# Youngs Moduli (GPa) = 48.28951 74.12634 83.75425
#
# Poissons Ratio (x) = 0.39509 -0.04094
# Poissons Ratio (y) = 0.25738 0.10250
# Poissons Ratio (z) = -0.02360 0.09072
#
# Static dielectric constant tensor:
#      x y z
#    x 3.370570 0.000000 0.392020 
#    y 0.000000 3.698390 0.000000 
#    z 0.392020 0.000000 4.183410 
# 
# 
# High freq. dielectric constant tensor:
#      x y z
#    x 1.775940 0.000000 0.037520 
#    y 0.000000 1.830970 0.000000 
#    z 0.037520 0.000000 1.844080 
# 
# From -- ./inp_files/208687.got.cif
#   From: 2010.06.25/outbox.cif.g09.slc.cpg/sg12_105_cif.got.tgz:208687.got - 2010.06.28 00:19:55.
