data_PCOD8093620
_publ_section_title
;
Structure prediction by ZEFSAII (Michael W. Deem and Ramdas Pophale) SiO2 
 PCOD8093620
Probable space group: C 2/M
;
_chemical_formula_sum "Si O2"
_cell_formula_units_Z 64
_cell_length_a 14.606146
_cell_length_b 9.084011
_cell_length_c 29.476772
_cell_angle_alpha 90.000000
_cell_angle_beta 119.241955
_cell_angle_gamma 90.000000
_cell_volume 3412.642571
_symmetry_space_group_name_H-M "C 2/M"
_symmetry_group_IT_number 12
_symmetry_cell_setting 'monoclinic'
loop_
_space_group_symop_operation_xyz
x,y,z
-x,y,-z
-x,-y,-z
x,-y,z
1/2+x,1/2+y,z
1/2-x,1/2+y,-z
1/2-x,1/2-y,-z
1/2+x,1/2-y,z
loop_
_atom_site_type_symbol
_atom_site_label
_atom_site_fract_x
_atom_site_fract_y
_atom_site_fract_z
Si Si1 0.440734 0.830333 0.624739
Si Si2 0.111066 0.827030 0.006328
Si Si3 0.046771 0.332770 0.817417
Si Si4 0.229110 0.825429 0.361928
Si Si5 0.873690 0.330790 0.262738
Si Si6 0.687721 0.830399 0.258572
Si Si7 0.320312 0.672261 0.077029
Si Si8 0.043655 0.327919 0.557071
O O1 0.347568 0.723311 0.616468
O O2 0.545318 0.792222 0.677889
O O3 0.460582 0.797750 0.576744
O O4 0.409188 0.000000 0.625872
O O5 0.207496 0.749752 0.055351
O O6 0.121953 0.000000 0.017288
O O7 0.120404 0.785856 0.955429
O O8 0.000000 0.770203 0.000000
O O9 0.079238 0.500000 0.837292
O O10 0.074614 0.294346 0.772596
O O11 0.105595 0.221513 0.864417
O O12 0.922980 0.309497 0.793287
O O13 0.189254 0.759363 0.305344
O O14 0.343701 0.761267 0.401962
O O15 0.229691 0.000000 0.357051
O O16 0.838130 0.500000 0.257708
O O17 0.772996 0.228089 0.243846
O O18 0.708144 0.000000 0.275441
O O19 0.300125 0.500000 0.075226
O O20 0.060546 0.500000 0.553327
O O21 0.000000 0.255230 0.500000
#
# Coordination Sequence:
#
# PCOD8093620 Si02
#       8
#     8   8   8   8   8   8   8   8
#     4  10  19  36  58  80 109 145 185 227 278 339
#     4   9  19  38  62  84 112 153 193 227 278 338
#     4  10  22  39  56  77 116 155 185 225 282 341
#     4  11  21  35  57  83 109 143 187 230 277 337
#     4  10  20  37  57  80 108 148 191 226 276 339
#     4  11  22  37  57  83 112 147 189 232 282 336
#     4  10  21  36  57  87 117 145 188 239 279 324
#     4   9  19  36  57  80 110 147 183 227 287 346
#
# _framework density 18.753796000000001
#
# number of rings (size 3 to 8) (size 9 to 14) (size 15 to 20)
#    0.000    2.000    2.500    1.125    0.000    4.250 
#    0.000    3.750    0.000    2.625    0.000    0.000 
#    0.000    0.000    0.000    0.000    0.000    0.000 
#
# Total GULP energy -396886.594527 kJ/mol
# GULP energy per Si atom -12402.706079 kJ/mol
# Density = 1.871111 g / cm^3
# Si number density = 18.753796 Si / 1000 Ang^3
#
#
#
# Elastic Constant Matrix: (Units=GPa)
#
#
# Indices 1 2 3 4 5 6 
#
# 1 99.5095 35.7655 12.7993 0.0000 9.9475 0.0000
# 2 35.7655 56.6349 24.9070 0.0000 7.4475 0.0000
# 3 12.7993 24.9070 77.0787 0.0000 3.9097 0.0000
# 4 0.0000 0.0000 0.0000 22.3511 0.0000 -0.1238
# 5 9.9475 7.4475 3.9097 0.0000 21.7437 0.0000
# 6 0.0000 0.0000 0.0000 -0.1238 0.0000 34.8771
#
#
#
# Elastic Compliance Matrix: (Units=1/GPa)
#
#
# Indices 1 2 3 4 5 6 
#
# 1 0.013253 -0.008199 0.000619 0.000000 -0.003366 0.000000
# 2 -0.008199 0.026435 -0.006975 0.000000 -0.004049 0.000000
# 3 0.000619 -0.006975 0.015156 0.000000 -0.000620 0.000000
# 4 0.000000 0.000000 0.000000 0.044741 0.000000 0.000159
# 5 -0.003366 -0.004049 -0.000620 0.000000 0.049029 0.000000
# 6 0.000000 0.000000 0.000000 0.000159 0.000000 0.028673
#
#
# Mechanical properties :
#
#
# Convention : Reuss Voigt Hill
#
# Bulk Modulus (GPa) = 38.85864 42.24075 40.54969
# Shear Modulus (GPa) = 23.25854 26.44445 24.85150
#
# Velocity S-wave (km/s) = 3.52547 3.75918 3.64420
# Velocity P-wave (km/s) = 6.11043 6.43542 6.27503
#
# Compressibility (1/GPa) = 0.02573430
#
# Stress axis : x y z
#
# Youngs Moduli (GPa) = 75.45429 37.82892 65.97947
#
# Poissons Ratio (x) = 0.31017 -0.04087
# Poissons Ratio (y) = 0.61867 0.46022
# Poissons Ratio (z) = -0.04674 0.26386
#
# Static dielectric constant tensor:
#      x y z
#    x 3.584480 0.000000 0.016420 
#    y 0.000000 3.322620 0.000000 
#    z 0.016420 0.000000 3.436850 
# 
# 
# High freq. dielectric constant tensor:
#      x y z
#    x 1.738270 0.000000 -0.000250 
#    y 0.000000 1.715050 0.000000 
#    z -0.000250 0.000000 1.725470 
# 
# From -- ./inp_files/338698.got.cif
#   From: 2010.06.25/outbox.cif.g09.slc.cpg/sg12_170_cif.got.tgz:338698.got - 2010.06.28 00:19:55.
