data_PCOD8093267
_publ_section_title
;
Structure prediction by ZEFSAII (Michael W. Deem and Ramdas Pophale) SiO2 
 PCOD8093267
Probable space group: C 2/M
;
_chemical_formula_sum "Si O2"
_cell_formula_units_Z 52
_cell_length_a 20.299626
_cell_length_b 12.254120
_cell_length_c 10.753529
_cell_angle_alpha 90.000000
_cell_angle_beta 73.191709
_cell_angle_gamma 90.000000
_cell_volume 2560.702358
_symmetry_space_group_name_H-M "C 2/M"
_symmetry_group_IT_number 12
_symmetry_cell_setting 'monoclinic'
loop_
_space_group_symop_operation_xyz
x,y,z
-x,y,-z
-x,-y,-z
x,-y,z
1/2+x,1/2+y,z
1/2-x,1/2+y,-z
1/2-x,1/2-y,-z
1/2+x,1/2-y,z
loop_
_atom_site_type_symbol
_atom_site_label
_atom_site_fract_x
_atom_site_fract_y
_atom_site_fract_z
Si Si1 0.220616 0.305680 0.892733
Si Si2 0.861294 0.881354 0.181323
Si Si3 0.972321 0.730161 0.749883
Si Si4 0.500000 0.313270 0.000000
Si Si5 0.917745 0.876953 0.417595
Si Si6 0.001628 0.500000 0.798228
Si Si7 0.859811 0.124176 0.713331
Si Si8 0.885428 0.500000 0.064709
O O1 0.193671 0.206357 0.827027
O O2 0.279333 0.368339 0.784926
O O3 0.158809 0.391920 0.942292
O O4 0.250000 0.250000 0.000000
O O5 0.873055 0.858723 0.319692
O O6 0.827541 0.000000 0.180535
O O7 0.931573 0.884015 0.061004
O O8 0.985466 0.602727 0.715702
O O9 0.896254 0.781401 0.776108
O O10 0.993047 0.738066 0.883023
O O11 0.016338 0.799035 0.626331
O O12 0.871471 0.849542 0.561905
O O13 0.946732 0.000000 0.407632
O O14 0.079951 0.500000 0.814505
O O15 0.947504 0.500000 0.937197
O O16 0.884421 0.000000 0.732935
#
# Coordination Sequence:
#
# PCOD8093267 Si02
#       8
#     8   8   8   4   8   4   8   4
#     4  12  25  38  61  91 124 165 204 248 313 376
#     4  10  21  37  59  89 123 156 203 260 308 367
#     4  11  21  37  62  93 122 158 201 258 306 369
#     4  10  19  35  60  90 116 155 203 254 318 346
#     4   9  20  40  66  89 114 156 211 263 307 350
#     4  11  22  38  63  88 126 166 205 245 308 366
#     4  11  23  42  62  88 121 161 207 257 311 367
#     4  11  22  42  60  86 125 169 210 249 290 377
#
# _framework density 20.306929
#
# number of rings (size 3 to 8) (size 9 to 14) (size 15 to 20)
#    0.000    1.385    0.769    6.692    1.077    4.923 
#    1.385    1.538    0.000    0.000    0.000    0.000 
#    0.000    0.000    0.000    0.000    0.000    0.000 
#
# Total GULP energy -322287.881934 kJ/mol
# GULP energy per Si atom -12395.687767 kJ/mol
# Density = 2.026071 g / cm^3
# Si number density = 20.306929 Si / 1000 Ang^3
#
#
#
# Elastic Constant Matrix: (Units=GPa)
#
#
# Indices 1 2 3 4 5 6 
#
# 1 90.1830 59.3968 23.4764 0.0000 -5.4661 0.0000
# 2 59.3968 139.7261 21.5810 0.0000 7.4515 0.0000
# 3 23.4764 21.5810 91.8580 0.0000 -5.7811 0.0000
# 4 0.0000 0.0000 0.0000 8.8275 0.0000 3.2541
# 5 -5.4661 7.4515 -5.7811 0.0000 20.2850 0.0000
# 6 0.0000 0.0000 0.0000 3.2541 0.0000 37.2793
#
#
#
# Elastic Compliance Matrix: (Units=1/GPa)
#
#
# Indices 1 2 3 4 5 6 
#
# 1 0.016749 -0.007128 -0.002197 0.000000 0.006506 0.000000
# 2 -0.007128 0.010681 -0.001075 0.000000 -0.006150 0.000000
# 3 -0.002197 -0.001075 0.011901 0.000000 0.003195 0.000000
# 4 0.000000 0.000000 0.000000 0.117049 0.000000 -0.010217
# 5 0.006506 -0.006150 0.003195 0.000000 0.054220 0.000000
# 6 0.000000 0.000000 0.000000 -0.010217 0.000000 0.027716
#
#
# Mechanical properties :
#
#
# Convention : Reuss Voigt Hill
#
# Bulk Modulus (GPa) = 53.95734 58.96394 56.46064
# Shear Modulus (GPa) = 18.84709 27.76588 23.30648
#
# Velocity S-wave (km/s) = 3.04980 3.70173 3.39146
# Velocity P-wave (km/s) = 6.24742 6.88257 6.57267
#
# Compressibility (1/GPa) = 0.01853316
#
# Stress axis : x y z
#
# Youngs Moduli (GPa) = 59.70452 93.62605 84.02424
#
# Poissons Ratio (x) = 0.66733 0.18457
# Poissons Ratio (y) = 0.42555 0.09031
# Poissons Ratio (z) = 0.13115 0.10063
#
# Static dielectric constant tensor:
#      x y z
#    x 2.835380 0.000000 -0.794220 
#    y 0.000000 3.968170 0.000000 
#    z -0.794220 0.000000 2.976990 
# 
# 
# High freq. dielectric constant tensor:
#      x y z
#    x 1.785880 0.000000 0.000680 
#    y 0.000000 1.804950 0.000000 
#    z 0.000680 0.000000 1.784690 
# 
# From -- ./inp_files/165582.got.cif
#   From: 2010.06.25/outbox.cif.g09.slc.cpg/sg12_83_cif.got.tgz:165582.got - 2010.06.28 00:19:55.
