data_PCOD8093484
_publ_section_title
;
Structure prediction by ZEFSAII (Michael W. Deem and Ramdas Pophale) SiO2 
 PCOD8093484
Probable space group: C 2/M
;
_chemical_formula_sum "Si O2"
_cell_formula_units_Z 48
_cell_length_a 17.316534
_cell_length_b 23.044967
_cell_length_c 9.370906
_cell_angle_alpha 90.000000
_cell_angle_beta 134.834203
_cell_angle_gamma 90.000000
_cell_volume 2651.897501
_symmetry_space_group_name_H-M "C 2/M"
_symmetry_group_IT_number 12
_symmetry_cell_setting 'monoclinic'
loop_
_space_group_symop_operation_xyz
x,y,z
-x,y,-z
-x,-y,-z
x,-y,z
1/2+x,1/2+y,z
1/2-x,1/2+y,-z
1/2-x,1/2-y,-z
1/2+x,1/2-y,z
loop_
_atom_site_type_symbol
_atom_site_label
_atom_site_fract_x
_atom_site_fract_y
_atom_site_fract_z
Si Si1 0.421585 0.671360 0.779459
Si Si2 0.167001 0.064367 0.815823
Si Si3 0.517944 0.762867 0.365870
Si Si4 0.749839 0.273312 0.242518
Si Si5 0.434975 0.564632 0.626025
Si Si6 0.199346 0.325918 0.981701
O O1 0.488912 0.711616 0.757644
O O2 0.334143 0.711379 0.743650
O O3 0.374814 0.613785 0.642431
O O4 0.500000 0.645484 0.000000
O O5 0.124405 0.065284 0.600804
O O6 0.063616 0.080840 0.780687
O O7 0.209062 0.000000 0.910265
O O8 0.271704 0.106366 0.967523
O O9 0.500000 0.735468 0.500000
O O10 0.638124 0.789887 0.531551
O O11 0.429339 0.812725 0.211352
O O12 0.732847 0.306123 0.069887
O O13 0.740485 0.205656 0.181394
O O14 0.422849 0.500000 0.677743
#
# Coordination Sequence:
#
# PCOD8093484 Si02
#       6
#     8   8   8   8   8   8
#     4  12  21  33  53  82 113 142 183 223 273 332
#     4   9  18  34  57  80 105 146 189 223 266 324
#     4  10  22  35  53  77 111 148 180 221 278 323
#     4  10  21  34  52  80 111 147 178 224 279 324
#     4   9  20  34  52  80 112 145 181 222 274 327
#     4  10  19  36  55  79 109 142 186 227 270 323
#
# _framework density 18.100245999999999
#
# number of rings (size 3 to 8) (size 9 to 14) (size 15 to 20)
#    0.000    2.000    1.667    3.500    7.000    0.333 
#    0.000    0.833    0.000    5.500    0.000    4.667 
#    0.000    0.000    0.000    0.000    0.000    0.000 
#
# Total GULP energy -297333.584886 kJ/mol
# GULP energy per Si atom -12388.899370 kJ/mol
# Density = 1.805905 g / cm^3
# Si number density = 18.100246 Si / 1000 Ang^3
#
#
#
# Elastic Constant Matrix: (Units=GPa)
#
#
# Indices 1 2 3 4 5 6 
#
# 1 73.1798 44.5287 31.3325 0.0000 -5.8282 0.0000
# 2 44.5287 125.3287 39.7952 0.0000 -3.2887 0.0000
# 3 31.3325 39.7952 67.9461 0.0000 7.2015 0.0000
# 4 0.0000 0.0000 0.0000 27.0441 0.0000 -1.1934
# 5 -5.8282 -3.2887 7.2015 0.0000 26.7298 0.0000
# 6 0.0000 0.0000 0.0000 -1.1934 0.0000 15.0946
#
#
#
# Elastic Compliance Matrix: (Units=1/GPa)
#
#
# Indices 1 2 3 4 5 6 
#
# 1 0.020015 -0.004717 -0.007070 0.000000 0.005689 0.000000
# 2 -0.004717 0.011127 -0.004506 0.000000 0.001554 0.000000
# 3 -0.007070 -0.004506 0.021452 0.000000 -0.007875 0.000000
# 4 0.000000 0.000000 0.000000 0.037106 0.000000 0.002934
# 5 0.005689 0.001554 -0.007875 0.000000 0.040965 0.000000
# 6 0.000000 0.000000 0.000000 0.002934 0.000000 0.066481
#
#
# Mechanical properties :
#
#
# Convention : Reuss Voigt Hill
#
# Bulk Modulus (GPa) = 49.98253 55.30751 52.64502
# Shear Modulus (GPa) = 21.15045 23.82689 22.48867
#
# Velocity S-wave (km/s) = 3.42207 3.63214 3.52867
# Velocity P-wave (km/s) = 6.57938 6.94352 6.76390
#
# Compressibility (1/GPa) = 0.02000699
#
# Stress axis : x y z
#
# Youngs Moduli (GPa) = 49.96143 89.87418 46.61622
#
# Poissons Ratio (x) = 0.42396 0.32958
# Poissons Ratio (y) = 0.23568 0.21006
# Poissons Ratio (z) = 0.35323 0.40499
#
# Static dielectric constant tensor:
#      x y z
#    x 3.366280 0.000000 -0.049090 
#    y 0.000000 3.288060 0.000000 
#    z -0.049090 0.000000 3.414260 
# 
# 
# High freq. dielectric constant tensor:
#      x y z
#    x 1.687450 0.000000 -0.010430 
#    y 0.000000 1.680650 0.000000 
#    z -0.010430 0.000000 1.703580 
# 
# From -- ./inp_files/63607.got.cif
#   From: 2010.06.25/outbox.cif.g09.slc.cpg/sg12_32_cif.got.tgz:63607.got - 2010.06.28 00:19:55.
