data_PCOD8093085
_publ_section_title
;
Structure prediction by ZEFSAII (Michael W. Deem and Ramdas Pophale) SiO2 
 PCOD8093085
Probable space group: C 2/M
;
_chemical_formula_sum "Si O2"
_cell_formula_units_Z 56
_cell_length_a 22.331546
_cell_length_b 8.847927
_cell_length_c 17.289059
_cell_angle_alpha 90.000000
_cell_angle_beta 127.528542
_cell_angle_gamma 90.000000
_cell_volume 2709.144931
_symmetry_space_group_name_H-M "C 2/M"
_symmetry_group_IT_number 12
_symmetry_cell_setting 'monoclinic'
loop_
_space_group_symop_operation_xyz
x,y,z
-x,y,-z
-x,-y,-z
x,-y,z
1/2+x,1/2+y,z
1/2-x,1/2+y,-z
1/2-x,1/2-y,-z
1/2+x,1/2-y,z
loop_
_atom_site_type_symbol
_atom_site_label
_atom_site_fract_x
_atom_site_fract_y
_atom_site_fract_z
Si Si1 0.332377 0.178690 0.547688
Si Si2 0.681424 0.673383 0.748116
Si Si3 0.333336 0.671480 0.846854
Si Si4 0.596629 0.327253 0.253043
Si Si5 0.083657 0.677833 0.542995
Si Si6 0.673911 0.674599 0.915138
Si Si7 0.553203 0.322132 0.938316
O O1 0.250000 0.250000 0.500000
O O2 0.386355 0.221395 0.661139
O O3 0.376603 0.239090 0.505205
O O4 0.320517 0.000000 0.533202
O O5 0.671906 0.500000 0.714325
O O6 0.769539 0.713515 0.823585
O O7 0.639352 0.782218 0.656168
O O8 0.647925 0.702537 0.806672
O O9 0.313960 0.500000 0.858912
O O10 0.335442 0.676664 0.755460
O O11 0.413475 0.719759 0.950446
O O12 0.583349 0.500000 0.271464
O O13 0.527440 0.254470 0.149746
O O14 0.075861 0.500000 0.528861
O O15 0.000000 0.744932 0.500000
O O16 0.685148 0.500000 0.940895
O O17 0.609581 0.742861 0.918471
O O18 0.750000 0.750000 0.000000
O O19 0.541540 0.500000 0.924510
#
# Coordination Sequence:
#
# PCOD8093085 Si02
#       7
#     8   8   8   8   8   8   8
#     4  11  24  43  65  89 117 154 200 247 300 358
#     4  11  23  36  57  89 119 149 190 240 293 343
#     4  10  19  35  59  85 115 158 198 228 275 345
#     4  10  21  36  60  89 115 148 193 241 288 341
#     4  10  24  45  65  86 115 155 202 248 297 358
#     4  10  20  35  55  83 116 152 191 231 278 338
#     4   9  18  34  56  82 115 151 190 233 276 333
#
# _framework density 20.670729000000001
#
# number of rings (size 3 to 8) (size 9 to 14) (size 15 to 20)
#    0.000    1.857    1.429    2.143    2.000    7.714 
#    0.000    1.429    0.000    1.714    0.000    0.000 
#    0.000    0.000    0.000    0.000    0.000    0.000 
#
# Total GULP energy -346984.501917 kJ/mol
# GULP energy per Si atom -12392.303640 kJ/mol
# Density = 2.062368 g / cm^3
# Si number density = 20.670729 Si / 1000 Ang^3
#
#
#
# Elastic Constant Matrix: (Units=GPa)
#
#
# Indices 1 2 3 4 5 6 
#
# 1 106.8982 26.5227 42.6626 0.0000 -10.0452 0.0000
# 2 26.5227 26.4245 17.3667 0.0000 -7.3710 0.0000
# 3 42.6626 17.3667 116.4344 0.0000 -8.1050 0.0000
# 4 0.0000 0.0000 0.0000 30.2544 0.0000 -0.1076
# 5 -10.0452 -7.3710 -8.1050 0.0000 37.8584 0.0000
# 6 0.0000 0.0000 0.0000 -0.1076 0.0000 23.9792
#
#
#
# Elastic Compliance Matrix: (Units=1/GPa)
#
#
# Indices 1 2 3 4 5 6 
#
# 1 0.013492 -0.011230 -0.003220 0.000000 0.000704 0.000000
# 2 -0.011230 0.053176 -0.003353 0.000000 0.006656 0.000000
# 3 -0.003220 -0.003353 0.010317 0.000000 0.000702 0.000000
# 4 0.000000 0.000000 0.000000 0.033054 0.000000 0.000148
# 5 0.000704 0.006656 0.000702 0.000000 0.028047 0.000000
# 6 0.000000 0.000000 0.000000 0.000148 0.000000 0.041703
#
#
# Mechanical properties :
#
#
# Convention : Reuss Voigt Hill
#
# Bulk Modulus (GPa) = 24.16659 46.98457 35.57558
# Shear Modulus (GPa) = 21.81617 29.29876 25.55747
#
# Velocity S-wave (km/s) = 3.25224 3.76893 3.52007
# Velocity P-wave (km/s) = 5.08127 6.45903 5.81113
#
# Compressibility (1/GPa) = 0.04137944
#
# Stress axis : x y z
#
# Youngs Moduli (GPa) = 74.11773 18.80557 96.92526
#
# Poissons Ratio (x) = 0.21118 0.31206
# Poissons Ratio (y) = 0.83233 0.32503
# Poissons Ratio (z) = 0.23863 0.06306
#
# Static dielectric constant tensor:
#      x y z
#    x 3.772990 0.000000 0.220460 
#    y 0.000000 3.927940 0.000000 
#    z 0.220460 0.000000 3.521220 
# 
# 
# High freq. dielectric constant tensor:
#      x y z
#    x 1.821580 0.000000 -0.007150 
#    y 0.000000 1.772320 0.000000 
#    z -0.007150 0.000000 1.820570 
# 
# From -- ./inp_files/288472.got.cif
#   From: 2010.06.25/outbox.cif.g09.slc.cpg/sg12_145_cif.got.tgz:288472.got - 2010.06.28 00:19:55.
