data_PCOD8093752
_publ_section_title
;
Structure prediction by ZEFSAII (Michael W. Deem and Ramdas Pophale) SiO2 
 PCOD8093752
Probable space group: C 2/M
;
_chemical_formula_sum "Si O2"
_cell_formula_units_Z 64
_cell_length_a 15.262499
_cell_length_b 8.886139
_cell_length_c 25.465397
_cell_angle_alpha 90.000000
_cell_angle_beta 106.618789
_cell_angle_gamma 90.000000
_cell_volume 3309.469923
_symmetry_space_group_name_H-M "C 2/M"
_symmetry_group_IT_number 12
_symmetry_cell_setting 'monoclinic'
loop_
_space_group_symop_operation_xyz
x,y,z
-x,y,-z
-x,-y,-z
x,-y,z
1/2+x,1/2+y,z
1/2-x,1/2+y,-z
1/2-x,1/2-y,-z
1/2+x,1/2-y,z
loop_
_atom_site_type_symbol
_atom_site_label
_atom_site_fract_x
_atom_site_fract_y
_atom_site_fract_z
Si Si1 0.005525 0.676992 0.939845
Si Si2 0.307987 0.321384 0.056313
Si Si3 0.248667 0.822211 0.743561
Si Si4 0.189734 0.678554 0.133896
Si Si5 0.500739 0.823781 0.558684
Si Si6 0.818813 0.173342 0.551507
Si Si7 0.640391 0.670673 0.327939
Si Si8 0.057866 0.177003 0.666362
O O1 0.021491 0.500000 0.934691
O O2 0.088079 0.765032 0.926586
O O3 0.912205 0.735157 0.897105
O O4 0.000000 0.718036 0.000000
O O5 0.304843 0.500000 0.049870
O O6 0.262313 0.266859 0.102877
O O7 0.250000 0.250000 0.000000
O O8 0.280449 0.753736 0.804747
O O9 0.317190 0.771400 0.709989
O O10 0.144191 0.769958 0.715747
O O11 0.253092 0.000000 0.746112
O O12 0.189123 0.500000 0.135075
O O13 0.500000 0.754435 0.500000
O O14 0.404314 0.782148 0.565860
O O15 0.573334 0.749979 0.611055
O O16 0.519617 0.000000 0.559639
O O17 0.750000 0.250000 0.500000
O O18 0.793119 0.177389 0.608958
O O19 0.837559 0.000000 0.537593
O O20 0.635330 0.500000 0.306613
O O21 0.536775 0.728614 0.322211
O O22 0.055104 0.000000 0.656639
#
# Coordination Sequence:
#
# PCOD8093752 Si02
#       8
#     8   8   8   8   8   8   8   8
#     4  10  19  36  59  83 117 160 192 232 291 338
#     4  11  21  36  59  87 118 155 193 237 287 338
#     4  10  21  38  61  84 108 150 200 233 274 344
#     4   9  20  38  57  82 118 154 190 233 287 342
#     4  10  21  35  53  80 111 143 181 230 284 337
#     4  10  21  36  55  80 112 145 181 228 285 344
#     4   9  20  38  56  78 112 147 181 234 293 335
#     4   9  20  38  57  79 109 148 188 232 286 343
#
# _framework density 19.338445
#
# number of rings (size 3 to 8) (size 9 to 14) (size 15 to 20)
#    0.000    2.250    1.250    1.875    1.750    5.250 
#    0.000    3.125    0.000    0.000    0.000    0.000 
#    0.000    0.000    0.000    0.000    0.000    0.000 
#
# Total GULP energy -396614.721165 kJ/mol
# GULP energy per Si atom -12394.210036 kJ/mol
# Density = 1.929443 g / cm^3
# Si number density = 19.338445 Si / 1000 Ang^3
#
#
#
# Elastic Constant Matrix: (Units=GPa)
#
#
# Indices 1 2 3 4 5 6 
#
# 1 134.6744 33.3686 83.2279 0.0000 6.2422 0.0000
# 2 33.3686 31.4931 37.6346 0.0000 2.4902 0.0000
# 3 83.2279 37.6346 175.7982 0.0000 11.7943 0.0000
# 4 0.0000 0.0000 0.0000 22.7983 0.0000 -4.6655
# 5 6.2422 2.4902 11.7943 0.0000 34.4950 0.0000
# 6 0.0000 0.0000 0.0000 -4.6655 0.0000 29.7591
#
#
#
# Elastic Compliance Matrix: (Units=1/GPa)
#
#
# Indices 1 2 3 4 5 6 
#
# 1 0.011773 -0.007812 -0.003885 0.000000 -0.000238 0.000000
# 2 -0.007812 0.047853 -0.006559 0.000000 0.000202 0.000000
# 3 -0.003885 -0.006559 0.009061 0.000000 -0.001921 0.000000
# 4 0.000000 0.000000 0.000000 0.045317 0.000000 0.007105
# 5 -0.000238 0.000202 -0.001921 0.000000 0.029675 0.000000
# 6 0.000000 0.000000 0.000000 0.007105 0.000000 0.034717
#
#
# Mechanical properties :
#
#
# Convention : Reuss Voigt Hill
#
# Bulk Modulus (GPa) = 31.08186 72.26976 51.67581
# Shear Modulus (GPa) = 22.15974 29.92612 26.04293
#
# Velocity S-wave (km/s) = 3.38877 3.93809 3.67371
# Velocity P-wave (km/s) = 5.60528 7.62432 6.69139
#
# Compressibility (1/GPa) = 0.03217310
#
# Stress axis : x y z
#
# Youngs Moduli (GPa) = 84.93906 20.89731 110.36509
#
# Poissons Ratio (x) = 0.16326 0.42880
# Poissons Ratio (y) = 0.66359 0.72391
# Poissons Ratio (z) = 0.33001 0.13707
#
# Static dielectric constant tensor:
#      x y z
#    x 3.705260 0.000000 0.113020 
#    y 0.000000 3.292400 0.000000 
#    z 0.113020 0.000000 3.741160 
# 
# 
# High freq. dielectric constant tensor:
#      x y z
#    x 1.753230 0.000000 0.005220 
#    y 0.000000 1.734700 0.000000 
#    z 0.005220 0.000000 1.759700 
# 
# From -- ./inp_files/359896.got.cif
#   From: 2010.06.25/outbox.cif.g09.slc.cpg/sg12_180_cif.got.tgz:359896.got - 2010.06.28 00:19:55.
