data_PCOD8093471
_publ_section_title
;
Structure prediction by ZEFSAII (Michael W. Deem and Ramdas Pophale) SiO2 
 PCOD8093471
Probable space group: C 2/M
;
_chemical_formula_sum "Si O2"
_cell_formula_units_Z 64
_cell_length_a 18.602972
_cell_length_b 17.157098
_cell_length_c 27.752553
_cell_angle_alpha 90.000000
_cell_angle_beta 157.059094
_cell_angle_gamma 90.000000
_cell_volume 3452.632519
_symmetry_space_group_name_H-M "C 2/M"
_symmetry_group_IT_number 12
_symmetry_cell_setting 'monoclinic'
loop_
_space_group_symop_operation_xyz
x,y,z
-x,y,-z
-x,-y,-z
x,-y,z
1/2+x,1/2+y,z
1/2-x,1/2+y,-z
1/2-x,1/2-y,-z
1/2+x,1/2-y,z
loop_
_atom_site_type_symbol
_atom_site_label
_atom_site_fract_x
_atom_site_fract_y
_atom_site_fract_z
Si Si1 0.738722 0.909192 0.953600
Si Si2 0.816900 0.306898 0.361315
Si Si3 0.056759 0.783702 0.983242
Si Si4 0.417800 0.704764 0.230265
Si Si5 0.818057 0.211969 0.276297
Si Si6 0.024944 0.085608 0.458747
Si Si7 0.998542 0.089189 0.199387
Si Si8 0.870822 0.672014 0.695163
O O1 0.528967 0.878173 0.820093
O O2 0.747633 0.000000 0.942757
O O3 0.879381 0.857480 0.008728
O O4 0.808350 0.901012 0.051844
O O5 0.884045 0.287430 0.348096
O O6 0.662799 0.373318 0.269163
O O7 0.736170 0.226051 0.332771
O O8 0.000000 0.337228 0.500000
O O9 0.898137 0.729735 0.862648
O O10 0.213399 0.719600 0.085641
O O11 0.000000 0.819001 0.000000
O O12 0.426163 0.699496 0.293085
O O13 0.485459 0.627319 0.244342
O O14 0.542962 0.777219 0.293815
O O15 0.860492 0.134269 0.332838
O O16 0.229738 0.119339 0.577601
O O17 0.000000 0.082520 0.500000
O O18 0.014731 0.000000 0.429361
O O19 0.048874 0.000000 0.238987
#
# Coordination Sequence:
#
# PCOD8093471 Si02
#       8
#     8   8   8   8   8   8   8   8
#     4  10  20  33  56  83 112 146 178 226 282 326
#     4  11  20  36  61  84 102 146 192 231 272 320
#     4   9  19  35  56  84 108 141 186 231 273 326
#     4   9  22  34  58  81 110 145 183 228 276 326
#     4  11  19  37  57  80 110 143 185 227 272 330
#     4  11  22  35  54  81 110 140 179 226 275 325
#     4  10  22  38  56  83 115 148 187 227 274 333
#     4  10  19  36  54  83 108 139 183 227 272 327
#
# _framework density 18.536581000000002
#
# number of rings (size 3 to 8) (size 9 to 14) (size 15 to 20)
#    0.000    1.875    3.750    0.375    1.750    3.000 
#    0.000    0.625    0.000    3.000    0.000    0.000 
#    0.000    0.000    0.000    0.000    0.000    0.000 
#
# Total GULP energy -396552.824344 kJ/mol
# GULP energy per Si atom -12392.275761 kJ/mol
# Density = 1.849439 g / cm^3
# Si number density = 18.536581 Si / 1000 Ang^3
#
#
#
# Elastic Constant Matrix: (Units=GPa)
#
#
# Indices 1 2 3 4 5 6 
#
# 1 76.3816 37.0575 20.5070 -0.0370 -10.0250 0.0226
# 2 37.0575 114.1312 44.8486 -0.0025 -0.4561 0.0077
# 3 20.5070 44.8486 98.8525 -0.0792 4.7889 0.0790
# 4 -0.0370 -0.0025 -0.0792 37.7008 0.0051 -15.7442
# 5 -10.0250 -0.4561 4.7889 0.0051 23.1605 0.0002
# 6 0.0226 0.0077 0.0790 -15.7442 0.0002 45.5051
#
#
#
# Elastic Compliance Matrix: (Units=1/GPa)
#
#
# Indices 1 2 3 4 5 6 
#
# 1 0.016856 -0.004777 -0.001696 0.000011 0.007553 -0.000001
# 2 -0.004777 0.012051 -0.004432 -0.000011 -0.000914 0.000004
# 3 -0.001696 -0.004432 0.012645 0.000019 -0.003436 -0.000014
# 4 0.000011 -0.000011 0.000019 0.031004 -0.000006 0.010727
# 5 0.007553 -0.000914 -0.003436 -0.000006 0.047138 0.000000
# 6 -0.000001 0.000004 -0.000014 0.010727 0.000000 0.025687
#
#
# Mechanical properties :
#
#
# Convention : Reuss Voigt Hill
#
# Bulk Modulus (GPa) = 50.65001 54.91015 52.78008
# Shear Modulus (GPa) = 28.77340 33.73679 31.25510
#
# Velocity S-wave (km/s) = 3.94413 4.27079 4.11071
# Velocity P-wave (km/s) = 6.93724 7.34890 7.14604
#
# Compressibility (1/GPa) = 0.01974333
#
# Stress axis : x y z
#
# Youngs Moduli (GPa) = 59.32580 82.98241 79.08170
#
# Poissons Ratio (x) = 0.39637 0.13409
# Poissons Ratio (y) = 0.28337 0.35050
# Poissons Ratio (z) = 0.10059 0.36779
#
# Static dielectric constant tensor:
#      x y z
#    x 3.655690 -0.000030 0.108530 
#    y -0.000030 3.418520 -0.000030 
#    z 0.108530 -0.000030 3.559210 
# 
# 
# High freq. dielectric constant tensor:
#      x y z
#    x 1.710370 0.000000 0.000890 
#    y 0.000000 1.708970 0.000000 
#    z 0.000890 0.000000 1.729270 
# 
# From -- ./inp_files/381619.got.cif
#   From: 2010.06.25/outbox.cif.g09.slc.cpg/sg12_191_cif.got.tgz:381619.got - 2010.06.28 00:19:55.
