data_PCOD8093645
_publ_section_title
;
Structure prediction by ZEFSAII (Michael W. Deem and Ramdas Pophale) SiO2 
 PCOD8093645
Probable space group: C 2/M
;
_chemical_formula_sum "Si O2"
_cell_formula_units_Z 56
_cell_length_a 27.510776
_cell_length_b 9.014773
_cell_length_c 12.584837
_cell_angle_alpha 90.000000
_cell_angle_beta 67.667241
_cell_angle_gamma 90.000000
_cell_volume 2886.978137
_symmetry_space_group_name_H-M "C 2/M"
_symmetry_group_IT_number 12
_symmetry_cell_setting 'monoclinic'
loop_
_space_group_symop_operation_xyz
x,y,z
-x,y,-z
-x,-y,-z
x,-y,z
1/2+x,1/2+y,z
1/2-x,1/2+y,-z
1/2-x,1/2-y,-z
1/2+x,1/2-y,z
loop_
_atom_site_type_symbol
_atom_site_label
_atom_site_fract_x
_atom_site_fract_y
_atom_site_fract_z
Si Si1 0.358409 0.675347 0.751688
Si Si2 0.056280 0.175879 0.920574
Si Si3 0.406655 0.674915 0.339848
Si Si4 0.939855 0.326533 0.525063
Si Si5 0.290158 0.669992 0.392856
Si Si6 0.751698 0.827966 0.189834
Si Si7 0.144709 0.175167 0.004640
O O1 0.360208 0.500000 0.732699
O O2 0.401952 0.747926 0.640864
O O3 0.300301 0.730250 0.772106
O O4 0.371268 0.719619 0.862584
O O5 0.063458 0.219640 0.792338
O O6 0.057389 0.000000 0.933890
O O7 0.101924 0.244252 0.958586
O O8 0.000000 0.242328 0.000000
O O9 0.410973 0.500000 0.359376
O O10 0.431268 0.765624 0.414905
O O11 0.347404 0.729601 0.374015
O O12 0.927276 0.500000 0.539233
O O13 0.000000 0.290774 0.500000
O O14 0.286333 0.500000 0.425326
O O15 0.250000 0.750000 0.500000
O O16 0.278717 0.698448 0.280079
O O17 0.736609 0.000000 0.184237
O O18 0.795634 0.769970 0.069260
O O19 0.145509 0.000000 0.987755
#
# Coordination Sequence:
#
# PCOD8093645 Si02
#       7
#     8   8   8   8   8   8   8
#     4  11  23  37  59  90 119 150 198 247 284 336
#     4   9  17  31  57  91 120 147 185 237 296 346
#     4  10  20  37  62  90 116 144 190 245 287 336
#     4  11  26  45  61  80 114 158 197 236 292 354
#     4  10  20  33  53  81 113 149 188 231 280 336
#     4  10  19  36  58  82 120 161 191 228 290 353
#     4   9  18  34  56  87 122 154 190 235 289 347
#
# _framework density 19.397445999999999
#
# number of rings (size 3 to 8) (size 9 to 14) (size 15 to 20)
#    0.000    2.000    1.429    2.143    2.000    4.571 
#    0.000    0.714    0.000    2.143    0.000    0.000 
#    0.000    0.000    0.000    0.000    0.000    0.000 
#
# Total GULP energy -347184.607290 kJ/mol
# GULP energy per Si atom -12399.450260 kJ/mol
# Density = 1.935330 g / cm^3
# Si number density = 19.397446 Si / 1000 Ang^3
#
#
#
# Elastic Constant Matrix: (Units=GPa)
#
#
# Indices 1 2 3 4 5 6 
#
# 1 150.4499 58.9552 90.4679 0.0000 -14.3473 0.0000
# 2 58.9552 57.6398 57.0571 0.0000 0.5692 0.0000
# 3 90.4679 57.0571 152.5091 0.0000 -14.7392 0.0000
# 4 0.0000 0.0000 0.0000 13.7747 0.0000 6.8719
# 5 -14.3473 0.5692 -14.7392 0.0000 30.2688 0.0000
# 6 0.0000 0.0000 0.0000 6.8719 0.0000 18.9415
#
#
#
# Elastic Compliance Matrix: (Units=1/GPa)
#
#
# Indices 1 2 3 4 5 6 
#
# 1 0.013166 -0.009887 -0.003662 0.000000 0.004643 0.000000
# 2 -0.009887 0.035988 -0.008518 0.000000 -0.009511 0.000000
# 3 -0.003662 -0.008518 0.012345 0.000000 0.004435 0.000000
# 4 0.000000 0.000000 0.000000 0.088640 0.000000 -0.032158
# 5 0.004643 -0.009511 0.004435 0.000000 0.037577 0.000000
# 6 0.000000 0.000000 0.000000 -0.032158 0.000000 0.064461
#
#
# Mechanical properties :
#
#
# Convention : Reuss Voigt Hill
#
# Bulk Modulus (GPa) = 57.59111 85.95102 71.77107
# Shear Modulus (GPa) = 16.55088 22.87158 19.71123
#
# Velocity S-wave (km/s) = 2.92421 3.43753 3.19121
# Velocity P-wave (km/s) = 6.41528 7.75643 7.11752
#
# Compressibility (1/GPa) = 0.01736379
#
# Stress axis : x y z
#
# Youngs Moduli (GPa) = 75.95269 27.78739 81.00495
#
# Poissons Ratio (x) = 0.27473 0.29667
# Poissons Ratio (y) = 0.75095 0.69000
# Poissons Ratio (z) = 0.27817 0.23669
#
# Static dielectric constant tensor:
#      x y z
#    x 3.767650 0.000000 -0.046010 
#    y 0.000000 3.215880 0.000000 
#    z -0.046010 0.000000 3.723980 
# 
# 
# High freq. dielectric constant tensor:
#      x y z
#    x 1.769660 0.000000 -0.001650 
#    y 0.000000 1.719530 0.000000 
#    z -0.001650 0.000000 1.774930 
# 
# From -- ./inp_files/180866.got.cif
#   From: 2010.06.25/outbox.cif.g09.slc.cpg/sg12_91_cif.got.tgz:180866.got - 2010.06.28 00:19:55.
