data_PCOD8093823
_publ_section_title
;
Structure prediction by ZEFSAII (Michael W. Deem and Ramdas Pophale) SiO2 
 PCOD8093823
Probable space group: C 2/M
;
_chemical_formula_sum "Si O2"
_cell_formula_units_Z 64
_cell_length_a 14.529081
_cell_length_b 8.849142
_cell_length_c 28.713099
_cell_angle_alpha 90.000000
_cell_angle_beta 62.496643
_cell_angle_gamma 90.000000
_cell_volume 3274.425052
_symmetry_space_group_name_H-M "C 2/M"
_symmetry_group_IT_number 12
_symmetry_cell_setting 'monoclinic'
loop_
_space_group_symop_operation_xyz
x,y,z
-x,y,-z
-x,-y,-z
x,-y,z
1/2+x,1/2+y,z
1/2-x,1/2+y,-z
1/2-x,1/2-y,-z
1/2+x,1/2-y,z
loop_
_atom_site_type_symbol
_atom_site_label
_atom_site_fract_x
_atom_site_fract_y
_atom_site_fract_z
Si Si1 0.420344 0.827274 0.321391
Si Si2 0.658779 0.322117 0.492597
Si Si3 0.298425 0.320900 0.943120
Si Si4 0.474604 0.677085 0.137685
Si Si5 0.941361 0.822012 0.784535
Si Si6 0.266142 0.319387 0.137451
Si Si7 0.992266 0.673127 0.406105
Si Si8 0.687711 0.675981 0.380734
O O1 0.497129 0.715798 0.276708
O O2 0.425428 0.800536 0.375425
O O3 0.302520 0.789399 0.334941
O O4 0.449646 0.000000 0.302273
O O5 0.669293 0.500000 0.492632
O O6 0.750000 0.250000 0.500000
O O7 0.550414 0.271173 0.540753
O O8 0.669730 0.265598 0.437392
O O9 0.282125 0.500000 0.945965
O O10 0.420753 0.278809 0.914644
O O11 0.239869 0.250516 0.912561
O O12 0.250000 0.250000 0.000000
O O13 0.459399 0.500000 0.141812
O O14 0.489518 0.733716 0.187508
O O15 0.371592 0.744666 0.137304
O O16 0.831412 0.736198 0.809258
O O17 0.918869 0.000000 0.793053
O O18 0.265744 0.500000 0.133989
O O19 0.990383 0.500000 0.421746
O O20 0.108821 0.728554 0.367373
O O21 0.662259 0.500000 0.382466
#
# Coordination Sequence:
#
# PCOD8093823 Si02
#       8
#     8   8   8   8   8   8   8   8
#     4  10  22  41  58  78 113 148 181 227 282 334
#     4  11  21  37  60  83 112 147 182 225 278 334
#     4  10  20  36  55  83 120 155 191 234 277 326
#     4   8  18  36  57  79 110 148 187 228 275 331
#     4  10  21  38  58  83 111 142 185 234 280 332
#     4  10  19  36  60  83 109 149 191 230 281 332
#     4  11  23  39  58  84 113 145 186 228 276 339
#     4  10  22  40  58  81 113 146 181 227 280 332
#
# _framework density 19.545415999999999
#
# number of rings (size 3 to 8) (size 9 to 14) (size 15 to 20)
#    0.000    2.000    1.250    3.000    0.000    5.500 
#    0.000   13.750    0.000    0.000    0.000    0.000 
#    0.000    0.000    0.000    0.000    0.000    0.000 
#
# Total GULP energy -396806.322704 kJ/mol
# GULP energy per Si atom -12400.197584 kJ/mol
# Density = 1.950093 g / cm^3
# Si number density = 19.545416 Si / 1000 Ang^3
#
#
#
# Elastic Constant Matrix: (Units=GPa)
#
#
# Indices 1 2 3 4 5 6 
#
# 1 121.3941 31.8898 19.3029 0.0000 -15.7036 0.0000
# 2 31.8898 65.6198 29.2022 0.0000 -3.2249 0.0000
# 3 19.3029 29.2022 89.2915 0.0000 -14.9220 0.0000
# 4 0.0000 0.0000 0.0000 32.6613 0.0000 -1.5649
# 5 -15.7036 -3.2249 -14.9220 0.0000 17.4472 0.0000
# 6 0.0000 0.0000 0.0000 -1.5649 0.0000 32.3583
#
#
#
# Elastic Compliance Matrix: (Units=1/GPa)
#
#
# Indices 1 2 3 4 5 6 
#
# 1 0.010660 -0.005142 0.000959 0.000000 0.009465 0.000000
# 2 -0.005142 0.020374 -0.006645 0.000000 -0.006546 0.000000
# 3 0.000959 -0.006645 0.015290 0.000000 0.012711 0.000000
# 4 0.000000 0.000000 0.000000 0.030688 0.000000 0.001484
# 5 0.009465 -0.006546 0.012711 0.000000 0.075496 0.000000
# 6 0.000000 0.000000 0.000000 0.001484 0.000000 0.030976
#
#
# Mechanical properties :
#
#
# Convention : Reuss Voigt Hill
#
# Bulk Modulus (GPa) = 40.54124 48.56612 44.55368
# Shear Modulus (GPa) = 23.43411 29.55407 26.49409
#
# Velocity S-wave (km/s) = 3.46635 3.89276 3.68573
# Velocity P-wave (km/s) = 6.06695 6.71614 6.39978
#
# Compressibility (1/GPa) = 0.02466624
#
# Stress axis : x y z
#
# Youngs Moduli (GPa) = 93.80531 49.08212 65.40384
#
# Poissons Ratio (x) = 0.25239 -0.06272
# Poissons Ratio (y) = 0.48237 0.43464
# Poissons Ratio (z) = -0.08995 0.32618
#
# Static dielectric constant tensor:
#      x y z
#    x 3.896710 0.000000 -0.064790 
#    y 0.000000 3.485850 0.000000 
#    z -0.064790 0.000000 3.449850 
# 
# 
# High freq. dielectric constant tensor:
#      x y z
#    x 1.772230 0.000000 -0.007170 
#    y 0.000000 1.754830 0.000000 
#    z -0.007170 0.000000 1.754690 
# 
# From -- ./inp_files/375043.got.cif
#   From: 2010.06.25/outbox.cif.g09.slc.cpg/sg12_188_cif.got.tgz:375043.got - 2010.06.28 00:19:55.
