data_PCOD8093780
_publ_section_title
;
Structure prediction by ZEFSAII (Michael W. Deem and Ramdas Pophale) SiO2 
 PCOD8093780
Probable space group: C 2/M
;
_chemical_formula_sum "Si O2"
_cell_formula_units_Z 56
_cell_length_a 15.788795
_cell_length_b 21.840817
_cell_length_c 7.738759
_cell_angle_alpha 90.000000
_cell_angle_beta 86.067796
_cell_angle_gamma 90.000000
_cell_volume 2662.352809
_symmetry_space_group_name_H-M "C 2/M"
_symmetry_group_IT_number 12
_symmetry_cell_setting 'monoclinic'
loop_
_space_group_symop_operation_xyz
x,y,z
-x,y,-z
-x,-y,-z
x,-y,z
1/2+x,1/2+y,z
1/2-x,1/2+y,-z
1/2-x,1/2-y,-z
1/2+x,1/2-y,z
loop_
_atom_site_type_symbol
_atom_site_label
_atom_site_fract_x
_atom_site_fract_y
_atom_site_fract_z
Si Si1 0.188725 0.128827 0.348955
Si Si2 0.020459 0.070442 0.294497
Si Si3 0.795192 0.569888 0.803729
Si Si4 0.150839 0.568411 0.568433
Si Si5 0.408389 0.884955 0.079999
Si Si6 0.137804 0.147226 0.735613
Si Si7 0.692718 0.774125 0.859073
O O1 0.112093 0.102555 0.240864
O O2 0.251925 0.072477 0.379522
O O3 0.146696 0.150372 0.530327
O O4 0.244270 0.185584 0.269638
O O5 0.000000 0.068956 0.500000
O O6 0.950092 0.112133 0.205610
O O7 0.019916 0.000000 0.224954
O O8 0.767457 0.500000 0.770846
O O9 0.853015 0.592503 0.630630
O O10 0.712260 0.611861 0.826648
O O11 0.843915 0.572662 0.979184
O O12 0.116980 0.500000 0.580950
O O13 0.092541 0.605102 0.712254
O O14 0.381785 0.815345 0.048664
O O15 0.500000 0.900528 0.000000
O O16 0.141366 0.218723 0.780733
O O17 0.750000 0.750000 0.000000
#
# Coordination Sequence:
#
# PCOD8093780 Si02
#       7
#     8   8   8   8   8   8   8
#     4   9  19  34  59  87 117 152 193 241 293 355
#     4   9  17  32  59  94 124 148 185 243 305 360
#     4  10  20  37  62  88 117 153 192 237 293 357
#     4   9  19  36  60  87 117 154 192 235 294 360
#     4  11  24  40  58  85 115 153 195 249 296 339
#     4  10  19  36  59  87 117 152 198 237 292 355
#     4  11  22  39  59  77 112 157 199 241 290 347
#
# _framework density 21.034026999999998
#
# number of rings (size 3 to 8) (size 9 to 14) (size 15 to 20)
#    0.000    2.143    1.429    1.714    0.000    6.286 
#    0.000    1.429    0.000    0.857    0.000    0.000 
#    0.000    0.000    0.000    0.000    0.000    0.000 
#
# Total GULP energy -346937.300664 kJ/mol
# GULP energy per Si atom -12390.617881 kJ/mol
# Density = 2.098615 g / cm^3
# Si number density = 21.034027 Si / 1000 Ang^3
#
#
#
# Elastic Constant Matrix: (Units=GPa)
#
#
# Indices 1 2 3 4 5 6 
#
# 1 81.0103 36.9532 1.4926 0.0000 3.8493 0.0000
# 2 36.9532 121.1712 9.6406 0.0000 4.5155 0.0000
# 3 1.4926 9.6406 43.2052 0.0000 -0.0672 0.0000
# 4 0.0000 0.0000 0.0000 23.5756 0.0000 6.9832
# 5 3.8493 4.5155 -0.0672 0.0000 20.3948 0.0000
# 6 0.0000 0.0000 0.0000 6.9832 0.0000 31.4683
#
#
#
# Elastic Compliance Matrix: (Units=1/GPa)
#
#
# Indices 1 2 3 4 5 6 
#
# 1 0.014411 -0.004367 0.000474 0.000000 -0.001751 0.000000
# 2 -0.004367 0.009797 -0.002037 0.000000 -0.001352 0.000000
# 3 0.000474 -0.002037 0.023584 0.000000 0.000439 0.000000
# 4 0.000000 0.000000 0.000000 0.045401 0.000000 -0.010075
# 5 -0.001751 -0.001352 0.000439 0.000000 0.049663 0.000000
# 6 0.000000 0.000000 0.000000 -0.010075 0.000000 0.034014
#
#
# Mechanical properties :
#
#
# Convention : Reuss Voigt Hill
#
# Bulk Modulus (GPa) = 27.83124 37.95106 32.89115
# Shear Modulus (GPa) = 24.91175 28.24109 26.57642
#
# Velocity S-wave (km/s) = 3.44518 3.66818 3.55843
# Velocity P-wave (km/s) = 5.39314 6.00188 5.70563
#
# Compressibility (1/GPa) = 0.03593084
#
# Stress axis : x y z
#
# Youngs Moduli (GPa) = 69.39277 102.07099 42.40118
#
# Poissons Ratio (x) = 0.44577 -0.02009
# Poissons Ratio (y) = 0.30305 0.08638
# Poissons Ratio (z) = -0.03289 0.20795
#
# Static dielectric constant tensor:
#      x y z
#    x 3.922820 0.000000 -0.141460 
#    y 0.000000 4.363150 0.000000 
#    z -0.141460 0.000000 4.037550 
# 
# 
# High freq. dielectric constant tensor:
#      x y z
#    x 1.811590 0.000000 -0.000280 
#    y 0.000000 1.823210 0.000000 
#    z -0.000280 0.000000 1.819640 
# 
# From -- ./inp_files/64073.got.cif
#   From: 2010.06.25/outbox.cif.g09.slc.cpg/sg12_33_cif.got.tgz:64073.got - 2010.06.28 00:19:55.
