data_PCOD8093945
_publ_section_title
;
Structure prediction by ZEFSAII (Michael W. Deem and Ramdas Pophale) SiO2 
 PCOD8093945
Probable space group: C 2/M
;
_chemical_formula_sum "Si O2"
_cell_formula_units_Z 64
_cell_length_a 19.939983
_cell_length_b 8.871010
_cell_length_c 19.120006
_cell_angle_alpha 90.000000
_cell_angle_beta 92.036968
_cell_angle_gamma 90.000000
_cell_volume 3379.958438
_symmetry_space_group_name_H-M "C 2/M"
_symmetry_group_IT_number 12
_symmetry_cell_setting 'monoclinic'
loop_
_space_group_symop_operation_xyz
x,y,z
-x,y,-z
-x,-y,-z
x,-y,z
1/2+x,1/2+y,z
1/2-x,1/2+y,-z
1/2-x,1/2-y,-z
1/2+x,1/2-y,z
loop_
_atom_site_type_symbol
_atom_site_label
_atom_site_fract_x
_atom_site_fract_y
_atom_site_fract_z
Si Si1 0.052614 0.320943 0.557439
Si Si2 0.978657 0.673832 0.289408
Si Si3 0.365708 0.322328 0.197036
Si Si4 0.296225 0.822078 0.443481
Si Si5 0.376973 0.826048 0.768199
Si Si6 0.254307 0.822442 0.287844
Si Si7 0.584156 0.178105 0.932206
Si Si8 0.932899 0.677636 0.914355
O O1 0.047794 0.500000 0.556762
O O2 0.127485 0.267919 0.540506
O O3 0.000000 0.251435 0.500000
O O4 0.033571 0.261609 0.633553
O O5 0.955445 0.500000 0.282465
O O6 0.056383 0.691866 0.274989
O O7 0.934892 0.769682 0.234315
O O8 0.360407 0.500000 0.198013
O O9 0.301755 0.256205 0.233684
O O10 0.364646 0.264265 0.116868
O O11 0.250000 0.750000 0.500000
O O12 0.273548 0.766740 0.366107
O O13 0.289915 0.000000 0.449410
O O14 0.321814 0.723289 0.729679
O O15 0.389660 0.762277 0.847271
O O16 0.353281 0.000000 0.768796
O O17 0.263644 0.000000 0.281407
O O18 0.508914 0.239229 0.914511
O O19 0.589834 0.000000 0.919343
O O20 0.602642 0.219467 0.013435
O O21 0.939813 0.500000 0.907119
#
# Coordination Sequence:
#
# PCOD8093945 Si02
#       8
#     8   8   8   8   8   8   8   8
#     4   9  18  34  58  86 111 142 186 231 274 332
#     4  10  19  36  61  84 114 151 189 234 285 340
#     4  12  23  36  57  86 115 149 195 243 282 331
#     4  10  22  39  60  83 113 148 188 231 280 343
#     4  10  20  35  59  90 116 146 191 241 283 334
#     4  11  24  42  59  79 115 159 194 231 283 344
#     4   9  16  32  58  84 112 150 188 228 288 347
#     4   8  15  30  56  86 114 146 188 233 280 342
#
# _framework density 18.935143
#
# number of rings (size 3 to 8) (size 9 to 14) (size 15 to 20)
#    0.000    2.125    2.500    2.250    1.750    1.500 
#    0.000    2.500    0.000    0.750    0.000    0.000 
#    0.000    0.000    0.000    0.000    0.000    0.000 
#
# Total GULP energy -396794.177548 kJ/mol
# GULP energy per Si atom -12399.818048 kJ/mol
# Density = 1.889205 g / cm^3
# Si number density = 18.935143 Si / 1000 Ang^3
#
#
#
# Elastic Constant Matrix: (Units=GPa)
#
#
# Indices 1 2 3 4 5 6 
#
# 1 105.2872 28.4656 60.8666 0.0000 -4.3001 0.0000
# 2 28.4656 54.7750 29.0977 0.0000 -9.2770 0.0000
# 3 60.8666 29.0977 138.3269 0.0000 -17.1209 0.0000
# 4 0.0000 0.0000 0.0000 21.8488 0.0000 -1.2431
# 5 -4.3001 -9.2770 -17.1209 0.0000 36.4054 0.0000
# 6 0.0000 0.0000 0.0000 -1.2431 0.0000 28.2199
#
#
#
# Elastic Compliance Matrix: (Units=1/GPa)
#
#
# Indices 1 2 3 4 5 6 
#
# 1 0.013755 -0.004669 -0.005326 0.000000 -0.002070 0.000000
# 2 -0.004669 0.022543 -0.002171 0.000000 0.004172 0.000000
# 3 -0.005326 -0.002171 0.010494 0.000000 0.003753 0.000000
# 4 0.000000 0.000000 0.000000 0.045884 0.000000 0.002021
# 5 -0.002070 0.004172 0.003753 0.000000 0.030052 0.000000
# 6 0.000000 0.000000 0.000000 0.002021 0.000000 0.035525
#
#
# Mechanical properties :
#
#
# Convention : Reuss Voigt Hill
#
# Bulk Modulus (GPa) = 44.52662 59.47210 51.99936
# Shear Modulus (GPa) = 26.30569 29.29208 27.79889
#
# Velocity S-wave (km/s) = 3.73131 3.93742 3.83575
# Velocity P-wave (km/s) = 6.49076 7.22133 6.86577
#
# Compressibility (1/GPa) = 0.02245847
#
# Stress axis : x y z
#
# Youngs Moduli (GPa) = 72.70144 44.35979 95.29076
#
# Poissons Ratio (x) = 0.20713 0.50756
# Poissons Ratio (y) = 0.33946 0.20688
# Poissons Ratio (z) = 0.38724 0.09631
#
# Static dielectric constant tensor:
#      x y z
#    x 3.438540 0.000000 0.066660 
#    y 0.000000 3.144620 0.000000 
#    z 0.066660 0.000000 3.904620 
# 
# 
# High freq. dielectric constant tensor:
#      x y z
#    x 1.728350 0.000000 -0.007130 
#    y 0.000000 1.700210 0.000000 
#    z -0.007130 0.000000 1.754270 
# 
# From -- ./inp_files/314065.got.cif
#   From: 2010.06.25/outbox.cif.g09.slc.cpg/sg12_158_cif.got.tgz:314065.got - 2010.06.28 00:19:55.
