data_PCOD8093329
_publ_section_title
;
Structure prediction by ZEFSAII (Michael W. Deem and Ramdas Pophale) SiO2 
 PCOD8093329
Probable space group: C 2/M
;
_chemical_formula_sum "Si O2"
_cell_formula_units_Z 64
_cell_length_a 15.411187
_cell_length_b 9.053760
_cell_length_c 23.751106
_cell_angle_alpha 90.000000
_cell_angle_beta 90.000000
_cell_angle_gamma 90.000000
_cell_volume 3313.972544
_symmetry_space_group_name_H-M "C 2/M"
_symmetry_group_IT_number 12
_symmetry_cell_setting 'monoclinic'
loop_
_space_group_symop_operation_xyz
x,y,z
-x,y,-z
-x,-y,-z
x,-y,z
1/2+x,1/2+y,z
1/2-x,1/2+y,-z
1/2-x,1/2-y,-z
1/2+x,1/2-y,z
loop_
_atom_site_type_symbol
_atom_site_label
_atom_site_fract_x
_atom_site_fract_y
_atom_site_fract_z
Si Si1 0.911747 0.673797 0.365855
Si Si2 0.351613 0.671385 0.757547
Si Si3 0.413531 0.825373 0.866826
Si Si4 0.351613 0.828615 0.242453
Si Si5 0.088254 0.826203 0.365855
Si Si6 0.750000 0.673872 0.940259
Si Si7 0.750000 0.675024 0.440012
Si Si8 0.413531 0.325373 0.133174
O O1 0.923424 0.500000 0.370484
O O2 0.889468 0.720547 0.302306
O O3 0.834691 0.728581 0.406188
O O4 0.000000 0.750000 0.386084
O O5 0.370676 0.500000 0.770314
O O6 0.398706 0.771471 0.803420
O O7 0.250000 0.704230 0.758076
O O8 0.389468 0.720547 0.697694
O O9 0.334182 0.773946 0.905867
O O10 0.500000 0.750000 0.891652
O O11 0.424836 0.000000 0.866708
O O12 0.398706 0.728529 0.196580
O O13 0.370676 0.000000 0.229686
O O14 0.165309 0.771419 0.406188
O O15 0.076576 0.000000 0.370484
O O16 0.750000 0.500000 0.949270
O O17 0.665818 0.726054 0.905867
O O18 0.750000 0.750000 0.000000
O O19 0.750000 0.500000 0.446918
O O20 0.750000 0.750000 0.500000
O O21 0.424836 0.500000 0.133292
#
# Coordination Sequence:
#
# PCOD8093329 Si02
#       8
#     8   8   8   8   8   8   8   8
#     4  10  21  38  59  85 117 151 189 235 285 341
#     4  10  19  35  61  89 118 155 191 231 289 349
#     4  11  23  40  60  89 122 154 192 239 289 344
#     4  10  19  35  61  89 118 155 191 231 289 349
#     4  10  21  38  59  85 117 151 189 235 285 341
#     4  10  24  43  62  84 116 153 197 244 289 338
#     4  10  22  41  60  80 112 151 193 240 287 338
#     4  11  23  40  60  89 122 154 192 239 289 344
#
# _framework density 19.312169999999998
#
# number of rings (size 3 to 8) (size 9 to 14) (size 15 to 20)
#    0.000    1.750    2.500    1.500    0.000    7.000 
#    0.000    5.000    0.000    0.000    0.000    0.000 
#    0.000    0.000    0.000    0.000    0.000    0.000 
#
# Total GULP energy -396959.136496 kJ/mol
# GULP energy per Si atom -12404.973015 kJ/mol
# Density = 1.926822 g / cm^3
# Si number density = 19.312170 Si / 1000 Ang^3
#
#
#
# Elastic Constant Matrix: (Units=GPa)
#
#
# Indices 1 2 3 4 5 6 
#
# 1 183.0092 55.7940 82.7052 0.0000 -0.0001 0.0000
# 2 55.7940 51.8853 47.4490 0.0000 0.0000 0.0000
# 3 82.7052 47.4490 146.6707 0.0000 -0.0001 0.0000
# 4 0.0000 0.0000 0.0000 36.7770 0.0000 0.0000
# 5 -0.0001 0.0000 -0.0001 0.0000 11.2315 0.0000
# 6 0.0000 0.0000 0.0000 0.0000 0.0000 35.5596
#
#
#
# Elastic Compliance Matrix: (Units=1/GPa)
#
#
# Indices 1 2 3 4 5 6 
#
# 1 0.008827 -0.007015 -0.002708 0.000000 0.000000 0.000000
# 2 -0.007015 0.032947 -0.006703 0.000000 0.000000 0.000000
# 3 -0.002708 -0.006703 0.010513 0.000000 0.000000 0.000000
# 4 0.000000 0.000000 0.000000 0.027191 0.000000 0.000000
# 5 0.000000 0.000000 0.000000 0.000000 0.089035 0.000000
# 6 0.000000 0.000000 0.000000 0.000000 0.000000 0.028122
#
#
# Mechanical properties :
#
#
# Convention : Reuss Voigt Hill
#
# Bulk Modulus (GPa) = 51.45331 83.71795 67.58563
# Shear Modulus (GPa) = 21.18968 29.75476 25.47222
#
# Velocity S-wave (km/s) = 3.31602 3.92947 3.63571
# Velocity P-wave (km/s) = 6.43134 8.00197 7.25926
#
# Compressibility (1/GPa) = 0.01943510
#
# Stress axis : x y z
#
# Youngs Moduli (GPa) = 113.29334 30.35206 95.11908
#
# Poissons Ratio (x) = 0.21293 0.25755
# Poissons Ratio (y) = 0.79480 0.63754
# Poissons Ratio (z) = 0.30676 0.20344
#
# Static dielectric constant tensor:
#      x y z
#    x 3.884390 0.000000 0.000000 
#    y 0.000000 3.021830 0.000000 
#    z 0.000000 0.000000 3.482640 
# 
# 
# High freq. dielectric constant tensor:
#      x y z
#    x 1.772560 0.000000 0.000000 
#    y 0.000000 1.742600 0.000000 
#    z 0.000000 0.000000 1.749050 
# 
# From -- ./inp_files/338669.got.cif
#   From: 2010.06.25/outbox.cif.g09.slc.cpg/sg12_170_cif.got.tgz:338669.got - 2010.06.28 00:19:55.
