data_PCOD8093828
_publ_section_title
;
Structure prediction by ZEFSAII (Michael W. Deem and Ramdas Pophale) SiO2 
 PCOD8093828
Probable space group: C 2/M
;
_chemical_formula_sum "Si O2"
_cell_formula_units_Z 48
_cell_length_a 20.448583
_cell_length_b 8.811583
_cell_length_c 21.084219
_cell_angle_alpha 90.000000
_cell_angle_beta 41.191218
_cell_angle_gamma 90.000000
_cell_volume 2501.954099
_symmetry_space_group_name_H-M "C 2/M"
_symmetry_group_IT_number 12
_symmetry_cell_setting 'monoclinic'
loop_
_space_group_symop_operation_xyz
x,y,z
-x,y,-z
-x,-y,-z
x,-y,z
1/2+x,1/2+y,z
1/2-x,1/2+y,-z
1/2-x,1/2-y,-z
1/2+x,1/2-y,z
loop_
_atom_site_type_symbol
_atom_site_label
_atom_site_fract_x
_atom_site_fract_y
_atom_site_fract_z
Si Si1 0.856233 0.322546 0.106938
Si Si2 0.210160 0.179253 0.407154
Si Si3 0.433544 0.822078 0.264708
Si Si4 0.958326 0.323515 0.390533
Si Si5 0.989937 0.820206 0.911668
Si Si6 0.353217 0.676092 0.685583
O O1 0.882283 0.500000 0.090263
O O2 0.913389 0.242307 0.122852
O O3 0.739257 0.295086 0.200183
O O4 0.890544 0.250441 0.015330
O O5 0.321294 0.238345 0.338435
O O6 0.139984 0.242835 0.512827
O O7 0.173764 0.234493 0.364864
O O8 0.208130 0.000000 0.412682
O O9 0.472000 0.783880 0.306769
O O10 0.505178 0.730887 0.164859
O O11 0.440118 0.000000 0.244203
O O12 0.942442 0.500000 0.412692
O O13 0.054624 0.271959 0.358043
O O14 0.985354 0.000000 0.920855
O O15 0.383504 0.500000 0.662256
#
# Coordination Sequence:
#
# PCOD8093828 Si02
#       6
#     8   8   8   8   8   8
#     4  10  19  36  60  83 112 151 189 225 275 339
#     4  10  20  38  61  81 107 149 199 235 269 334
#     4  10  21  40  59  80 113 154 193 226 278 341
#     4  11  24  37  55  84 118 150 184 236 288 332
#     4  11  21  33  56  90 117 140 181 239 287 324
#     4  10  21  38  60  83 110 152 193 227 273 335
#
# _framework density 19.185003999999999
#
# number of rings (size 3 to 8) (size 9 to 14) (size 15 to 20)
#    0.000    1.667    1.667    4.500    0.000    6.000 
#    0.000    0.833    0.000    0.000    0.000    0.000 
#    0.000    0.000    0.000    0.000    0.000    0.000 
#
# Total GULP energy -297695.911049 kJ/mol
# GULP energy per Si atom -12403.996294 kJ/mol
# Density = 1.914134 g / cm^3
# Si number density = 19.185004 Si / 1000 Ang^3
#
#
#
# Elastic Constant Matrix: (Units=GPa)
#
#
# Indices 1 2 3 4 5 6 
#
# 1 54.6464 20.3006 -1.1338 0.0002 10.9922 -0.0003
# 2 20.3006 57.2075 33.9090 0.0002 10.8913 -0.0004
# 3 -1.1338 33.9090 84.5485 0.0001 14.7293 -0.0002
# 4 0.0002 0.0002 0.0001 21.3108 0.0000 14.4238
# 5 10.9922 10.8913 14.7293 0.0000 23.8921 0.0001
# 6 -0.0003 -0.0004 -0.0002 14.4238 0.0001 16.1046
#
#
#
# Elastic Compliance Matrix: (Units=1/GPa)
#
#
# Indices 1 2 3 4 5 6 
#
# 1 0.024386 -0.010423 0.006312 -0.000001 -0.010359 0.000001
# 2 -0.010423 0.028016 -0.011188 -0.000001 -0.001079 0.000001
# 3 0.006312 -0.011188 0.017944 0.000000 -0.008866 0.000000
# 4 -0.000001 -0.000001 0.000000 0.119155 0.000002 -0.106718
# 5 -0.010359 -0.001079 -0.008866 0.000002 0.052578 -0.000002
# 6 0.000001 0.000001 0.000000 -0.106718 -0.000002 0.157674
#
#
# Mechanical properties :
#
#
# Convention : Reuss Voigt Hill
#
# Bulk Modulus (GPa) = 25.15831 33.61710 29.38770
# Shear Modulus (GPa) = 11.27145 21.81663 16.54404
#
# Velocity S-wave (km/s) = 2.42650 3.37585 2.93975
# Velocity P-wave (km/s) = 4.58176 5.72327 5.18403
#
# Compressibility (1/GPa) = 0.03974830
#
# Stress axis : x y z
#
# Youngs Moduli (GPa) = 41.00692 35.69451 55.72986
#
# Poissons Ratio (x) = 0.37203 -0.35176
# Poissons Ratio (y) = 0.42740 0.62349
# Poissons Ratio (z) = -0.25883 0.39934
#
# Static dielectric constant tensor:
#      x y z
#    x 3.385040 0.000000 0.101120 
#    y 0.000000 3.444870 0.000000 
#    z 0.101120 0.000000 3.723090 
# 
# 
# High freq. dielectric constant tensor:
#      x y z
#    x 1.729720 0.000000 0.007280 
#    y 0.000000 1.745170 0.000000 
#    z 0.007280 0.000000 1.762140 
# 
# From -- ./inp_files/249362.got.cif
#   From: 2010.06.25/outbox.cif.g09.slc.cpg/sg12_125_cif.got.tgz:249362.got - 2010.06.28 00:19:55.
