data_PCOD8093720
_publ_section_title
;
Structure prediction by ZEFSAII (Michael W. Deem and Ramdas Pophale) SiO2 
 PCOD8093720
Probable space group: C 2/M
;
_chemical_formula_sum "Si O2"
_cell_formula_units_Z 48
_cell_length_a 18.548192
_cell_length_b 15.170006
_cell_length_c 8.842199
_cell_angle_alpha 90.000000
_cell_angle_beta 96.047142
_cell_angle_gamma 90.000000
_cell_volume 2474.139960
_symmetry_space_group_name_H-M "C 2/M"
_symmetry_group_IT_number 12
_symmetry_cell_setting 'monoclinic'
loop_
_space_group_symop_operation_xyz
x,y,z
-x,y,-z
-x,-y,-z
x,-y,z
1/2+x,1/2+y,z
1/2-x,1/2+y,-z
1/2-x,1/2-y,-z
1/2+x,1/2-y,z
loop_
_atom_site_type_symbol
_atom_site_label
_atom_site_fract_x
_atom_site_fract_y
_atom_site_fract_z
Si Si1 0.059116 0.754890 0.300066
Si Si2 0.308282 0.397356 0.149112
Si Si3 0.099667 0.764375 0.653437
Si Si4 0.836280 0.401500 0.726216
Si Si5 0.224763 0.662021 0.580742
Si Si6 0.851220 0.898516 0.822191
O O1 0.083967 0.780682 0.473577
O O2 0.097121 0.666113 0.248250
O O3 0.079637 0.837181 0.197682
O O4 0.973190 0.737662 0.273700
O O5 0.317257 0.500000 0.182196
O O6 0.368207 0.352887 0.268475
O O7 0.226798 0.367455 0.174831
O O8 0.320422 0.371912 0.978315
O O9 0.158969 0.686154 0.681146
O O10 0.863062 0.500000 0.775379
O O11 0.804044 0.406416 0.549713
O O12 0.250000 0.750000 0.500000
O O13 0.289014 0.617461 0.685883
O O14 0.876412 0.000000 0.822966
#
# Coordination Sequence:
#
# PCOD8093720 Si02
#       6
#     8   8   8   8   8   8
#     4  10  21  37  55  81 113 146 185 225 275 329
#     4  10  21  35  55  83 110 143 187 229 273 326
#     4  10  20  36  55  79 111 145 182 227 271 329
#     4  10  19  36  59  82 109 143 184 230 274 323
#     4  11  18  36  58  83 105 140 185 226 272 322
#     4  11  22  36  56  83 115 145 181 228 274 324
#
# _framework density 19.400682
#
# number of rings (size 3 to 8) (size 9 to 14) (size 15 to 20)
#    0.000    1.667    5.000    0.500    0.000    6.000 
#    0.000   10.833    0.000    0.000    0.000    5.833 
#    0.000    0.000    0.000    0.000    0.000    0.000 
#
# Total GULP energy -297596.895193 kJ/mol
# GULP energy per Si atom -12399.870633 kJ/mol
# Density = 1.935653 g / cm^3
# Si number density = 19.400682 Si / 1000 Ang^3
#
#
#
# Elastic Constant Matrix: (Units=GPa)
#
#
# Indices 1 2 3 4 5 6 
#
# 1 135.1204 56.2814 27.0695 0.0000 -37.4707 0.0000
# 2 56.2814 92.6497 32.0681 0.0000 -18.9409 0.0000
# 3 27.0695 32.0681 52.8920 0.0000 -23.0100 0.0000
# 4 0.0000 0.0000 0.0000 27.4873 0.0000 -6.8946
# 5 -37.4707 -18.9409 -23.0100 0.0000 26.9535 0.0000
# 6 0.0000 0.0000 0.0000 -6.8946 0.0000 20.2875
#
#
#
# Elastic Compliance Matrix: (Units=1/GPa)
#
#
# Indices 1 2 3 4 5 6 
#
# 1 0.014759 -0.006646 0.005361 0.000000 0.020424 0.000000
# 2 -0.006646 0.016932 -0.009080 0.000000 -0.005091 0.000000
# 3 0.005361 -0.009080 0.035211 0.000000 0.031132 0.000000
# 4 0.000000 0.000000 0.000000 0.039770 0.000000 0.013516
# 5 0.020424 -0.005091 0.031132 0.000000 0.088495 0.000000
# 6 0.000000 0.000000 0.000000 0.013516 0.000000 0.053885
#
#
# Mechanical properties :
#
#
# Convention : Reuss Voigt Hill
#
# Bulk Modulus (GPa) = 21.65709 56.83335 39.24522
# Shear Modulus (GPa) = 17.53332 25.96188 21.74760
#
# Velocity S-wave (km/s) = 3.00950 3.66210 3.35172
# Velocity P-wave (km/s) = 4.82322 6.87309 5.93729
#
# Compressibility (1/GPa) = 0.04617426
#
# Stress axis : x y z
#
# Youngs Moduli (GPa) = 67.75611 59.05936 28.39996
#
# Poissons Ratio (x) = 0.39249 -0.15226
# Poissons Ratio (y) = 0.45028 0.25786
# Poissons Ratio (z) = -0.36326 0.53624
#
# Static dielectric constant tensor:
#      x y z
#    x 3.850210 0.000000 -0.293200 
#    y 0.000000 3.482810 0.000000 
#    z -0.293200 0.000000 3.589050 
# 
# 
# High freq. dielectric constant tensor:
#      x y z
#    x 1.754680 0.000000 -0.018250 
#    y 0.000000 1.748630 0.000000 
#    z -0.018250 0.000000 1.746880 
# 
# From -- ./inp_files/73627.got.cif
#   From: 2010.06.25/outbox.cif.g09.slc.cpg/sg12_37_cif.got.tgz:73627.got - 2010.06.28 00:19:55.
