data_PCOD8093104
_publ_section_title
;
Structure prediction by ZEFSAII (Michael W. Deem and Ramdas Pophale) SiO2 
 PCOD8093104
Probable space group: C 2/M
;
_chemical_formula_sum "Si O2"
_cell_formula_units_Z 56
_cell_length_a 22.161313
_cell_length_b 9.135905
_cell_length_c 13.787320
_cell_angle_alpha 90.000000
_cell_angle_beta 98.597271
_cell_angle_gamma 90.000000
_cell_volume 2760.065225
_symmetry_space_group_name_H-M "C 2/M"
_symmetry_group_IT_number 12
_symmetry_cell_setting 'monoclinic'
loop_
_space_group_symop_operation_xyz
x,y,z
-x,y,-z
-x,-y,-z
x,-y,z
1/2+x,1/2+y,z
1/2-x,1/2+y,-z
1/2-x,1/2-y,-z
1/2+x,1/2-y,z
loop_
_atom_site_type_symbol
_atom_site_label
_atom_site_fract_x
_atom_site_fract_y
_atom_site_fract_z
Si Si1 0.031079 0.328915 0.604884
Si Si2 0.548472 0.335826 0.272526
Si Si3 0.149378 0.837073 0.611326
Si Si4 0.199234 0.826379 0.055235
Si Si5 0.674137 0.337115 0.403069
Si Si6 0.936023 0.826666 0.940677
Si Si7 0.232819 0.335489 0.252794
O O1 0.021314 0.500000 0.608307
O O2 0.101644 0.289706 0.619388
O O3 0.000000 0.264812 0.500000
O O4 0.005144 0.261744 0.697376
O O5 0.523125 0.500000 0.252819
O O6 0.602632 0.331468 0.362423
O O7 0.568821 0.273741 0.172228
O O8 0.183917 0.801043 0.518662
O O9 0.194638 0.834639 0.713826
O O10 0.119567 0.000000 0.595976
O O11 0.127612 0.778191 0.019603
O O12 0.214319 0.782039 0.168403
O O13 0.206305 0.000000 0.044403
O O14 0.250000 0.750000 0.000000
O O15 0.699697 0.500000 0.384061
O O16 0.705474 0.210953 0.349081
O O17 0.938256 0.000000 0.947039
O O18 0.000000 0.762247 0.000000
O O19 0.210790 0.500000 0.219859
#
# Coordination Sequence:
#
# PCOD8093104 Si02
#       7
#     8   8   8   8   8   8   8
#     4  11  23  36  53  83 119 155 195 246 303 352
#     4  10  19  35  61  86 111 153 197 236 290 356
#     4  10  22  38  57  83 118 161 205 244 290 359
#     4  11  23  42  66  93 124 159 202 254 314 372
#     4  10  19  35  59  86 115 152 199 244 292 351
#     4   9  19  38  64  91 116 149 198 249 297 361
#     4  11  23  38  59  88 119 156 200 246 300 360
#
# _framework density 20.289377000000002
#
# number of rings (size 3 to 8) (size 9 to 14) (size 15 to 20)
#    0.000    1.714    2.857    1.714    0.000    4.000 
#    0.000    2.857    0.000    3.000    0.000    0.000 
#    0.000    0.000    0.000    0.000    0.000    0.000 
#
# Total GULP energy -347054.264273 kJ/mol
# GULP energy per Si atom -12394.795153 kJ/mol
# Density = 2.024320 g / cm^3
# Si number density = 20.289377 Si / 1000 Ang^3
#
#
#
# Elastic Constant Matrix: (Units=GPa)
#
#
# Indices 1 2 3 4 5 6 
#
# 1 120.7881 40.7001 45.4735 0.0000 -9.9984 0.0000
# 2 40.7001 66.9186 23.1516 0.0000 -10.3029 0.0000
# 3 45.4735 23.1516 72.3310 0.0000 -4.0023 0.0000
# 4 0.0000 0.0000 0.0000 28.4153 0.0000 -5.5910
# 5 -9.9984 -10.3029 -4.0023 0.0000 35.1824 0.0000
# 6 0.0000 0.0000 0.0000 -5.5910 0.0000 29.6069
#
#
#
# Elastic Compliance Matrix: (Units=1/GPa)
#
#
# Indices 1 2 3 4 5 6 
#
# 1 0.012446 -0.005271 -0.006066 0.000000 0.001304 0.000000
# 2 -0.005271 0.019721 -0.002779 0.000000 0.003961 0.000000
# 3 -0.006066 -0.002779 0.018504 0.000000 -0.000433 0.000000
# 4 0.000000 0.000000 0.000000 0.036550 0.000000 0.006902
# 5 0.001304 0.003961 -0.000433 0.000000 0.029904 0.000000
# 6 0.000000 0.000000 0.000000 0.006902 0.000000 0.035079
#
#
# Mechanical properties :
#
#
# Convention : Reuss Voigt Hill
#
# Bulk Modulus (GPa) = 44.56350 53.18758 48.87554
# Shear Modulus (GPa) = 26.60745 28.68841 27.64793
#
# Velocity S-wave (km/s) = 3.62525 3.76435 3.69545
# Velocity P-wave (km/s) = 6.28768 6.72050 6.50769
#
# Compressibility (1/GPa) = 0.02243989
#
# Stress axis : x y z
#
# Youngs Moduli (GPa) = 80.34412 50.70844 54.04110
#
# Poissons Ratio (x) = 0.26727 0.32780
# Poissons Ratio (y) = 0.42347 0.15020
# Poissons Ratio (z) = 0.48735 0.14094
#
# Static dielectric constant tensor:
#      x y z
#    x 3.777320 0.000000 0.081000 
#    y 0.000000 3.500370 0.000000 
#    z 0.081000 0.000000 3.700810 
# 
# 
# High freq. dielectric constant tensor:
#      x y z
#    x 1.794120 0.000000 0.000730 
#    y 0.000000 1.774910 0.000000 
#    z 0.000730 0.000000 1.786560 
# 
# From -- ./inp_files/231031.got.cif
#   From: 2010.06.25/outbox.cif.g09.slc.cpg/sg12_116_cif.got.tgz:231031.got - 2010.06.28 00:19:55.
