data_PCOD8093257
_publ_section_title
;
Structure prediction by ZEFSAII (Michael W. Deem and Ramdas Pophale) SiO2 
 PCOD8093257
Probable space group: C 2/M
;
_chemical_formula_sum "Si O2"
_cell_formula_units_Z 56
_cell_length_a 23.600890
_cell_length_b 13.093447
_cell_length_c 9.296578
_cell_angle_alpha 90.000000
_cell_angle_beta 96.984227
_cell_angle_gamma 90.000000
_cell_volume 2851.483518
_symmetry_space_group_name_H-M "C 2/M"
_symmetry_group_IT_number 12
_symmetry_cell_setting 'monoclinic'
loop_
_space_group_symop_operation_xyz
x,y,z
-x,y,-z
-x,-y,-z
x,-y,z
1/2+x,1/2+y,z
1/2-x,1/2+y,-z
1/2-x,1/2-y,-z
1/2+x,1/2-y,z
loop_
_atom_site_type_symbol
_atom_site_label
_atom_site_fract_x
_atom_site_fract_y
_atom_site_fract_z
Si Si1 0.153354 0.618316 0.139003
Si Si2 0.749553 0.278972 0.663960
Si Si3 0.362119 0.383326 0.351449
Si Si4 0.766938 0.619180 0.102579
Si Si5 0.444461 0.733699 0.885251
Si Si6 0.549964 0.382656 0.400794
Si Si7 0.144012 0.120386 0.959011
O O1 0.154384 0.500000 0.180649
O O2 0.188882 0.682413 0.266832
O O3 0.087933 0.657228 0.126821
O O4 0.179576 0.637136 0.987941
O O5 0.750000 0.250000 0.500000
O O6 0.705843 0.373249 0.660117
O O7 0.725704 0.182905 0.748626
O O8 0.381200 0.500000 0.359579
O O9 0.394575 0.335596 0.498953
O O10 0.379586 0.336203 0.200967
O O11 0.762055 0.500000 0.143040
O O12 0.708918 0.659196 0.006617
O O13 0.463360 0.692318 0.735601
O O14 0.500000 0.743897 0.000000
O O15 0.398595 0.652663 0.929487
O O16 0.500000 0.376577 0.500000
O O17 0.558145 0.500000 0.348967
O O18 0.146472 0.000000 0.952391
#
# Coordination Sequence:
#
# PCOD8093257 Si02
#       7
#     8   8   8   8   8   8   8
#     4  11  23  42  63  86 119 161 205 252 297 349
#     4  12  22  35  57  87 123 156 193 239 300 355
#     4  10  20  34  55  82 114 154 192 233 292 353
#     4  10  21  38  61  88 121 157 197 244 301 359
#     4  12  24  38  60  88 116 155 205 253 295 354
#     4  10  22  40  58  84 123 159 196 243 301 366
#     4  10  19  35  60  89 119 150 191 245 300 358
#
# _framework density 19.638901000000001
#
# number of rings (size 3 to 8) (size 9 to 14) (size 15 to 20)
#    0.000    1.286    2.857    3.857    0.000    3.714 
#    0.000    0.000    0.000    0.429    0.000    0.000 
#    0.000    0.000    0.000    0.000    0.000    0.000 
#
# Total GULP energy -347101.653953 kJ/mol
# GULP energy per Si atom -12396.487641 kJ/mol
# Density = 1.959420 g / cm^3
# Si number density = 19.638901 Si / 1000 Ang^3
#
#
#
# Elastic Constant Matrix: (Units=GPa)
#
#
# Indices 1 2 3 4 5 6 
#
# 1 90.0144 26.4093 27.1249 0.0000 8.9900 0.0000
# 2 26.4093 73.0003 53.4756 0.0000 1.7068 0.0000
# 3 27.1249 53.4756 131.9601 0.0000 4.5214 0.0000
# 4 0.0000 0.0000 0.0000 21.7793 0.0000 -0.7632
# 5 8.9900 1.7068 4.5214 0.0000 30.7563 0.0000
# 6 0.0000 0.0000 0.0000 -0.7632 0.0000 26.3037
#
#
#
# Elastic Compliance Matrix: (Units=1/GPa)
#
#
# Indices 1 2 3 4 5 6 
#
# 1 0.012876 -0.003876 -0.000959 0.000000 -0.003407 0.000000
# 2 -0.003876 0.020649 -0.007609 0.000000 0.001105 0.000000
# 3 -0.000959 -0.007609 0.010889 0.000000 -0.000898 0.000000
# 4 0.000000 0.000000 0.000000 0.045962 0.000000 0.001334
# 5 -0.003407 0.001105 -0.000898 0.000000 0.033580 0.000000
# 6 0.000000 0.000000 0.000000 0.001334 0.000000 0.038056
#
#
# Mechanical properties :
#
#
# Convention : Reuss Voigt Hill
#
# Bulk Modulus (GPa) = 51.21346 56.55494 53.88420
# Shear Modulus (GPa) = 25.85197 28.29885 27.07541
#
# Velocity S-wave (km/s) = 3.63211 3.80011 3.71706
# Velocity P-wave (km/s) = 6.61240 6.93646 6.77636
#
# Compressibility (1/GPa) = 0.01952611
#
# Stress axis : x y z
#
# Youngs Moduli (GPa) = 77.66495 48.42937 91.83199
#
# Poissons Ratio (x) = 0.18770 0.08810
# Poissons Ratio (y) = 0.30100 0.69874
# Poissons Ratio (z) = 0.07451 0.36849
#
# Static dielectric constant tensor:
#      x y z
#    x 3.782850 0.000000 -0.028140 
#    y 0.000000 3.576330 0.000000 
#    z -0.028140 0.000000 3.909620 
# 
# 
# High freq. dielectric constant tensor:
#      x y z
#    x 1.757800 0.000000 0.004280 
#    y 0.000000 1.751570 0.000000 
#    z 0.004280 0.000000 1.773260 
# 
# From -- ./inp_files/86362.got.cif
#   From: 2010.06.25/outbox.cif.g09.slc.cpg/sg12_44_cif.got.tgz:86362.got - 2010.06.28 00:19:55.
