data_PCOD8093483
_publ_section_title
;
Structure prediction by ZEFSAII (Michael W. Deem and Ramdas Pophale) SiO2 
 PCOD8093483
Probable space group: C 2/M
;
_chemical_formula_sum "Si O2"
_cell_formula_units_Z 56
_cell_length_a 27.915918
_cell_length_b 13.294242
_cell_length_c 8.986482
_cell_angle_alpha 90.000000
_cell_angle_beta 116.293521
_cell_angle_gamma 90.000000
_cell_volume 2990.013790
_symmetry_space_group_name_H-M "C 2/M"
_symmetry_group_IT_number 12
_symmetry_cell_setting 'monoclinic'
loop_
_space_group_symop_operation_xyz
x,y,z
-x,y,-z
-x,-y,-z
x,-y,z
1/2+x,1/2+y,z
1/2-x,1/2+y,-z
1/2-x,1/2-y,-z
1/2+x,1/2-y,z
loop_
_atom_site_type_symbol
_atom_site_label
_atom_site_fract_x
_atom_site_fract_y
_atom_site_fract_z
Si Si1 0.332943 0.263231 0.728118
Si Si2 0.417375 0.773151 0.604625
Si Si3 0.984080 0.615014 0.149117
Si Si4 0.161127 0.384590 0.694608
Si Si5 0.616429 0.234676 0.896348
Si Si6 0.237163 0.385214 0.539635
Si Si7 0.063129 0.884840 0.606116
O O1 0.389129 0.251313 0.721532
O O2 0.300494 0.362344 0.631156
O O3 0.292751 0.171655 0.635902
O O4 0.345775 0.272539 0.919506
O O5 0.477922 0.809281 0.708293
O O6 0.389602 0.865708 0.481651
O O7 0.412582 0.671215 0.503161
O O8 0.989953 0.500000 0.212735
O O9 0.923803 0.650058 0.096358
O O10 0.000000 0.622557 0.000000
O O11 0.162086 0.500000 0.746798
O O12 0.156821 0.314254 0.832866
O O13 0.213241 0.355529 0.669101
O O14 0.583358 0.328604 0.783091
O O15 0.227045 0.500000 0.489262
O O16 0.000000 0.880551 0.500000
O O17 0.083428 0.000000 0.639092
#
# Coordination Sequence:
#
# PCOD8093483 Si02
#       7
#     8   8   8   8   8   8   8
#     4  10  21  36  59  83 109 142 183 234 285 328
#     4  10  19  36  55  78 113 149 189 227 271 329
#     4  11  21  32  52  85 120 149 179 222 278 339
#     4   9  19  34  54  80 110 145 182 225 282 339
#     4  11  21  35  56  85 117 146 187 231 277 329
#     4   9  20  39  58  78 107 144 184 232 286 338
#     4  10  21  37  55  75 109 156 195 228 265 313
#
# _framework density 18.729009999999999
#
# number of rings (size 3 to 8) (size 9 to 14) (size 15 to 20)
#    0.000    2.000    2.857    0.857    0.000    3.429 
#    0.000    2.143    0.000    2.571    0.000    0.000 
#    0.000    0.000    0.000    0.000    0.000    0.000 
#
# Total GULP energy -347153.385932 kJ/mol
# GULP energy per Si atom -12398.335212 kJ/mol
# Density = 1.868638 g / cm^3
# Si number density = 18.729010 Si / 1000 Ang^3
#
#
#
# Elastic Constant Matrix: (Units=GPa)
#
#
# Indices 1 2 3 4 5 6 
#
# 1 36.9702 21.6610 19.3092 0.0000 8.8212 0.0000
# 2 21.6610 104.7941 42.9417 0.0000 -1.8789 0.0000
# 3 19.3092 42.9417 111.9404 0.0000 -0.8613 0.0000
# 4 0.0000 0.0000 0.0000 14.7943 0.0000 -3.4660
# 5 8.8212 -1.8789 -0.8613 0.0000 25.1258 0.0000
# 6 0.0000 0.0000 0.0000 -3.4660 0.0000 22.6414
#
#
#
# Elastic Compliance Matrix: (Units=1/GPa)
#
#
# Indices 1 2 3 4 5 6 
#
# 1 0.035776 -0.006004 -0.003969 0.000000 -0.013146 0.000000
# 2 -0.006004 0.012342 -0.003677 0.000000 0.002905 0.000000
# 3 -0.003969 -0.003677 0.011040 0.000000 0.001497 0.000000
# 4 0.000000 0.000000 0.000000 0.070108 0.000000 0.010732
# 5 -0.013146 0.002905 0.001497 0.000000 0.044684 0.000000
# 6 0.000000 0.000000 0.000000 0.010732 0.000000 0.045810
#
#
# Mechanical properties :
#
#
# Convention : Reuss Voigt Hill
#
# Bulk Modulus (GPa) = 31.38872 46.83651 39.11261
# Shear Modulus (GPa) = 19.40397 23.83181 21.61789
#
# Velocity S-wave (km/s) = 3.22225 3.57102 3.40111
# Velocity P-wave (km/s) = 5.53531 6.48573 6.02927
#
# Compressibility (1/GPa) = 0.03185858
#
# Stress axis : x y z
#
# Youngs Moduli (GPa) = 27.95143 81.02250 90.58073
#
# Poissons Ratio (x) = 0.48648 0.35952
# Poissons Ratio (y) = 0.16783 0.33303
# Poissons Ratio (z) = 0.11094 0.29789
#
# Static dielectric constant tensor:
#      x y z
#    x 3.545490 0.000000 -0.064350 
#    y 0.000000 3.397070 0.000000 
#    z -0.064350 0.000000 3.286410 
# 
# 
# High freq. dielectric constant tensor:
#      x y z
#    x 1.727310 0.000000 -0.003520 
#    y 0.000000 1.721490 0.000000 
#    z -0.003520 0.000000 1.720090 
# 
# From -- ./inp_files/104699.got.cif
#   From: 2010.06.25/outbox.cif.g09.slc.cpg/sg12_53_cif.got.tgz:104699.got - 2010.06.28 00:19:55.
