data_PCOD8093452
_publ_section_title
;
Structure prediction by ZEFSAII (Michael W. Deem and Ramdas Pophale) SiO2 
 PCOD8093452
Probable space group: C 2/M
;
_chemical_formula_sum "Si O2"
_cell_formula_units_Z 52
_cell_length_a 9.078300
_cell_length_b 22.174396
_cell_length_c 18.316704
_cell_angle_alpha 90.000000
_cell_angle_beta 130.881723
_cell_angle_gamma 90.000000
_cell_volume 2787.797558
_symmetry_space_group_name_H-M "C 2/M"
_symmetry_group_IT_number 12
_symmetry_cell_setting 'monoclinic'
loop_
_space_group_symop_operation_xyz
x,y,z
-x,y,-z
-x,-y,-z
x,-y,z
1/2+x,1/2+y,z
1/2-x,1/2+y,-z
1/2-x,1/2-y,-z
1/2+x,1/2-y,z
loop_
_atom_site_type_symbol
_atom_site_label
_atom_site_fract_x
_atom_site_fract_y
_atom_site_fract_z
Si Si1 0.401063 0.433568 0.614199
Si Si2 0.124774 0.684340 0.112144
Si Si3 0.408189 0.854272 0.673968
Si Si4 0.362738 0.161404 0.391703
Si Si5 0.847577 0.568210 0.788345
Si Si6 0.529176 0.259207 0.219670
Si Si7 0.000000 0.875679 0.500000
O O1 0.313076 0.500000 0.593406
O O2 0.265660 0.390643 0.616218
O O3 0.616023 0.430491 0.716795
O O4 0.403273 0.417454 0.529832
O O5 0.081861 0.617046 0.128885
O O6 0.352961 0.693105 0.166961
O O7 0.058641 0.735951 0.147064
O O8 0.000000 0.694195 0.000000
O O9 0.505645 0.869176 0.628339
O O10 0.423750 0.912080 0.732704
O O11 0.519462 0.797741 0.745039
O O12 0.178181 0.836198 0.590208
O O13 0.500000 0.189483 0.500000
O O14 0.228556 0.212611 0.313968
O O15 0.925093 0.500000 0.830138
#
# Coordination Sequence:
#
# PCOD8093452 Si02
#       7
#     8   8   8   8   8   8   4
#     4  10  20  35  54  77 113 152 193 241 281 329
#     4  11  22  40  66  89 113 150 191 241 297 348
#     4  10  22  36  56  81 116 156 192 237 289 331
#     4  12  23  36  55  86 118 157 198 234 283 337
#     4   9  20  39  60  83 114 152 191 238 293 343
#     4  11  23  40  57  88 121 147 189 242 290 349
#     4  10  19  36  52  80 108 152 201 234 278 338
#
# _framework density 18.652716999999999
#
# number of rings (size 3 to 8) (size 9 to 14) (size 15 to 20)
#    0.000    1.538    4.615    0.692    1.077    2.462 
#    0.000    0.000    0.000    0.000    0.000    1.077 
#    0.000    0.000    0.000    0.000    0.000    0.000 
#
# Total GULP energy -322322.588667 kJ/mol
# GULP energy per Si atom -12397.022641 kJ/mol
# Density = 1.861026 g / cm^3
# Si number density = 18.652717 Si / 1000 Ang^3
#
#
#
# Elastic Constant Matrix: (Units=GPa)
#
#
# Indices 1 2 3 4 5 6 
#
# 1 113.0940 50.3472 42.8961 0.0000 -21.6309 0.0000
# 2 50.3472 107.7096 47.5507 0.0000 -11.8425 0.0000
# 3 42.8961 47.5507 105.7220 0.0000 -19.7415 0.0000
# 4 0.0000 0.0000 0.0000 19.8620 0.0000 -1.0025
# 5 -21.6309 -11.8425 -19.7415 0.0000 27.4651 0.0000
# 6 0.0000 0.0000 0.0000 -1.0025 0.0000 11.3593
#
#
#
# Elastic Compliance Matrix: (Units=1/GPa)
#
#
# Indices 1 2 3 4 5 6 
#
# 1 0.012843 -0.004387 -0.001967 0.000000 0.006810 0.000000
# 2 -0.004387 0.013132 -0.004290 0.000000 -0.000876 0.000000
# 3 -0.001967 -0.004290 0.013343 0.000000 0.006192 0.000000
# 4 0.000000 0.000000 0.000000 0.050573 0.000000 0.004463
# 5 0.006810 -0.000876 0.006192 0.000000 0.045846 0.000000
# 6 0.000000 0.000000 0.000000 0.004463 0.000000 0.088427
#
#
# Mechanical properties :
#
#
# Convention : Reuss Voigt Hill
#
# Bulk Modulus (GPa) = 55.45844 67.56821 61.51333
# Shear Modulus (GPa) = 19.88373 24.11939 22.00156
#
# Velocity S-wave (km/s) = 3.26850 3.59984 3.43816
# Velocity P-wave (km/s) = 6.63632 7.31993 6.98649
#
# Compressibility (1/GPa) = 0.01803152
#
# Stress axis : x y z
#
# Youngs Moduli (GPa) = 77.86056 76.14766 74.94832
#
# Poissons Ratio (x) = 0.33402 0.14739
# Poissons Ratio (y) = 0.34154 0.32155
# Poissons Ratio (z) = 0.15312 0.32670
#
# Static dielectric constant tensor:
#      x y z
#    x 3.470830 0.000000 -0.071170 
#    y 0.000000 3.390030 0.000000 
#    z -0.071170 0.000000 3.366940 
# 
# 
# High freq. dielectric constant tensor:
#      x y z
#    x 1.729620 0.000000 -0.009000 
#    y 0.000000 1.714890 0.000000 
#    z -0.009000 0.000000 1.712590 
# 
# From -- ./inp_files/197097.got.cif
#   From: 2010.06.25/outbox.cif.g09.slc.cpg/sg12_99_cif.got.tgz:197097.got - 2010.06.28 00:19:55.
