data_PCOD8093792
_publ_section_title
;
Structure prediction by ZEFSAII (Michael W. Deem and Ramdas Pophale) SiO2 
 PCOD8093792
Probable space group: C 2/M
;
_chemical_formula_sum "Si O2"
_cell_formula_units_Z 56
_cell_length_a 8.872308
_cell_length_b 16.801711
_cell_length_c 30.556757
_cell_angle_alpha 90.000000
_cell_angle_beta 140.948777
_cell_angle_gamma 90.000000
_cell_volume 2869.777407
_symmetry_space_group_name_H-M "C 2/M"
_symmetry_group_IT_number 12
_symmetry_cell_setting 'monoclinic'
loop_
_space_group_symop_operation_xyz
x,y,z
-x,y,-z
-x,-y,-z
x,-y,z
1/2+x,1/2+y,z
1/2-x,1/2+y,-z
1/2-x,1/2-y,-z
1/2+x,1/2-y,z
loop_
_atom_site_type_symbol
_atom_site_label
_atom_site_fract_x
_atom_site_fract_y
_atom_site_fract_z
Si Si1 0.244303 0.310512 0.363519
Si Si2 0.025477 0.209489 0.767795
Si Si3 0.560556 0.912123 0.141653
Si Si4 0.314938 0.912318 0.261034
Si Si5 0.751450 0.370716 0.150793
Si Si6 0.749652 0.786670 0.547810
Si Si7 0.825684 0.165276 0.001231
O O1 0.266101 0.281027 0.418362
O O2 0.495461 0.332583 0.394949
O O3 0.107471 0.242056 0.305181
O O4 0.094237 0.391807 0.330964
O O5 0.230060 0.148780 0.799567
O O6 0.142433 0.280878 0.821969
O O7 0.838805 0.159921 0.754535
O O8 0.397469 0.918397 0.147530
O O9 0.406337 0.885893 0.064476
O O10 0.665427 0.000000 0.155284
O O11 0.264635 0.918318 0.198486
O O12 0.263559 0.000000 0.270058
O O13 0.472553 0.373564 0.074241
O O14 0.500000 0.837521 0.500000
O O15 0.750000 0.750000 0.500000
O O16 0.750000 0.250000 0.000000
O O17 0.000000 0.176521 0.000000
#
# Coordination Sequence:
#
# PCOD8093792 Si02
#       7
#     8   8   8   8   8   8   8
#     4  10  19  36  59  90 115 153 191 227 273 333
#     4  11  21  36  58  82 117 150 195 235 277 343
#     4  11  23  37  55  83 112 146 191 248 298 337
#     4  11  23  36  55  85 121 153 187 235 289 334
#     4  10  21  37  59  78 108 151 198 241 287 347
#     4   9  18  34  62  95 116 141 189 238 264 314
#     4  10  21  36  58  77 106 147 195 239 295 350
#
# _framework density 19.513707
#
# number of rings (size 3 to 8) (size 9 to 14) (size 15 to 20)
#    0.000    1.714    2.857    2.571    4.000    3.143 
#    0.000    0.000    0.000    6.429    0.000    0.000 
#    0.000    0.000    0.000    0.000    0.000    0.000 
#
# Total GULP energy -346929.724866 kJ/mol
# GULP energy per Si atom -12390.347317 kJ/mol
# Density = 1.946929 g / cm^3
# Si number density = 19.513707 Si / 1000 Ang^3
#
#
#
# Elastic Constant Matrix: (Units=GPa)
#
#
# Indices 1 2 3 4 5 6 
#
# 1 69.1536 12.7165 37.0878 0.0000 8.7744 0.0000
# 2 12.7165 101.1493 23.0793 0.0002 2.8518 0.0001
# 3 37.0878 23.0793 111.8869 0.0002 2.9373 0.0002
# 4 0.0000 0.0002 0.0002 6.1255 0.0001 -3.4599
# 5 8.7744 2.8518 2.9373 0.0001 38.5407 0.0000
# 6 0.0000 0.0001 0.0002 -3.4599 0.0000 14.8111
#
#
#
# Elastic Compliance Matrix: (Units=1/GPa)
#
#
# Indices 1 2 3 4 5 6 
#
# 1 0.018163 -0.000870 -0.005746 0.000000 -0.003633 0.000000
# 2 -0.000870 0.010430 -0.001852 0.000000 -0.000433 0.000000
# 3 -0.005746 -0.001852 0.011209 0.000000 0.000591 0.000000
# 4 0.000000 0.000000 0.000000 0.188067 0.000000 0.043934
# 5 -0.003633 -0.000433 0.000591 0.000000 0.026761 0.000000
# 6 0.000000 0.000000 0.000000 0.043934 0.000000 0.077780
#
#
# Mechanical properties :
#
#
# Convention : Reuss Voigt Hill
#
# Bulk Modulus (GPa) = 43.73116 47.55077 45.64096
# Shear Modulus (GPa) = 14.00687 25.84920 19.92804
#
# Velocity S-wave (km/s) = 2.68208 3.64355 3.19914
# Velocity P-wave (km/s) = 5.66132 6.49010 6.08982
#
# Compressibility (1/GPa) = 0.02286699
#
# Stress axis : x y z
#
# Youngs Moduli (GPa) = 55.05695 95.87296 89.21688
#
# Poissons Ratio (x) = 0.08341 0.51262
# Poissons Ratio (y) = 0.04790 0.16521
# Poissons Ratio (z) = 0.31634 0.17754
#
# Static dielectric constant tensor:
#      x y z
#    x 3.792320 0.000000 0.325420 
#    y 0.000000 3.247860 0.000000 
#    z 0.325420 0.000000 4.052690 
# 
# 
# High freq. dielectric constant tensor:
#      x y z
#    x 1.766910 0.000000 0.007420 
#    y 0.000000 1.726870 0.000000 
#    z 0.007420 0.000000 1.775800 
# 
# From -- ./inp_files/300422.got.cif
#   From: 2010.06.25/outbox.cif.g09.slc.cpg/sg12_151_cif.got.tgz:300422.got - 2010.06.28 00:19:55.
