data_PCOD8093351
_publ_section_title
;
Structure prediction by ZEFSAII (Michael W. Deem and Ramdas Pophale) SiO2 
 PCOD8093351
Probable space group: C 2/M
;
_chemical_formula_sum "Si O2"
_cell_formula_units_Z 56
_cell_length_a 13.458866
_cell_length_b 13.678883
_cell_length_c 19.689535
_cell_angle_alpha 90.000000
_cell_angle_beta 54.947787
_cell_angle_gamma 90.000000
_cell_volume 2967.438280
_symmetry_space_group_name_H-M "C 2/M"
_symmetry_group_IT_number 12
_symmetry_cell_setting 'monoclinic'
loop_
_space_group_symop_operation_xyz
x,y,z
-x,y,-z
-x,-y,-z
x,-y,z
1/2+x,1/2+y,z
1/2-x,1/2+y,-z
1/2-x,1/2-y,-z
1/2+x,1/2-y,z
loop_
_atom_site_type_symbol
_atom_site_label
_atom_site_fract_x
_atom_site_fract_y
_atom_site_fract_z
Si Si1 0.272587 0.221533 0.735303
Si Si2 0.551658 0.387051 0.291411
Si Si3 0.142054 0.288330 0.448095
Si Si4 0.004203 0.215998 0.173288
Si Si5 0.322034 0.612526 0.474764
Si Si6 0.349382 0.111696 0.831967
Si Si7 0.105895 0.886925 0.008819
O O1 0.331366 0.325325 0.731908
O O2 0.299126 0.192581 0.647775
O O3 0.324885 0.136731 0.762987
O O4 0.129652 0.225916 0.804261
O O5 0.588639 0.500000 0.279956
O O6 0.508316 0.360744 0.233121
O O7 0.441451 0.362571 0.384866
O O8 0.202024 0.362173 0.478658
O O9 0.170629 0.177022 0.459829
O O10 0.000000 0.310497 0.500000
O O11 0.041050 0.323526 0.183286
O O12 0.096745 0.177892 0.079883
O O13 0.316311 0.500000 0.499373
O O14 0.390282 0.000000 0.820924
O O15 0.232673 0.134394 0.923267
O O16 0.091537 0.000000 0.034892
O O17 0.000000 0.854483 0.000000
#
# Coordination Sequence:
#
# PCOD8093351 Si02
#       7
#     8   8   8   8   8   8   8
#     4  11  22  37  58  86 112 152 190 239 286 334
#     4  10  21  37  57  85 113 147 194 236 282 342
#     4  11  22  39  59  81 118 147 192 240 289 335
#     4  11  21  37  61  86 119 153 187 235 291 331
#     4  10  22  38  59  83 110 149 194 236 286 344
#     4  10  23  39  59  87 119 152 191 232 283 344
#     4  10  19  35  61  91 115 148 193 234 277 338
#
# _framework density 18.871496
#
# number of rings (size 3 to 8) (size 9 to 14) (size 15 to 20)
#    0.000    1.571    4.286    0.857    0.000    2.857 
#    0.000    1.429    0.000    0.429    0.000    0.000 
#    0.000    0.000    0.000    0.000    0.000    0.000 
#
# Total GULP energy -347328.501606 kJ/mol
# GULP energy per Si atom -12404.589343 kJ/mol
# Density = 1.882854 g / cm^3
# Si number density = 18.871496 Si / 1000 Ang^3
#
#
#
# Elastic Constant Matrix: (Units=GPa)
#
#
# Indices 1 2 3 4 5 6 
#
# 1 50.8243 -1.2338 7.7383 0.0000 6.1966 0.0000
# 2 -1.2338 55.1692 31.5939 0.0000 5.7833 0.0000
# 3 7.7383 31.5939 89.2612 0.0000 14.4714 0.0000
# 4 0.0000 0.0000 0.0000 28.3822 0.0000 -1.2989
# 5 6.1966 5.7833 14.4714 0.0000 24.0756 0.0000
# 6 0.0000 0.0000 0.0000 -1.2989 0.0000 11.2137
#
#
#
# Elastic Compliance Matrix: (Units=1/GPa)
#
#
# Indices 1 2 3 4 5 6 
#
# 1 0.020558 0.001928 -0.001697 0.000000 -0.004734 0.000000
# 2 0.001928 0.022925 -0.008097 0.000000 -0.001136 0.000000
# 3 -0.001697 -0.008097 0.015323 0.000000 -0.006829 0.000000
# 4 0.000000 0.000000 0.000000 0.035421 0.000000 0.004103
# 5 -0.004734 -0.001136 -0.006829 0.000000 0.047132 0.000000
# 6 0.000000 0.000000 0.000000 0.004103 0.000000 0.089652
#
#
# Mechanical properties :
#
#
# Convention : Reuss Voigt Hill
#
# Bulk Modulus (GPa) = 23.21602 30.16128 26.68865
# Shear Modulus (GPa) = 19.14954 23.21138 21.18046
#
# Velocity S-wave (km/s) = 3.18894 3.51090 3.35379
# Velocity P-wave (km/s) = 5.08803 5.69670 5.40094
#
# Compressibility (1/GPa) = 0.04307370
#
# Stress axis : x y z
#
# Youngs Moduli (GPa) = 48.64283 43.61971 65.25979
#
# Poissons Ratio (x) = -0.08410 0.11075
# Poissons Ratio (y) = -0.09378 0.52843
# Poissons Ratio (z) = 0.08255 0.35321
#
# Static dielectric constant tensor:
#      x y z
#    x 3.448430 0.000000 0.027110 
#    y 0.000000 3.353900 0.000000 
#    z 0.027110 0.000000 3.519780 
# 
# 
# High freq. dielectric constant tensor:
#      x y z
#    x 1.738660 0.000000 0.003610 
#    y 0.000000 1.728060 0.000000 
#    z 0.003610 0.000000 1.739630 
# 
# From -- ./inp_files/204981.got.cif
#   From: 2010.06.25/outbox.cif.g09.slc.cpg/sg12_103_cif.got.tgz:204981.got - 2010.06.28 00:19:55.
