data_PCOD8093955
_publ_section_title
;
Structure prediction by ZEFSAII (Michael W. Deem and Ramdas Pophale) SiO2 
 PCOD8093955
Probable space group: C 2/M
;
_chemical_formula_sum "Si O2"
_cell_formula_units_Z 64
_cell_length_a 19.958396
_cell_length_b 8.859899
_cell_length_c 18.487419
_cell_angle_alpha 90.000000
_cell_angle_beta 97.887996
_cell_angle_gamma 90.000000
_cell_volume 3238.187081
_symmetry_space_group_name_H-M "C 2/M"
_symmetry_group_IT_number 12
_symmetry_cell_setting 'monoclinic'
loop_
_space_group_symop_operation_xyz
x,y,z
-x,y,-z
-x,-y,-z
x,-y,z
1/2+x,1/2+y,z
1/2-x,1/2+y,-z
1/2-x,1/2-y,-z
1/2+x,1/2-y,z
loop_
_atom_site_type_symbol
_atom_site_label
_atom_site_fract_x
_atom_site_fract_y
_atom_site_fract_z
Si Si1 0.153953 0.178113 0.781259
Si Si2 0.427820 0.679174 0.970043
Si Si3 0.308782 0.678689 0.555782
Si Si4 0.988014 0.322785 0.277740
Si Si5 0.309982 0.678581 0.053872
Si Si6 0.265925 0.672514 0.708265
Si Si7 0.096736 0.174295 0.193609
Si Si8 0.546859 0.822642 0.439959
O O1 0.185215 0.235366 0.862413
O O2 0.202175 0.228586 0.723062
O O3 0.079683 0.242513 0.758283
O O4 0.147419 0.000000 0.780904
O O5 0.430617 0.500000 0.969700
O O6 0.406501 0.737127 0.888092
O O7 0.500000 0.750040 0.000000
O O8 0.377401 0.735888 0.024202
O O9 0.308582 0.500000 0.546545
O O10 0.250000 0.750000 0.500000
O O11 0.293775 0.728446 0.635558
O O12 0.381694 0.738879 0.542324
O O13 0.976214 0.500000 0.271297
O O14 0.049530 0.276424 0.235842
O O15 0.007245 0.272867 0.361854
O O16 0.301809 0.500000 0.049398
O O17 0.250000 0.750000 0.000000
O O18 0.241267 0.500000 0.700223
O O19 0.325539 0.693798 0.774119
O O20 0.073338 0.000000 0.197423
O O21 0.500000 0.774191 0.500000
O O22 0.562009 0.000000 0.442518
#
# Coordination Sequence:
#
# PCOD8093955 Si02
#       8
#     8   8   8   8   8   8   8   8
#     4  11  24  39  60  89 122 160 205 253 299 356
#     4   9  17  31  55  83 111 147 191 237 287 345
#     4  11  24  42  65  93 124 159 201 247 296 354
#     4  11  23  39  61  88 122 159 198 250 305 356
#     4  10  21  38  59  85 117 156 199 247 301 356
#     4  10  22  40  61  86 119 160 202 244 296 355
#     4  10  19  36  61  85 114 154 199 245 293 357
#     4  10  23  43  65  90 122 161 201 245 299 357
#
# _framework density 19.764144000000002
#
# number of rings (size 3 to 8) (size 9 to 14) (size 15 to 20)
#    0.000    1.750    1.250    2.625    1.750    6.250 
#    0.000    0.625    0.000    1.500    0.000    0.000 
#    0.000    0.000    0.000    0.000    0.000    0.000 
#
# Total GULP energy -396882.739308 kJ/mol
# GULP energy per Si atom -12402.585603 kJ/mol
# Density = 1.971916 g / cm^3
# Si number density = 19.764144 Si / 1000 Ang^3
#
#
#
# Elastic Constant Matrix: (Units=GPa)
#
#
# Indices 1 2 3 4 5 6 
#
# 1 109.9951 42.2470 43.3267 0.0000 -3.3474 0.0000
# 2 42.2470 52.4701 35.6892 0.0000 1.5325 0.0000
# 3 43.3267 35.6892 117.6026 0.0000 -1.0963 0.0000
# 4 0.0000 0.0000 0.0000 27.4006 0.0000 0.3061
# 5 -3.3474 1.5325 -1.0963 0.0000 42.3032 0.0000
# 6 0.0000 0.0000 0.0000 0.3061 0.0000 37.0109
#
#
#
# Elastic Compliance Matrix: (Units=1/GPa)
#
#
# Indices 1 2 3 4 5 6 
#
# 1 0.013648 -0.009599 -0.002102 0.000000 0.001373 0.000000
# 2 -0.009599 0.030815 -0.005834 0.000000 -0.002027 0.000000
# 3 -0.002102 -0.005834 0.011051 0.000000 0.000331 0.000000
# 4 0.000000 0.000000 0.000000 0.036499 0.000000 -0.000302
# 5 0.001373 -0.002027 0.000331 0.000000 0.023830 0.000000
# 6 0.000000 0.000000 0.000000 -0.000302 0.000000 0.027022
#
#
# Mechanical properties :
#
#
# Convention : Reuss Voigt Hill
#
# Bulk Modulus (GPa) = 48.91545 58.06596 53.49071
# Shear Modulus (GPa) = 27.06379 31.92992 29.49686
#
# Velocity S-wave (km/s) = 3.70447 4.02375 3.86741
# Velocity P-wave (km/s) = 6.56512 7.14357 6.86045
#
# Compressibility (1/GPa) = 0.02044344
#
# Stress axis : x y z
#
# Youngs Moduli (GPa) = 73.27083 32.45219 90.48758
#
# Poissons Ratio (x) = 0.31151 0.19023
# Poissons Ratio (y) = 0.70333 0.52789
# Poissons Ratio (z) = 0.15404 0.18932
#
# Static dielectric constant tensor:
#      x y z
#    x 3.186790 0.000000 0.035180 
#    y 0.000000 3.413660 0.000000 
#    z 0.035180 0.000000 3.820970 
# 
# 
# High freq. dielectric constant tensor:
#      x y z
#    x 1.784290 0.000000 0.000920 
#    y 0.000000 1.752600 0.000000 
#    z 0.000920 0.000000 1.787350 
# 
# From -- ./inp_files/314094.got.cif
#   From: 2010.06.25/outbox.cif.g09.slc.cpg/sg12_158_cif.got.tgz:314094.got - 2010.06.28 00:19:55.
