data_PCOD8093141
_publ_section_title
;
Structure prediction by ZEFSAII (Michael W. Deem and Ramdas Pophale) SiO2 
 PCOD8093141
Probable space group: C 2/M
;
_chemical_formula_sum "Si O2"
_cell_formula_units_Z 48
_cell_length_a 23.100813
_cell_length_b 13.574542
_cell_length_c 13.648556
_cell_angle_alpha 90.000000
_cell_angle_beta 29.712492
_cell_angle_gamma 90.000000
_cell_volume 2121.351085
_symmetry_space_group_name_H-M "C 2/M"
_symmetry_group_IT_number 12
_symmetry_cell_setting 'monoclinic'
loop_
_space_group_symop_operation_xyz
x,y,z
-x,y,-z
-x,-y,-z
x,-y,z
1/2+x,1/2+y,z
1/2-x,1/2+y,-z
1/2-x,1/2-y,-z
1/2+x,1/2-y,z
loop_
_atom_site_type_symbol
_atom_site_label
_atom_site_fract_x
_atom_site_fract_y
_atom_site_fract_z
Si Si1 0.303995 0.109745 0.145068
Si Si2 0.615782 0.321830 0.722573
Si Si3 0.141037 0.888405 0.895681
Si Si4 0.656092 0.728950 0.054266
Si Si5 0.154479 0.610160 0.699867
Si Si6 0.041928 0.887810 0.548413
O O1 0.378557 0.111520 0.136024
O O2 0.174266 0.151420 0.356584
O O3 0.291819 0.000000 0.121201
O O4 0.371433 0.169544 0.961771
O O5 0.670051 0.330341 0.752990
O O6 0.705844 0.371670 0.515122
O O7 0.593969 0.203925 0.735078
O O8 0.497886 0.381854 0.882298
O O9 0.181353 0.000000 0.823664
O O10 0.206695 0.843304 0.894177
O O11 0.536099 0.685067 0.271547
O O12 0.750000 0.750000 0.000000
O O13 0.121816 0.500000 0.705778
O O14 0.000000 0.881873 0.500000
O O15 0.030111 0.000000 0.605595
#
# Coordination Sequence:
#
# PCOD8093141 Si02
#       6
#     8   8   8   8   8   8
#     4  10  21  39  61  89 124 163 206 250 308 374
#     4  10  20  36  61  91 122 156 201 253 309 371
#     4  11  22  38  59  89 121 155 198 255 314 367
#     4  12  23  37  61  92 123 159 208 262 311 361
#     4  10  19  35  59  88 123 160 197 245 306 374
#     4  10  20  36  60  87 116 157 208 258 306 362
#
# _framework density 22.627089999999999
#
# number of rings (size 3 to 8) (size 9 to 14) (size 15 to 20)
#    0.000    1.500    3.333    3.500    0.000    2.000 
#    0.000    2.500    0.000    2.500    0.000    0.000 
#    0.000    0.000    0.000    0.000    0.000    0.000 
#
# Total GULP energy -297452.596943 kJ/mol
# GULP energy per Si atom -12393.858206 kJ/mol
# Density = 2.257559 g / cm^3
# Si number density = 22.627090 Si / 1000 Ang^3
#
#
#
# Elastic Constant Matrix: (Units=GPa)
#
#
# Indices 1 2 3 4 5 6 
#
# 1 88.3287 17.9719 3.7721 0.0000 17.1773 0.0000
# 2 17.9719 154.6579 32.2840 0.0000 15.4938 0.0000
# 3 3.7721 32.2840 63.1403 0.0000 17.6440 0.0000
# 4 0.0000 0.0000 0.0000 42.6953 0.0000 3.8468
# 5 17.1773 15.4938 17.6440 0.0000 29.1130 0.0000
# 6 0.0000 0.0000 0.0000 3.8468 0.0000 26.6237
#
#
#
# Elastic Compliance Matrix: (Units=1/GPa)
#
#
# Indices 1 2 3 4 5 6 
#
# 1 0.013098 -0.001126 0.002149 0.000000 -0.008432 0.000000
# 2 -0.001126 0.007427 -0.003385 0.000000 -0.001237 0.000000
# 3 0.002149 -0.003385 0.020816 0.000000 -0.012083 0.000000
# 4 0.000000 0.000000 0.000000 0.023731 0.000000 -0.003429
# 5 -0.008432 -0.001237 -0.012083 0.000000 0.047305 0.000000
# 6 0.000000 0.000000 0.000000 -0.003429 0.000000 0.038056
#
#
# Mechanical properties :
#
#
# Convention : Reuss Voigt Hill
#
# Bulk Modulus (GPa) = 27.30796 46.02032 36.66414
# Shear Modulus (GPa) = 29.87526 36.49297 33.18412
#
# Velocity S-wave (km/s) = 3.63758 4.02033 3.83373
# Velocity P-wave (km/s) = 5.45321 6.47560 5.98627
#
# Compressibility (1/GPa) = 0.03661936
#
# Stress axis : x y z
#
# Youngs Moduli (GPa) = 76.34526 134.64047 48.03923
#
# Poissons Ratio (x) = 0.15161 -0.10326
# Poissons Ratio (y) = 0.08597 0.16259
# Poissons Ratio (z) = -0.16410 0.45571
#
# Static dielectric constant tensor:
#      x y z
#    x 4.139770 0.000000 0.318480 
#    y 0.000000 4.261880 0.000000 
#    z 0.318480 0.000000 4.097440 
# 
# 
# High freq. dielectric constant tensor:
#      x y z
#    x 1.876410 0.000000 0.017780 
#    y 0.000000 1.901820 0.000000 
#    z 0.017780 0.000000 1.880580 
# 
# From -- ./inp_files/245842.got.cif
#   From: 2010.06.25/outbox.cif.g09.slc.cpg/sg12_123_cif.got.tgz:245842.got - 2010.06.28 00:19:55.
