data_PCOD8093039
_publ_section_title
;
Structure prediction by ZEFSAII (Michael W. Deem and Ramdas Pophale) SiO2 
 PCOD8093039
Probable space group: C 2/M
;
_chemical_formula_sum "Si O2"
_cell_formula_units_Z 56
_cell_length_a 21.575862
_cell_length_b 8.828100
_cell_length_c 19.682463
_cell_angle_alpha 90.000000
_cell_angle_beta 133.999323
_cell_angle_gamma 90.000000
_cell_volume 2696.831976
_symmetry_space_group_name_H-M "C 2/M"
_symmetry_group_IT_number 12
_symmetry_cell_setting 'monoclinic'
loop_
_space_group_symop_operation_xyz
x,y,z
-x,y,-z
-x,-y,-z
x,-y,z
1/2+x,1/2+y,z
1/2-x,1/2+y,-z
1/2-x,1/2-y,-z
1/2+x,1/2-y,z
loop_
_atom_site_type_symbol
_atom_site_label
_atom_site_fract_x
_atom_site_fract_y
_atom_site_fract_z
Si Si1 0.008269 0.679072 0.218694
Si Si2 0.937530 0.822658 0.608054
Si Si3 0.226307 0.320851 0.553717
Si Si4 0.443729 0.825140 0.394610
Si Si5 0.638725 0.320120 0.229340
Si Si6 0.313649 0.819484 0.102659
Si Si7 0.238047 0.324932 0.789203
O O1 0.016572 0.500000 0.230714
O O2 0.069658 0.758823 0.321110
O O3 0.047606 0.737308 0.176435
O O4 0.909924 0.732806 0.154823
O O5 0.869494 0.743282 0.504842
O O6 0.031169 0.776154 0.651403
O O7 0.921586 0.000000 0.598195
O O8 0.223370 0.500000 0.545976
O O9 0.250000 0.250000 0.500000
O O10 0.290766 0.268936 0.661560
O O11 0.500000 0.764323 0.500000
O O12 0.341242 0.803134 0.324558
O O13 0.465896 0.000000 0.395855
O O14 0.624356 0.500000 0.218392
O O15 0.676179 0.263549 0.184185
O O16 0.284242 0.752498 0.154168
O O17 0.308886 0.000000 0.098181
O O18 0.250000 0.750000 0.000000
O O19 0.252901 0.500000 0.814599
#
# Coordination Sequence:
#
# PCOD8093039 Si02
#       7
#     8   8   8   8   8   8   8
#     4  11  22  39  62  86 117 155 197 246 302 362
#     4  12  23  34  52  81 118 160 206 254 296 347
#     4  11  21  33  51  80 118 162 209 252 292 348
#     4  10  19  35  59  83 114 160 205 248 300 358
#     4  10  21  37  60  88 119 158 204 249 299 356
#     4  10  22  42  68  93 117 151 196 250 308 370
#     4   9  18  37  61  88 120 155 198 248 302 361
#
# _framework density 20.765104999999998
#
# number of rings (size 3 to 8) (size 9 to 14) (size 15 to 20)
#    0.000    1.571    2.857    3.000    0.000    4.286 
#    0.000    2.143    0.000    4.286    0.000    0.000 
#    0.000    0.000    0.000    0.000    0.000    0.000 
#
# Total GULP energy -347021.488415 kJ/mol
# GULP energy per Si atom -12393.624586 kJ/mol
# Density = 2.071784 g / cm^3
# Si number density = 20.765105 Si / 1000 Ang^3
#
#
#
# Elastic Constant Matrix: (Units=GPa)
#
#
# Indices 1 2 3 4 5 6 
#
# 1 178.6216 33.9334 47.8606 0.0000 -0.4901 0.0000
# 2 33.9334 55.8230 21.5509 0.0000 2.7161 0.0000
# 3 47.8606 21.5509 86.0663 0.0000 -2.8181 0.0000
# 4 0.0000 0.0000 0.0000 24.8273 0.0000 2.6388
# 5 -0.4901 2.7161 -2.8181 0.0000 22.3150 0.0000
# 6 0.0000 0.0000 0.0000 2.6388 0.0000 32.9758
#
#
#
# Elastic Compliance Matrix: (Units=1/GPa)
#
#
# Indices 1 2 3 4 5 6 
#
# 1 0.007020 -0.003065 -0.003132 0.000000 0.000132 0.000000
# 2 -0.003065 0.021378 -0.003752 0.000000 -0.003143 0.000000
# 3 -0.003132 -0.003752 0.014372 0.000000 0.002203 0.000000
# 4 0.000000 0.000000 0.000000 0.040624 0.000000 -0.003251
# 5 0.000132 -0.003143 0.002203 0.000000 0.045477 0.000000
# 6 0.000000 0.000000 0.000000 -0.003251 0.000000 0.030585
#
#
# Mechanical properties :
#
#
# Convention : Reuss Voigt Hill
#
# Bulk Modulus (GPa) = 43.71891 58.57787 51.14839
# Shear Modulus (GPa) = 26.74114 30.50135 28.62125
#
# Velocity S-wave (km/s) = 3.59248 3.83675 3.71662
# Velocity P-wave (km/s) = 6.18931 6.92088 6.56529
#
# Compressibility (1/GPa) = 0.02287340
#
# Stress axis : x y z
#
# Youngs Moduli (GPa) = 142.44532 46.77710 69.57832
#
# Poissons Ratio (x) = 0.14335 0.21793
# Poissons Ratio (y) = 0.43654 0.26104
# Poissons Ratio (z) = 0.44617 0.17550
#
# Static dielectric constant tensor:
#      x y z
#    x 4.323320 0.000000 0.001820 
#    y 0.000000 3.414970 0.000000 
#    z 0.001820 0.000000 3.588260 
# 
# 
# High freq. dielectric constant tensor:
#      x y z
#    x 1.838910 0.000000 0.004770 
#    y 0.000000 1.782680 0.000000 
#    z 0.004770 0.000000 1.781580 
# 
# From -- ./inp_files/320261.got.cif
#   From: 2010.06.25/outbox.cif.g09.slc.cpg/sg12_161_cif.got.tgz:320261.got - 2010.06.28 00:19:55.
