data_PCOD8093784
_publ_section_title
;
Structure prediction by ZEFSAII (Michael W. Deem and Ramdas Pophale) SiO2 
 PCOD8093784
Probable space group: C 2/M
;
_chemical_formula_sum "Si O2"
_cell_formula_units_Z 56
_cell_length_a 15.446530
_cell_length_b 18.236649
_cell_length_c 11.058995
_cell_angle_alpha 90.000000
_cell_angle_beta 60.531775
_cell_angle_gamma 90.000000
_cell_volume 2712.217960
_symmetry_space_group_name_H-M "C 2/M"
_symmetry_group_IT_number 12
_symmetry_cell_setting 'monoclinic'
loop_
_space_group_symop_operation_xyz
x,y,z
-x,y,-z
-x,-y,-z
x,-y,z
1/2+x,1/2+y,z
1/2-x,1/2+y,-z
1/2-x,1/2-y,-z
1/2+x,1/2-y,z
loop_
_atom_site_type_symbol
_atom_site_label
_atom_site_fract_x
_atom_site_fract_y
_atom_site_fract_z
Si Si1 0.989580 0.145604 0.648376
Si Si2 0.892017 0.581405 0.078159
Si Si3 0.974253 0.316852 0.654780
Si Si4 0.176286 0.913362 0.663566
Si Si5 0.285940 0.337972 0.877782
Si Si6 0.359722 0.918284 0.370470
Si Si7 0.248770 0.682877 0.169389
O O1 0.991693 0.232094 0.676494
O O2 0.880885 0.116440 0.764058
O O3 0.000000 0.127965 0.500000
O O4 0.072919 0.104243 0.668610
O O5 0.911243 0.500000 0.016289
O O6 0.814911 0.616636 0.039419
O O7 0.835369 0.582118 0.245529
O O8 0.000000 0.621955 0.000000
O O9 0.863974 0.347426 0.757334
O O10 0.000000 0.332641 0.500000
O O11 0.048284 0.364189 0.683226
O O12 0.264095 0.891480 0.511001
O O13 0.188416 0.861689 0.773416
O O14 0.178836 0.000000 0.696509
O O15 0.265149 0.270342 0.798340
O O16 0.308695 0.318327 0.001787
O O17 0.390042 0.000000 0.392698
#
# Coordination Sequence:
#
# PCOD8093784 Si02
#       7
#     8   8   8   8   8   8   8
#     4  10  23  40  60  89 118 160 210 250 302 361
#     4  10  21  37  59  90 120 155 201 246 304 365
#     4  10  19  36  59  87 119 156 197 245 303 361
#     4  11  24  40  61  91 124 161 206 257 309 365
#     4  10  22  41  61  85 121 161 198 248 304 360
#     4  10  21  35  57  91 123 157 200 250 311 365
#     4  10  22  40  58  89 120 153 207 247 303 367
#
# _framework density 20.647307999999999
#
# number of rings (size 3 to 8) (size 9 to 14) (size 15 to 20)
#    0.000    1.857    1.429    1.714    2.000    3.429 
#    0.000    0.714    0.000    0.000    0.000    0.000 
#    0.000    0.000    0.000    0.000    0.000    0.000 
#
# Total GULP energy -347044.417149 kJ/mol
# GULP energy per Si atom -12394.443470 kJ/mol
# Density = 2.060031 g / cm^3
# Si number density = 20.647308 Si / 1000 Ang^3
#
#
#
# Elastic Constant Matrix: (Units=GPa)
#
#
# Indices 1 2 3 4 5 6 
#
# 1 137.0536 45.4159 38.0354 0.0000 -15.5616 0.0000
# 2 45.4159 60.2729 22.1081 0.0000 5.4926 0.0000
# 3 38.0354 22.1081 101.9925 0.0000 -10.7046 0.0000
# 4 0.0000 0.0000 0.0000 18.3885 0.0000 -4.3256
# 5 -15.5616 5.4926 -10.7046 0.0000 36.4061 0.0000
# 6 0.0000 0.0000 0.0000 -4.3256 0.0000 25.6306
#
#
#
# Elastic Compliance Matrix: (Units=1/GPa)
#
#
# Indices 1 2 3 4 5 6 
#
# 1 0.011148 -0.008241 -0.001796 0.000000 0.005480 0.000000
# 2 -0.008241 0.024696 -0.003138 0.000000 -0.008171 0.000000
# 3 -0.001796 -0.003138 0.011478 0.000000 0.003081 0.000000
# 4 0.000000 0.000000 0.000000 0.056630 0.000000 0.009557
# 5 0.005480 -0.008171 0.003081 0.000000 0.031949 0.000000
# 6 0.000000 0.000000 0.000000 0.009557 0.000000 0.040629
#
#
# Mechanical properties :
#
#
# Convention : Reuss Voigt Hill
#
# Bulk Modulus (GPa) = 47.67928 56.71531 52.19729
# Shear Modulus (GPa) = 23.82444 29.00235 26.41339
#
# Velocity S-wave (km/s) = 3.40056 3.75194 3.58056
# Velocity P-wave (km/s) = 6.20973 6.80424 6.51377
#
# Compressibility (1/GPa) = 0.02097347
#
# Stress axis : x y z
#
# Youngs Moduli (GPa) = 89.70419 40.49240 87.12475
#
# Poissons Ratio (x) = 0.33368 0.15646
# Poissons Ratio (y) = 0.73921 0.27337
# Poissons Ratio (z) = 0.16109 0.12705
#
# Static dielectric constant tensor:
#      x y z
#    x 3.639840 0.000000 -0.157150 
#    y 0.000000 3.662810 0.000000 
#    z -0.157150 0.000000 3.754890 
# 
# 
# High freq. dielectric constant tensor:
#      x y z
#    x 1.802410 0.000000 -0.011920 
#    y 0.000000 1.791940 0.000000 
#    z -0.011920 0.000000 1.818370 
# 
# From -- ./inp_files/145457.got.cif
#   From: 2010.06.25/outbox.cif.g09.slc.cpg/sg12_73_cif.got.tgz:145457.got - 2010.06.28 00:19:55.
