data_PCOD8093412
_publ_section_title
;
Structure prediction by ZEFSAII (Michael W. Deem and Ramdas Pophale) SiO2 
 PCOD8093412
Probable space group: C 2/M
;
_chemical_formula_sum "Si O2"
_cell_formula_units_Z 40
_cell_length_a 14.991076
_cell_length_b 25.954576
_cell_length_c 8.459691
_cell_angle_alpha 90.000000
_cell_angle_beta 37.402583
_cell_angle_gamma 90.000000
_cell_volume 1999.329454
_symmetry_space_group_name_H-M "C 2/M"
_symmetry_group_IT_number 12
_symmetry_cell_setting 'monoclinic'
loop_
_space_group_symop_operation_xyz
x,y,z
-x,y,-z
-x,-y,-z
x,-y,z
1/2+x,1/2+y,z
1/2-x,1/2+y,-z
1/2-x,1/2-y,-z
1/2+x,1/2-y,z
loop_
_atom_site_type_symbol
_atom_site_label
_atom_site_fract_x
_atom_site_fract_y
_atom_site_fract_z
Si Si1 0.363460 0.000000 0.310057
Si Si2 0.572870 0.300536 0.726683
Si Si3 0.926356 0.102204 0.933975
Si Si4 0.394428 0.908113 0.511638
Si Si5 0.956372 0.000000 0.382256
Si Si6 0.085508 0.687508 0.716411
O O1 0.366088 0.049906 0.416646
O O2 0.217182 0.000000 0.408803
O O3 0.500000 0.000000 0.000000
O O4 0.486746 0.346621 0.755876
O O5 0.741716 0.317480 0.494005
O O6 0.554295 0.243372 0.677973
O O7 0.500000 0.295798 0.000000
O O8 0.753330 0.107158 0.191333
O O9 0.966969 0.050129 0.792267
O O10 0.000000 0.101218 0.000000
O O11 0.500000 0.929896 0.500000
O O12 0.464661 0.857162 0.333123
O O13 0.000000 0.000000 0.500000
O O14 0.000000 0.679723 0.000000
#
# Coordination Sequence:
#
# PCOD8093412 Si02
#       6
#     4   8   8   8   4   8
#     4  12  26  44  64  92 131 162 203 267 326 371
#     4   9  17  35  66  89 118 170 210 258 318 372
#     4  11  20  43  67  87 123 170 216 254 310 384
#     4  12  25  41  64  93 129 172 212 253 316 388
#     4  12  26  41  68  98 119 159 216 268 316 375
#     4  10  19  35  63  94 124 159 216 264 315 366
#
# _framework density 20.006709000000001
#
# number of rings (size 3 to 8) (size 9 to 14) (size 15 to 20)
#    0.000    1.200    6.000    1.800    2.800    0.000 
#    0.000    2.000    0.000    0.000    0.000    0.000 
#    0.000    0.000    0.000    0.000    0.000    0.000 
#
# Total GULP energy -247876.473981 kJ/mol
# GULP energy per Si atom -12393.823699 kJ/mol
# Density = 1.996117 g / cm^3
# Si number density = 20.006709 Si / 1000 Ang^3
#
#
#
# Elastic Constant Matrix: (Units=GPa)
#
#
# Indices 1 2 3 4 5 6 
#
# 1 108.3291 40.1518 37.5437 0.0000 -8.4613 0.0000
# 2 40.1518 188.4276 44.8736 0.0000 1.9455 0.0000
# 3 37.5437 44.8736 127.7906 0.0000 -23.4759 0.0000
# 4 0.0000 0.0000 0.0000 32.5922 0.0000 -11.4054
# 5 -8.4613 1.9455 -23.4759 0.0000 15.7195 0.0000
# 6 0.0000 0.0000 0.0000 -11.4054 0.0000 -8.1367
#
#
#
# Elastic Compliance Matrix: (Units=1/GPa)
#
#
# Indices 1 2 3 4 5 6 
#
# 1 0.010850 -0.001882 -0.001945 0.000000 0.003169 0.000000
# 2 -0.001882 0.006440 -0.002813 0.000000 -0.006010 0.000000
# 3 -0.001945 -0.002813 0.012755 0.000000 0.018351 0.000000
# 4 0.000000 0.000000 0.000000 0.020585 0.000000 -0.028854
# 5 0.003169 -0.006010 0.018351 0.000000 0.093470 0.000000
# 6 0.000000 0.000000 0.000000 -0.028854 0.000000 -0.082454
#
#
# Mechanical properties :
#
#
# Convention : Reuss Voigt Hill
#
# Bulk Modulus (GPa) = 59.64033 74.40952 67.02493
# Shear Modulus (GPa) = 62.10105 28.16686 45.13396
#
# Velocity S-wave (km/s) = 5.57741 3.75623 4.75483
# Velocity P-wave (km/s) = 8.44698 7.48902 7.98238
#
# Compressibility (1/GPa) = 0.01676718
#
# Stress axis : x y z
#
# Youngs Moduli (GPa) = 92.16541 155.28123 78.39763
#
# Poissons Ratio (x) = 0.29218 0.15247
# Poissons Ratio (y) = 0.17342 0.22051
# Poissons Ratio (z) = 0.17925 0.43677
#
# Static dielectric constant tensor:
#      x y z
#    x 3.344240 0.000000 -0.240680 
#    y 0.000000 4.082820 0.000000 
#    z -0.240680 0.000000 4.754760 
# 
# 
# High freq. dielectric constant tensor:
#      x y z
#    x 1.736230 0.000000 -0.019210 
#    y 0.000000 1.815300 0.000000 
#    z -0.019210 0.000000 1.794060 
# 
# From -- ./inp_files/65108.got.cif
#   From: 2010.06.25/outbox.cif.g09.slc.cpg/sg12_33_cif.got.tgz:65108.got - 2010.06.28 00:19:55.
