data_PCOD8093598
_publ_section_title
;
Structure prediction by ZEFSAII (Michael W. Deem and Ramdas Pophale) SiO2 
 PCOD8093598
Probable space group: C 2/M
;
_chemical_formula_sum "Si O2"
_cell_formula_units_Z 56
_cell_length_a 30.193532
_cell_length_b 8.519038
_cell_length_c 16.719771
_cell_angle_alpha 90.000000
_cell_angle_beta 134.267071
_cell_angle_gamma 90.000000
_cell_volume 3079.674659
_symmetry_space_group_name_H-M "C 2/M"
_symmetry_group_IT_number 12
_symmetry_cell_setting 'monoclinic'
loop_
_space_group_symop_operation_xyz
x,y,z
-x,y,-z
-x,-y,-z
x,-y,z
1/2+x,1/2+y,z
1/2-x,1/2+y,-z
1/2-x,1/2-y,-z
1/2+x,1/2-y,z
loop_
_atom_site_type_symbol
_atom_site_label
_atom_site_fract_x
_atom_site_fract_y
_atom_site_fract_z
Si Si1 0.588998 0.818177 0.080036
Si Si2 0.442837 0.814991 0.484576
Si Si3 0.809840 0.183628 0.894030
Si Si4 0.825837 0.313710 0.239006
Si Si5 0.629067 0.816779 0.874250
Si Si6 0.470986 0.318653 0.850832
Si Si7 0.003629 0.182325 0.294500
O O1 0.657833 0.770899 0.139640
O O2 0.579057 0.780158 0.161258
O O3 0.577270 0.000000 0.049363
O O4 0.540573 0.721333 0.965611
O O5 0.500000 0.770509 0.500000
O O6 0.380292 0.750616 0.364684
O O7 0.448340 0.724682 0.575322
O O8 0.440350 0.000000 0.497519
O O9 0.739994 0.249368 0.812654
O O10 0.809904 0.000000 0.876518
O O11 0.846475 0.215237 0.021652
O O12 0.828128 0.500000 0.241528
O O13 0.835770 0.256177 0.160655
O O14 0.556449 0.789741 0.770132
O O15 0.640843 0.000000 0.905999
O O16 0.458493 0.500000 0.852441
O O17 0.463204 0.277846 0.747788
O O18 0.984557 0.000000 0.273435
#
# Coordination Sequence:
#
# PCOD8093598 Si02
#       7
#     8   8   8   8   8   8   8
#     4  11  21  33  53  80 108 137 179 219 265 321
#     4  10  19  36  58  77 104 143 185 226 265 309
#     4  11  21  35  53  77 112 146 180 218 269 325
#     4   9  20  36  54  77 106 147 186 220 265 320
#     4  11  20  34  54  78 109 144 183 220 263 317
#     4  10  20  35  54  77 109 141 173 216 275 323
#     4  11  22  34  53  82 112 141 174 219 272 320
#
# _framework density 18.183738999999999
#
# number of rings (size 3 to 8) (size 9 to 14) (size 15 to 20)
#    0.000    1.571    2.857    4.286    0.000    2.000 
#    0.000    3.571    0.000    0.857    0.000    0.000 
#    0.000    0.000    0.000    0.000    0.000    0.000 
#
# Total GULP energy -347287.852886 kJ/mol
# GULP energy per Si atom -12403.137603 kJ/mol
# Density = 1.814235 g / cm^3
# Si number density = 18.183739 Si / 1000 Ang^3
#
#
#
# Elastic Constant Matrix: (Units=GPa)
#
#
# Indices 1 2 3 4 5 6 
#
# 1 150.0840 30.9685 52.3927 0.0000 -1.2771 0.0000
# 2 30.9685 38.3772 10.3372 0.0000 -5.1704 0.0000
# 3 52.3927 10.3372 73.1088 0.0000 -0.4514 0.0000
# 4 0.0000 0.0000 0.0000 22.1855 0.0000 -5.0340
# 5 -1.2771 -5.1704 -0.4514 0.0000 31.2489 0.0000
# 6 0.0000 0.0000 0.0000 -5.0340 0.0000 25.2370
#
#
#
# Elastic Compliance Matrix: (Units=1/GPa)
#
#
# Indices 1 2 3 4 5 6 
#
# 1 0.010275 -0.006665 -0.006426 0.000000 -0.000776 0.000000
# 2 -0.006665 0.032039 0.000277 0.000000 0.005033 0.000000
# 3 -0.006426 0.000277 0.018244 0.000000 0.000047 0.000000
# 4 0.000000 0.000000 0.000000 0.047211 0.000000 0.009417
# 5 -0.000776 0.005033 0.000047 0.000000 0.032803 0.000000
# 6 0.000000 0.000000 0.000000 0.009417 0.000000 0.041503
#
#
# Mechanical properties :
#
#
# Convention : Reuss Voigt Hill
#
# Bulk Modulus (GPa) = 28.62776 49.88519 39.25648
# Shear Modulus (GPa) = 22.79515 26.92571 24.86043
#
# Velocity S-wave (km/s) = 3.54446 3.85224 3.70155
# Velocity P-wave (km/s) = 5.70340 6.87603 6.31698
#
# Compressibility (1/GPa) = 0.03493113
#
# Stress axis : x y z
#
# Youngs Moduli (GPa) = 97.32631 31.21222 54.81191
#
# Poissons Ratio (x) = 0.20803 0.35220
# Poissons Ratio (y) = 0.64867 -0.01520
# Poissons Ratio (z) = 0.62539 -0.00866
#
# Static dielectric constant tensor:
#      x y z
#    x 3.599690 0.000000 -0.011970 
#    y 0.000000 3.214170 0.000000 
#    z -0.011970 0.000000 3.274880 
# 
# 
# High freq. dielectric constant tensor:
#      x y z
#    x 1.711300 0.000000 -0.008200 
#    y 0.000000 1.701520 0.000000 
#    z -0.008200 0.000000 1.678540 
# 
# From -- ./inp_files/295179.got.cif
#   From: 2010.06.25/outbox.cif.g09.slc.cpg/sg12_148_cif.got.tgz:295179.got - 2010.06.28 00:19:55.
