data_PCOD8093581
_publ_section_title
;
Structure prediction by ZEFSAII (Michael W. Deem and Ramdas Pophale) SiO2 
 PCOD8093581
Probable space group: C 2/M
;
_chemical_formula_sum "Si O2"
_cell_formula_units_Z 64
_cell_length_a 15.049844
_cell_length_b 28.489127
_cell_length_c 11.402277
_cell_angle_alpha 90.000000
_cell_angle_beta 142.404203
_cell_angle_gamma 90.000000
_cell_volume 2982.596667
_symmetry_space_group_name_H-M "C 2/M"
_symmetry_group_IT_number 12
_symmetry_cell_setting 'monoclinic'
loop_
_space_group_symop_operation_xyz
x,y,z
-x,y,-z
-x,-y,-z
x,-y,z
1/2+x,1/2+y,z
1/2-x,1/2+y,-z
1/2-x,1/2-y,-z
1/2+x,1/2-y,z
loop_
_atom_site_type_symbol
_atom_site_label
_atom_site_fract_x
_atom_site_fract_y
_atom_site_fract_z
Si Si1 0.461548 0.946003 0.833424
Si Si2 0.841251 0.206109 0.874430
Si Si3 0.648187 0.787901 0.449346
Si Si4 0.545400 0.369704 0.682276
Si Si5 0.747612 0.617158 0.488558
Si Si6 0.396999 0.734311 0.277735
Si Si7 0.159242 0.898717 0.138818
Si Si8 0.750762 0.554396 0.005228
O O1 0.311515 0.924487 0.631815
O O2 0.585371 0.937173 0.866400
O O3 0.426806 0.000000 0.816095
O O4 0.500000 0.923450 0.000000
O O5 0.719375 0.200803 0.648214
O O6 0.765789 0.243196 0.884265
O O7 0.860750 0.152977 0.942906
O O8 0.000000 0.225654 0.000000
O O9 0.750000 0.750000 0.500000
O O10 0.650850 0.837006 0.382145
O O11 0.485065 0.767290 0.279101
O O12 0.500000 0.374979 0.500000
O O13 0.412698 0.371285 0.634078
O O14 0.622784 0.319217 0.786163
O O15 0.648932 0.413191 0.819079
O O16 0.748764 0.602504 0.353246
O O17 0.500000 0.733240 0.500000
O O18 0.241866 0.931954 0.133055
O O19 0.000000 0.919784 0.000000
O O20 0.705114 0.500000 0.940858
#
# Coordination Sequence:
#
# PCOD8093581 Si02
#       8
#     8   8   8   8   8   8   8   8
#     4  10  24  47  68  93 131 167 211 273 331 388
#     4   9  20  37  59  87 125 170 211 257 316 380
#     4  10  19  36  57  85 129 165 203 254 320 375
#     4  11  22  40  65  93 125 168 221 268 318 386
#     4  11  22  39  68  95 124 175 215 259 324 395
#     4   9  19  36  57  88 126 167 212 263 312 377
#     4  10  21  41  65  94 134 166 215 272 319 379
#     4  11  25  44  66  94 130 167 212 277 334 379
#
# _framework density 21.457813000000002
#
# number of rings (size 3 to 8) (size 9 to 14) (size 15 to 20)
#    0.000    1.875    2.500    0.750    1.750    2.000 
#    2.250    2.500    0.000    0.000    0.000    0.000 
#    0.000    0.000    0.000    0.000    0.000    0.000 
#
# Total GULP energy -396705.990780 kJ/mol
# GULP energy per Si atom -12397.062212 kJ/mol
# Density = 2.140897 g / cm^3
# Si number density = 21.457813 Si / 1000 Ang^3
#
#
#
# Elastic Constant Matrix: (Units=GPa)
#
#
# Indices 1 2 3 4 5 6 
#
# 1 101.7509 40.6122 21.6047 0.0000 15.9584 0.0000
# 2 40.6122 109.7868 40.2353 0.0000 16.8348 0.0000
# 3 21.6047 40.2353 64.7694 0.0000 7.9361 0.0000
# 4 0.0000 0.0000 0.0000 28.4342 0.0000 7.2756
# 5 15.9584 16.8348 7.9361 0.0000 35.4274 0.0000
# 6 0.0000 0.0000 0.0000 7.2756 0.0000 35.2626
#
#
#
# Elastic Compliance Matrix: (Units=1/GPa)
#
#
# Indices 1 2 3 4 5 6 
#
# 1 0.012037 -0.003371 -0.001494 0.000000 -0.003486 0.000000
# 2 -0.003371 0.013339 -0.006757 0.000000 -0.003307 0.000000
# 3 -0.001494 -0.006757 0.020214 0.000000 -0.000644 0.000000
# 4 0.000000 0.000000 0.000000 0.037129 0.000000 -0.007661
# 5 -0.003486 -0.003307 -0.000644 0.000000 0.031513 0.000000
# 6 0.000000 0.000000 0.000000 -0.007661 0.000000 0.029939
#
#
# Mechanical properties :
#
#
# Convention : Reuss Voigt Hill
#
# Bulk Modulus (GPa) = 44.74880 53.46795 49.10837
# Shear Modulus (GPa) = 28.59386 31.41517 30.00452
#
# Velocity S-wave (km/s) = 3.65439 3.83043 3.74345
# Velocity P-wave (km/s) = 6.22139 6.67344 6.45137
#
# Compressibility (1/GPa) = 0.02234697
#
# Stress axis : x y z
#
# Youngs Moduli (GPa) = 83.07553 74.96997 49.47062
#
# Poissons Ratio (x) = 0.25270 0.07392
# Poissons Ratio (y) = 0.28002 0.33425
# Poissons Ratio (z) = 0.12413 0.50654
#
# Static dielectric constant tensor:
#      x y z
#    x 4.062530 0.000000 -0.002550 
#    y 0.000000 4.024330 0.000000 
#    z -0.002550 0.000000 3.438840 
# 
# 
# High freq. dielectric constant tensor:
#      x y z
#    x 1.851960 0.000000 -0.003530 
#    y 0.000000 1.841440 0.000000 
#    z -0.003530 0.000000 1.830140 
# 
# From -- ./inp_files/150289.got.cif
#   From: 2010.06.25/outbox.cif.g09.slc.cpg/sg12_76_cif.got.tgz:150289.got - 2010.06.28 00:19:55.
