data_PCOD8093512
_publ_section_title
;
Structure prediction by ZEFSAII (Michael W. Deem and Ramdas Pophale) SiO2 
 PCOD8093512
Probable space group: C 2/M
;
_chemical_formula_sum "Si O2"
_cell_formula_units_Z 56
_cell_length_a 11.745845
_cell_length_b 22.509340
_cell_length_c 10.844269
_cell_angle_alpha 90.000000
_cell_angle_beta 98.669136
_cell_angle_gamma 90.000000
_cell_volume 2834.373185
_symmetry_space_group_name_H-M "C 2/M"
_symmetry_group_IT_number 12
_symmetry_cell_setting 'monoclinic'
loop_
_space_group_symop_operation_xyz
x,y,z
-x,y,-z
-x,-y,-z
x,-y,z
1/2+x,1/2+y,z
1/2-x,1/2+y,-z
1/2-x,1/2-y,-z
1/2+x,1/2-y,z
loop_
_atom_site_type_symbol
_atom_site_label
_atom_site_fract_x
_atom_site_fract_y
_atom_site_fract_z
Si Si1 0.832187 0.680962 0.903321
Si Si2 0.489082 0.431028 0.357450
Si Si3 0.729143 0.067498 0.246283
Si Si4 0.439403 0.231074 0.682137
Si Si5 0.319502 0.349134 0.681211
Si Si6 0.621395 0.883058 0.467835
Si Si7 0.167703 0.717871 0.837045
O O1 0.816922 0.611796 0.866300
O O2 0.909830 0.714644 0.817441
O O3 0.711317 0.716841 0.884171
O O4 0.885238 0.685180 0.050117
O O5 0.500000 0.408155 0.500000
O O6 0.519248 0.500000 0.354724
O O7 0.361807 0.416921 0.290134
O O8 0.579880 0.397596 0.283315
O O9 0.658916 0.074927 0.361753
O O10 0.712819 0.000000 0.197230
O O11 0.383227 0.292683 0.628058
O O12 0.393894 0.184285 0.577453
O O13 0.578373 0.229880 0.710318
O O14 0.221278 0.381394 0.585378
O O15 0.266316 0.326596 0.801465
O O16 0.500000 0.908142 0.500000
#
# Coordination Sequence:
#
# PCOD8093512 Si02
#       7
#     8   8   8   8   8   8   8
#     4   9  20  35  57  81 109 150 192 229 278 337
#     4  10  20  36  57  80 110 147 188 228 272 337
#     4  10  21  39  60  83 112 152 194 232 278 334
#     4  10  20  33  54  81 114 150 181 228 284 336
#     4  11  21  34  56  85 114 147 187 230 287 342
#     4  11  21  35  53  84 120 148 182 234 285 339
#     4  10  19  36  56  82 113 146 186 236 286 333
#
# _framework density 19.757456000000001
#
# number of rings (size 3 to 8) (size 9 to 14) (size 15 to 20)
#    0.000    1.857    2.857    1.714    0.000    0.857 
#    0.000    2.857    0.000    8.571    0.000    0.000 
#    0.000    0.000    0.000    0.000    0.000    0.000 
#
# Total GULP energy -347101.311256 kJ/mol
# GULP energy per Si atom -12396.475402 kJ/mol
# Density = 1.971249 g / cm^3
# Si number density = 19.757456 Si / 1000 Ang^3
#
#
#
# Elastic Constant Matrix: (Units=GPa)
#
#
# Indices 1 2 3 4 5 6 
#
# 1 97.3199 26.9951 12.7102 0.0000 -3.1367 0.0000
# 2 26.9951 79.2048 14.0977 0.0000 0.1365 0.0000
# 3 12.7102 14.0977 50.6114 0.0000 -6.2732 0.0000
# 4 0.0000 0.0000 0.0000 8.7550 0.0000 -5.1022
# 5 -3.1367 0.1365 -6.2732 0.0000 29.2198 0.0000
# 6 0.0000 0.0000 0.0000 -5.1022 0.0000 27.6450
#
#
#
# Elastic Compliance Matrix: (Units=1/GPa)
#
#
# Indices 1 2 3 4 5 6 
#
# 1 0.011540 -0.003617 -0.001782 0.000000 0.000873 0.000000
# 2 -0.003617 0.014440 -0.003257 0.000000 -0.001155 0.000000
# 3 -0.001782 -0.003257 0.021668 0.000000 0.004476 0.000000
# 4 0.000000 0.000000 0.000000 0.127986 0.000000 0.023621
# 5 0.000873 -0.001155 0.004476 0.000000 0.035283 0.000000
# 6 0.000000 0.000000 0.000000 0.023621 0.000000 0.040532
#
#
# Mechanical properties :
#
#
# Convention : Reuss Voigt Hill
#
# Bulk Modulus (GPa) = 32.96555 37.19357 35.07956
# Shear Modulus (GPa) = 17.92926 24.67951 21.30438
#
# Velocity S-wave (km/s) = 3.01569 3.53813 3.28730
# Velocity P-wave (km/s) = 5.37096 5.96298 5.67469
#
# Compressibility (1/GPa) = 0.03033470
#
# Stress axis : x y z
#
# Youngs Moduli (GPa) = 86.65751 69.25165 46.15115
#
# Poissons Ratio (x) = 0.25051 0.08225
# Poissons Ratio (y) = 0.31347 0.15031
# Poissons Ratio (z) = 0.15444 0.22555
#
# Static dielectric constant tensor:
#      x y z
#    x 3.791060 0.000000 -0.096630 
#    y 0.000000 3.472320 0.000000 
#    z -0.096630 0.000000 3.353120 
# 
# 
# High freq. dielectric constant tensor:
#      x y z
#    x 1.783340 0.000000 -0.000910 
#    y 0.000000 1.756360 0.000000 
#    z -0.000910 0.000000 1.749340 
# 
# From -- ./inp_files/133149.got.cif
#   From: 2010.06.25/outbox.cif.g09.slc.cpg/sg12_67_cif.got.tgz:133149.got - 2010.06.28 00:19:55.
