data_PCOD8093767
_publ_section_title
;
Structure prediction by ZEFSAII (Michael W. Deem and Ramdas Pophale) SiO2 
 PCOD8093767
Probable space group: C 2/M
;
_chemical_formula_sum "Si O2"
_cell_formula_units_Z 52
_cell_length_a 21.385624
_cell_length_b 19.303988
_cell_length_c 8.423263
_cell_angle_alpha 90.000000
_cell_angle_beta 127.079476
_cell_angle_gamma 90.000000
_cell_volume 2774.235555
_symmetry_space_group_name_H-M "C 2/M"
_symmetry_group_IT_number 12
_symmetry_cell_setting 'monoclinic'
loop_
_space_group_symop_operation_xyz
x,y,z
-x,y,-z
-x,-y,-z
x,-y,z
1/2+x,1/2+y,z
1/2-x,1/2+y,-z
1/2-x,1/2-y,-z
1/2+x,1/2-y,z
loop_
_atom_site_type_symbol
_atom_site_label
_atom_site_fract_x
_atom_site_fract_y
_atom_site_fract_z
Si Si1 0.588117 0.817961 0.182503
Si Si2 0.227246 0.687532 0.173133
Si Si3 0.500000 0.725191 0.500000
Si Si4 0.688005 0.420871 0.489807
Si Si5 0.048100 0.179607 0.241390
Si Si6 0.828416 0.421820 0.484487
Si Si7 0.837945 0.697270 0.265853
O O1 0.643451 0.795568 0.122342
O O2 0.592497 0.754249 0.314791
O O3 0.616734 0.890373 0.295526
O O4 0.500000 0.831604 0.000000
O O5 0.266452 0.617276 0.298149
O O6 0.288451 0.749775 0.300419
O O7 0.213054 0.680701 0.966409
O O8 0.502048 0.677822 0.341104
O O9 0.576111 0.773114 0.637903
O O10 0.673238 0.500000 0.520231
O O11 0.605519 0.385392 0.324959
O O12 0.738560 0.418026 0.405631
O O13 0.000000 0.177715 0.000000
O O14 0.854842 0.500000 0.490873
O O15 0.842979 0.377988 0.350337
#
# Coordination Sequence:
#
# PCOD8093767 Si02
#       7
#     8   8   4   8   8   8   8
#     4  10  19  36  59  85 114 152 197 245 298 351
#     4  10  21  36  62  87 112 158 200 246 303 355
#     4  12  22  38  62  94 124 156 200 262 294 362
#     4  10  21  41  61  84 120 158 200 246 300 366
#     4  11  22  38  64  90 122 156 201 252 307 354
#     4  10  21  36  57  82 115 156 195 241 296 357
#     4  11  21  36  59  87 121 149 202 250 298 354
#
# _framework density 18.743904000000001
#
# number of rings (size 3 to 8) (size 9 to 14) (size 15 to 20)
#    0.000    1.538    3.077    2.769    0.000    4.923 
#    0.000    0.769    0.000    0.000    0.000    0.000 
#    0.000    0.000    0.000    0.000    0.000    0.000 
#
# Total GULP energy -322266.614883 kJ/mol
# GULP energy per Si atom -12394.869803 kJ/mol
# Density = 1.870124 g / cm^3
# Si number density = 18.743904 Si / 1000 Ang^3
#
#
#
# Elastic Constant Matrix: (Units=GPa)
#
#
# Indices 1 2 3 4 5 6 
#
# 1 110.9890 54.9191 48.9760 0.0000 9.4574 0.0000
# 2 54.9191 127.3076 42.9309 0.0000 14.7100 0.0000
# 3 48.9760 42.9309 95.3198 0.0000 2.2377 0.0000
# 4 0.0000 0.0000 0.0000 18.6129 0.0000 -1.1066
# 5 9.4574 14.7100 2.2377 0.0000 31.5213 0.0000
# 6 0.0000 0.0000 0.0000 -1.1066 0.0000 29.3588
#
#
#
# Elastic Compliance Matrix: (Units=1/GPa)
#
#
# Indices 1 2 3 4 5 6 
#
# 1 0.013289 -0.003810 -0.005069 0.000000 -0.001849 0.000000
# 2 -0.003810 0.010896 -0.002862 0.000000 -0.003738 0.000000
# 3 -0.005069 -0.002862 0.014341 0.000000 0.001838 0.000000
# 4 0.000000 0.000000 0.000000 0.053847 0.000000 0.002030
# 5 -0.001849 -0.003738 0.001838 0.000000 0.033894 0.000000
# 6 0.000000 0.000000 0.000000 0.002030 0.000000 0.034138
#
#
# Mechanical properties :
#
#
# Convention : Reuss Voigt Hill
#
# Bulk Modulus (GPa) = 66.46770 69.69648 68.08209
# Shear Modulus (GPa) = 26.46891 28.35129 27.41010
#
# Velocity S-wave (km/s) = 3.76191 3.89338 3.82821
# Velocity P-wave (km/s) = 7.37613 7.58126 7.47940
#
# Compressibility (1/GPa) = 0.01504490
#
# Stress axis : x y z
#
# Youngs Moduli (GPa) = 75.24786 91.78014 69.72902
#
# Poissons Ratio (x) = 0.34967 0.35345
# Poissons Ratio (y) = 0.28669 0.19956
# Poissons Ratio (z) = 0.38142 0.26267
#
# Static dielectric constant tensor:
#      x y z
#    x 3.559310 0.000000 -0.017300 
#    y 0.000000 3.450940 0.000000 
#    z -0.017300 0.000000 3.419610 
# 
# 
# High freq. dielectric constant tensor:
#      x y z
#    x 1.732580 0.000000 0.001350 
#    y 0.000000 1.714400 0.000000 
#    z 0.001350 0.000000 1.735420 
# 
# From -- ./inp_files/75379.got.cif
#   From: 2010.06.25/outbox.cif.g09.slc.cpg/sg12_38_cif.got.tgz:75379.got - 2010.06.28 00:19:55.
