data_PCOD8093444
_publ_section_title
;
Structure prediction by ZEFSAII (Michael W. Deem and Ramdas Pophale) SiO2 
 PCOD8093444
Probable space group: C 2/M
;
_chemical_formula_sum "Si O2"
_cell_formula_units_Z 48
_cell_length_a 28.774266
_cell_length_b 18.371095
_cell_length_c 9.828710
_cell_angle_alpha 90.000000
_cell_angle_beta 28.764790
_cell_angle_gamma 90.000000
_cell_volume 2500.201631
_symmetry_space_group_name_H-M "C 2/M"
_symmetry_group_IT_number 12
_symmetry_cell_setting 'monoclinic'
loop_
_space_group_symop_operation_xyz
x,y,z
-x,y,-z
-x,-y,-z
x,-y,z
1/2+x,1/2+y,z
1/2-x,1/2+y,-z
1/2-x,1/2-y,-z
1/2+x,1/2-y,z
loop_
_atom_site_type_symbol
_atom_site_label
_atom_site_fract_x
_atom_site_fract_y
_atom_site_fract_z
Si Si1 0.712827 0.415791 0.259856
Si Si2 0.726999 0.173690 0.135873
Si Si3 0.991448 0.856916 0.176713
Si Si4 0.679443 0.162962 0.773115
Si Si5 0.479214 0.185241 0.207866
Si Si6 0.314501 0.666985 0.194436
O O1 0.730361 0.500000 0.243533
O O2 0.600067 0.398512 0.526716
O O3 0.758612 0.370491 0.265089
O O4 0.765845 0.392638 0.986422
O O5 0.622391 0.162477 0.470036
O O6 0.802845 0.160723 0.062641
O O7 0.750000 0.250000 0.000000
O O8 0.976077 0.771598 0.226168
O O9 0.000000 0.883464 0.000000
O O10 0.088132 0.876354 0.013025
O O11 0.681941 0.249454 0.773119
O O12 0.725244 0.134999 0.512414
O O13 0.564779 0.145422 0.074343
O O14 0.500000 0.161401 0.000000
#
# Coordination Sequence:
#
# PCOD8093444 Si02
#       6
#     8   8   8   8   8   8
#     4  12  26  43  60  91 139 176 207 259 330 393
#     4  12  22  40  62  96 131 169 210 267 321 371
#     4  10  19  36  63  96 124 164 208 262 318 379
#     4  10  19  37  63  95 120 165 210 270 311 370
#     4  10  19  35  68  96 121 153 217 275 314 363
#     4  10  19  35  67  93 126 155 222 267 304 371
#
# _framework density 19.198452
#
# number of rings (size 3 to 8) (size 9 to 14) (size 15 to 20)
#    0.000    1.333    6.667    0.000    0.000    1.667 
#    0.000    4.167    0.000    1.000    0.000    0.000 
#    0.000    0.000    0.000    0.000    0.000    0.000 
#
# Total GULP energy -297428.202981 kJ/mol
# GULP energy per Si atom -12392.841791 kJ/mol
# Density = 1.915476 g / cm^3
# Si number density = 19.198452 Si / 1000 Ang^3
#
#
#
# Elastic Constant Matrix: (Units=GPa)
#
#
# Indices 1 2 3 4 5 6 
#
# 1 80.5844 -26.8855 33.9476 0.0000 -6.8072 0.0000
# 2 -26.8855 -7.9062 10.3933 0.0000 -9.8887 0.0000
# 3 33.9476 10.3933 136.4698 0.0000 -7.5572 0.0000
# 4 0.0000 0.0000 0.0000 11.1533 0.0000 -10.1817
# 5 -6.8072 -9.8887 -7.5572 0.0000 40.0166 0.0000
# 6 0.0000 0.0000 0.0000 -10.1817 0.0000 -20.2300
#
#
#
# Elastic Compliance Matrix: (Units=1/GPa)
#
#
# Indices 1 2 3 4 5 6 
#
# 1 0.006341 -0.017839 -0.000407 0.000000 -0.003407 0.000000
# 2 -0.017839 -0.041659 0.006945 0.000000 -0.012018 0.000000
# 3 -0.000407 0.006945 0.007065 0.000000 0.002981 0.000000
# 4 0.000000 0.000000 0.000000 0.061434 0.000000 -0.030919
# 5 -0.003407 -0.012018 0.002981 0.000000 0.022003 0.000000
# 6 0.000000 0.000000 0.000000 -0.030919 0.000000 -0.033870
#
#
# Mechanical properties :
#
#
# Convention : Reuss Voigt Hill
#
# Bulk Modulus (GPa) = -19.66331 27.11766 3.72718
# Shear Modulus (GPa) = 185.40945 18.96748 102.18846
#
# Velocity S-wave (km/s) = 9.83793 3.14661 7.30363
# Velocity P-wave (km/s) = 10.89872 5.23040 8.54808
#
# Compressibility (1/GPa) = -0.05085614
#
# Stress axis : x y z
#
# Youngs Moduli (GPa) = 157.69247 -24.00465 141.53947
#
# Poissons Ratio (x) = -0.42823 0.05768
# Poissons Ratio (y) = 2.81314 -0.98297
# Poissons Ratio (z) = 0.06426 0.16671
#
# Static dielectric constant tensor:
#      x y z
#    x 3.777500 0.000000 -0.193900 
#    y 0.000000 3.030210 0.000000 
#    z -0.193900 0.000000 3.884970 
# 
# 
# High freq. dielectric constant tensor:
#      x y z
#    x 1.757970 0.000000 -0.006350 
#    y 0.000000 1.688780 0.000000 
#    z -0.006350 0.000000 1.761990 
# 
# From -- ./inp_files/77295.got.cif
#   From: 2010.06.25/outbox.cif.g09.slc.cpg/sg12_39_cif.got.tgz:77295.got - 2010.06.28 00:19:55.
