data_PCOD8094794
_publ_section_title
;
Structure prediction by ZEFSAII (Michael W. Deem and Ramdas Pophale) SiO2 
 PCOD8094794
Probable space group: C 2/M
;
_chemical_formula_sum "Si O2"
_cell_formula_units_Z 40
_cell_length_a 13.754834
_cell_length_b 23.278953
_cell_length_c 11.239033
_cell_angle_alpha 90.000000
_cell_angle_beta 31.676032
_cell_angle_gamma 90.000000
_cell_volume 1889.742981
_symmetry_space_group_name_H-M "C 2/M"
_symmetry_group_IT_number 12
_symmetry_cell_setting 'monoclinic'
loop_
_space_group_symop_operation_xyz
x,y,z
-x,y,-z
-x,-y,-z
x,-y,z
1/2+x,1/2+y,z
1/2-x,1/2+y,-z
1/2-x,1/2-y,-z
1/2+x,1/2-y,z
loop_
_atom_site_type_symbol
_atom_site_label
_atom_site_fract_x
_atom_site_fract_y
_atom_site_fract_z
Si Si1 0.712021 0.618659 0.753564
Si Si2 0.558355 0.350262 0.575151
Si Si3 0.912986 0.724196 0.463358
Si Si4 0.844540 0.434477 0.387134
Si Si5 0.674045 0.135292 0.105481
O O1 0.740640 0.680375 0.657588
O O2 0.781281 0.569904 0.590689
O O3 0.827024 0.614809 0.755664
O O4 0.500000 0.608588 0.000000
O O5 0.500000 0.354932 0.500000
O O6 0.646489 0.287793 0.519925
O O7 0.708987 0.398718 0.443042
O O8 0.378816 0.360186 0.843010
O O9 0.000000 0.736665 0.500000
O O10 0.066987 0.696606 0.214286
O O11 0.839068 0.500000 0.350398
O O12 0.054523 0.410836 0.155048
#
# Coordination Sequence:
#
# PCOD8094794 Si02
#       5
#     8   8   8   8   8
#     4  10  19  39  65  99 126 152 191 253 320 372
#     4  11  23  42  61  90 122 166 210 246 296 360
#     4   8  18  36  61  93 128 155 192 248 311 371
#     4  11  25  42  63  90 120 163 212 253 303 354
#     4  10  21  40  63  91 128 156 196 255 312 365
#
# _framework density 21.166899999999998
#
# number of rings (size 3 to 8) (size 9 to 14) (size 15 to 20)
#    0.000    2.000    2.000    2.400    0.000    7.200 
#   10.800    1.000    0.000    0.000    0.000    0.000 
#    0.000    0.000    0.000    0.000    0.000    0.000 
#
# Total GULP energy -247943.733488 kJ/mol
# GULP energy per Si atom -12397.186674 kJ/mol
# Density = 2.111872 g / cm^3
# Si number density = 21.166900 Si / 1000 Ang^3
#
#
#
# Elastic Constant Matrix: (Units=GPa)
#
#
# Indices 1 2 3 4 5 6 
#
# 1 52.5727 32.6044 -9.9575 -0.0002 0.6471 0.0003
# 2 32.6044 156.2629 6.5207 0.0002 -18.1554 -0.0001
# 3 -9.9575 6.5207 52.9183 -0.0010 -11.1274 0.0003
# 4 -0.0002 0.0002 -0.0010 15.7869 0.0011 -1.5902
# 5 0.6471 -18.1554 -11.1274 0.0011 31.4511 -0.0006
# 6 0.0003 -0.0001 0.0003 -1.5902 -0.0006 24.8607
#
#
#
# Elastic Compliance Matrix: (Units=1/GPa)
#
#
# Indices 1 2 3 4 5 6 
#
# 1 0.023170 -0.005245 0.004612 0.000001 -0.001872 0.000000
# 2 -0.005245 0.008047 -0.001058 -0.000001 0.004379 0.000000
# 3 0.004612 -0.001058 0.021334 0.000001 0.006843 0.000000
# 4 0.000001 -0.000001 0.000001 0.063754 -0.000002 0.004078
# 5 -0.001872 0.004379 0.006843 -0.000002 0.036783 0.000001
# 6 0.000000 0.000000 0.000000 0.004078 0.000001 0.040485
#
#
# Mechanical properties :
#
#
# Convention : Reuss Voigt Hill
#
# Bulk Modulus (GPa) = 20.33686 35.56547 27.95117
# Shear Modulus (GPa) = 23.43644 29.92549 26.68096
#
# Velocity S-wave (km/s) = 3.33110 3.76412 3.55421
# Velocity P-wave (km/s) = 4.94204 5.97748 5.48425
#
# Compressibility (1/GPa) = 0.04917179
#
# Stress axis : x y z
#
# Youngs Moduli (GPa) = 43.15836 124.27570 46.87325
#
# Poissons Ratio (x) = 0.65177 -0.21620
# Poissons Ratio (y) = 0.22635 0.04958
# Poissons Ratio (z) = -0.19907 0.13144
#
# Static dielectric constant tensor:
#      x y z
#    x 3.846960 0.000000 0.031080 
#    y 0.000000 3.761440 0.000000 
#    z 0.031080 0.000000 3.819930 
# 
# 
# High freq. dielectric constant tensor:
#      x y z
#    x 1.836460 0.000000 -0.007390 
#    y 0.000000 1.813440 0.000000 
#    z -0.007390 0.000000 1.822290 
# 
# From -- ./inp_files/134185.got.cif
#   From: 2010.06.25/outbox.cif.g09.slc.cpg/sg12_68_cif.got.tgz:134185.got - 2010.06.28 00:19:55.
