data_PCOD8094527
_publ_section_title
;
Structure prediction by ZEFSAII (Michael W. Deem and Ramdas Pophale) SiO2 
 PCOD8094527
Probable space group: C 2/M
;
_chemical_formula_sum "Si O2"
_cell_formula_units_Z 48
_cell_length_a 16.000869
_cell_length_b 27.077577
_cell_length_c 5.356680
_cell_angle_alpha 90.000000
_cell_angle_beta 90.856686
_cell_angle_gamma 90.000000
_cell_volume 2320.601264
_symmetry_space_group_name_H-M "C 2/M"
_symmetry_group_IT_number 12
_symmetry_cell_setting 'monoclinic'
loop_
_space_group_symop_operation_xyz
x,y,z
-x,y,-z
-x,-y,-z
x,-y,z
1/2+x,1/2+y,z
1/2-x,1/2+y,-z
1/2-x,1/2-y,-z
1/2+x,1/2-y,z
loop_
_atom_site_type_symbol
_atom_site_label
_atom_site_fract_x
_atom_site_fract_y
_atom_site_fract_z
Si Si1 0.054381 0.743512 0.251738
Si Si2 0.577431 0.092802 0.684473
Si Si3 0.366495 0.000000 0.075117
Si Si4 0.261529 0.000000 0.568102
Si Si5 0.783597 0.796152 0.656216
Si Si6 0.655855 0.834885 0.015565
Si Si7 0.742655 0.104095 0.389678
O O1 0.120309 0.788508 0.259244
O O2 0.110120 0.693406 0.240980
O O3 0.000000 0.742533 0.500000
O O4 0.000000 0.750273 0.000000
O O5 0.500000 0.093927 0.500000
O O6 0.573598 0.047628 0.879719
O O7 0.660661 0.087450 0.530671
O O8 0.582367 0.144824 0.833578
O O9 0.294302 0.000000 0.284421
O O10 0.332870 0.000000 0.789832
O O11 0.207003 0.051293 0.611303
O O12 0.750000 0.750000 0.500000
O O13 0.787713 0.848837 0.513853
O O14 0.718915 0.797583 0.882340
O O15 0.713076 0.880391 0.111670
#
# Coordination Sequence:
#
# PCOD8094527 Si02
#       7
#     8   8   4   4   8   8   8
#     4  12  28  42  63  96 132 165 211 267 320 383
#     4  10  22  35  53  84 120 169 216 263 308 363
#     4  10  19  38  54  76 122 165 211 259 313 353
#     4  10  20  40  59  92 116 160 219 266 309 365
#     4  11  23  43  65  92 127 174 216 257 326 384
#     4  11  23  38  63  86 123 172 210 260 313 377
#     4  10  22  37  62  86 123 164 213 264 313 377
#
# _framework density 20.684294000000001
#
# number of rings (size 3 to 8) (size 9 to 14) (size 15 to 20)
#    0.000    1.333    3.333    1.750    7.000    0.000 
#    0.000    1.667    0.000    0.000    0.000    1.750 
#    0.000    0.000    0.000    0.000    0.000    0.000 
#
# Total GULP energy -297343.175368 kJ/mol
# GULP energy per Si atom -12389.298974 kJ/mol
# Density = 2.063722 g / cm^3
# Si number density = 20.684294 Si / 1000 Ang^3
#
#
#
# Elastic Constant Matrix: (Units=GPa)
#
#
# Indices 1 2 3 4 5 6 
#
# 1 66.5729 44.9448 33.6473 0.0000 -4.2836 0.0000
# 2 44.9448 159.6868 35.6073 0.0000 -0.6610 0.0000
# 3 33.6473 35.6073 101.8271 0.0000 -2.6155 0.0000
# 4 0.0000 0.0000 0.0000 52.9305 0.0000 11.2125
# 5 -4.2836 -0.6610 -2.6155 0.0000 23.9194 0.0000
# 6 0.0000 0.0000 0.0000 11.2125 0.0000 17.5309
#
#
#
# Elastic Compliance Matrix: (Units=1/GPa)
#
#
# Indices 1 2 3 4 5 6 
#
# 1 0.021065 -0.004752 -0.005220 0.000000 0.003070 0.000000
# 2 -0.004752 0.007864 -0.001199 0.000000 -0.000765 0.000000
# 3 -0.005220 -0.001199 0.011974 0.000000 0.000341 0.000000
# 4 0.000000 0.000000 0.000000 0.021854 0.000000 -0.013977
# 5 0.003070 -0.000765 0.000341 0.000000 0.042373 0.000000
# 6 0.000000 0.000000 0.000000 -0.013977 0.000000 0.065982
#
#
# Mechanical properties :
#
#
# Convention : Reuss Voigt Hill
#
# Bulk Modulus (GPa) = 53.87993 61.83174 57.85584
# Shear Modulus (GPa) = 25.04490 33.13531 29.09011
#
# Velocity S-wave (km/s) = 3.48345 4.00679 3.75425
# Velocity P-wave (km/s) = 6.50266 7.16685 6.84282
#
# Compressibility (1/GPa) = 0.01855979
#
# Stress axis : x y z
#
# Youngs Moduli (GPa) = 47.47114 127.16072 83.51707
#
# Poissons Ratio (x) = 0.60430 0.43597
# Poissons Ratio (y) = 0.22560 0.10016
# Poissons Ratio (z) = 0.24780 0.15250
#
# Static dielectric constant tensor:
#      x y z
#    x 3.036010 0.000000 -0.156510 
#    y 0.000000 4.642000 0.000000 
#    z -0.156510 0.000000 3.797900 
# 
# 
# High freq. dielectric constant tensor:
#      x y z
#    x 1.742620 0.000000 0.005830 
#    y 0.000000 1.831820 0.000000 
#    z 0.005830 0.000000 1.829530 
# 
# From -- ./inp_files/12406.got.cif
#   From: 2010.06.25/outbox.cif.g09.slc.cpg/sg12_7_cif.got.tgz:12406.got - 2010.06.28 00:19:55.
