data_PCOD8094678
_publ_section_title
;
Structure prediction by ZEFSAII (Michael W. Deem and Ramdas Pophale) SiO2 
 PCOD8094678
Probable space group: C 2/M
;
_chemical_formula_sum "Si O2"
_cell_formula_units_Z 44
_cell_length_a 22.926060
_cell_length_b 14.231527
_cell_length_c 16.496296
_cell_angle_alpha 90.000000
_cell_angle_beta 23.474556
_cell_angle_gamma 90.000000
_cell_volume 2143.992325
_symmetry_space_group_name_H-M "C 2/M"
_symmetry_group_IT_number 12
_symmetry_cell_setting 'monoclinic'
loop_
_space_group_symop_operation_xyz
x,y,z
-x,y,-z
-x,-y,-z
x,-y,z
1/2+x,1/2+y,z
1/2-x,1/2+y,-z
1/2-x,1/2-y,-z
1/2+x,1/2-y,z
loop_
_atom_site_type_symbol
_atom_site_label
_atom_site_fract_x
_atom_site_fract_y
_atom_site_fract_z
Si Si1 0.339457 0.000000 0.041537
Si Si2 0.623574 0.864931 0.150931
Si Si3 0.658311 0.500000 0.761690
Si Si4 0.382923 0.500000 0.544802
Si Si5 0.944852 0.148314 0.772828
Si Si6 0.056343 0.500000 0.518559
Si Si7 0.365109 0.000000 0.263099
Si Si8 0.195336 0.144075 0.575732
O O1 0.170815 0.000000 0.291942
O O2 0.367032 0.093298 0.952137
O O3 0.457524 0.000000 0.965775
O O4 0.572567 0.758181 0.220064
O O5 0.499100 0.909624 0.363504
O O6 0.779612 0.888659 0.993965
O O7 0.682741 0.596701 0.680023
O O8 0.768083 0.500000 0.698364
O O9 0.500000 0.500000 0.000000
O O10 0.474704 0.593598 0.404114
O O11 0.222246 0.500000 0.709169
O O12 0.036420 0.129124 0.737270
O O13 0.000000 0.500000 0.500000
O O14 0.322267 0.907661 0.366446
O O15 0.250000 0.250000 0.500000
#
# Coordination Sequence:
#
# PCOD8094678 Si02
#       8
#     4   8   4   4   8   4   4   8
#     4  11  20  37  61  85 119 154 196 246 305 348
#     4  10  22  40  61  86 121 161 207 240 306 375
#     4  11  25  39  62  98 124 152 211 262 301 363
#     4  10  21  36  60  90 119 148 198 254 296 345
#     4  10  21  39  61  89 119 160 201 246 303 370
#     4  11  24  42  64  86 127 167 204 252 312 364
#     4   9  19  34  57  86 116 156 195 239 296 370
#     4  10  19  38  65  82 121 162 201 243 306 362
#
# _framework density 20.522462000000001
#
# number of rings (size 3 to 8) (size 9 to 14) (size 15 to 20)
#    0.000    1.818    0.000    6.273    2.545    1.455 
#    6.545    9.091    0.000    0.000    0.000    0.000 
#    0.000    0.000    0.000    0.000    0.000    0.000 
#
# Total GULP energy -272555.086779 kJ/mol
# GULP energy per Si atom -12388.867581 kJ/mol
# Density = 2.047575 g / cm^3
# Si number density = 20.522462 Si / 1000 Ang^3
#
#
#
# Elastic Constant Matrix: (Units=GPa)
#
#
# Indices 1 2 3 4 5 6 
#
# 1 84.7605 27.9043 46.7948 0.0001 -12.0691 -0.0001
# 2 27.9043 148.2368 50.7708 0.0000 9.5869 0.0000
# 3 46.7948 50.7708 138.8459 -0.0001 -8.4177 -0.0001
# 4 0.0001 0.0000 -0.0001 25.1533 -0.0001 -13.4002
# 5 -12.0691 9.5869 -8.4177 -0.0001 46.0705 0.0001
# 6 -0.0001 0.0000 -0.0001 -13.4002 0.0001 17.4976
#
#
#
# Elastic Compliance Matrix: (Units=1/GPa)
#
#
# Indices 1 2 3 4 5 6 
#
# 1 0.015220 -0.001612 -0.004326 0.000000 0.003532 0.000000
# 2 -0.001612 0.008098 -0.002574 0.000000 -0.002578 0.000000
# 3 -0.004326 -0.002574 0.009672 0.000000 0.001170 0.000000
# 4 0.000000 0.000000 0.000000 0.067155 0.000000 0.051429
# 5 0.003532 -0.002578 0.001170 0.000000 0.023381 0.000000
# 6 0.000000 0.000000 0.000000 0.051429 0.000000 0.096537
#
#
# Mechanical properties :
#
#
# Convention : Reuss Voigt Hill
#
# Bulk Modulus (GPa) = 62.63245 69.19811 65.91528
# Shear Modulus (GPa) = 20.62635 34.16915 27.39775
#
# Velocity S-wave (km/s) = 3.17371 4.08482 3.65775
# Velocity P-wave (km/s) = 6.63439 7.48593 7.07299
#
# Compressibility (1/GPa) = 0.01596616
#
# Stress axis : x y z
#
# Youngs Moduli (GPa) = 65.70384 123.49203 103.38756
#
# Poissons Ratio (x) = 0.19904 0.44725
# Poissons Ratio (y) = 0.10590 0.26613
# Poissons Ratio (z) = 0.28423 0.31788
#
# Static dielectric constant tensor:
#      x y z
#    x 3.830850 0.000000 -0.312630 
#    y 0.000000 3.707480 0.000000 
#    z -0.312630 0.000000 3.918750 
# 
# 
# High freq. dielectric constant tensor:
#      x y z
#    x 1.796330 0.000000 -0.029180 
#    y 0.000000 1.806710 0.000000 
#    z -0.029180 0.000000 1.814280 
# 
# From -- ./inp_files/290054.got.cif
#   From: 2010.06.25/outbox.cif.g09.slc.cpg/sg12_146_cif.got.tgz:290054.got - 2010.06.28 00:19:55.
