data_PCOD8094305
_publ_section_title
;
Structure prediction by ZEFSAII (Michael W. Deem and Ramdas Pophale) SiO2 
 PCOD8094305
Probable space group: C 2/M
;
_chemical_formula_sum "Si O2"
_cell_formula_units_Z 64
_cell_length_a 25.122609
_cell_length_b 8.916237
_cell_length_c 29.406793
_cell_angle_alpha 90.000000
_cell_angle_beta 150.289988
_cell_angle_gamma 90.000000
_cell_volume 3264.633707
_symmetry_space_group_name_H-M "C 2/M"
_symmetry_group_IT_number 12
_symmetry_cell_setting 'monoclinic'
loop_
_space_group_symop_operation_xyz
x,y,z
-x,y,-z
-x,-y,-z
x,-y,z
1/2+x,1/2+y,z
1/2-x,1/2+y,-z
1/2-x,1/2-y,-z
1/2+x,1/2-y,z
loop_
_atom_site_type_symbol
_atom_site_label
_atom_site_fract_x
_atom_site_fract_y
_atom_site_fract_z
Si Si1 0.642111 0.824726 0.981424
Si Si2 0.218110 0.169361 0.234001
Si Si3 0.233341 0.326624 0.336996
Si Si4 0.863697 0.179049 0.275665
Si Si5 0.482425 0.676355 0.792456
Si Si6 0.979069 0.169167 0.034774
Si Si7 0.469364 0.325683 0.526382
Si Si8 0.371992 0.323655 0.179668
O O1 0.571758 0.732922 0.893695
O O2 0.600744 0.786584 0.001269
O O3 0.629432 0.000000 0.961671
O O4 0.765955 0.769121 0.073282
O O5 0.262079 0.264661 0.308613
O O6 0.254145 0.248583 0.213801
O O7 0.090285 0.168597 0.144642
O O8 0.262886 0.000000 0.268889
O O9 0.202333 0.500000 0.309777
O O10 0.344060 0.300888 0.446785
O O11 0.135143 0.244989 0.288759
O O12 0.882175 0.242836 0.238227
O O13 0.959592 0.239953 0.379478
O O14 0.854525 0.000000 0.268907
O O15 0.472463 0.500000 0.791986
O O16 0.523179 0.719517 0.771998
O O17 0.930279 0.000000 0.997605
O O18 0.000000 0.228790 0.000000
O O19 0.500000 0.251868 0.500000
O O20 0.496516 0.500000 0.542825
O O21 0.360160 0.500000 0.175998
#
# Coordination Sequence:
#
# PCOD8094305 Si02
#       8
#     8   8   8   8   8   8   8   8
#     4  11  21  35  56  83 109 142 194 236 273 325
#     4  11  21  33  52  81 116 149 180 222 280 332
#     4  11  21  36  58  84 110 141 187 232 273 329
#     4  10  19  37  61  82 111 148 188 229 275 333
#     4  11  22  39  58  80 113 149 189 232 284 333
#     4  10  21  35  50  74 113 154 185 221 278 335
#     4   9  17  32  57  87 111 141 182 227 278 332
#     4   9  21  38  58  83 110 147 190 234 277 328
#
# _framework density 19.604037999999999
#
# number of rings (size 3 to 8) (size 9 to 14) (size 15 to 20)
#    0.000    1.750    2.500    2.625    0.000    0.750 
#    0.000    6.250    0.000    0.000    0.000    0.000 
#    0.000    0.000    0.000    0.000    0.000    0.000 
#
# Total GULP energy -396721.583227 kJ/mol
# GULP energy per Si atom -12397.549476 kJ/mol
# Density = 1.955942 g / cm^3
# Si number density = 19.604038 Si / 1000 Ang^3
#
#
#
# Elastic Constant Matrix: (Units=GPa)
#
#
# Indices 1 2 3 4 5 6 
#
# 1 116.7941 35.7840 34.9188 -0.0002 11.0620 0.0001
# 2 35.7840 72.7089 22.5389 -0.0002 9.0560 0.0006
# 3 34.9188 22.5389 77.7921 -0.0008 9.9238 -0.0001
# 4 -0.0002 -0.0002 -0.0008 15.3418 0.0000 2.3954
# 5 11.0620 9.0560 9.9238 0.0000 23.5795 0.0000
# 6 0.0001 0.0006 -0.0001 2.3954 0.0000 25.4245
#
#
#
# Elastic Compliance Matrix: (Units=1/GPa)
#
#
# Indices 1 2 3 4 5 6 
#
# 1 0.011068 -0.004092 -0.003509 0.000000 -0.002144 0.000000
# 2 -0.004092 0.017025 -0.002649 0.000000 -0.003504 0.000000
# 3 -0.003509 -0.002649 0.015700 0.000001 -0.003944 0.000000
# 4 0.000000 0.000000 0.000001 0.066155 0.000000 -0.006233
# 5 -0.002144 -0.003504 -0.003944 0.000000 0.046421 0.000000
# 6 0.000000 0.000000 0.000000 -0.006233 0.000000 0.039919
#
#
# Mechanical properties :
#
#
# Convention : Reuss Voigt Hill
#
# Bulk Modulus (GPa) = 42.93069 50.41982 46.67526
# Shear Modulus (GPa) = 22.26639 24.47272 23.36956
#
# Velocity S-wave (km/s) = 3.37383 3.53703 3.45640
# Velocity P-wave (km/s) = 6.09290 6.51581 6.30790
#
# Compressibility (1/GPa) = 0.02329336
#
# Stress axis : x y z
#
# Youngs Moduli (GPa) = 90.34972 58.73687 63.69239
#
# Poissons Ratio (x) = 0.24038 0.22349
# Poissons Ratio (y) = 0.36975 0.16870
# Poissons Ratio (z) = 0.31703 0.15558
#
# Static dielectric constant tensor:
#      x y z
#    x 3.728110 0.000000 -0.022080 
#    y 0.000000 3.347090 0.000000 
#    z -0.022080 0.000000 3.661810 
# 
# 
# High freq. dielectric constant tensor:
#      x y z
#    x 1.763370 0.000000 0.005090 
#    y 0.000000 1.742730 0.000000 
#    z 0.005090 0.000000 1.762950 
# 
# From -- ./inp_files/382564.got.cif
#   From: 2010.06.25/outbox.cif.g09.slc.cpg/sg12_192_cif.got.tgz:382564.got - 2010.06.28 00:19:55.
