data_PCOD8094418
_publ_section_title
;
Structure prediction by ZEFSAII (Michael W. Deem and Ramdas Pophale) SiO2 
 PCOD8094418
Probable space group: C 2/M
;
_chemical_formula_sum "Si O2"
_cell_formula_units_Z 64
_cell_length_a 31.878216
_cell_length_b 13.492872
_cell_length_c 8.672370
_cell_angle_alpha 90.000000
_cell_angle_beta 119.874692
_cell_angle_gamma 90.000000
_cell_volume 3234.549738
_symmetry_space_group_name_H-M "C 2/M"
_symmetry_group_IT_number 12
_symmetry_cell_setting 'monoclinic'
loop_
_space_group_symop_operation_xyz
x,y,z
-x,y,-z
-x,-y,-z
x,-y,z
1/2+x,1/2+y,z
1/2-x,1/2+y,-z
1/2-x,1/2-y,-z
1/2+x,1/2-y,z
loop_
_atom_site_type_symbol
_atom_site_label
_atom_site_fract_x
_atom_site_fract_y
_atom_site_fract_z
Si Si1 0.015840 0.207452 0.353589
Si Si2 0.326982 0.386713 0.987171
Si Si3 0.305701 0.616982 0.292584
Si Si4 0.877739 0.388218 0.861190
Si Si5 0.082172 0.193973 0.982284
Si Si6 0.463272 0.889386 0.798848
Si Si7 0.779604 0.719823 0.701930
Si Si8 0.398847 0.614968 0.649027
O O1 0.000000 0.203563 0.500000
O O2 0.032066 0.318775 0.340147
O O3 0.060195 0.132782 0.405380
O O4 0.972116 0.171143 0.165780
O O5 0.309812 0.500000 0.935940
O O6 0.383851 0.378913 0.053363
O O7 0.298051 0.320645 0.812749
O O8 0.318863 0.347500 0.144950
O O9 0.301031 0.500000 0.289547
O O10 0.254531 0.663697 0.240626
O O11 0.347463 0.651549 0.487663
O O12 0.878098 0.500000 0.932412
O O13 0.903151 0.309450 0.024879
O O14 0.907990 0.388039 0.757314
O O15 0.822932 0.353098 0.730864
O O16 0.088606 0.178437 0.177255
O O17 0.478336 0.000000 0.774852
O O18 0.500000 0.852170 0.000000
O O19 0.750000 0.750000 0.500000
O O20 0.396959 0.500000 0.690134
#
# Coordination Sequence:
#
# PCOD8094418 Si02
#       8
#     8   8   8   8   8   8   8   8
#     4  12  24  37  57  87 123 156 194 239 295 357
#     4  10  22  39  60  86 121 159 194 239 297 352
#     4  10  21  40  62  86 118 156 195 243 301 352
#     4  10  20  36  61  87 112 147 195 246 289 336
#     4  11  21  38  59  89 114 154 200 243 291 344
#     4  10  19  37  63  85 114 152 195 242 291 347
#     4  11  23  37  60  91 119 156 201 243 286 346
#     4  11  23  39  61  85 115 155 203 248 290 346
#
# _framework density 19.786370999999999
#
# number of rings (size 3 to 8) (size 9 to 14) (size 15 to 20)
#    0.000    1.375    2.500    3.750    0.000    4.000 
#    0.000    0.000    0.000    0.000    0.000    0.000 
#    0.000    0.000    0.000    0.000    0.000    0.000 
#
# Total GULP energy -396848.679312 kJ/mol
# GULP energy per Si atom -12401.521229 kJ/mol
# Density = 1.974134 g / cm^3
# Si number density = 19.786371 Si / 1000 Ang^3
#
#
#
# Elastic Constant Matrix: (Units=GPa)
#
#
# Indices 1 2 3 4 5 6 
#
# 1 132.5501 25.2208 35.4930 0.0000 4.1263 0.0000
# 2 25.2208 73.4287 39.6208 0.0000 4.5352 0.0000
# 3 35.4930 39.6208 74.5097 0.0000 0.6557 0.0000
# 4 0.0000 0.0000 0.0000 21.5554 0.0000 -2.2887
# 5 4.1263 4.5352 0.6557 0.0000 38.5441 0.0000
# 6 0.0000 0.0000 0.0000 -2.2887 0.0000 32.6569
#
#
#
# Elastic Compliance Matrix: (Units=1/GPa)
#
#
# Indices 1 2 3 4 5 6 
#
# 1 0.008727 -0.000998 -0.003620 0.000000 -0.000755 0.000000
# 2 -0.000998 0.019380 -0.009812 0.000000 -0.002007 0.000000
# 3 -0.003620 -0.009812 0.020353 0.000000 0.001196 0.000000
# 4 0.000000 0.000000 0.000000 0.046740 0.000000 0.003276
# 5 -0.000755 -0.002007 0.001196 0.000000 0.026241 0.000000
# 6 0.000000 0.000000 0.000000 0.003276 0.000000 0.030851
#
#
# Mechanical properties :
#
#
# Convention : Reuss Voigt Hill
#
# Bulk Modulus (GPa) = 51.02164 53.46198 52.24181
# Shear Modulus (GPa) = 26.64043 30.56154 28.60098
#
# Velocity S-wave (km/s) = 3.67332 3.93437 3.80608
# Velocity P-wave (km/s) = 6.62067 6.90777 6.76574
#
# Compressibility (1/GPa) = 0.01959953
#
# Stress axis : x y z
#
# Youngs Moduli (GPa) = 114.58729 51.59999 49.13326
#
# Poissons Ratio (x) = 0.05147 0.17786
# Poissons Ratio (y) = 0.11430 0.48212
# Poissons Ratio (z) = 0.41481 0.50632
#
# Static dielectric constant tensor:
#      x y z
#    x 3.967630 0.000000 0.111510 
#    y 0.000000 3.690100 0.000000 
#    z 0.111510 0.000000 3.390790 
# 
# 
# High freq. dielectric constant tensor:
#      x y z
#    x 1.788650 0.000000 0.009370 
#    y 0.000000 1.779180 0.000000 
#    z 0.009370 0.000000 1.746240 
# 
# From -- ./inp_files/111693.got.cif
#   From: 2010.06.25/outbox.cif.g09.slc.cpg/sg12_56_cif.got.tgz:111693.got - 2010.06.28 00:19:55.
