data_PCOD8094872
_publ_section_title
;
Structure prediction by ZEFSAII (Michael W. Deem and Ramdas Pophale) SiO2 
 PCOD8094872
Probable space group: C 2/M
;
_chemical_formula_sum "Si O2"
_cell_formula_units_Z 60
_cell_length_a 10.712119
_cell_length_b 30.029617
_cell_length_c 9.254075
_cell_angle_alpha 90.000000
_cell_angle_beta 67.880016
_cell_angle_gamma 90.000000
_cell_volume 2757.753865
_symmetry_space_group_name_H-M "C 2/M"
_symmetry_group_IT_number 12
_symmetry_cell_setting 'monoclinic'
loop_
_space_group_symop_operation_xyz
x,y,z
-x,y,-z
-x,-y,-z
x,-y,z
1/2+x,1/2+y,z
1/2-x,1/2+y,-z
1/2-x,1/2-y,-z
1/2+x,1/2-y,z
loop_
_atom_site_type_symbol
_atom_site_label
_atom_site_fract_x
_atom_site_fract_y
_atom_site_fract_z
Si Si1 0.274802 0.294286 0.897318
Si Si2 0.579432 0.132785 0.596912
Si Si3 0.204056 0.206243 0.444044
Si Si4 0.852270 0.091600 0.125199
Si Si5 0.520430 0.343080 0.728982
Si Si6 0.110808 0.624778 0.057699
Si Si7 0.746396 0.449980 0.553119
Si Si8 0.500000 0.588404 0.500000
O O1 0.308543 0.281367 0.718000
O O2 0.410119 0.321153 0.885506
O O3 0.250000 0.250000 0.000000
O O4 0.148653 0.327489 0.970039
O O5 0.500000 0.154940 0.500000
O O6 0.700667 0.163657 0.590394
O O7 0.463121 0.131812 0.762602
O O8 0.632146 0.083484 0.535581
O O9 0.250000 0.250000 0.500000
O O10 0.070959 0.192845 0.590081
O O11 0.862704 0.137030 0.218280
O O12 0.746866 0.096811 0.037213
O O13 0.801552 0.054126 0.258845
O O14 0.000000 0.078743 0.000000
O O15 0.453287 0.381840 0.658765
O O16 0.000000 0.600948 0.000000
O O17 0.799765 0.500000 0.506876
O O18 0.624909 0.441836 0.493547
#
# Coordination Sequence:
#
# PCOD8094872 Si02
#       8
#     8   8   8   8   8   8   8   4
#     4  12  27  41  63  99 141 185 238 298 349 408
#     4  12  24  46  71  98 138 188 234 281 355 427
#     4  12  26  42  68 101 138 184 240 298 341 420
#     4  11  23  43  73 100 136 186 227 286 359 424
#     4  11  21  43  70  93 135 186 242 288 350 418
#     4  12  26  45  67 100 138 188 236 284 352 419
#     4  11  24  42  73 109 138 178 236 294 354 428
#     4  10  19  42  72 102 132 170 238 290 357 402
#
# _framework density 21.756837999999998
#
# number of rings (size 3 to 8) (size 9 to 14) (size 15 to 20)
#    0.000    0.533    8.000    0.200    5.600    0.533 
#    0.000    0.000    0.000    1.600    0.000    0.000 
#    0.000    0.000    0.000    0.000    0.000    0.000 
#
# Total GULP energy -371774.974518 kJ/mol
# GULP energy per Si atom -12392.499151 kJ/mol
# Density = 2.170732 g / cm^3
# Si number density = 21.756838 Si / 1000 Ang^3
#
#
#
# Elastic Constant Matrix: (Units=GPa)
#
#
# Indices 1 2 3 4 5 6 
#
# 1 116.1746 20.3007 28.8029 0.0000 11.2703 0.0000
# 2 20.3007 101.3956 14.9226 0.0000 -7.4058 0.0000
# 3 28.8029 14.9226 102.7060 0.0000 -10.6700 0.0000
# 4 0.0000 0.0000 0.0000 26.8811 0.0000 -1.1868
# 5 11.2703 -7.4058 -10.6700 0.0000 48.7783 0.0000
# 6 0.0000 0.0000 0.0000 -1.1868 0.0000 12.3790
#
#
#
# Elastic Compliance Matrix: (Units=1/GPa)
#
#
# Indices 1 2 3 4 5 6 
#
# 1 0.009941 -0.001803 -0.002858 0.000000 -0.003196 0.000000
# 2 -0.001803 0.010479 -0.000827 0.000000 0.001827 0.000000
# 3 -0.002858 -0.000827 0.010963 0.000000 0.002933 0.000000
# 4 0.000000 0.000000 0.000000 0.037359 0.000000 0.003582
# 5 -0.003196 0.001827 0.002933 0.000000 0.022158 0.000000
# 6 0.000000 0.000000 0.000000 0.003582 0.000000 0.081125
#
#
# Mechanical properties :
#
#
# Convention : Reuss Voigt Hill
#
# Bulk Modulus (GPa) = 49.00427 49.81431 49.40929
# Shear Modulus (GPa) = 26.34298 34.69102 30.51700
#
# Velocity S-wave (km/s) = 3.48342 3.99744 3.74925
# Velocity P-wave (km/s) = 6.22507 6.65219 6.44217
#
# Compressibility (1/GPa) = 0.02040638
#
# Stress axis : x y z
#
# Youngs Moduli (GPa) = 100.58886 95.43337 91.21686
#
# Poissons Ratio (x) = 0.17209 0.26070
# Poissons Ratio (y) = 0.18138 0.07544
# Poissons Ratio (z) = 0.28748 0.07892
#
# Static dielectric constant tensor:
#      x y z
#    x 3.587180 0.000000 0.390130 
#    y 0.000000 3.623290 0.000000 
#    z 0.390130 0.000000 4.035530 
# 
# 
# High freq. dielectric constant tensor:
#      x y z
#    x 1.866310 0.000000 0.000210 
#    y 0.000000 1.817810 0.000000 
#    z 0.000210 0.000000 1.873070 
# 
# From -- ./inp_files/54664.got.cif
#   From: 2010.06.25/outbox.cif.g09.slc.cpg/sg12_28_cif.got.tgz:54664.got - 2010.06.28 00:19:55.
