data_PCOD8094748
_publ_section_title
;
Structure prediction by ZEFSAII (Michael W. Deem and Ramdas Pophale) SiO2 
 PCOD8094748
Probable space group: C 2/M
;
_chemical_formula_sum "Si O2"
_cell_formula_units_Z 64
_cell_length_a 19.454300
_cell_length_b 15.607380
_cell_length_c 27.312397
_cell_angle_alpha 90.000000
_cell_angle_beta 22.709677
_cell_angle_gamma 90.000000
_cell_volume 3201.564948
_symmetry_space_group_name_H-M "C 2/M"
_symmetry_group_IT_number 12
_symmetry_cell_setting 'monoclinic'
loop_
_space_group_symop_operation_xyz
x,y,z
-x,y,-z
-x,-y,-z
x,-y,z
1/2+x,1/2+y,z
1/2-x,1/2+y,-z
1/2-x,1/2-y,-z
1/2+x,1/2-y,z
loop_
_atom_site_type_symbol
_atom_site_label
_atom_site_fract_x
_atom_site_fract_y
_atom_site_fract_z
Si Si1 0.841320 0.759412 0.992303
Si Si2 0.891976 0.823423 0.688608
Si Si3 0.912202 0.907260 0.204938
Si Si4 0.534072 0.222867 0.265424
Si Si5 0.759663 0.906290 0.516937
Si Si6 0.062612 0.671470 0.408361
Si Si7 0.025904 0.400862 0.925918
Si Si8 0.685432 0.632040 0.625435
O O1 0.992842 0.830189 0.885704
O O2 0.916513 0.668168 0.964125
O O3 0.750000 0.750000 0.000000
O O4 0.697449 0.802648 0.123208
O O5 0.882110 0.786370 0.749845
O O6 0.850293 0.745315 0.680537
O O7 0.738232 0.892444 0.778457
O O8 0.088113 0.862490 0.549580
O O9 0.706419 0.902022 0.324713
O O10 0.923154 0.906509 0.257324
O O11 0.987901 0.000000 0.138433
O O12 0.429621 0.143205 0.358363
O O13 0.381365 0.270341 0.334515
O O14 0.846137 0.914927 0.405652
O O15 0.720876 0.000000 0.563662
O O16 0.000000 0.715208 0.500000
O O17 0.896721 0.626227 0.491894
O O18 0.969813 0.500000 0.950107
O O19 0.000000 0.380029 0.000000
#
# Coordination Sequence:
#
# PCOD8094748 Si02
#       8
#     8   8   8   8   8   8   8   8
#     4  12  25  43  66  90 133 177 215 269 329 387
#     4  11  19  40  64  91 121 164 213 263 320 386
#     4  11  24  39  62  92 122 163 213 256 309 383
#     4  11  21  38  64  89 123 173 213 252 325 390
#     4  11  22  35  61  96 126 158 208 266 320 384
#     4  10  20  35  64  87 119 161 201 254 320 378
#     4  11  24  43  70  99 124 165 224 280 327 381
#     4  10  19  39  61  88 122 158 202 260 314 369
#
# _framework density 19.990224000000001
#
# number of rings (size 3 to 8) (size 9 to 14) (size 15 to 20)
#    0.000    1.125    6.250    1.500    0.000    3.750 
#    0.000    0.000    0.000    1.875    0.000    0.000 
#    0.000    0.000    0.000    0.000    0.000    0.000 
#
# Total GULP energy -396488.132295 kJ/mol
# GULP energy per Si atom -12390.254134 kJ/mol
# Density = 1.994473 g / cm^3
# Si number density = 19.990224 Si / 1000 Ang^3
#
#
#
# Elastic Constant Matrix: (Units=GPa)
#
#
# Indices 1 2 3 4 5 6 
#
# 1 84.2225 41.5810 26.3804 0.0335 -3.6915 -0.0137
# 2 41.5810 130.3726 39.8692 -0.0198 3.3300 -0.0101
# 3 26.3804 39.8692 98.9272 0.0581 2.7276 -0.0445
# 4 0.0335 -0.0198 0.0581 -4.2376 0.0029 9.2570
# 5 -3.6915 3.3300 2.7276 0.0029 27.1984 -0.0005
# 6 -0.0137 -0.0101 -0.0445 9.2570 -0.0005 13.7083
#
#
#
# Elastic Compliance Matrix: (Units=1/GPa)
#
#
# Indices 1 2 3 4 5 6 
#
# 1 0.014733 -0.004042 -0.002375 0.000046 0.002733 -0.000027
# 2 -0.004042 0.009872 -0.002860 -0.000053 -0.001470 0.000030
# 3 -0.002375 -0.002860 0.011926 0.000094 -0.001168 -0.000029
# 4 0.000046 -0.000053 0.000094 -0.095340 0.000015 0.064382
# 5 0.002733 -0.001470 -0.001168 0.000015 0.037435 -0.000011
# 6 -0.000027 0.000030 -0.000029 0.064382 -0.000011 0.029473
#
#
# Mechanical properties :
#
#
# Convention : Reuss Voigt Hill
#
# Bulk Modulus (GPa) = 55.62827 58.79817 57.21322
# Shear Modulus (GPa) = 153.16331 21.04660 87.10496
#
# Velocity S-wave (km/s) = 8.76273 3.24828 6.60820
# Velocity P-wave (km/s) = 11.41353 6.59892 9.32240
#
# Compressibility (1/GPa) = 0.01797647
#
# Stress axis : x y z
#
# Youngs Moduli (GPa) = 67.87639 101.29938 83.84700
#
# Poissons Ratio (x) = 0.40949 0.19913
# Poissons Ratio (y) = 0.27438 0.23980
# Poissons Ratio (z) = 0.16120 0.28971
#
# Static dielectric constant tensor:
#      x y z
#    x 3.778660 0.000060 -0.052990 
#    y 0.000060 3.490940 0.000110 
#    z -0.052990 0.000110 3.652860 
# 
# 
# High freq. dielectric constant tensor:
#      x y z
#    x 1.777690 0.000000 -0.008310 
#    y 0.000000 1.765930 0.000020 
#    z -0.008310 0.000020 1.779120 
# 
# From -- ./inp_files/381442.got.cif
#   From: 2010.06.25/outbox.cif.g09.slc.cpg/sg12_191_cif.got.tgz:381442.got - 2010.06.28 00:19:55.
