data_PCOD8094677
_publ_section_title
;
Structure prediction by ZEFSAII (Michael W. Deem and Ramdas Pophale) SiO2 
 PCOD8094677
Probable space group: C 2/M
;
_chemical_formula_sum "Si O2"
_cell_formula_units_Z 36
_cell_length_a 23.217042
_cell_length_b 7.570589
_cell_length_c 22.382062
_cell_angle_alpha 90.000000
_cell_angle_beta 26.704762
_cell_angle_gamma 90.000000
_cell_volume 1767.922379
_symmetry_space_group_name_H-M "C 2/M"
_symmetry_group_IT_number 12
_symmetry_cell_setting 'monoclinic'
loop_
_space_group_symop_operation_xyz
x,y,z
-x,y,-z
-x,-y,-z
x,-y,z
1/2+x,1/2+y,z
1/2-x,1/2+y,-z
1/2-x,1/2-y,-z
1/2+x,1/2-y,z
loop_
_atom_site_type_symbol
_atom_site_label
_atom_site_fract_x
_atom_site_fract_y
_atom_site_fract_z
Si Si1 0.531092 0.000000 0.039222
Si Si2 0.933767 0.202000 0.287026
Si Si3 0.518822 0.500000 0.553530
Si Si4 0.152728 0.801061 0.993220
Si Si5 0.801965 0.500000 0.341813
Si Si6 0.058666 0.701948 0.289864
O O1 0.400943 0.000000 0.196389
O O2 0.500000 0.000000 0.000000
O O3 0.614024 0.826162 0.975245
O O4 0.821695 0.326560 0.364927
O O5 0.953289 0.240266 0.338864
O O6 0.890584 0.000000 0.317644
O O7 0.068685 0.245133 0.129446
O O8 0.500000 0.500000 0.500000
O O9 0.666078 0.500000 0.436207
O O10 0.452619 0.324342 0.641332
O O11 0.302038 0.772832 0.869517
O O12 0.125486 0.000000 0.996815
O O13 0.036284 0.500000 0.330561
#
# Coordination Sequence:
#
# PCOD8094677 Si02
#       6
#     4   8   4   8   4   8
#     4  10  21  36  63  88 122 172 206 249 312 365
#     4  10  19  38  65 100 129 155 196 257 332 378
#     4  12  29  46  63  84 126 178 227 249 294 372
#     4   9  20  35  60  97 131 152 196 258 318 379
#     4  10  24  42  60  94 127 160 213 268 300 371
#     4  11  22  40  65  96 125 165 205 259 317 367
#
# _framework density 20.362884000000001
#
# number of rings (size 3 to 8) (size 9 to 14) (size 15 to 20)
#    0.000    1.778    2.222    1.333    3.111    2.667 
#    0.000    0.000    0.000    0.000    0.000    0.000 
#    0.000    0.000    0.000    0.000    0.000    0.000 
#
# Total GULP energy -223240.225621 kJ/mol
# GULP energy per Si atom -12402.234757 kJ/mol
# Density = 2.031654 g / cm^3
# Si number density = 20.362884 Si / 1000 Ang^3
#
#
#
# Elastic Constant Matrix: (Units=GPa)
#
#
# Indices 1 2 3 4 5 6 
#
# 1 131.9151 63.0766 27.4903 -0.0002 10.1857 0.0279
# 2 63.0766 153.6780 38.4757 0.0292 1.5762 0.0352
# 3 27.4903 38.4757 52.1488 -0.0093 -12.1994 0.0231
# 4 -0.0002 0.0292 -0.0093 23.1246 -0.0130 -2.6197
# 5 10.1857 1.5762 -12.1994 -0.0130 32.2649 -0.0271
# 6 0.0279 0.0352 0.0231 -2.6197 -0.0271 23.8112
#
#
#
# Elastic Compliance Matrix: (Units=1/GPa)
#
#
# Indices 1 2 3 4 5 6 
#
# 1 0.010322 -0.003128 -0.004234 -0.000001 -0.004707 -0.000009
# 2 -0.003128 0.009179 -0.005482 -0.000016 -0.001534 -0.000008
# 3 -0.004234 -0.005482 0.028335 0.000026 0.012318 0.000002
# 4 -0.000001 -0.000016 0.000026 0.043790 0.000033 0.004818
# 5 -0.004707 -0.001534 0.012318 0.000033 0.037212 0.000042
# 6 -0.000009 -0.000008 0.000002 0.004818 0.000042 0.042527
#
#
# Mechanical properties :
#
#
# Convention : Reuss Voigt Hill
#
# Bulk Modulus (GPa) = 45.15456 66.20303 55.67879
# Shear Modulus (GPa) = 24.45735 29.75342 27.10538
#
# Velocity S-wave (km/s) = 3.46941 3.82666 3.65241
# Velocity P-wave (km/s) = 6.18645 7.21849 6.72231
#
# Compressibility (1/GPa) = 0.02214616
#
# Stress axis : x y z
#
# Youngs Moduli (GPa) = 96.87713 108.93886 35.29253
#
# Poissons Ratio (x) = 0.34080 0.14944
# Poissons Ratio (y) = 0.30306 0.19349
# Poissons Ratio (z) = 0.41022 0.59724
#
# Static dielectric constant tensor:
#      x y z
#    x 3.385600 0.000050 -0.035660 
#    y 0.000050 3.347110 0.000250 
#    z -0.035660 0.000250 3.723510 
# 
# 
# High freq. dielectric constant tensor:
#      x y z
#    x 1.772440 0.000000 -0.007200 
#    y 0.000000 1.812700 0.000000 
#    z -0.007200 0.000000 1.798980 
# 
# From -- ./inp_files/282354.got.cif
#   From: 2010.06.25/outbox.cif.g09.slc.cpg/sg12_142_cif.got.tgz:282354.got - 2010.06.28 00:19:55.
