data_PCOD8094331
_publ_section_title
;
Structure prediction by ZEFSAII (Michael W. Deem and Ramdas Pophale) SiO2 
 PCOD8094331
Probable space group: C 2/M
;
_chemical_formula_sum "Si O2"
_cell_formula_units_Z 56
_cell_length_a 18.678187
_cell_length_b 8.579084
_cell_length_c 18.553460
_cell_angle_alpha 90.000000
_cell_angle_beta 111.546010
_cell_angle_gamma 90.000000
_cell_volume 2765.291480
_symmetry_space_group_name_H-M "C 2/M"
_symmetry_group_IT_number 12
_symmetry_cell_setting 'monoclinic'
loop_
_space_group_symop_operation_xyz
x,y,z
-x,y,-z
-x,-y,-z
x,-y,z
1/2+x,1/2+y,z
1/2-x,1/2+y,-z
1/2-x,1/2-y,-z
1/2+x,1/2-y,z
loop_
_atom_site_type_symbol
_atom_site_label
_atom_site_fract_x
_atom_site_fract_y
_atom_site_fract_z
Si Si1 0.636778 0.815519 0.153790
Si Si2 0.301977 0.319581 0.457874
Si Si3 0.929367 0.685389 0.281154
Si Si4 0.226993 0.683473 0.707630
Si Si5 0.954098 0.326703 0.555725
Si Si6 0.030223 0.685664 0.861887
Si Si7 0.826298 0.684970 0.991632
O O1 0.694885 0.763405 0.237280
O O2 0.551589 0.748852 0.140046
O O3 0.666185 0.752382 0.087380
O O4 0.632331 0.000000 0.150315
O O5 0.284331 0.500000 0.437161
O O6 0.250000 0.250000 0.500000
O O7 0.287127 0.222959 0.380349
O O8 0.388064 0.298363 0.518213
O O9 0.927383 0.500000 0.281887
O O10 0.844744 0.747781 0.271674
O O11 0.952720 0.751219 0.211732
O O12 0.992029 0.744326 0.361846
O O13 0.235938 0.500000 0.719746
O O14 0.922473 0.500000 0.565761
O O15 0.000000 0.346524 0.500000
O O16 0.028542 0.500000 0.859913
O O17 0.098310 0.746091 0.938571
O O18 0.822143 0.500000 0.992673
O O19 0.750000 0.750000 0.000000
#
# Coordination Sequence:
#
# PCOD8094331 Si02
#       7
#     8   8   8   8   8   8   8
#     4  10  21  36  57  87 119 153 197 250 296 346
#     4  12  26  42  61  87 120 159 203 252 303 357
#     4   9  18  33  57  84 113 153 200 242 288 352
#     4  11  22  40  61  86 119 157 198 243 297 360
#     4  10  19  37  61  86 118 157 200 247 299 356
#     4   9  18  34  57  85 115 154 199 239 289 351
#     4  10  20  36  59  86 118 155 197 244 293 352
#
# _framework density 20.251028999999999
#
# number of rings (size 3 to 8) (size 9 to 14) (size 15 to 20)
#    0.000    1.857    1.429    3.000    2.000    3.714 
#    0.000    0.714    0.000    4.286    0.000    0.000 
#    0.000    0.000    0.000    0.000    0.000    0.000 
#
# Total GULP energy -347224.928777 kJ/mol
# GULP energy per Si atom -12400.890313 kJ/mol
# Density = 2.020494 g / cm^3
# Si number density = 20.251029 Si / 1000 Ang^3
#
#
#
# Elastic Constant Matrix: (Units=GPa)
#
#
# Indices 1 2 3 4 5 6 
#
# 1 168.8987 16.7973 70.9984 0.0000 1.2148 0.0000
# 2 16.7973 17.8960 8.7770 0.0000 -2.7187 0.0000
# 3 70.9984 8.7770 117.3819 0.0000 8.9139 0.0000
# 4 0.0000 0.0000 0.0000 31.2737 0.0000 1.0508
# 5 1.2148 -2.7187 8.9139 0.0000 45.1354 0.0000
# 6 0.0000 0.0000 0.0000 1.0508 0.0000 29.3580
#
#
#
# Elastic Compliance Matrix: (Units=1/GPa)
#
#
# Indices 1 2 3 4 5 6 
#
# 1 0.008459 -0.005564 -0.004729 0.000000 0.000371 0.000000
# 2 -0.005564 0.062546 -0.001633 0.000000 0.004240 0.000000
# 3 -0.004729 -0.001633 0.011674 0.000000 -0.002277 0.000000
# 4 0.000000 0.000000 0.000000 0.032014 0.000000 -0.001146
# 5 0.000371 0.004240 -0.002277 0.000000 0.022851 0.000000
# 6 0.000000 0.000000 0.000000 -0.001146 0.000000 0.034103
#
#
# Mechanical properties :
#
#
# Convention : Reuss Voigt Hill
#
# Bulk Modulus (GPa) = 16.99883 55.25800 36.12842
# Shear Modulus (GPa) = 23.24398 34.99367 29.11882
#
# Velocity S-wave (km/s) = 3.39158 4.16142 3.79607
# Velocity P-wave (km/s) = 4.87334 7.10181 6.09037
#
# Compressibility (1/GPa) = 0.05882756
#
# Stress axis : x y z
#
# Youngs Moduli (GPa) = 118.21507 15.98814 85.65810
#
# Poissons Ratio (x) = 0.08896 0.40505
# Poissons Ratio (y) = 0.65779 0.13989
# Poissons Ratio (z) = 0.55900 0.02611
#
# Static dielectric constant tensor:
#      x y z
#    x 3.855730 0.000000 -0.048220 
#    y 0.000000 3.291780 0.000000 
#    z -0.048220 0.000000 3.876390 
# 
# 
# High freq. dielectric constant tensor:
#      x y z
#    x 1.804730 0.000000 0.000710 
#    y 0.000000 1.751120 0.000000 
#    z 0.000710 0.000000 1.807330 
# 
# From -- ./inp_files/275532.got.cif
#   From: 2010.06.25/outbox.cif.g09.slc.cpg/sg12_138_cif.got.tgz:275532.got - 2010.06.28 00:19:55.
