data_PCOD8094926
_publ_section_title
;
Structure prediction by ZEFSAII (Michael W. Deem and Ramdas Pophale) SiO2 
 PCOD8094926
Probable space group: C 2/M
;
_chemical_formula_sum "Si O2"
_cell_formula_units_Z 64
_cell_length_a 29.976817
_cell_length_b 21.784355
_cell_length_c 5.242374
_cell_angle_alpha 90.000000
_cell_angle_beta 110.967373
_cell_angle_gamma 90.000000
_cell_volume 3196.721582
_symmetry_space_group_name_H-M "C 2/M"
_symmetry_group_IT_number 12
_symmetry_cell_setting 'monoclinic'
loop_
_space_group_symop_operation_xyz
x,y,z
-x,y,-z
-x,-y,-z
x,-y,z
1/2+x,1/2+y,z
1/2-x,1/2+y,-z
1/2-x,1/2-y,-z
1/2+x,1/2-y,z
loop_
_atom_site_type_symbol
_atom_site_label
_atom_site_fract_x
_atom_site_fract_y
_atom_site_fract_z
Si Si1 0.646955 0.332912 0.796631
Si Si2 0.553647 0.728448 0.621294
Si Si3 0.786535 0.929561 0.858493
Si Si4 0.303003 0.235563 0.808528
Si Si5 0.809822 0.428574 0.081214
Si Si6 0.647660 0.130496 0.332983
Si Si7 0.053851 0.308437 0.122460
Si Si8 0.224374 0.155373 0.575234
O O1 0.589519 0.330249 0.669165
O O2 0.671055 0.348040 0.575366
O O3 0.665758 0.387944 0.017242
O O4 0.663196 0.263552 0.904101
O O5 0.500000 0.701620 0.500000
O O6 0.562757 0.774202 0.407022
O O7 0.562935 0.762158 0.907500
O O8 0.748579 0.917275 0.012756
O O9 0.762067 0.908806 0.539570
O O10 0.801882 0.000000 0.874098
O O11 0.334780 0.201153 0.659418
O O12 0.266736 0.182101 0.849245
O O13 0.273842 0.293447 0.643263
O O14 0.818911 0.500000 0.147553
O O15 0.838433 0.393628 0.360733
O O16 0.829455 0.410613 0.844753
O O17 0.590019 0.133562 0.186349
O O18 0.000000 0.334839 0.000000
#
# Coordination Sequence:
#
# PCOD8094926 Si02
#       8
#     8   8   8   8   8   8   8   8
#     4  11  21  34  56  82 118 152 191 243 292 356
#     4  10  21  37  59  88 124 153 186 236 301 365
#     4  10  23  39  54  79 115 162 208 242 282 341
#     4  10  20  30  52  83 117 146 182 231 297 357
#     4  11  25  41  58  82 116 161 208 244 284 339
#     4  12  21  37  63  84 115 157 196 244 295 349
#     4  10  21  38  60  91 121 151 188 238 300 365
#     4  10  20  34  51  82 118 149 188 236 297 353
#
# _framework density 20.020513000000001
#
# number of rings (size 3 to 8) (size 9 to 14) (size 15 to 20)
#    0.000    1.500    2.500    3.000    3.500    0.500 
#    0.000    0.000    0.000    2.625    0.000    0.875 
#    0.000    0.000    0.000    0.000    0.000    0.000 
#
# Total GULP energy -396530.806828 kJ/mol
# GULP energy per Si atom -12391.587713 kJ/mol
# Density = 1.997495 g / cm^3
# Si number density = 20.020513 Si / 1000 Ang^3
#
#
#
# Elastic Constant Matrix: (Units=GPa)
#
#
# Indices 1 2 3 4 5 6 
#
# 1 130.0382 33.3275 30.3074 0.0000 17.3744 0.0000
# 2 33.3275 84.9105 14.5973 0.0000 10.8400 0.0000
# 3 30.3074 14.5973 63.3962 0.0000 0.2643 0.0000
# 4 0.0000 0.0000 0.0000 20.2676 0.0000 -1.2279
# 5 17.3744 10.8400 0.2643 0.0000 35.9959 0.0000
# 6 0.0000 0.0000 0.0000 -1.2279 0.0000 25.1581
#
#
#
# Elastic Compliance Matrix: (Units=1/GPa)
#
#
# Indices 1 2 3 4 5 6 
#
# 1 0.009847 -0.002663 -0.004078 0.000000 -0.003921 0.000000
# 2 -0.002663 0.013488 -0.001821 0.000000 -0.002763 0.000000
# 3 -0.004078 -0.001821 0.018133 0.000000 0.002384 0.000000
# 4 0.000000 0.000000 0.000000 0.049486 0.000000 0.002415
# 5 -0.003921 -0.002763 0.002384 0.000000 0.030488 0.000000
# 6 0.000000 0.000000 0.000000 0.002415 0.000000 0.039867
#
#
# Mechanical properties :
#
#
# Convention : Reuss Voigt Hill
#
# Bulk Modulus (GPa) = 41.07877 48.31215 44.69546
# Shear Modulus (GPa) = 26.80284 29.62517 28.21401
#
# Velocity S-wave (km/s) = 3.66289 3.85091 3.75808
# Velocity P-wave (km/s) = 6.20096 6.62996 6.41905
#
# Compressibility (1/GPa) = 0.02434347
#
# Stress axis : x y z
#
# Youngs Moduli (GPa) = 101.55463 74.13857 55.14912
#
# Poissons Ratio (x) = 0.19746 0.22489
# Poissons Ratio (y) = 0.27047 0.10043
# Poissons Ratio (z) = 0.41413 0.13500
#
# Static dielectric constant tensor:
#      x y z
#    x 3.924500 0.000000 0.070200 
#    y 0.000000 3.547520 0.000000 
#    z 0.070200 0.000000 3.709970 
# 
# 
# High freq. dielectric constant tensor:
#      x y z
#    x 1.773330 0.000000 -0.009570 
#    y 0.000000 1.756630 0.000000 
#    z -0.009570 0.000000 1.793490 
# 
# From -- ./inp_files/32348.got.cif
#   From: 2010.06.25/outbox.cif.g09.slc.cpg/sg12_17_cif.got.tgz:32348.got - 2010.06.28 00:19:55.
