data_PCOD8094084
_publ_section_title
;
Structure prediction by ZEFSAII (Michael W. Deem and Ramdas Pophale) SiO2 
 PCOD8094084
Probable space group: C 2/M
;
_chemical_formula_sum "Si O2"
_cell_formula_units_Z 48
_cell_length_a 24.834043
_cell_length_b 14.050982
_cell_length_c 9.762222
_cell_angle_alpha 90.000000
_cell_angle_beta 44.886929
_cell_angle_gamma 90.000000
_cell_volume 2403.969930
_symmetry_space_group_name_H-M "C 2/M"
_symmetry_group_IT_number 12
_symmetry_cell_setting 'monoclinic'
loop_
_space_group_symop_operation_xyz
x,y,z
-x,y,-z
-x,-y,-z
x,-y,z
1/2+x,1/2+y,z
1/2-x,1/2+y,-z
1/2-x,1/2-y,-z
1/2+x,1/2-y,z
loop_
_atom_site_type_symbol
_atom_site_label
_atom_site_fract_x
_atom_site_fract_y
_atom_site_fract_z
Si Si1 0.430928 0.891185 0.027152
Si Si2 0.928158 0.886612 0.337654
Si Si3 0.075179 0.396519 0.277581
Si Si4 0.168180 0.772429 0.707366
Si Si5 0.894125 0.891130 0.953599
Si Si6 0.590270 0.297829 0.347882
O O1 0.360512 0.832789 0.210836
O O2 0.408815 0.000000 0.087934
O O3 0.500000 0.861237 0.000000
O O4 0.447964 0.868316 0.836770
O O5 0.885985 0.836352 0.289605
O O6 0.888551 0.840789 0.543515
O O7 0.018377 0.864162 0.164856
O O8 0.914186 0.000000 0.361569
O O9 0.118960 0.500000 0.200290
O O10 0.123992 0.309231 0.256698
O O11 0.000000 0.411197 0.500000
O O12 0.250000 0.750000 0.500000
O O13 0.167634 0.829637 0.851342
O O14 0.879585 0.871481 0.819674
O O15 0.877781 0.000000 0.015319
O O16 0.500000 0.287398 0.500000
#
# Coordination Sequence:
#
# PCOD8094084 Si02
#       6
#     8   8   8   8   8   8
#     4  10  21  37  59  84 112 148 194 242 286 335
#     4  10  21  38  63  91 117 147 190 243 296 344
#     4   9  17  30  53  86 118 146 179 232 295 343
#     4  12  25  38  54  82 117 161 194 234 283 345
#     4  10  19  36  63  89 115 147 193 242 291 344
#     4   9  17  31  57  92 117 143 180 245 299 343
#
# _framework density 19.966971999999998
#
# number of rings (size 3 to 8) (size 9 to 14) (size 15 to 20)
#    0.000    2.000    1.667    2.500    4.667    4.667 
#    0.000    0.833    0.000    0.000    0.000    0.000 
#    0.000    0.000    0.000    0.000    0.000    0.000 
#
# Total GULP energy -297398.776122 kJ/mol
# GULP energy per Si atom -12391.615672 kJ/mol
# Density = 1.992153 g / cm^3
# Si number density = 19.966972 Si / 1000 Ang^3
#
#
#
# Elastic Constant Matrix: (Units=GPa)
#
#
# Indices 1 2 3 4 5 6 
#
# 1 20.0186 19.8587 35.2230 0.0000 12.5541 0.0000
# 2 19.8587 111.1507 57.1590 0.0000 -1.6890 0.0000
# 3 35.2230 57.1590 131.6362 0.0000 10.2785 0.0000
# 4 0.0000 0.0000 0.0000 53.4980 0.0000 13.8719
# 5 12.5541 -1.6890 10.2785 0.0000 26.2095 0.0000
# 6 0.0000 0.0000 0.0000 13.8719 0.0000 19.5137
#
#
#
# Elastic Compliance Matrix: (Units=1/GPa)
#
#
# Indices 1 2 3 4 5 6 
#
# 1 0.160170 -0.013098 -0.032097 0.000000 -0.064977 0.000000
# 2 -0.013098 0.012858 -0.002716 0.000000 0.008168 0.000000
# 3 -0.032097 -0.002716 0.016689 0.000000 0.008654 0.000000
# 4 0.000000 0.000000 0.000000 0.022916 0.000000 -0.016291
# 5 -0.064977 0.008168 0.008654 0.000000 0.066410 0.000000
# 6 0.000000 0.000000 0.000000 -0.016291 0.000000 0.062827
#
#
# Mechanical properties :
#
#
# Convention : Reuss Voigt Hill
#
# Bulk Modulus (GPa) = 10.65028 54.14301 32.39665
# Shear Modulus (GPa) = 10.66119 29.88190 20.27155
#
# Velocity S-wave (km/s) = 2.31322 3.87274 3.18976
# Velocity P-wave (km/s) = 3.53273 6.86824 5.46136
#
# Compressibility (1/GPa) = 0.09389424
#
# Stress axis : x y z
#
# Youngs Moduli (GPa) = 6.24335 77.77371 59.92038
#
# Poissons Ratio (x) = 1.01869 1.92327
# Poissons Ratio (y) = 0.08178 0.16275
# Poissons Ratio (z) = 0.20039 0.21124
#
# Static dielectric constant tensor:
#      x y z
#    x 3.238590 0.000000 0.444950 
#    y 0.000000 4.195820 0.000000 
#    z 0.444950 0.000000 3.672000 
# 
# 
# High freq. dielectric constant tensor:
#      x y z
#    x 1.725550 0.000000 0.045990 
#    y 0.000000 1.811060 0.000000 
#    z 0.045990 0.000000 1.776510 
# 
# From -- ./inp_files/104934.got.cif
#   From: 2010.06.25/outbox.cif.g09.slc.cpg/sg12_53_cif.got.tgz:104934.got - 2010.06.28 00:19:55.
