data_PCOD8094308
_publ_section_title
;
Structure prediction by ZEFSAII (Michael W. Deem and Ramdas Pophale) SiO2 
 PCOD8094308
Probable space group: C 2/M
;
_chemical_formula_sum "Si O2"
_cell_formula_units_Z 64
_cell_length_a 19.603390
_cell_length_b 8.779496
_cell_length_c 31.123755
_cell_angle_alpha 90.000000
_cell_angle_beta 143.165808
_cell_angle_gamma 90.000000
_cell_volume 3211.315020
_symmetry_space_group_name_H-M "C 2/M"
_symmetry_group_IT_number 12
_symmetry_cell_setting 'monoclinic'
loop_
_space_group_symop_operation_xyz
x,y,z
-x,y,-z
-x,-y,-z
x,-y,z
1/2+x,1/2+y,z
1/2-x,1/2+y,-z
1/2-x,1/2-y,-z
1/2+x,1/2-y,z
loop_
_atom_site_type_symbol
_atom_site_label
_atom_site_fract_x
_atom_site_fract_y
_atom_site_fract_z
Si Si1 0.044050 0.180257 0.227176
Si Si2 0.222383 0.823818 0.763279
Si Si3 0.100398 0.175535 0.020867
Si Si4 0.453243 0.676073 0.868108
Si Si5 0.172555 0.820021 0.498465
Si Si6 0.722077 0.179359 0.614756
Si Si7 0.828372 0.822616 0.167029
Si Si8 0.569319 0.822532 0.616616
O O1 0.020965 0.232074 0.166898
O O2 0.164844 0.242624 0.304866
O O3 0.941823 0.250322 0.203696
O O4 0.046267 0.000000 0.232214
O O5 0.353070 0.779526 0.836502
O O6 0.160841 0.789028 0.777121
O O7 0.169278 0.717782 0.699985
O O8 0.210879 0.000000 0.744216
O O9 0.218430 0.256195 0.088718
O O10 0.117223 0.000000 0.041328
O O11 0.000000 0.244219 0.000000
O O12 0.065595 0.199840 0.953559
O O13 0.413924 0.500000 0.849294
O O14 0.250000 0.750000 0.500000
O O15 0.213229 0.765416 0.565447
O O16 0.041272 0.773419 0.426528
O O17 0.182800 0.000000 0.500316
O O18 0.613876 0.214873 0.590908
O O19 0.729149 0.000000 0.608875
O O20 0.822913 0.000000 0.154776
O O21 0.539316 0.000000 0.605156
#
# Coordination Sequence:
#
# PCOD8094308 Si02
#       8
#     8   8   8   8   8   8   8   8
#     4   9  19  38  61  86 117 158 199 241 300 366
#     4  11  22  35  57  90 121 155 201 257 306 357
#     4  10  20  34  56  83 114 153 201 253 303 361
#     4  10  19  37  61  83 112 158 205 247 301 367
#     4  12  27  45  65  95 132 166 204 254 305 360
#     4  10  21  41  69  93 122 166 209 247 302 373
#     4  10  22  37  56  84 119 157 197 245 309 369
#     4  11  23  42  68  95 123 166 210 249 305 370
#
# _framework density 19.92953
#
# number of rings (size 3 to 8) (size 9 to 14) (size 15 to 20)
#    0.000    1.625    2.500    2.250    1.750    4.250 
#    0.000    1.250    0.000    0.000    0.000    0.000 
#    0.000    0.000    0.000    0.000    0.000    0.000 
#
# Total GULP energy -396852.612525 kJ/mol
# GULP energy per Si atom -12401.644141 kJ/mol
# Density = 1.988417 g / cm^3
# Si number density = 19.929530 Si / 1000 Ang^3
#
#
#
# Elastic Constant Matrix: (Units=GPa)
#
#
# Indices 1 2 3 4 5 6 
#
# 1 134.1759 57.9071 43.1912 -0.0001 5.6181 0.0000
# 2 57.9071 68.9006 35.3648 0.0000 -6.4824 0.0001
# 3 43.1912 35.3648 99.3085 0.0000 -4.8326 -0.0001
# 4 -0.0001 0.0000 0.0000 35.2587 0.0000 0.1516
# 5 5.6181 -6.4824 -4.8326 0.0000 35.8122 0.0000
# 6 0.0000 0.0001 -0.0001 0.1516 0.0000 24.4182
#
#
#
# Elastic Compliance Matrix: (Units=1/GPa)
#
#
# Indices 1 2 3 4 5 6 
#
# 1 0.012558 -0.009826 -0.002159 0.000000 -0.004040 0.000000
# 2 -0.009826 0.025652 -0.004590 0.000000 0.005565 0.000000
# 3 -0.002159 -0.004590 0.012703 0.000000 0.001222 0.000000
# 4 0.000000 0.000000 0.000000 0.028363 0.000000 -0.000176
# 5 -0.004040 0.005565 0.001222 0.000000 0.029729 0.000000
# 6 0.000000 0.000000 0.000000 -0.000176 0.000000 0.040954
#
#
# Mechanical properties :
#
#
# Convention : Reuss Voigt Hill
#
# Bulk Modulus (GPa) = 56.30272 63.92349 60.11310
# Shear Modulus (GPa) = 26.45085 30.15928 28.30506
#
# Velocity S-wave (km/s) = 3.64705 3.89433 3.77272
# Velocity P-wave (km/s) = 6.78579 7.23640 7.01471
#
# Compressibility (1/GPa) = 0.01776113
#
# Stress axis : x y z
#
# Youngs Moduli (GPa) = 79.63227 38.98386 78.72261
#
# Poissons Ratio (x) = 0.38305 0.16997
# Poissons Ratio (y) = 0.78247 0.36138
# Poissons Ratio (z) = 0.17193 0.17896
#
# Static dielectric constant tensor:
#      x y z
#    x 3.905730 0.000000 0.018600 
#    y 0.000000 3.417850 0.000000 
#    z 0.018600 0.000000 3.683360 
# 
# 
# High freq. dielectric constant tensor:
#      x y z
#    x 1.786550 0.000000 -0.005520 
#    y 0.000000 1.757890 0.000000 
#    z -0.005520 0.000000 1.788060 
# 
# From -- ./inp_files/378402.got.cif
#   From: 2010.06.25/outbox.cif.g09.slc.cpg/sg12_190_cif.got.tgz:378402.got - 2010.06.28 00:19:55.
