data_PCOD8094836
_publ_section_title
;
Structure prediction by ZEFSAII (Michael W. Deem and Ramdas Pophale) SiO2 
 PCOD8094836
Probable space group: C 2/M
;
_chemical_formula_sum "Si O2"
_cell_formula_units_Z 36
_cell_length_a 10.761670
_cell_length_b 19.485917
_cell_length_c 8.205716
_cell_angle_alpha 90.000000
_cell_angle_beta 100.169928
_cell_angle_gamma 90.000000
_cell_volume 1693.711261
_symmetry_space_group_name_H-M "C 2/M"
_symmetry_group_IT_number 12
_symmetry_cell_setting 'monoclinic'
loop_
_space_group_symop_operation_xyz
x,y,z
-x,y,-z
-x,-y,-z
x,-y,z
1/2+x,1/2+y,z
1/2-x,1/2+y,-z
1/2-x,1/2-y,-z
1/2+x,1/2-y,z
loop_
_atom_site_type_symbol
_atom_site_label
_atom_site_fract_x
_atom_site_fract_y
_atom_site_fract_z
Si Si1 0.872219 0.577837 0.063111
Si Si2 0.860918 0.187210 0.438078
Si Si3 0.869425 0.924417 0.212956
Si Si4 0.746319 0.301583 0.231893
Si Si5 0.500000 0.331348 0.000000
O O1 0.886565 0.500000 0.141883
O O2 0.833962 0.635167 0.189903
O O3 0.764471 0.575793 0.904533
O O4 0.000000 0.600238 0.000000
O O5 0.856320 0.107216 0.389425
O O6 0.816954 0.228420 0.261910
O O7 0.778796 0.188999 0.581500
O O8 0.000000 0.216023 0.500000
O O9 0.974907 0.880301 0.146239
O O10 0.925396 0.000000 0.242500
O O11 0.623396 0.288501 0.087615
#
# Coordination Sequence:
#
# PCOD8094836 Si02
#       5
#     8   8   8   8   4
#     4   9  20  40  64  93 123 160 211 259 305 368
#     4  11  23  42  57  92 131 163 207 252 308 372
#     4  10  21  38  61  90 124 159 205 254 306 366
#     4  10  23  40  64  89 128 165 205 256 310 369
#     4  10  19  40  62  94 117 158 204 256 309 364
#
# _framework density 21.255098
#
# number of rings (size 3 to 8) (size 9 to 14) (size 15 to 20)
#    0.000    2.000    2.222    0.333    0.000    9.333 
#    4.000    0.000    0.000    4.667    0.000    0.000 
#    0.000    0.000    0.000    0.000    0.000    0.000 
#
# Total GULP energy -223007.818886 kJ/mol
# GULP energy per Si atom -12389.323271 kJ/mol
# Density = 2.120672 g / cm^3
# Si number density = 21.255098 Si / 1000 Ang^3
#
#
#
# Elastic Constant Matrix: (Units=GPa)
#
#
# Indices 1 2 3 4 5 6 
#
# 1 98.5690 43.1539 21.8070 0.0000 3.1573 0.0000
# 2 43.1539 101.6327 54.3607 0.0000 9.3673 0.0000
# 3 21.8070 54.3607 84.4588 0.0000 1.4175 0.0000
# 4 0.0000 0.0000 0.0000 30.6709 0.0000 4.6245
# 5 3.1573 9.3673 1.4175 0.0000 31.5125 0.0000
# 6 0.0000 0.0000 0.0000 4.6245 0.0000 15.0219
#
#
#
# Elastic Compliance Matrix: (Units=1/GPa)
#
#
# Indices 1 2 3 4 5 6 
#
# 1 0.012470 -0.005496 0.000311 0.000000 0.000370 0.000000
# 2 -0.005496 0.017956 -0.010065 0.000000 -0.004334 0.000000
# 3 0.000311 -0.010065 0.018202 0.000000 0.002142 0.000000
# 4 0.000000 0.000000 0.000000 0.034191 0.000000 -0.010526
# 5 0.000370 -0.004334 0.002142 0.000000 0.032888 0.000000
# 6 0.000000 0.000000 0.000000 -0.010526 0.000000 0.069810
#
#
# Mechanical properties :
#
#
# Convention : Reuss Voigt Hill
#
# Bulk Modulus (GPa) = 55.16041 58.14487 56.65264
# Shear Modulus (GPa) = 22.51634 26.46367 24.49000
#
# Velocity S-wave (km/s) = 3.25828 3.53235 3.39808
# Velocity P-wave (km/s) = 6.33744 6.63715 6.48903
#
# Compressibility (1/GPa) = 0.01812894
#
# Stress axis : x y z
#
# Youngs Moduli (GPa) = 80.18938 55.69159 54.93806
#
# Poissons Ratio (x) = 0.30606 -0.01709
# Poissons Ratio (y) = 0.44069 0.55298
# Poissons Ratio (z) = -0.02495 0.56056
#
# Static dielectric constant tensor:
#      x y z
#    x 3.994230 0.000000 -0.012090 
#    y 0.000000 4.276070 0.000000 
#    z -0.012090 0.000000 3.802900 
# 
# 
# High freq. dielectric constant tensor:
#      x y z
#    x 1.838180 0.000000 -0.003650 
#    y 0.000000 1.836990 0.000000 
#    z -0.003650 0.000000 1.830070 
# 
# From -- ./inp_files/46639.got.cif
#   From: 2010.06.25/outbox.cif.g09.slc.cpg/sg12_24_cif.got.tgz:46639.got - 2010.06.28 00:19:55.
