data_PCOD8094085
_publ_section_title
;
Structure prediction by ZEFSAII (Michael W. Deem and Ramdas Pophale) SiO2 
 PCOD8094085
Probable space group: C 2/M
;
_chemical_formula_sum "Si O2"
_cell_formula_units_Z 64
_cell_length_a 30.387561
_cell_length_b 18.009097
_cell_length_c 16.512759
_cell_angle_alpha 90.000000
_cell_angle_beta 159.461818
_cell_angle_gamma 90.000000
_cell_volume 3170.341224
_symmetry_space_group_name_H-M "C 2/M"
_symmetry_group_IT_number 12
_symmetry_cell_setting 'monoclinic'
loop_
_space_group_symop_operation_xyz
x,y,z
-x,y,-z
-x,-y,-z
x,-y,z
1/2+x,1/2+y,z
1/2-x,1/2+y,-z
1/2-x,1/2-y,-z
1/2+x,1/2-y,z
loop_
_atom_site_type_symbol
_atom_site_label
_atom_site_fract_x
_atom_site_fract_y
_atom_site_fract_z
Si Si1 0.633475 0.826626 0.450750
Si Si2 0.775550 0.082938 0.299749
Si Si3 0.998475 0.826823 0.755106
Si Si4 0.086302 0.201976 0.076968
Si Si5 0.197691 0.913760 0.995369
Si Si6 0.919212 0.585522 0.491149
Si Si7 0.965112 0.374351 0.027861
Si Si8 0.198090 0.587268 0.992404
O O1 0.538096 0.760006 0.311106
O O2 0.767707 0.801446 0.648398
O O3 0.659798 0.873646 0.576076
O O4 0.578304 0.881102 0.286926
O O5 0.873075 0.128988 0.519828
O O6 0.649628 0.079113 0.134932
O O7 0.748588 0.120764 0.164881
O O8 0.828280 0.000000 0.378482
O O9 0.103867 0.853760 0.872784
O O10 0.050173 0.844178 0.934067
O O11 0.062239 0.287954 0.024431
O O12 0.000000 0.169233 0.000000
O O13 0.203339 0.895003 0.909364
O O14 0.154570 0.000000 0.935824
O O15 0.340678 0.903242 0.273334
O O16 0.926976 0.500000 0.527618
O O17 0.060427 0.619116 0.731368
O O18 0.000000 0.407413 0.000000
O O19 0.184875 0.500000 0.981817
#
# Coordination Sequence:
#
# PCOD8094085 Si02
#       8
#     8   8   8   8   8   8   8   8
#     4  11  21  38  64  87 119 150 191 245 290 341
#     4  11  22  38  58  84 123 156 190 238 290 346
#     4  11  23  37  60  86 119 152 194 238 291 349
#     4  10  22  39  63  87 111 151 198 241 287 346
#     4  10  20  37  62  88 116 154 199 240 283 340
#     4  10  19  36  63  89 116 150 196 244 288 336
#     4  10  22  36  60  87 114 151 196 240 285 344
#     4   9  19  36  61  88 113 154 201 238 282 342
#
# _framework density 20.187100999999998
#
# number of rings (size 3 to 8) (size 9 to 14) (size 15 to 20)
#    0.000    1.750    3.750    0.750    1.750    3.750 
#    0.000    2.500    2.750    1.875    0.000    0.000 
#    0.000    0.000    0.000    0.000    0.000    0.000 
#
# Total GULP energy -396629.263500 kJ/mol
# GULP energy per Si atom -12394.664484 kJ/mol
# Density = 2.014115 g / cm^3
# Si number density = 20.187101 Si / 1000 Ang^3
#
#
#
# Elastic Constant Matrix: (Units=GPa)
#
#
# Indices 1 2 3 4 5 6 
#
# 1 130.0022 25.9898 32.4668 0.0000 -3.8630 0.0000
# 2 25.9898 33.0907 17.8961 0.0000 -4.4297 0.0000
# 3 32.4668 17.8961 92.2446 0.0000 0.9903 0.0000
# 4 0.0000 0.0000 0.0000 22.0875 0.0000 -2.4229
# 5 -3.8630 -4.4297 0.9903 0.0000 32.3595 0.0000
# 6 0.0000 0.0000 0.0000 -2.4229 0.0000 33.0225
#
#
#
# Elastic Compliance Matrix: (Units=1/GPa)
#
#
# Indices 1 2 3 4 5 6 
#
# 1 0.009484 -0.006252 -0.002129 0.000000 0.000342 0.000000
# 2 -0.006252 0.038653 -0.005349 0.000000 0.004709 0.000000
# 3 -0.002129 -0.005349 0.012643 0.000000 -0.001373 0.000000
# 4 0.000000 0.000000 0.000000 0.045642 0.000000 0.003349
# 5 0.000342 0.004709 -0.001373 0.000000 0.031630 0.000000
# 6 0.000000 0.000000 0.000000 0.003349 0.000000 0.030528
#
#
# Mechanical properties :
#
#
# Convention : Reuss Voigt Hill
#
# Bulk Modulus (GPa) = 30.01167 45.33810 37.67489
# Shear Modulus (GPa) = 24.13759 29.42622 26.78191
#
# Velocity S-wave (km/s) = 3.46163 3.82209 3.64632
# Velocity P-wave (km/s) = 5.55664 6.47963 6.03580
#
# Compressibility (1/GPa) = 0.03332037
#
# Stress axis : x y z
#
# Youngs Moduli (GPa) = 105.44315 25.87101 79.09822
#
# Poissons Ratio (x) = 0.16174 0.16838
# Poissons Ratio (y) = 0.65920 0.42311
# Poissons Ratio (z) = 0.22446 0.13839
#
# Static dielectric constant tensor:
#      x y z
#    x 3.804710 0.000000 -0.171740 
#    y 0.000000 3.308910 0.000000 
#    z -0.171740 0.000000 3.854230 
# 
# 
# High freq. dielectric constant tensor:
#      x y z
#    x 1.791340 0.000000 -0.006680 
#    y 0.000000 1.754590 0.000000 
#    z -0.006680 0.000000 1.799500 
# 
# From -- ./inp_files/251945.got.cif
#   From: 2010.06.25/outbox.cif.g09.slc.cpg/sg12_126_cif.got.tgz:251945.got - 2010.06.28 00:19:55.
