data_PCOD8094851
_publ_section_title
;
Structure prediction by ZEFSAII (Michael W. Deem and Ramdas Pophale) SiO2 
 PCOD8094851
Probable space group: C 2/M
;
_chemical_formula_sum "Si O2"
_cell_formula_units_Z 60
_cell_length_a 15.882160
_cell_length_b 19.578465
_cell_length_c 15.821065
_cell_angle_alpha 90.000000
_cell_angle_beta 37.044936
_cell_angle_gamma 90.000000
_cell_volume 2963.729619
_symmetry_space_group_name_H-M "C 2/M"
_symmetry_group_IT_number 12
_symmetry_cell_setting 'monoclinic'
loop_
_space_group_symop_operation_xyz
x,y,z
-x,y,-z
-x,-y,-z
x,-y,z
1/2+x,1/2+y,z
1/2-x,1/2+y,-z
1/2-x,1/2-y,-z
1/2+x,1/2-y,z
loop_
_atom_site_type_symbol
_atom_site_label
_atom_site_fract_x
_atom_site_fract_y
_atom_site_fract_z
Si Si1 0.215268 0.696938 0.915656
Si Si2 0.659787 0.289582 0.363238
Si Si3 0.000000 0.393550 0.000000
Si Si4 0.881714 0.159687 0.937449
Si Si5 0.097022 0.578633 0.598704
Si Si6 0.797326 0.426034 0.302813
Si Si7 0.712432 0.919483 0.207707
Si Si8 0.790562 0.155703 0.316896
O O1 0.307236 0.715961 0.761539
O O2 0.311389 0.652875 0.901944
O O3 0.151767 0.765218 0.004099
O O4 0.082061 0.652749 0.000051
O O5 0.500000 0.269279 0.500000
O O6 0.686416 0.365796 0.377234
O O7 0.753944 0.235858 0.339381
O O8 0.103694 0.436694 0.858369
O O9 0.045888 0.147271 0.797667
O O10 0.821662 0.102924 0.048719
O O11 0.120824 0.500000 0.553902
O O12 0.111357 0.590156 0.687419
O O13 0.211211 0.624265 0.460248
O O14 0.942546 0.602645 0.696282
O O15 0.720833 0.500000 0.375587
O O16 0.745384 0.882909 0.268724
O O17 0.725732 0.000000 0.209951
#
# Coordination Sequence:
#
# PCOD8094851 Si02
#       8
#     8   8   4   8   8   8   8   8
#     4  10  22  40  63  91 126 163 200 265 316 362
#     4  11  24  41  64  91 123 162 214 255 315 384
#     4  10  19  40  68  92 121 160 208 256 311 384
#     4  11  23  39  63  91 129 163 209 260 317 364
#     4  10  23  42  63  92 129 169 211 257 311 375
#     4  10  22  40  65  92 124 161 204 262 318 371
#     4  11  23  40  64  92 128 172 214 255 308 376
#     4  12  24  39  64  93 127 168 210 260 314 373
#
# _framework density 20.244761
#
# number of rings (size 3 to 8) (size 9 to 14) (size 15 to 20)
#    0.000    1.333    1.333    4.600    1.867    4.533 
#    0.000    2.667    0.000    0.000    0.000    0.000 
#    0.000    0.000    0.000    0.000    0.000    0.000 
#
# Total GULP energy -372065.738362 kJ/mol
# GULP energy per Si atom -12402.191279 kJ/mol
# Density = 2.019868 g / cm^3
# Si number density = 20.244761 Si / 1000 Ang^3
#
#
#
# Elastic Constant Matrix: (Units=GPa)
#
#
# Indices 1 2 3 4 5 6 
#
# 1 123.1439 42.0486 31.0093 -0.0075 -4.7719 0.0004
# 2 42.0486 95.5287 35.9074 -0.0088 -2.4055 0.0018
# 3 31.0093 35.9074 87.2001 -0.0103 -15.8561 0.0031
# 4 -0.0075 -0.0088 -0.0103 24.5423 0.0123 -3.6597
# 5 -4.7719 -2.4055 -15.8561 0.0123 35.2292 -0.0034
# 6 0.0004 0.0018 0.0031 -3.6597 -0.0034 24.8736
#
#
#
# Elastic Compliance Matrix: (Units=1/GPa)
#
#
# Indices 1 2 3 4 5 6 
#
# 1 0.009854 -0.003583 -0.001994 0.000001 0.000193 0.000000
# 2 -0.003583 0.013769 -0.004697 0.000003 -0.001659 0.000000
# 3 -0.001994 -0.004697 0.015252 0.000001 0.006274 -0.000001
# 4 0.000001 0.000003 0.000001 0.041660 -0.000013 0.006130
# 5 0.000193 -0.001659 0.006274 -0.000013 0.031122 0.000002
# 6 0.000000 0.000000 -0.000001 0.006130 0.000002 0.041105
#
#
# Mechanical properties :
#
#
# Convention : Reuss Voigt Hill
#
# Bulk Modulus (GPa) = 54.56568 58.20038 56.38303
# Shear Modulus (GPa) = 27.86781 30.05618 28.96199
#
# Velocity S-wave (km/s) = 3.71421 3.85728 3.78642
# Velocity P-wave (km/s) = 6.73834 6.97488 6.85763
#
# Compressibility (1/GPa) = 0.01832654
#
# Stress axis : x y z
#
# Youngs Moduli (GPa) = 101.48672 72.62657 65.56552
#
# Poissons Ratio (x) = 0.26022 0.13071
# Poissons Ratio (y) = 0.36363 0.30799
# Poissons Ratio (z) = 0.20232 0.34116
#
# Static dielectric constant tensor:
#      x y z
#    x 3.823990 0.000000 0.076230 
#    y 0.000000 3.728620 0.000030 
#    z 0.076230 0.000030 3.589330 
# 
# 
# High freq. dielectric constant tensor:
#      x y z
#    x 1.799510 0.000000 0.006540 
#    y 0.000000 1.798170 0.000000 
#    z 0.006540 0.000000 1.792820 
# 
# From -- ./inp_files/217909.got.cif
#   From: 2010.06.25/outbox.cif.g09.slc.cpg/sg12_109_cif.got.tgz:217909.got - 2010.06.28 00:19:55.
