data_PCOD8094397
_publ_section_title
;
Structure prediction by ZEFSAII (Michael W. Deem and Ramdas Pophale) SiO2 
 PCOD8094397
Probable space group: C 2/M
;
_chemical_formula_sum "Si O2"
_cell_formula_units_Z 64
_cell_length_a 29.598752
_cell_length_b 8.962399
_cell_length_c 11.810336
_cell_angle_alpha 90.000000
_cell_angle_beta 93.347640
_cell_angle_gamma 90.000000
_cell_volume 3127.650511
_symmetry_space_group_name_H-M "C 2/M"
_symmetry_group_IT_number 12
_symmetry_cell_setting 'monoclinic'
loop_
_space_group_symop_operation_xyz
x,y,z
-x,y,-z
-x,-y,-z
x,-y,z
1/2+x,1/2+y,z
1/2-x,1/2+y,-z
1/2-x,1/2-y,-z
1/2+x,1/2-y,z
loop_
_atom_site_type_symbol
_atom_site_label
_atom_site_fract_x
_atom_site_fract_y
_atom_site_fract_z
Si Si1 0.107098 0.825507 0.006552
Si Si2 0.163985 0.170042 0.675817
Si Si3 0.085722 0.324650 0.780706
Si Si4 0.268187 0.174708 0.707306
Si Si5 0.492887 0.323158 0.368855
Si Si6 0.790238 0.174274 0.937319
Si Si7 0.837789 0.171572 0.582282
Si Si8 0.581407 0.322951 0.251526
O O1 0.078964 0.738782 0.906369
O O2 0.096747 0.000000 0.992749
O O3 0.160796 0.794197 0.000141
O O4 0.088368 0.765620 0.124380
O O5 0.136267 0.282372 0.749855
O O6 0.215907 0.217404 0.693356
O O7 0.147217 0.186484 0.545016
O O8 0.156803 0.000000 0.717559
O O9 0.078729 0.500000 0.781303
O O10 0.051830 0.252039 0.686254
O O11 0.292357 0.261827 0.812025
O O12 0.292881 0.230330 0.597045
O O13 0.274916 0.000000 0.724904
O O14 0.500000 0.273362 0.500000
O O15 0.486787 0.500000 0.360767
O O16 0.534366 0.265656 0.297389
O O17 0.780115 0.000000 0.931922
O O18 0.750000 0.250000 0.000000
O O19 0.878204 0.237973 0.664158
O O20 0.826704 0.000000 0.610382
O O21 0.582897 0.500000 0.255405
#
# Coordination Sequence:
#
# PCOD8094397 Si02
#       8
#     8   8   8   8   8   8   8   8
#     4  10  21  40  62  84 116 158 207 253 295 354
#     4  10  22  39  60  85 119 163 209 252 296 361
#     4  12  26  41  60  89 125 158 196 250 312 364
#     4  11  22  35  54  87 124 160 201 247 305 367
#     4  10  21  41  70  97 121 155 200 244 294 364
#     4  11  22  37  58  83 116 160 208 261 306 354
#     4  10  19  37  62  88 119 156 203 253 299 354
#     4   9  18  36  64  92 115 152 204 251 296 353
#
# _framework density 20.462644999999998
#
# number of rings (size 3 to 8) (size 9 to 14) (size 15 to 20)
#    0.000    1.625    1.250    3.750    0.000    8.250 
#    0.000    3.750    0.000    0.000    0.000    0.000 
#    0.000    0.000    0.000    0.000    0.000    0.000 
#
# Total GULP energy -396902.769277 kJ/mol
# GULP energy per Si atom -12403.211540 kJ/mol
# Density = 2.041607 g / cm^3
# Si number density = 20.462645 Si / 1000 Ang^3
#
#
#
# Elastic Constant Matrix: (Units=GPa)
#
#
# Indices 1 2 3 4 5 6 
#
# 1 92.1258 39.3937 38.6348 0.0000 -3.7199 0.0000
# 2 39.3937 68.2542 41.6789 0.0000 4.3304 0.0000
# 3 38.6348 41.6789 115.8761 0.0000 7.6633 0.0000
# 4 0.0000 0.0000 0.0000 23.8580 0.0000 -0.1075
# 5 -3.7199 4.3304 7.6633 0.0000 40.3224 0.0000
# 6 0.0000 0.0000 0.0000 -0.1075 0.0000 28.6419
#
#
#
# Elastic Compliance Matrix: (Units=1/GPa)
#
#
# Indices 1 2 3 4 5 6 
#
# 1 0.015198 -0.007355 -0.002600 0.000000 0.002686 0.000000
# 2 -0.007355 0.022356 -0.005454 0.000000 -0.002043 0.000000
# 3 -0.002600 -0.005454 0.011581 0.000000 -0.001855 0.000000
# 4 0.000000 0.000000 0.000000 0.041915 0.000000 0.000157
# 5 0.002686 -0.002043 -0.001855 0.000000 0.025620 0.000000
# 6 0.000000 0.000000 0.000000 0.000157 0.000000 0.034914
#
#
# Mechanical properties :
#
#
# Convention : Reuss Voigt Hill
#
# Bulk Modulus (GPa) = 54.58859 57.29676 55.94267
# Shear Modulus (GPa) = 26.52410 29.00105 27.76258
#
# Velocity S-wave (km/s) = 3.60421 3.76875 3.68740
# Velocity P-wave (km/s) = 6.63744 6.85561 6.74740
#
# Compressibility (1/GPa) = 0.01831885
#
# Stress axis : x y z
#
# Youngs Moduli (GPa) = 65.79661 44.73071 86.34861
#
# Poissons Ratio (x) = 0.32899 0.22447
# Poissons Ratio (y) = 0.48393 0.47093
# Poissons Ratio (z) = 0.17104 0.24395
#
# Static dielectric constant tensor:
#      x y z
#    x 3.746190 0.000000 -0.036880 
#    y 0.000000 3.426010 0.000000 
#    z -0.036880 0.000000 4.020400 
# 
# 
# High freq. dielectric constant tensor:
#      x y z
#    x 1.803160 0.000000 -0.001260 
#    y 0.000000 1.772620 0.000000 
#    z -0.001260 0.000000 1.816300 
# 
# From -- ./inp_files/187513.got.cif
#   From: 2010.06.25/outbox.cif.g09.slc.cpg/sg12_94_cif.got.tgz:187513.got - 2010.06.28 00:19:55.
