data_PCOD8094347
_publ_section_title
;
Structure prediction by ZEFSAII (Michael W. Deem and Ramdas Pophale) SiO2 
 PCOD8094347
Probable space group: C 2/M
;
_chemical_formula_sum "Si O2"
_cell_formula_units_Z 56
_cell_length_a 26.247633
_cell_length_b 14.974160
_cell_length_c 8.855534
_cell_angle_alpha 90.000000
_cell_angle_beta 54.118315
_cell_angle_gamma 90.000000
_cell_volume 2820.039377
_symmetry_space_group_name_H-M "C 2/M"
_symmetry_group_IT_number 12
_symmetry_cell_setting 'monoclinic'
loop_
_space_group_symop_operation_xyz
x,y,z
-x,y,-z
-x,-y,-z
x,-y,z
1/2+x,1/2+y,z
1/2-x,1/2+y,-z
1/2-x,1/2-y,-z
1/2+x,1/2-y,z
loop_
_atom_site_type_symbol
_atom_site_label
_atom_site_fract_x
_atom_site_fract_y
_atom_site_fract_z
Si Si1 0.201410 0.314135 0.010197
Si Si2 0.904407 0.901420 0.271634
Si Si3 0.658422 0.101074 0.682930
Si Si4 0.020615 0.209556 0.630226
Si Si5 0.356501 0.821953 0.589629
Si Si6 0.779791 0.848132 0.618203
Si Si7 0.401917 0.247388 0.026544
O O1 0.163729 0.361817 0.211954
O O2 0.250000 0.250000 0.000000
O O3 0.240853 0.382772 0.835435
O O4 0.156505 0.250940 0.986673
O O5 0.954842 0.872224 0.310196
O O6 0.836522 0.911375 0.469898
O O7 0.901531 0.833852 0.135839
O O8 0.923325 0.000000 0.179818
O O9 0.642104 0.098256 0.533415
O O10 0.726213 0.150373 0.582148
O O11 0.603995 0.157674 0.862463
O O12 0.659487 0.000000 0.743491
O O13 0.074507 0.281857 0.511128
O O14 0.000000 0.174033 0.500000
O O15 0.964815 0.256898 0.818986
O O16 0.308158 0.749102 0.604771
#
# Coordination Sequence:
#
# PCOD8094347 Si02
#       7
#     8   8   8   8   8   8   8
#     4   9  19  33  63  89 116 160 201 242 304 364
#     4  11  24  40  63  93 125 162 207 251 303 368
#     4  11  22  37  62  93 121 156 201 252 308 368
#     4  11  22  40  65  87 120 165 205 253 308 359
#     4  10  19  37  61  90 118 161 202 249 305 362
#     4   9  19  37  60  88 124 155 197 247 303 362
#     4  11  22  39  64  87 122 162 203 251 304 360
#
# _framework density 19.857880000000002
#
# number of rings (size 3 to 8) (size 9 to 14) (size 15 to 20)
#    0.000    1.714    4.286    1.286    4.000    1.429 
#    0.000    5.000    0.000    1.714    0.000    0.000 
#    0.000    0.000    0.000    0.000    0.000    0.000 
#
# Total GULP energy -346872.980030 kJ/mol
# GULP energy per Si atom -12388.320715 kJ/mol
# Density = 1.981268 g / cm^3
# Si number density = 19.857880 Si / 1000 Ang^3
#
#
#
# Elastic Constant Matrix: (Units=GPa)
#
#
# Indices 1 2 3 4 5 6 
#
# 1 105.8569 25.7017 62.5130 0.0000 16.9774 0.0000
# 2 25.7017 65.8067 39.0890 0.0000 0.8981 0.0000
# 3 62.5130 39.0890 153.1583 0.0000 1.2696 0.0000
# 4 0.0000 0.0000 0.0000 6.4621 0.0000 1.2828
# 5 16.9774 0.8981 1.2696 0.0000 39.0687 0.0000
# 6 0.0000 0.0000 0.0000 1.2828 0.0000 8.1233
#
#
#
# Elastic Compliance Matrix: (Units=1/GPa)
#
#
# Indices 1 2 3 4 5 6 
#
# 1 0.013930 -0.002372 -0.005032 0.000000 -0.005835 0.000000
# 2 -0.002372 0.018318 -0.003713 0.000000 0.000730 0.000000
# 3 -0.005032 -0.003713 0.009514 0.000000 0.001963 0.000000
# 4 0.000000 0.000000 0.000000 0.159756 0.000000 -0.025227
# 5 -0.005835 0.000730 0.001963 0.000000 0.028051 0.000000
# 6 0.000000 0.000000 0.000000 -0.025227 0.000000 0.127086
#
#
# Mechanical properties :
#
#
# Convention : Reuss Voigt Hill
#
# Bulk Modulus (GPa) = 51.20704 64.38102 57.79403
# Shear Modulus (GPa) = 12.97357 23.89871 18.43614
#
# Velocity S-wave (km/s) = 2.55879 3.47290 3.05028
# Velocity P-wave (km/s) = 5.87985 6.96941 6.44768
#
# Compressibility (1/GPa) = 0.01952856
#
# Stress axis : x y z
#
# Youngs Moduli (GPa) = 71.78711 54.59122 105.10391
#
# Poissons Ratio (x) = 0.12949 0.52888
# Poissons Ratio (y) = 0.17028 0.39025
# Poissons Ratio (z) = 0.36123 0.20270
#
# Static dielectric constant tensor:
#      x y z
#    x 3.916340 0.000000 0.319400 
#    y 0.000000 2.736090 0.000000 
#    z 0.319400 0.000000 4.829770 
# 
# 
# High freq. dielectric constant tensor:
#      x y z
#    x 1.786840 0.000000 0.001970 
#    y 0.000000 1.722200 0.000000 
#    z 0.001970 0.000000 1.796740 
# 
# From -- ./inp_files/96755.got.cif
#   From: 2010.06.25/outbox.cif.g09.slc.cpg/sg12_49_cif.got.tgz:96755.got - 2010.06.28 00:19:55.
