data_PCOD8094815
_publ_section_title
;
Structure prediction by ZEFSAII (Michael W. Deem and Ramdas Pophale) SiO2 
 PCOD8094815
Probable space group: C 2/M
;
_chemical_formula_sum "Si O2"
_cell_formula_units_Z 36
_cell_length_a 11.098496
_cell_length_b 14.930402
_cell_length_c 19.956771
_cell_angle_alpha 90.000000
_cell_angle_beta 30.983426
_cell_angle_gamma 90.000000
_cell_volume 1702.378364
_symmetry_space_group_name_H-M "C 2/M"
_symmetry_group_IT_number 12
_symmetry_cell_setting 'monoclinic'
loop_
_space_group_symop_operation_xyz
x,y,z
-x,y,-z
-x,-y,-z
x,-y,z
1/2+x,1/2+y,z
1/2-x,1/2+y,-z
1/2-x,1/2-y,-z
1/2+x,1/2-y,z
loop_
_atom_site_type_symbol
_atom_site_label
_atom_site_fract_x
_atom_site_fract_y
_atom_site_fract_z
Si Si1 0.519760 0.602572 0.725434
Si Si2 0.000000 0.326474 0.500000
Si Si3 0.446847 0.660842 0.437664
Si Si4 0.745888 0.250946 0.921264
Si Si5 0.395987 0.899933 0.300427
O O1 0.441756 0.500000 0.756597
O O2 0.511315 0.655418 0.660249
O O3 0.342639 0.652307 0.859023
O O4 0.785797 0.610563 0.624636
O O5 0.062219 0.264379 0.534458
O O6 0.199484 0.615634 0.578093
O O7 0.666964 0.610233 0.364393
O O8 0.909893 0.329230 0.814670
O O9 0.500000 0.263756 0.000000
O O10 0.750000 0.250000 0.000000
O O11 0.501086 0.000000 0.243453
#
# Coordination Sequence:
#
# PCOD8094815 Si02
#       5
#     8   4   8   8   8
#     4  12  24  41  67 100 132 167 217 280 337 395
#     4  10  21  38  67  98 134 166 205 272 353 396
#     4  10  19  39  69  99 129 167 208 269 347 404
#     4  12  28  45  65  90 132 187 232 269 320 390
#     4  10  20  39  66  98 130 167 218 273 331 400
#
# _framework density 21.146885999999999
#
# number of rings (size 3 to 8) (size 9 to 14) (size 15 to 20)
#    0.000    1.333    4.444    5.000    0.000    1.778 
#    0.000    2.222    0.000    0.000    0.000    0.000 
#    0.000    0.000    0.000    0.000    0.000    0.000 
#
# Total GULP energy -223084.274985 kJ/mol
# GULP energy per Si atom -12393.570832 kJ/mol
# Density = 2.109875 g / cm^3
# Si number density = 21.146886 Si / 1000 Ang^3
#
#
#
# Elastic Constant Matrix: (Units=GPa)
#
#
# Indices 1 2 3 4 5 6 
#
# 1 93.1641 34.4848 63.3159 -0.0063 10.6099 -0.0274
# 2 34.4848 118.9515 49.1910 -0.0197 -0.1544 -0.0266
# 3 63.3159 49.1910 135.0753 -0.0713 0.9969 -0.0641
# 4 -0.0063 -0.0197 -0.0713 19.3334 0.0177 -22.1706
# 5 10.6099 -0.1544 0.9969 0.0177 40.7683 0.0431
# 6 -0.0274 -0.0266 -0.0641 -22.1706 0.0431 -67.9227
#
#
#
# Elastic Compliance Matrix: (Units=1/GPa)
#
#
# Indices 1 2 3 4 5 6 
#
# 1 0.016767 -0.001918 -0.007130 -0.000015 -0.004197 0.000003
# 2 -0.001918 0.010117 -0.002790 -0.000001 0.000606 0.000000
# 3 -0.007130 -0.002790 0.011750 0.000022 0.001558 -0.000013
# 4 -0.000015 -0.000001 0.000022 0.037636 0.000000 -0.012285
# 5 -0.004197 0.000606 0.001558 0.000000 0.025585 0.000016
# 6 0.000003 0.000000 -0.000013 -0.012285 0.000016 -0.010713
#
#
# Mechanical properties :
#
#
# Convention : Reuss Voigt Hill
#
# Bulk Modulus (GPa) = 66.85052 71.24159 69.04606
# Shear Modulus (GPa) = 41.73412 11.78241 26.75827
#
# Velocity S-wave (km/s) = 4.44727 2.36301 3.56104
# Velocity P-wave (km/s) = 7.61919 6.41928 7.04483
#
# Compressibility (1/GPa) = 0.01495875
#
# Stress axis : x y z
#
# Youngs Moduli (GPa) = 59.63952 98.84039 85.10551
#
# Poissons Ratio (x) = 0.18955 0.60683
# Poissons Ratio (y) = 0.11438 0.23744
# Poissons Ratio (z) = 0.42525 0.27576
#
# Static dielectric constant tensor:
#      x y z
#    x 3.938950 -0.000010 -0.009140 
#    y -0.000010 3.768030 0.000050 
#    z -0.009140 0.000050 3.975140 
# 
# 
# High freq. dielectric constant tensor:
#      x y z
#    x 1.827980 0.000000 -0.000640 
#    y 0.000000 1.832360 0.000000 
#    z -0.000640 0.000000 1.826200 
# 
# From -- ./inp_files/305272.got.cif
#   From: 2010.06.25/outbox.cif.g09.slc.cpg/sg12_153_cif.got.tgz:305272.got - 2010.06.28 00:19:55.
