data_PCOD8094065
_publ_section_title
;
Structure prediction by ZEFSAII (Michael W. Deem and Ramdas Pophale) SiO2 
 PCOD8094065
Probable space group: C 2/M
;
_chemical_formula_sum "Si O2"
_cell_formula_units_Z 48
_cell_length_a 15.585301
_cell_length_b 29.909449
_cell_length_c 8.776127
_cell_angle_alpha 90.000000
_cell_angle_beta 144.257227
_cell_angle_gamma 90.000000
_cell_volume 2389.730214
_symmetry_space_group_name_H-M "C 2/M"
_symmetry_group_IT_number 12
_symmetry_cell_setting 'monoclinic'
loop_
_space_group_symop_operation_xyz
x,y,z
-x,y,-z
-x,-y,-z
x,-y,z
1/2+x,1/2+y,z
1/2-x,1/2+y,-z
1/2-x,1/2-y,-z
1/2+x,1/2-y,z
loop_
_atom_site_type_symbol
_atom_site_label
_atom_site_fract_x
_atom_site_fract_y
_atom_site_fract_z
Si Si1 0.109257 0.867621 0.429062
Si Si2 0.713691 0.630846 0.913866
Si Si3 0.165220 0.714006 0.774960
Si Si4 0.161625 0.213378 0.280424
Si Si5 0.672754 0.050241 0.750793
Si Si6 0.658584 0.450198 0.300870
O O1 0.196853 0.861015 0.710768
O O2 0.154006 0.831497 0.368312
O O3 0.156227 0.916513 0.438694
O O4 0.936884 0.861923 0.211102
O O5 0.836635 0.666736 0.140539
O O6 0.768760 0.581018 0.028248
O O7 0.248503 0.703729 0.740566
O O8 0.000000 0.730748 0.500000
O O9 0.250000 0.750000 0.000000
O O10 0.250000 0.250000 0.500000
O O11 0.000000 0.230783 0.000000
O O12 0.500000 0.051859 0.500000
O O13 0.728775 0.066803 0.666445
O O14 0.731539 0.000000 0.866549
O O15 0.702602 0.500000 0.422681
O O16 0.500000 0.451207 0.000000
#
# Coordination Sequence:
#
# PCOD8094065 Si02
#       6
#     8   8   8   8   8   8
#     4  11  23  39  63  93 127 164 208 263 311 369
#     4  11  23  40  62  92 128 164 208 259 316 368
#     4  12  26  43  66  93 125 162 208 260 316 379
#     4  12  24  43  66  91 123 164 210 258 315 374
#     4  10  21  39  63  91 126 166 207 255 314 375
#     4  10  19  36  62  91 122 161 211 257 306 369
#
# _framework density 20.08595
#
# number of rings (size 3 to 8) (size 9 to 14) (size 15 to 20)
#    0.000    1.000    3.333    4.000    2.333    0.667 
#    0.000    4.167    0.000    3.000    0.000    0.000 
#    0.000    0.000    0.000    0.000    0.000    0.000 
#
# Total GULP energy -297639.036252 kJ/mol
# GULP energy per Si atom -12401.626510 kJ/mol
# Density = 2.004023 g / cm^3
# Si number density = 20.085950 Si / 1000 Ang^3
#
#
#
# Elastic Constant Matrix: (Units=GPa)
#
#
# Indices 1 2 3 4 5 6 
#
# 1 122.6594 38.8028 49.6517 0.0000 -5.2655 0.0000
# 2 38.8028 120.7776 59.0534 0.0000 -18.5594 0.0000
# 3 49.6517 59.0534 123.8263 0.0000 -3.2042 0.0000
# 4 0.0000 0.0000 0.0000 16.8413 0.0000 26.5298
# 5 -5.2655 -18.5594 -3.2042 0.0000 30.1114 0.0000
# 6 0.0000 0.0000 0.0000 26.5298 0.0000 -2.2992
#
#
#
# Elastic Compliance Matrix: (Units=1/GPa)
#
#
# Indices 1 2 3 4 5 6 
#
# 1 0.009977 -0.001547 -0.003251 0.000000 0.000445 0.000000
# 2 -0.001547 0.012295 -0.005068 0.000000 0.006768 0.000000
# 3 -0.003251 -0.005068 0.011733 0.000000 -0.002444 0.000000
# 4 0.000000 0.000000 0.000000 0.003096 0.000000 0.035728
# 5 0.000445 0.006768 -0.002444 0.000000 0.037199 0.000000
# 6 0.000000 0.000000 0.000000 0.035728 0.000000 -0.022680
#
#
# Mechanical properties :
#
#
# Convention : Reuss Voigt Hill
#
# Bulk Modulus (GPa) = 70.06571 73.58653 71.82612
# Shear Modulus (GPa) = 65.69359 23.58106 44.63733
#
# Velocity S-wave (km/s) = 5.72514 3.43010 4.71926
# Velocity P-wave (km/s) = 8.86914 7.23898 8.09520
#
# Compressibility (1/GPa) = 0.01427232
#
# Stress axis : x y z
#
# Youngs Moduli (GPa) = 100.22696 81.33574 85.22883
#
# Poissons Ratio (x) = 0.12586 0.27710
# Poissons Ratio (y) = 0.15509 0.43192
# Poissons Ratio (z) = 0.32586 0.41219
#
# Static dielectric constant tensor:
#      x y z
#    x 3.699260 0.000000 0.091630 
#    y 0.000000 4.077900 0.000000 
#    z 0.091630 0.000000 3.839910 
# 
# 
# High freq. dielectric constant tensor:
#      x y z
#    x 1.794850 0.000000 -0.000280 
#    y 0.000000 1.796180 0.000000 
#    z -0.000280 0.000000 1.774900 
# 
# From -- ./inp_files/67412.got.cif
#   From: 2010.06.25/outbox.cif.g09.slc.cpg/sg12_34_cif.got.tgz:67412.got - 2010.06.28 00:19:55.
