data_PCOD8094382
_publ_section_title
;
Structure prediction by ZEFSAII (Michael W. Deem and Ramdas Pophale) SiO2 
 PCOD8094382
Probable space group: C 2/M
;
_chemical_formula_sum "Si O2"
_cell_formula_units_Z 48
_cell_length_a 15.114799
_cell_length_b 8.612237
_cell_length_c 20.537522
_cell_angle_alpha 90.000000
_cell_angle_beta 111.595373
_cell_angle_gamma 90.000000
_cell_volume 2485.757930
_symmetry_space_group_name_H-M "C 2/M"
_symmetry_group_IT_number 12
_symmetry_cell_setting 'monoclinic'
loop_
_space_group_symop_operation_xyz
x,y,z
-x,y,-z
-x,-y,-z
x,-y,z
1/2+x,1/2+y,z
1/2-x,1/2+y,-z
1/2-x,1/2-y,-z
1/2+x,1/2-y,z
loop_
_atom_site_type_symbol
_atom_site_label
_atom_site_fract_x
_atom_site_fract_y
_atom_site_fract_z
Si Si1 0.538804 0.184037 0.326796
Si Si2 0.258240 0.816835 0.573865
Si Si3 0.069143 0.816855 0.077977
Si Si4 0.429146 0.816518 0.423579
Si Si5 0.042926 0.684688 0.832033
Si Si6 0.741896 0.683802 0.925850
O O1 0.645450 0.247376 0.366710
O O2 0.471432 0.243261 0.366817
O O3 0.498906 0.245319 0.247617
O O4 0.539985 0.000000 0.327692
O O5 0.250000 0.750000 0.500000
O O6 0.171733 0.765544 0.595702
O O7 0.261728 0.000000 0.568543
O O8 0.170934 0.739478 0.094443
O O9 0.026798 0.746017 0.131611
O O10 0.081488 0.000000 0.088528
O O11 0.000000 0.773582 0.000000
O O12 0.500000 0.763940 0.500000
O O13 0.413649 0.000000 0.421200
O O14 0.049867 0.500000 0.837926
O O15 0.146753 0.756685 0.866480
O O16 0.739989 0.500000 0.930076
O O17 0.750000 0.750000 0.000000
#
# Coordination Sequence:
#
# PCOD8094382 Si02
#       6
#     8   8   8   8   8   8
#     4   9  21  40  60  86 124 162 194 243 305 359
#     4  11  21  37  60  89 120 155 203 249 296 354
#     4  11  23  40  64  92 123 159 205 252 298 358
#     4  10  19  37  62  86 118 159 200 243 297 355
#     4  11  23  41  64  91 126 162 200 249 308 362
#     4  12  24  40  64  93 123 159 204 250 302 361
#
# _framework density 19.310005
#
# number of rings (size 3 to 8) (size 9 to 14) (size 15 to 20)
#    0.000    1.333    3.333    3.000    0.000    2.333 
#    0.000    8.333    0.000    0.000    0.000    0.000 
#    0.000    0.000    0.000    0.000    0.000    0.000 
#
# Total GULP energy -297701.680582 kJ/mol
# GULP energy per Si atom -12404.236691 kJ/mol
# Density = 1.926605 g / cm^3
# Si number density = 19.310005 Si / 1000 Ang^3
#
#
#
# Elastic Constant Matrix: (Units=GPa)
#
#
# Indices 1 2 3 4 5 6 
#
# 1 203.9189 57.3602 102.6620 0.0000 4.1903 0.0000
# 2 57.3602 84.1187 55.0390 0.0000 2.3874 0.0000
# 3 102.6620 55.0390 185.2922 0.0000 1.5624 0.0000
# 4 0.0000 0.0000 0.0000 13.1920 0.0000 0.0604
# 5 4.1903 2.3874 1.5624 0.0000 38.3770 0.0000
# 6 0.0000 0.0000 0.0000 0.0604 0.0000 38.6914
#
#
#
# Elastic Compliance Matrix: (Units=1/GPa)
#
#
# Indices 1 2 3 4 5 6 
#
# 1 0.007341 -0.002896 -0.003203 0.000000 -0.000491 0.000000
# 2 -0.002896 0.015919 -0.003119 0.000000 -0.000547 0.000000
# 3 -0.003203 -0.003119 0.008096 0.000000 0.000214 0.000000
# 4 0.000000 0.000000 0.000000 0.075804 0.000000 -0.000118
# 5 -0.000491 -0.000547 0.000214 0.000000 0.026136 0.000000
# 6 0.000000 0.000000 0.000000 -0.000118 0.000000 0.025846
#
#
# Mechanical properties :
#
#
# Convention : Reuss Voigt Hill
#
# Bulk Modulus (GPa) = 77.40147 100.38358 88.89252
# Shear Modulus (GPa) = 27.48965 35.26998 31.37982
#
# Velocity S-wave (km/s) = 3.77715 4.27841 4.03557
# Velocity P-wave (km/s) = 7.69371 8.74669 8.23704
#
# Compressibility (1/GPa) = 0.01291965
#
# Stress axis : x y z
#
# Youngs Moduli (GPa) = 136.21699 62.81609 123.51346
#
# Poissons Ratio (x) = 0.18193 0.39561
# Poissons Ratio (y) = 0.39453 0.38529
# Poissons Ratio (z) = 0.43630 0.19595
#
# Static dielectric constant tensor:
#      x y z
#    x 3.515260 0.000000 -0.141720 
#    y 0.000000 3.560280 0.000000 
#    z -0.141720 0.000000 3.671850 
# 
# 
# High freq. dielectric constant tensor:
#      x y z
#    x 1.772410 0.000000 0.000160 
#    y 0.000000 1.746560 0.000000 
#    z 0.000160 0.000000 1.753930 
# 
# From -- ./inp_files/308607.got.cif
#   From: 2010.06.25/outbox.cif.g09.slc.cpg/sg12_155_cif.got.tgz:308607.got - 2010.06.28 00:19:55.
