data_PCOD8094938
_publ_section_title
;
Structure prediction by ZEFSAII (Michael W. Deem and Ramdas Pophale) SiO2 
 PCOD8094938
Probable space group: C 2/M
;
_chemical_formula_sum "Si O2"
_cell_formula_units_Z 64
_cell_length_a 32.401386
_cell_length_b 9.777548
_cell_length_c 13.913551
_cell_angle_alpha 90.000000
_cell_angle_beta 93.791379
_cell_angle_gamma 90.000000
_cell_volume 4398.250927
_symmetry_space_group_name_H-M "C 2/M"
_symmetry_group_IT_number 12
_symmetry_cell_setting 'monoclinic'
loop_
_space_group_symop_operation_xyz
x,y,z
-x,y,-z
-x,-y,-z
x,-y,z
1/2+x,1/2+y,z
1/2-x,1/2+y,-z
1/2-x,1/2-y,-z
1/2+x,1/2-y,z
loop_
_atom_site_type_symbol
_atom_site_label
_atom_site_fract_x
_atom_site_fract_y
_atom_site_fract_z
Si Si1 0.285873 0.153408 0.974250
Si Si2 0.679621 0.158748 0.828054
Si Si3 0.255776 0.157347 0.773339
Si Si4 0.218655 0.340153 0.434912
Si Si5 0.943304 0.153584 0.574865
Si Si6 0.897409 0.657749 0.306061
Si Si7 0.872981 0.657299 0.519508
Si Si8 0.031815 0.846457 0.642236
O O1 0.292200 0.177673 0.860569
O O2 0.269828 0.000000 0.987863
O O3 0.250000 0.250000 0.000000
O O4 0.323590 0.179260 0.055373
O O5 0.716435 0.247246 0.787880
O O6 0.636148 0.206498 0.777311
O O7 0.687727 0.000000 0.801982
O O8 0.276231 0.197069 0.675983
O O9 0.240385 0.000000 0.769906
O O10 0.226948 0.500000 0.456969
O O11 0.250000 0.250000 0.500000
O O12 0.172779 0.297194 0.458518
O O13 0.905412 0.256100 0.588252
O O14 0.955751 0.160563 0.466304
O O15 0.983464 0.196289 0.644433
O O16 0.929372 0.000000 0.599858
O O17 0.909384 0.500000 0.295220
O O18 0.878153 0.686632 0.407525
O O19 0.939154 0.743734 0.293522
O O20 0.881212 0.500000 0.545967
O O21 0.038255 0.000000 0.682788
#
# Coordination Sequence:
#
# PCOD8094938 Si02
#       8
#     8   8   8   8   8   8   8   8
#     4   8  14  25  40  56  73  95 124 157 193 229
#     4   9  16  26  40  57  78 102 126 155 192 231
#     4   9  17  28  41  56  74  99 132 165 193 223
#     4  10  20  31  41  55  77 104 134 165 193 221
#     4   8  14  25  39  53  70  94 124 153 181 217
#     4   9  16  24  35  53  76 100 124 148 179 223
#     4   9  17  27  37  51  73 100 128 156 184 215
#     4   8  14  24  37  53  73  96 120 148 182 219
#
# _framework density 14.551239000000001
#
# number of rings (size 3 to 8) (size 9 to 14) (size 15 to 20)
#    0.000    3.250    0.000    1.500    0.000    3.000 
#    0.000    5.000    0.000    0.000    0.000    0.000 
#    0.000    1.000    0.000   12.500    0.000    2.500 
#
# Total GULP energy -396440.069771 kJ/mol
# GULP energy per Si atom -12388.752180 kJ/mol
# Density = 1.451812 g / cm^3
# Si number density = 14.551239 Si / 1000 Ang^3
#
#
#
# Elastic Constant Matrix: (Units=GPa)
#
#
# Indices 1 2 3 4 5 6 
#
# 1 116.2407 61.1554 49.2259 0.0000 24.4604 0.0000
# 2 61.1554 63.0794 35.6289 0.0000 14.0451 0.0000
# 3 49.2259 35.6289 77.0589 0.0000 18.1345 0.0000
# 4 0.0000 0.0000 0.0000 14.5641 0.0000 5.0323
# 5 24.4604 14.0451 18.1345 0.0000 20.1250 0.0000
# 6 0.0000 0.0000 0.0000 5.0323 0.0000 27.3329
#
#
#
# Elastic Compliance Matrix: (Units=1/GPa)
#
#
# Indices 1 2 3 4 5 6 
#
# 1 0.020527 -0.015561 -0.003303 0.000000 -0.011113 0.000000
# 2 -0.015561 0.034225 -0.005982 0.000000 0.000418 0.000000
# 3 -0.003303 -0.005982 0.020212 0.000000 -0.010023 0.000000
# 4 0.000000 0.000000 0.000000 0.073327 0.000000 -0.013500
# 5 -0.011113 0.000418 -0.010023 0.000000 0.071936 0.000000
# 6 0.000000 0.000000 0.000000 -0.013500 0.000000 0.039072
#
#
# Mechanical properties :
#
#
# Convention : Reuss Voigt Hill
#
# Bulk Modulus (GPa) = 39.56980 60.93324 50.25152
# Shear Modulus (GPa) = 15.75234 19.76232 17.75733
#
# Velocity S-wave (km/s) = 3.29377 3.68927 3.49711
# Velocity P-wave (km/s) = 6.45892 7.75328 7.13551
#
# Compressibility (1/GPa) = 0.02527180
#
# Stress axis : x y z
#
# Youngs Moduli (GPa) = 48.71743 29.21842 49.47632
#
# Poissons Ratio (x) = 0.45466 0.16341
# Poissons Ratio (y) = 0.75808 0.29598
# Poissons Ratio (z) = 0.16090 0.17479
#
# Static dielectric constant tensor:
#      x y z
#    x 2.910890 0.000000 0.304430 
#    y 0.000000 2.957220 0.000000 
#    z 0.304430 0.000000 2.996530 
# 
# 
# High freq. dielectric constant tensor:
#      x y z
#    x 1.535480 0.000000 0.027250 
#    y 0.000000 1.564170 0.000000 
#    z 0.027250 0.000000 1.529120 
# 
# From -- ./inp_files/248362.got.cif
#   From: 2010.06.25/outbox.cif.g09.slc.cpg/sg12_125_cif.got.tgz:248362.got - 2010.06.28 00:19:55.
