data_PCOD8094538
_publ_section_title
;
Structure prediction by ZEFSAII (Michael W. Deem and Ramdas Pophale) SiO2 
 PCOD8094538
Probable space group: C 2/M
;
_chemical_formula_sum "Si O2"
_cell_formula_units_Z 64
_cell_length_a 12.261042
_cell_length_b 13.398299
_cell_length_c 20.571608
_cell_angle_alpha 90.000000
_cell_angle_beta 68.278385
_cell_angle_gamma 90.000000
_cell_volume 3139.480105
_symmetry_space_group_name_H-M "C 2/M"
_symmetry_group_IT_number 12
_symmetry_cell_setting 'monoclinic'
loop_
_space_group_symop_operation_xyz
x,y,z
-x,y,-z
-x,-y,-z
x,-y,z
1/2+x,1/2+y,z
1/2-x,1/2+y,-z
1/2-x,1/2-y,-z
1/2+x,1/2-y,z
loop_
_atom_site_type_symbol
_atom_site_label
_atom_site_fract_x
_atom_site_fract_y
_atom_site_fract_z
Si Si1 0.138358 0.617111 0.982672
Si Si2 0.504906 0.240784 0.215668
Si Si3 0.189862 0.615321 0.682093
Si Si4 0.565401 0.702721 0.337786
Si Si5 0.117537 0.889409 0.831203
Si Si6 0.729058 0.196003 0.098891
Si Si7 0.290359 0.112962 0.671616
Si Si8 0.321576 0.725071 0.420391
O O1 0.166944 0.500000 0.961474
O O2 0.218185 0.692001 0.921810
O O3 0.174786 0.643391 0.047971
O O4 0.000000 0.637404 0.000000
O O5 0.399628 0.159908 0.244495
O O6 0.514385 0.312160 0.276555
O O7 0.486064 0.309753 0.155941
O O8 0.629707 0.190522 0.176151
O O9 0.163091 0.500000 0.679577
O O10 0.325788 0.630022 0.673050
O O11 0.166793 0.669612 0.619324
O O12 0.598139 0.818934 0.337912
O O13 0.452561 0.683848 0.409775
O O14 0.171936 0.873058 0.890443
O O15 0.199706 0.870111 0.750256
O O16 0.065352 0.000000 0.841318
O O17 0.239802 0.144158 0.612544
O O18 0.334179 0.000000 0.658322
O O19 0.250000 0.750000 0.500000
#
# Coordination Sequence:
#
# PCOD8094538 Si02
#       8
#     8   8   8   8   8   8   8   8
#     4  10  23  43  63  91 127 166 207 245 292 358
#     4  11  20  38  58  89 122 153 194 246 301 353
#     4  10  22  37  56  86 118 151 196 247 295 359
#     4  10  19  38  57  82 118 154 193 245 297 358
#     4  11  21  36  59  90 118 149 197 245 301 356
#     4  11  22  39  66  90 123 162 201 250 300 353
#     4  10  20  36  58  86 116 150 197 248 296 357
#     4  10  22  40  59  82 118 160 199 246 300 360
#
# _framework density 20.385542000000001
#
# number of rings (size 3 to 8) (size 9 to 14) (size 15 to 20)
#    0.000    1.625    5.000    1.125    0.000    7.000 
#    0.000    4.375    0.000    4.125    0.000    0.000 
#    0.000    0.000    0.000    0.000    0.000    0.000 
#
# Total GULP energy -396550.722308 kJ/mol
# GULP energy per Si atom -12392.210072 kJ/mol
# Density = 2.033914 g / cm^3
# Si number density = 20.385542 Si / 1000 Ang^3
#
#
#
# Elastic Constant Matrix: (Units=GPa)
#
#
# Indices 1 2 3 4 5 6 
#
# 1 93.3738 24.9068 18.8510 0.0000 0.0247 0.0000
# 2 24.9068 120.8707 18.2396 0.0000 4.7251 0.0000
# 3 18.8510 18.2396 65.9165 0.0000 -4.3491 0.0000
# 4 0.0000 0.0000 0.0000 16.0992 0.0000 6.2431
# 5 0.0247 4.7251 -4.3491 0.0000 34.8802 0.0000
# 6 0.0000 0.0000 0.0000 6.2431 0.0000 19.5695
#
#
#
# Elastic Compliance Matrix: (Units=1/GPa)
#
#
# Indices 1 2 3 4 5 6 
#
# 1 0.011816 -0.002004 -0.002830 0.000000 -0.000090 0.000000
# 2 -0.002004 0.009050 -0.002029 0.000000 -0.001478 0.000000
# 3 -0.002830 -0.002029 0.016697 0.000000 0.002359 0.000000
# 4 0.000000 0.000000 0.000000 0.070884 0.000000 -0.022614
# 5 -0.000090 -0.001478 0.002359 0.000000 0.029164 0.000000
# 6 0.000000 0.000000 0.000000 -0.022614 0.000000 0.058314
#
#
# Mechanical properties :
#
#
# Convention : Reuss Voigt Hill
#
# Bulk Modulus (GPa) = 41.95226 44.90621 43.42923
# Shear Modulus (GPa) = 22.97821 28.65401 25.81611
#
# Velocity S-wave (km/s) = 3.36100 3.75321 3.56250
# Velocity P-wave (km/s) = 5.97376 6.39205 6.18644
#
# Compressibility (1/GPa) = 0.02383662
#
# Stress axis : x y z
#
# Youngs Moduli (GPa) = 84.63323 110.49536 59.89057
#
# Poissons Ratio (x) = 0.22145 0.16952
# Poissons Ratio (y) = 0.16962 0.12149
# Poissons Ratio (z) = 0.23955 0.22415
#
# Static dielectric constant tensor:
#      x y z
#    x 3.892850 0.000000 -0.030310 
#    y 0.000000 3.607400 0.000000 
#    z -0.030310 0.000000 3.554470 
# 
# 
# High freq. dielectric constant tensor:
#      x y z
#    x 1.814060 0.000000 0.004430 
#    y 0.000000 1.786500 0.000000 
#    z 0.004430 0.000000 1.777420 
# 
# From -- ./inp_files/305406.got.cif
#   From: 2010.06.25/outbox.cif.g09.slc.cpg/sg12_153_cif.got.tgz:305406.got - 2010.06.28 00:19:55.
