data_PCOD8094017
_publ_section_title
;
Structure prediction by ZEFSAII (Michael W. Deem and Ramdas Pophale) SiO2 
 PCOD8094017
Probable space group: C 2/M
;
_chemical_formula_sum "Si O2"
_cell_formula_units_Z 64
_cell_length_a 23.257620
_cell_length_b 18.745023
_cell_length_c 9.483685
_cell_angle_alpha 90.000000
_cell_angle_beta 134.435058
_cell_angle_gamma 90.000000
_cell_volume 2952.253247
_symmetry_space_group_name_H-M "C 2/M"
_symmetry_group_IT_number 12
_symmetry_cell_setting 'monoclinic'
loop_
_space_group_symop_operation_xyz
x,y,z
-x,y,-z
-x,-y,-z
x,-y,z
1/2+x,1/2+y,z
1/2-x,1/2+y,-z
1/2-x,1/2-y,-z
1/2+x,1/2-y,z
loop_
_atom_site_type_symbol
_atom_site_label
_atom_site_fract_x
_atom_site_fract_y
_atom_site_fract_z
Si Si1 0.880982 0.674500 0.547577
Si Si2 0.832772 0.832250 0.512732
Si Si3 0.910382 0.113594 0.383981
Si Si4 0.822740 0.350443 0.939988
Si Si5 0.266015 0.415185 0.652390
Si Si6 0.978551 0.579348 0.124412
Si Si7 0.592888 0.771682 0.695116
Si Si8 0.770422 0.923531 0.976069
O O1 0.870422 0.753098 0.602118
O O2 0.823547 0.616550 0.523469
O O3 0.859780 0.683467 0.345198
O O4 0.971043 0.641979 0.712455
O O5 0.892836 0.881743 0.522064
O O6 0.744705 0.825393 0.286628
O O7 0.825457 0.873270 0.648520
O O8 0.884981 0.189806 0.279727
O O9 0.852478 0.059896 0.202982
O O10 0.000000 0.089999 0.500000
O O11 0.785330 0.375580 0.022877
O O12 0.882242 0.408269 0.972951
O O13 0.880976 0.288210 0.099577
O O14 0.267492 0.500000 0.622745
O O15 0.291331 0.394479 0.855429
O O16 0.997646 0.500000 0.218730
O O17 0.000000 0.582719 0.000000
O O18 0.500000 0.783797 0.500000
O O19 0.726735 0.000000 0.879486
#
# Coordination Sequence:
#
# PCOD8094017 Si02
#       8
#     8   8   8   8   8   8   8   8
#     4  11  21  39  60  89 125 166 211 254 307 376
#     4  10  24  39  64  93 122 164 211 256 315 374
#     4   9  21  40  64  89 117 156 197 258 310 366
#     4  11  21  39  65  92 123 165 205 257 300 368
#     4  11  23  40  59  87 128 164 203 262 314 368
#     4  11  24  40  60  91 133 175 212 254 309 374
#     4  10  19  36  61  91 123 151 201 252 307 360
#     4  10  22  38  61  92 122 160 206 249 309 372
#
# _framework density 21.678357999999999
#
# number of rings (size 3 to 8) (size 9 to 14) (size 15 to 20)
#    0.000    1.625    2.500    1.875    1.750    5.250 
#    0.000    1.250    0.000    1.500    0.000    0.000 
#    0.000    0.000    0.000    0.000    0.000    0.000 
#
# Total GULP energy -396438.485890 kJ/mol
# GULP energy per Si atom -12388.702684 kJ/mol
# Density = 2.162902 g / cm^3
# Si number density = 21.678358 Si / 1000 Ang^3
#
#
#
# Elastic Constant Matrix: (Units=GPa)
#
#
# Indices 1 2 3 4 5 6 
#
# 1 116.7325 31.8859 30.9781 0.0000 -2.6870 0.0000
# 2 31.8859 100.1971 30.0985 0.0000 -5.4316 0.0000
# 3 30.9781 30.0985 50.4356 0.0000 -2.4881 0.0000
# 4 0.0000 0.0000 0.0000 20.2270 0.0000 -12.6278
# 5 -2.6870 -5.4316 -2.4881 0.0000 36.9220 0.0000
# 6 0.0000 0.0000 0.0000 -12.6278 0.0000 -13.7462
#
#
#
# Elastic Compliance Matrix: (Units=1/GPa)
#
#
# Indices 1 2 3 4 5 6 
#
# 1 0.010470 -0.001699 -0.005409 0.000000 0.000147 0.000000
# 2 -0.001699 0.012499 -0.006352 0.000000 0.001287 0.000000
# 3 -0.005409 -0.006352 0.026965 0.000000 0.000489 0.000000
# 4 0.000000 0.000000 0.000000 0.031419 0.000000 -0.028863
# 5 0.000147 0.001287 0.000489 0.000000 0.027317 0.000000
# 6 0.000000 0.000000 0.000000 -0.028863 0.000000 -0.046232
#
#
# Mechanical properties :
#
#
# Convention : Reuss Voigt Hill
#
# Bulk Modulus (GPa) = 43.45469 50.36557 46.91013
# Shear Modulus (GPa) = 51.53130 20.30741 35.91935
#
# Velocity S-wave (km/s) = 4.88082 3.06397 4.07495
# Velocity P-wave (km/s) = 7.20083 5.98338 6.62015
#
# Compressibility (1/GPa) = 0.02301248
#
# Stress axis : x y z
#
# Youngs Moduli (GPa) = 95.51502 80.00763 37.08564
#
# Poissons Ratio (x) = 0.13592 0.20061
# Poissons Ratio (y) = 0.16226 0.23557
# Poissons Ratio (z) = 0.51668 0.50821
#
# Static dielectric constant tensor:
#      x y z
#    x 4.115500 0.000000 -0.045980 
#    y 0.000000 4.085770 0.000000 
#    z -0.045980 0.000000 3.753050 
# 
# 
# High freq. dielectric constant tensor:
#      x y z
#    x 1.861210 0.000000 -0.006670 
#    y 0.000000 1.850080 0.000000 
#    z -0.006670 0.000000 1.831770 
# 
# From -- ./inp_files/99118.got.cif
#   From: 2010.06.25/outbox.cif.g09.slc.cpg/sg12_50_cif.got.tgz:99118.got - 2010.06.28 00:19:55.
