data_PCOD8094558
_publ_section_title
;
Structure prediction by ZEFSAII (Michael W. Deem and Ramdas Pophale) SiO2 
 PCOD8094558
Probable space group: C 2/M
;
_chemical_formula_sum "Si O2"
_cell_formula_units_Z 56
_cell_length_a 20.777047
_cell_length_b 33.025054
_cell_length_c 9.194584
_cell_angle_alpha 90.000000
_cell_angle_beta 27.585626
_cell_angle_gamma 90.000000
_cell_volume 2921.524652
_symmetry_space_group_name_H-M "C 2/M"
_symmetry_group_IT_number 12
_symmetry_cell_setting 'monoclinic'
loop_
_space_group_symop_operation_xyz
x,y,z
-x,y,-z
-x,-y,-z
x,-y,z
1/2+x,1/2+y,z
1/2-x,1/2+y,-z
1/2-x,1/2-y,-z
1/2+x,1/2-y,z
loop_
_atom_site_type_symbol
_atom_site_label
_atom_site_fract_x
_atom_site_fract_y
_atom_site_fract_z
Si Si1 0.773371 0.123315 0.796902
Si Si2 0.339596 0.789459 0.990933
Si Si3 0.850465 0.282698 0.624366
Si Si4 0.086811 0.500000 0.681063
Si Si5 0.526080 0.412557 0.119432
Si Si6 0.760397 0.630966 0.804080
Si Si7 0.990826 0.573311 0.679070
Si Si8 0.583890 0.500000 0.979073
O O1 0.912235 0.112607 0.433752
O O2 0.715759 0.166236 0.855458
O O3 0.808173 0.126066 0.898749
O O4 0.665596 0.087490 0.974391
O O5 0.352724 0.784156 0.793152
O O6 0.492440 0.781934 0.752963
O O7 0.231932 0.756389 0.269953
O O8 0.769855 0.322719 0.732845
O O9 0.251030 0.500000 0.382218
O O10 0.043021 0.540140 0.685403
O O11 0.000000 0.500000 0.000000
O O12 0.500000 0.411417 0.000000
O O13 0.673514 0.392068 0.855864
O O14 0.537674 0.459039 0.155561
O O15 0.915726 0.613529 0.500893
O O16 0.000000 0.554067 0.500000
O O17 0.500000 0.500000 0.000000
#
# Coordination Sequence:
#
# PCOD8094558 Si02
#       8
#     8   8   8   4   8   8   8   4
#     4  10  21  36  60  88 117 150 193 234 287 345
#     4   9  17  30  50  87 119 148 185 228 287 332
#     4   9  17  29  52  84 122 148 180 237 280 336
#     4  12  25  39  65  86 110 154 204 234 285 349
#     4  11  24  40  60  80 116 153 194 237 286 342
#     4  10  19  38  59  86 117 153 188 238 289 333
#     4  10  21  38  60  86 120 147 187 244 294 335
#     4  10  24  43  56  79 117 147 190 247 285 330
#
# _framework density 19.168075000000002
#
# number of rings (size 3 to 8) (size 9 to 14) (size 15 to 20)
#    0.000    2.000    2.857    0.643    6.000    0.000 
#    0.000    2.143    0.000    0.857    0.000    0.000 
#    0.000    0.000    0.000    0.000    0.000    0.000 
#
# Total GULP energy -347158.380496 kJ/mol
# GULP energy per Si atom -12398.513589 kJ/mol
# Density = 1.912445 g / cm^3
# Si number density = 19.168075 Si / 1000 Ang^3
#
#
#
# Elastic Constant Matrix: (Units=GPa)
#
#
# Indices 1 2 3 4 5 6 
#
# 1 77.2038 40.3432 26.1839 0.0001 -14.7548 0.0000
# 2 40.3432 138.6455 41.1878 0.0000 -10.4836 0.0000
# 3 26.1839 41.1878 81.7966 0.0002 -13.6464 0.0000
# 4 0.0001 0.0000 0.0002 24.6199 -0.0001 -7.7375
# 5 -14.7548 -10.4836 -13.6464 -0.0001 26.5539 0.0001
# 6 0.0000 0.0000 0.0000 -7.7375 0.0001 14.9285
#
#
#
# Elastic Compliance Matrix: (Units=1/GPa)
#
#
# Indices 1 2 3 4 5 6 
#
# 1 0.017010 -0.003712 -0.002454 0.000000 0.006725 0.000000
# 2 -0.003712 0.009330 -0.003543 0.000000 -0.000200 0.000000
# 3 -0.002454 -0.003543 0.015679 0.000000 0.005295 0.000000
# 4 0.000000 0.000000 0.000000 0.048521 0.000000 0.025149
# 5 0.006725 -0.000200 0.005295 0.000000 0.044038 0.000000
# 6 0.000000 0.000000 0.000000 0.025149 0.000000 0.080021
#
#
# Mechanical properties :
#
#
# Convention : Reuss Voigt Hill
#
# Bulk Modulus (GPa) = 44.24722 57.00839 50.62781
# Shear Modulus (GPa) = 20.69957 25.88253 23.29105
#
# Velocity S-wave (km/s) = 3.28975 3.67862 3.48960
# Velocity P-wave (km/s) = 6.12893 6.91729 6.53501
#
# Compressibility (1/GPa) = 0.02260029
#
# Stress axis : x y z
#
# Youngs Moduli (GPa) = 58.78890 107.17813 63.78161
#
# Poissons Ratio (x) = 0.39785 0.15652
# Poissons Ratio (y) = 0.21823 0.22599
# Poissons Ratio (z) = 0.14426 0.37976
#
# Static dielectric constant tensor:
#      x y z
#    x 3.296080 0.000000 -0.333330 
#    y 0.000000 3.809450 0.000000 
#    z -0.333330 0.000000 3.273460 
# 
# 
# High freq. dielectric constant tensor:
#      x y z
#    x 1.720230 0.000000 -0.032460 
#    y 0.000000 1.761550 0.000000 
#    z -0.032460 0.000000 1.734230 
# 
# From -- ./inp_files/91595.got.cif
#   From: 2010.06.25/outbox.cif.g09.slc.cpg/sg12_46_cif.got.tgz:91595.got - 2010.06.28 00:19:55.
