data_PCOD8094975
_publ_section_title
;
Structure prediction by ZEFSAII (Michael W. Deem and Ramdas Pophale) SiO2 
 PCOD8094975
Probable space group: C 2/M
;
_chemical_formula_sum "Si O2"
_cell_formula_units_Z 64
_cell_length_a 24.360224
_cell_length_b 8.949340
_cell_length_c 17.730806
_cell_angle_alpha 90.000000
_cell_angle_beta 96.660203
_cell_angle_gamma 90.000000
_cell_volume 3839.370029
_symmetry_space_group_name_H-M "C 2/M"
_symmetry_group_IT_number 12
_symmetry_cell_setting 'monoclinic'
loop_
_space_group_symop_operation_xyz
x,y,z
-x,y,-z
-x,-y,-z
x,-y,z
1/2+x,1/2+y,z
1/2-x,1/2+y,-z
1/2-x,1/2-y,-z
1/2+x,1/2-y,z
loop_
_atom_site_type_symbol
_atom_site_label
_atom_site_fract_x
_atom_site_fract_y
_atom_site_fract_z
Si Si1 0.191635 0.324869 0.477629
Si Si2 0.203804 0.326469 0.182903
Si Si3 0.692277 0.331376 0.331668
Si Si4 0.323724 0.834068 0.362267
Si Si5 0.479547 0.835725 0.911805
Si Si6 0.124699 0.823665 0.059893
Si Si7 0.901884 0.676182 0.101218
Si Si8 0.833294 0.171402 0.217581
O O1 0.199926 0.500000 0.463388
O O2 0.250000 0.250000 0.500000
O O3 0.163618 0.248896 0.399590
O O4 0.155759 0.298263 0.548730
O O5 0.188853 0.500000 0.178061
O O6 0.176230 0.256869 0.253393
O O7 0.179352 0.244535 0.106054
O O8 0.269172 0.299327 0.191031
O O9 0.669701 0.500000 0.322021
O O10 0.757704 0.328017 0.352466
O O11 0.347755 0.716164 0.306192
O O12 0.343277 0.000000 0.341564
O O13 0.428780 0.720783 0.898001
O O14 0.533411 0.782932 0.873046
O O15 0.459167 0.000000 0.881687
O O16 0.500000 0.846800 0.000000
O O17 0.129875 0.000000 0.057759
O O18 0.121365 0.762227 0.974898
O O19 0.895416 0.500000 0.085473
O O20 0.868127 0.724111 0.168621
O O21 0.849794 0.000000 0.207768
#
# Coordination Sequence:
#
# PCOD8094975 Si02
#       8
#     8   8   8   8   8   8   8   8
#     4   9  15  23  37  57  80 110 147 183 219 260
#     4  10  20  33  46  62  90 125 155 184 221 267
#     4   9  16  26  40  59  83 112 147 185 222 261
#     4   8  15  26  39  56  82 115 147 179 217 262
#     4   8  16  32  51  69  87 110 141 178 225 273
#     4  11  21  32  49  70  90 114 147 188 227 263
#     4  10  20  34  51  67  88 118 148 182 225 271
#     4  10  20  31  45  65  89 119 154 189 223 260
#
# _framework density 16.669401000000001
#
# number of rings (size 3 to 8) (size 9 to 14) (size 15 to 20)
#    0.000    2.625    0.000    4.500    0.000    8.250 
#    0.000    0.000    0.000    0.000    0.000    0.000 
#    0.000    1.000    0.000   10.500    0.000    7.625 
#
# Total GULP energy -396616.716004 kJ/mol
# GULP energy per Si atom -12394.272375 kJ/mol
# Density = 1.663146 g / cm^3
# Si number density = 16.669401 Si / 1000 Ang^3
#
#
#
# Elastic Constant Matrix: (Units=GPa)
#
#
# Indices 1 2 3 4 5 6 
#
# 1 35.9387 27.8884 25.1612 0.0000 -13.2190 0.0000
# 2 27.8884 111.3570 39.7949 0.0000 -15.8730 0.0000
# 3 25.1612 39.7949 78.5777 0.0000 -22.5815 0.0000
# 4 0.0000 0.0000 0.0000 32.1898 0.0000 -2.7403
# 5 -13.2190 -15.8730 -22.5815 0.0000 8.4096 0.0000
# 6 0.0000 0.0000 0.0000 -2.7403 0.0000 18.0948
#
#
#
# Elastic Compliance Matrix: (Units=1/GPa)
#
#
# Indices 1 2 3 4 5 6 
#
# 1 0.108865 -0.001760 0.062431 0.000000 0.335443 0.000000
# 2 -0.001760 0.012382 0.000937 0.000000 0.023120 0.000000
# 3 0.062431 0.000937 0.091846 0.000000 0.346531 0.000000
# 4 0.000000 0.000000 0.000000 0.031472 0.000000 0.004766
# 5 0.335443 0.023120 0.346531 0.000000 1.620345 0.000000
# 6 0.000000 0.000000 0.000000 0.004766 0.000000 0.055986
#
#
# Mechanical properties :
#
#
# Convention : Reuss Voigt Hill
#
# Bulk Modulus (GPa) = 2.97346 45.72916 24.35131
# Shear Modulus (GPa) = 2.61810 20.60741 11.61275
#
# Velocity S-wave (km/s) = 1.25460 3.51984 2.64228
# Velocity P-wave (km/s) = 1.97138 6.63412 4.89377
#
# Compressibility (1/GPa) = 0.33630860
#
# Stress axis : x y z
#
# Youngs Moduli (GPa) = 9.18568 80.76508 10.88778
#
# Poissons Ratio (x) = 0.14218 -0.67974
# Poissons Ratio (y) = 0.01617 -0.01020
# Poissons Ratio (z) = -0.57347 -0.07570
#
# Static dielectric constant tensor:
#      x y z
#    x 2.916230 0.000000 -0.138120 
#    y 0.000000 3.269020 0.000000 
#    z -0.138120 0.000000 3.285390 
# 
# 
# High freq. dielectric constant tensor:
#      x y z
#    x 1.585470 0.000000 -0.012740 
#    y 0.000000 1.657390 0.000000 
#    z -0.012740 0.000000 1.640990 
# 
# From -- ./inp_files/287695.got.cif
#   From: 2010.06.25/outbox.cif.g09.slc.cpg/sg12_144_cif.got.tgz:287695.got - 2010.06.28 00:19:55.
