data_PCOD8094370
_publ_section_title
;
Structure prediction by ZEFSAII (Michael W. Deem and Ramdas Pophale) SiO2 
 PCOD8094370
Probable space group: C 2/M
;
_chemical_formula_sum "Si O2"
_cell_formula_units_Z 40
_cell_length_a 25.516366
_cell_length_b 8.411242
_cell_length_c 9.115736
_cell_angle_alpha 90.000000
_cell_angle_beta 91.026509
_cell_angle_gamma 90.000000
_cell_volume 1956.144741
_symmetry_space_group_name_H-M "C 2/M"
_symmetry_group_IT_number 12
_symmetry_cell_setting 'monoclinic'
loop_
_space_group_symop_operation_xyz
x,y,z
-x,y,-z
-x,-y,-z
x,-y,z
1/2+x,1/2+y,z
1/2-x,1/2+y,-z
1/2-x,1/2-y,-z
1/2+x,1/2-y,z
loop_
_atom_site_type_symbol
_atom_site_label
_atom_site_fract_x
_atom_site_fract_y
_atom_site_fract_z
Si Si1 0.142749 0.187434 0.162428
Si Si2 0.840648 0.188629 0.164762
Si Si3 0.240610 0.688930 0.337527
Si Si4 0.559531 0.686119 0.652643
Si Si5 0.448452 0.815623 0.662415
O O1 0.187039 0.235502 0.279189
O O2 0.088190 0.268605 0.203986
O O3 0.134770 0.000000 0.161830
O O4 0.157871 0.251180 0.001827
O O5 0.787753 0.252619 0.237532
O O6 0.890949 0.253928 0.255295
O O7 0.840921 0.000000 0.170778
O O8 0.236263 0.500000 0.334952
O O9 0.250000 0.750000 0.500000
O O10 0.551570 0.500000 0.679404
O O11 0.508214 0.776882 0.708469
O O12 0.568935 0.716154 0.481056
O O13 0.442938 0.000000 0.624399
#
# Coordination Sequence:
#
# PCOD8094370 Si02
#       5
#     8   8   8   8   8
#     4  11  22  39  59  83 114 152 191 235 284 338
#     4   9  21  38  59  84 114 148 189 234 285 342
#     4  11  22  39  61  88 116 149 189 234 283 340
#     4  10  19  37  62  86 111 150 195 237 282 339
#     4  11  22  37  56  85 118 151 190 238 286 337
#
# _framework density 20.448384999999998
#
# number of rings (size 3 to 8) (size 9 to 14) (size 15 to 20)
#    0.000    1.600    0.000    6.600    0.000    2.400 
#    0.000   14.000    0.000    0.000    0.000    0.000 
#    0.000    0.000    0.000    0.000    0.000    0.000 
#
# Total GULP energy -248102.599226 kJ/mol
# GULP energy per Si atom -12405.129961 kJ/mol
# Density = 2.040184 g / cm^3
# Si number density = 20.448385 Si / 1000 Ang^3
#
#
#
# Elastic Constant Matrix: (Units=GPa)
#
#
# Indices 1 2 3 4 5 6 
#
# 1 107.7171 21.6935 37.3046 0.0000 -21.3261 0.0000
# 2 21.6935 54.4714 8.8637 0.0000 -4.0427 0.0000
# 3 37.3046 8.8637 90.6083 0.0000 -21.7146 0.0000
# 4 0.0000 0.0000 0.0000 21.7752 0.0000 -2.3959
# 5 -21.3261 -4.0427 -21.7146 0.0000 42.6648 0.0000
# 6 0.0000 0.0000 0.0000 -2.3959 0.0000 32.4549
#
#
#
# Elastic Compliance Matrix: (Units=1/GPa)
#
#
# Indices 1 2 3 4 5 6 
#
# 1 0.012107 -0.003939 -0.003688 0.000000 0.003801 0.000000
# 2 -0.003939 0.019971 -0.000399 0.000000 -0.000280 0.000000
# 3 -0.003688 -0.000399 0.013830 0.000000 0.005158 0.000000
# 4 0.000000 0.000000 0.000000 0.046300 0.000000 0.003418
# 5 0.003801 -0.000280 0.005158 0.000000 0.027937 0.000000
# 6 0.000000 0.000000 0.000000 0.003418 0.000000 0.031064
#
#
# Mechanical properties :
#
#
# Convention : Reuss Voigt Hill
#
# Bulk Modulus (GPa) = 33.49478 43.16892 38.33185
# Shear Modulus (GPa) = 28.21452 31.70799 29.96125
#
# Velocity S-wave (km/s) = 3.71859 3.94208 3.83196
# Velocity P-wave (km/s) = 5.90363 6.47125 6.19394
#
# Compressibility (1/GPa) = 0.02985539
#
# Stress axis : x y z
#
# Youngs Moduli (GPa) = 82.59830 50.07201 72.30641
#
# Poissons Ratio (x) = 0.19725 0.26668
# Poissons Ratio (y) = 0.32538 0.02884
# Poissons Ratio (z) = 0.30464 0.01997
#
# Static dielectric constant tensor:
#      x y z
#    x 3.934750 0.000000 -0.077260 
#    y 0.000000 3.562930 0.000000 
#    z -0.077260 0.000000 3.787130 
# 
# 
# High freq. dielectric constant tensor:
#      x y z
#    x 1.815590 0.000000 -0.004780 
#    y 0.000000 1.790180 0.000000 
#    z -0.004780 0.000000 1.800250 
# 
# From -- ./inp_files/92924.got.cif
#   From: 2010.06.25/outbox.cif.g09.slc.cpg/sg12_47_cif.got.tgz:92924.got - 2010.06.28 00:19:55.
