data_PCOD8094489
_publ_section_title
;
Structure prediction by ZEFSAII (Michael W. Deem and Ramdas Pophale) SiO2 
 PCOD8094489
Probable space group: C 2/M
;
_chemical_formula_sum "Si O2"
_cell_formula_units_Z 44
_cell_length_a 27.066113
_cell_length_b 9.995181
_cell_length_c 11.856566
_cell_angle_alpha 90.000000
_cell_angle_beta 45.768152
_cell_angle_gamma 90.000000
_cell_volume 2298.294077
_symmetry_space_group_name_H-M "C 2/M"
_symmetry_group_IT_number 12
_symmetry_cell_setting 'monoclinic'
loop_
_space_group_symop_operation_xyz
x,y,z
-x,y,-z
-x,-y,-z
x,-y,z
1/2+x,1/2+y,z
1/2-x,1/2+y,-z
1/2-x,1/2-y,-z
1/2+x,1/2-y,z
loop_
_atom_site_type_symbol
_atom_site_label
_atom_site_fract_x
_atom_site_fract_y
_atom_site_fract_z
Si Si1 0.687326 0.000000 0.156287
Si Si2 0.517107 0.210042 0.094585
Si Si3 0.369339 0.157430 0.356613
Si Si4 0.395918 0.000000 0.920008
Si Si5 0.281104 0.213417 0.714332
Si Si6 0.755849 0.000000 0.822848
Si Si7 0.644997 0.349502 0.820930
O O1 0.688172 0.132664 0.229807
O O2 0.616375 0.000000 0.195880
O O3 0.752130 0.000000 0.965866
O O4 0.442344 0.230925 0.271249
O O5 0.561514 0.127302 0.111181
O O6 0.500000 0.140377 0.000000
O O7 0.565550 0.338948 0.991940
O O8 0.318243 0.168845 0.541718
O O9 0.337836 0.238208 0.301194
O O10 0.379845 0.000000 0.310408
O O11 0.322366 0.000000 0.101705
O O12 0.295188 0.369393 0.715349
O O13 0.199872 0.178042 0.833471
O O14 0.654644 0.500000 0.758287
#
# Coordination Sequence:
#
# PCOD8094489 Si02
#       7
#     4   8   8   4   8   4   8
#     4  10  22  40  64  89 116 155 211 247 300 354
#     4  10  21  37  63  88 123 156 202 245 293 358
#     4  11  24  37  61  88 128 156 200 248 304 356
#     4  10  19  37  65  92 105 157 210 248 291 349
#     4  12  22  41  59  93 121 158 197 261 299 353
#     4  10  24  35  67  84 116 153 210 242 304 349
#     4  11  23  38  61  89 125 162 200 242 304 362
#
# _framework density 19.144634
#
# number of rings (size 3 to 8) (size 9 to 14) (size 15 to 20)
#    0.545    0.727    4.545    1.364    6.364    3.273 
#    0.000    1.818    0.000    0.000    0.000    2.545 
#    0.000    0.000    0.000    0.000    0.000    0.000 
#
# Total GULP energy -272582.889864 kJ/mol
# GULP energy per Si atom -12390.131357 kJ/mol
# Density = 1.910106 g / cm^3
# Si number density = 19.144634 Si / 1000 Ang^3
#
#
#
# Elastic Constant Matrix: (Units=GPa)
#
#
# Indices 1 2 3 4 5 6 
#
# 1 128.5790 43.3254 23.9720 0.0000 9.3121 0.0000
# 2 43.3254 135.9084 30.1518 0.0000 9.9680 0.0000
# 3 23.9720 30.1518 49.7464 0.0000 -4.0067 0.0000
# 4 0.0000 0.0000 0.0000 23.8652 0.0000 -6.4056
# 5 9.3121 9.9680 -4.0067 0.0000 24.0225 0.0000
# 6 0.0000 0.0000 0.0000 -6.4056 0.0000 46.6345
#
#
#
# Elastic Compliance Matrix: (Units=1/GPa)
#
#
# Indices 1 2 3 4 5 6 
#
# 1 0.009348 -0.001927 -0.003613 0.000000 -0.003427 0.000000
# 2 -0.001927 0.009394 -0.005087 0.000000 -0.004000 0.000000
# 3 -0.003613 -0.005087 0.025552 0.000000 0.007773 0.000000
# 4 0.000000 0.000000 0.000000 0.043506 0.000000 0.005976
# 5 -0.003427 -0.004000 0.007773 0.000000 0.045912 0.000000
# 6 0.000000 0.000000 0.000000 0.005976 0.000000 0.022264
#
#
# Mechanical properties :
#
#
# Convention : Reuss Voigt Hill
#
# Bulk Modulus (GPa) = 43.40201 56.57027 49.98614
# Shear Modulus (GPa) = 27.03985 33.35674 30.19829
#
# Velocity S-wave (km/s) = 3.76227 4.17868 3.97593
# Velocity P-wave (km/s) = 6.44924 7.27289 6.87341
#
# Compressibility (1/GPa) = 0.02304041
#
# Stress axis : x y z
#
# Youngs Moduli (GPa) = 106.96954 106.44771 39.13522
#
# Poissons Ratio (x) = 0.20516 0.14138
# Poissons Ratio (y) = 0.20616 0.19909
# Poissons Ratio (z) = 0.38645 0.54154
#
# Static dielectric constant tensor:
#      x y z
#    x 3.577470 0.000000 -0.157700 
#    y 0.000000 3.513720 0.000000 
#    z -0.157700 0.000000 3.393260 
# 
# 
# High freq. dielectric constant tensor:
#      x y z
#    x 1.743570 0.000000 -0.007420 
#    y 0.000000 1.742680 0.000000 
#    z -0.007420 0.000000 1.723350 
# 
# From -- ./inp_files/180492.got.cif
#   From: 2010.06.25/outbox.cif.g09.slc.cpg/sg12_91_cif.got.tgz:180492.got - 2010.06.28 00:19:55.
