data_PCOD8094650
_publ_section_title
;
Structure prediction by ZEFSAII (Michael W. Deem and Ramdas Pophale) SiO2 
 PCOD8094650
Probable space group: C 2/M
;
_chemical_formula_sum "Si O2"
_cell_formula_units_Z 56
_cell_length_a 10.883782
_cell_length_b 15.306737
_cell_length_c 16.947197
_cell_angle_alpha 90.000000
_cell_angle_beta 72.313638
_cell_angle_gamma 90.000000
_cell_volume 2689.873867
_symmetry_space_group_name_H-M "C 2/M"
_symmetry_group_IT_number 12
_symmetry_cell_setting 'monoclinic'
loop_
_space_group_symop_operation_xyz
x,y,z
-x,y,-z
-x,-y,-z
x,-y,z
1/2+x,1/2+y,z
1/2-x,1/2+y,-z
1/2-x,1/2-y,-z
1/2+x,1/2-y,z
loop_
_atom_site_type_symbol
_atom_site_label
_atom_site_fract_x
_atom_site_fract_y
_atom_site_fract_z
Si Si1 0.544263 0.404448 0.180374
Si Si2 0.176929 0.906730 0.671676
Si Si3 0.676876 0.230430 0.594394
Si Si4 0.710228 0.677707 0.268036
Si Si5 0.426026 0.852063 0.691333
Si Si6 0.400013 0.751323 0.948787
Si Si7 0.526954 0.099481 0.832178
O O1 0.580913 0.500000 0.137727
O O2 0.391776 0.400899 0.228940
O O3 0.612226 0.395309 0.254168
O O4 0.584450 0.327586 0.115302
O O5 0.128507 0.825439 0.630933
O O6 0.330826 0.905567 0.653947
O O7 0.143859 0.000000 0.636965
O O8 0.750000 0.250000 0.500000
O O9 0.769138 0.181608 0.640651
O O10 0.545921 0.175227 0.611380
O O11 0.651454 0.770930 0.254602
O O12 0.844102 0.658364 0.196711
O O13 0.472992 0.910838 0.754431
O O14 0.429954 0.847274 0.907400
O O15 0.500000 0.733151 0.000000
O O16 0.250000 0.750000 0.000000
O O17 0.549274 0.000000 0.859832
#
# Coordination Sequence:
#
# PCOD8094650 Si02
#       7
#     8   8   8   8   8   8   8
#     4  11  22  42  67  91 123 167 220 269 315 384
#     4  10  21  37  61  90 119 159 213 262 302 363
#     4  10  21  37  61  90 130 170 203 256 325 384
#     4  10  19  38  65  91 122 164 219 256 311 370
#     4  10  19  38  63  89 119 166 215 250 308 371
#     4  12  27  43  65  95 137 172 209 270 339 403
#     4  11  23  40  66  94 124 165 213 263 315 386
#
# _framework density 20.818819999999999
#
# number of rings (size 3 to 8) (size 9 to 14) (size 15 to 20)
#    0.000    1.429    2.857    3.429    2.000    3.429 
#    0.000    5.000    0.000    1.714    0.000    0.000 
#    0.000    0.000    0.000    0.000    0.000    0.000 
#
# Total GULP energy -346891.758356 kJ/mol
# GULP energy per Si atom -12388.991370 kJ/mol
# Density = 2.077144 g / cm^3
# Si number density = 20.818820 Si / 1000 Ang^3
#
#
#
# Elastic Constant Matrix: (Units=GPa)
#
#
# Indices 1 2 3 4 5 6 
#
# 1 100.0392 18.8404 44.4060 0.0000 -12.3019 0.0000
# 2 18.8404 129.3804 55.4705 0.0000 -8.0212 0.0000
# 3 44.4060 55.4705 113.9417 0.0000 -14.8611 0.0000
# 4 0.0000 0.0000 0.0000 16.6106 0.0000 -0.8235
# 5 -12.3019 -8.0212 -14.8611 0.0000 28.2115 0.0000
# 6 0.0000 0.0000 0.0000 -0.8235 0.0000 21.2801
#
#
#
# Elastic Compliance Matrix: (Units=1/GPa)
#
#
# Indices 1 2 3 4 5 6 
#
# 1 0.012341 0.000358 -0.004584 0.000000 0.003069 0.000000
# 2 0.000358 0.009781 -0.004851 0.000000 0.000382 0.000000
# 3 -0.004584 -0.004851 0.013405 0.000000 0.003683 0.000000
# 4 0.000000 0.000000 0.000000 0.060318 0.000000 0.002334
# 5 0.003069 0.000382 0.003683 0.000000 0.038833 0.000000
# 6 0.000000 0.000000 0.000000 0.002334 0.000000 0.047083
#
#
# Mechanical properties :
#
#
# Convention : Reuss Voigt Hill
#
# Bulk Modulus (GPa) = 57.56134 64.53280 61.04707
# Shear Modulus (GPa) = 24.30667 28.19673 26.25170
#
# Velocity S-wave (km/s) = 3.42063 3.68419 3.55485
# Velocity P-wave (km/s) = 6.58101 7.01158 6.79970
#
# Compressibility (1/GPa) = 0.01737277
#
# Stress axis : x y z
#
# Youngs Moduli (GPa) = 81.03360 102.24310 74.59878
#
# Poissons Ratio (x) = -0.03665 0.34194
# Poissons Ratio (y) = -0.02904 0.36191
# Poissons Ratio (z) = 0.37143 0.49603
#
# Static dielectric constant tensor:
#      x y z
#    x 4.130340 0.000000 -0.186270 
#    y 0.000000 3.959140 0.000000 
#    z -0.186270 0.000000 3.562620 
# 
# 
# High freq. dielectric constant tensor:
#      x y z
#    x 1.827890 0.000000 -0.017310 
#    y 0.000000 1.820200 0.000000 
#    z -0.017310 0.000000 1.781740 
# 
# From -- ./inp_files/263225.got.cif
#   From: 2010.06.25/outbox.cif.g09.slc.cpg/sg12_132_cif.got.tgz:263225.got - 2010.06.28 00:19:55.
