data_PCOD8094625
_publ_section_title
;
Structure prediction by ZEFSAII (Michael W. Deem and Ramdas Pophale) SiO2 
 PCOD8094625
Probable space group: C 2/M
;
_chemical_formula_sum "Si O2"
_cell_formula_units_Z 64
_cell_length_a 19.451559
_cell_length_b 8.889605
_cell_length_c 30.564534
_cell_angle_alpha 90.000000
_cell_angle_beta 141.542020
_cell_angle_gamma 90.000000
_cell_volume 3287.028775
_symmetry_space_group_name_H-M "C 2/M"
_symmetry_group_IT_number 12
_symmetry_cell_setting 'monoclinic'
loop_
_space_group_symop_operation_xyz
x,y,z
-x,y,-z
-x,-y,-z
x,-y,z
1/2+x,1/2+y,z
1/2-x,1/2+y,-z
1/2-x,1/2-y,-z
1/2+x,1/2-y,z
loop_
_atom_site_type_symbol
_atom_site_label
_atom_site_fract_x
_atom_site_fract_y
_atom_site_fract_z
Si Si1 0.503518 0.669525 0.792976
Si Si2 0.000529 0.831550 0.309354
Si Si3 0.874473 0.321307 0.936077
Si Si4 0.872500 0.177683 0.433981
Si Si5 0.274272 0.679828 0.058277
Si Si6 0.258690 0.676918 0.215753
Si Si7 0.225872 0.821637 0.290197
Si Si8 0.722995 0.823603 0.440554
O O1 0.492181 0.500000 0.804475
O O2 0.535188 0.674508 0.758425
O O3 0.605045 0.745302 0.869087
O O4 0.385521 0.746091 0.743154
O O5 0.096497 0.713315 0.366490
O O6 0.889405 0.788417 0.279316
O O7 0.041350 0.000000 0.342388
O O8 0.874645 0.500000 0.935452
O O9 0.813556 0.262827 0.949438
O O10 0.808509 0.264132 0.860206
O O11 0.000000 0.258453 0.000000
O O12 0.827416 0.249389 0.366895
O O13 0.804955 0.236856 0.443058
O O14 0.000000 0.227352 0.500000
O O15 0.860393 0.000000 0.424131
O O16 0.273129 0.500000 0.055708
O O17 0.250000 0.750000 0.000000
O O18 0.237705 0.500000 0.212238
O O19 0.217063 0.771656 0.235882
O O20 0.237424 0.000000 0.299762
O O21 0.750000 0.750000 0.500000
O O22 0.737748 0.000000 0.452807
#
# Coordination Sequence:
#
# PCOD8094625 Si02
#       8
#     8   8   8   8   8   8   8   8
#     4   9  18  36  59  80 110 150 190 231 284 343
#     4  10  19  38  63  82 108 152 196 235 283 340
#     4   9  18  34  56  82 112 148 192 238 280 332
#     4  10  23  43  62  83 115 153 191 232 281 338
#     4  10  20  36  57  83 113 149 192 235 284 339
#     4  10  21  37  60  85 113 152 195 237 284 340
#     4  11  23  38  59  86 116 150 188 237 290 341
#     4  11  24  40  61  89 118 150 189 237 283 334
#
# _framework density 19.470472000000001
#
# number of rings (size 3 to 8) (size 9 to 14) (size 15 to 20)
#    0.000    2.000    2.500    0.750    3.500    1.250 
#    0.000    1.875    0.000    0.750    0.000    0.000 
#    0.000    0.000    0.000    0.000    0.000    0.000 
#
# Total GULP energy -396742.911006 kJ/mol
# GULP energy per Si atom -12398.215969 kJ/mol
# Density = 1.942616 g / cm^3
# Si number density = 19.470472 Si / 1000 Ang^3
#
#
#
# Elastic Constant Matrix: (Units=GPa)
#
#
# Indices 1 2 3 4 5 6 
#
# 1 99.9670 21.2908 49.4165 0.0000 -3.0446 -0.0001
# 2 21.2908 28.2463 27.3566 0.0000 1.3897 -0.0003
# 3 49.4165 27.3566 138.9142 0.0000 3.6762 0.0000
# 4 0.0000 0.0000 0.0000 28.4307 0.0000 -7.8331
# 5 -3.0446 1.3897 3.6762 0.0000 35.9111 0.0000
# 6 -0.0001 -0.0003 0.0000 -7.8331 0.0000 26.6078
#
#
#
# Elastic Compliance Matrix: (Units=1/GPa)
#
#
# Indices 1 2 3 4 5 6 
#
# 1 0.013170 -0.006710 -0.003409 0.000000 0.001725 0.000000
# 2 -0.006710 0.047189 -0.006861 0.000000 -0.001693 0.000001
# 3 -0.003409 -0.006861 0.009790 0.000000 -0.001026 0.000000
# 4 0.000000 0.000000 0.000000 0.038278 0.000000 0.011269
# 5 0.001725 -0.001693 -0.001026 0.000000 0.028163 0.000000
# 6 0.000000 0.000001 0.000000 0.011269 0.000000 0.040900
#
#
# Mechanical properties :
#
#
# Convention : Reuss Voigt Hill
#
# Bulk Modulus (GPa) = 27.63357 51.47281 39.55319
# Shear Modulus (GPa) = 22.36989 29.46084 25.91537
#
# Velocity S-wave (km/s) = 3.39324 3.89408 3.65226
# Velocity P-wave (km/s) = 5.43833 6.83464 6.17607
#
# Compressibility (1/GPa) = 0.03618786
#
# Stress axis : x y z
#
# Youngs Moduli (GPa) = 75.92848 21.19137 102.14669
#
# Poissons Ratio (x) = 0.14220 0.34825
# Poissons Ratio (y) = 0.50949 0.70085
# Poissons Ratio (z) = 0.25887 0.14540
#
# Static dielectric constant tensor:
#      x y z
#    x 3.752870 0.000000 0.157440 
#    y 0.000000 3.359350 0.000000 
#    z 0.157440 0.000000 3.806800 
# 
# 
# High freq. dielectric constant tensor:
#      x y z
#    x 1.771300 0.000000 0.003750 
#    y 0.000000 1.721830 0.000000 
#    z 0.003750 0.000000 1.772440 
# 
# From -- ./inp_files/378366.got.cif
#   From: 2010.06.25/outbox.cif.g09.slc.cpg/sg12_190_cif.got.tgz:378366.got - 2010.06.28 00:19:55.
