data_PCOD8094534
_publ_section_title
;
Structure prediction by ZEFSAII (Michael W. Deem and Ramdas Pophale) SiO2 
 PCOD8094534
Probable space group: C 2/M
;
_chemical_formula_sum "Si O2"
_cell_formula_units_Z 56
_cell_length_a 28.201359
_cell_length_b 13.827320
_cell_length_c 15.044126
_cell_angle_alpha 90.000000
_cell_angle_beta 28.961156
_cell_angle_gamma 90.000000
_cell_volume 2840.629853
_symmetry_space_group_name_H-M "C 2/M"
_symmetry_group_IT_number 12
_symmetry_cell_setting 'monoclinic'
loop_
_space_group_symop_operation_xyz
x,y,z
-x,y,-z
-x,-y,-z
x,-y,z
1/2+x,1/2+y,z
1/2-x,1/2+y,-z
1/2-x,1/2-y,-z
1/2+x,1/2-y,z
loop_
_atom_site_type_symbol
_atom_site_label
_atom_site_fract_x
_atom_site_fract_y
_atom_site_fract_z
Si Si1 0.951402 0.241971 0.866281
Si Si2 0.759597 0.641339 0.458646
Si Si3 0.355812 0.391871 0.673776
Si Si4 0.451533 0.395195 0.167351
Si Si5 0.757023 0.726248 0.280957
Si Si6 0.616016 0.890194 0.588756
Si Si7 0.075825 0.109200 0.247857
O O1 0.903295 0.192075 0.858837
O O2 0.034687 0.171477 0.769139
O O3 0.007610 0.343055 0.754011
O O4 0.868902 0.248580 0.076478
O O5 0.750000 0.750000 0.500000
O O6 0.664413 0.587006 0.652556
O O7 0.763286 0.640740 0.345091
O O8 0.855324 0.600423 0.352905
O O9 0.313545 0.500000 0.731365
O O10 0.287486 0.316048 0.736297
O O11 0.358687 0.365474 0.773531
O O12 0.462726 0.386084 0.457518
O O13 0.501705 0.500000 0.100351
O O14 0.500000 0.347513 0.000000
O O15 0.697424 0.823124 0.406348
O O16 0.613319 0.000000 0.553509
O O17 0.101053 0.000000 0.172620
#
# Coordination Sequence:
#
# PCOD8094534 Si02
#       7
#     8   8   8   8   8   8   8
#     4  12  23  36  61  86 120 161 201 246 290 369
#     4  10  19  38  56  79 116 157 196 240 294 348
#     4   9  18  36  63  91 116 144 190 249 305 356
#     4  11  21  34  59  89 114 147 195 252 300 346
#     4  11  23  38  62  87 117 160 203 247 298 360
#     4  11  24  42  58  83 125 168 201 247 299 357
#     4   9  18  36  63  91 116 145 188 249 310 354
#
# _framework density 19.713937999999999
#
# number of rings (size 3 to 8) (size 9 to 14) (size 15 to 20)
#    0.000    1.571    4.286    3.429    0.000    5.714 
#    0.000    0.714    0.000    1.714    0.000    0.000 
#    0.000    0.000    0.000    0.000    0.000    0.000 
#
# Total GULP energy -346979.033418 kJ/mol
# GULP energy per Si atom -12392.108336 kJ/mol
# Density = 1.966907 g / cm^3
# Si number density = 19.713938 Si / 1000 Ang^3
#
#
#
# Elastic Constant Matrix: (Units=GPa)
#
#
# Indices 1 2 3 4 5 6 
#
# 1 110.8390 46.4386 23.4828 0.0000 4.6596 0.0000
# 2 46.4386 113.5517 30.7155 0.0000 1.2078 0.0000
# 3 23.4828 30.7155 94.3962 0.0000 7.2534 0.0000
# 4 0.0000 0.0000 0.0000 0.2299 0.0000 0.6426
# 5 4.6596 1.2078 7.2534 0.0000 22.5058 0.0000
# 6 0.0000 0.0000 0.0000 0.6426 0.0000 24.0936
#
#
#
# Elastic Compliance Matrix: (Units=1/GPa)
#
#
# Indices 1 2 3 4 5 6 
#
# 1 0.011115 -0.004183 -0.001276 0.000000 -0.001665 0.000000
# 2 -0.004183 0.011236 -0.002703 0.000000 0.001134 0.000000
# 3 -0.001276 -0.002703 0.012058 0.000000 -0.003477 0.000000
# 4 0.000000 0.000000 0.000000 4.701078 0.000000 -0.125392
# 5 -0.001665 0.001134 -0.003477 0.000000 0.045837 0.000000
# 6 0.000000 0.000000 0.000000 -0.125392 0.000000 0.044849
#
#
# Mechanical properties :
#
#
# Convention : Reuss Voigt Hill
#
# Bulk Modulus (GPa) = 55.29217 57.78453 56.53835
# Shear Modulus (GPa) = 1.03124 23.90918 12.47021
#
# Velocity S-wave (km/s) = 0.72404 3.48631 2.51780
# Velocity P-wave (km/s) = 5.36723 6.75137 6.09869
#
# Compressibility (1/GPa) = 0.01808574
#
# Stress axis : x y z
#
# Youngs Moduli (GPa) = 89.96922 88.99829 82.93464
#
# Poissons Ratio (x) = 0.37226 0.10583
# Poissons Ratio (y) = 0.37632 0.22415
# Poissons Ratio (z) = 0.11481 0.24054
#
# Static dielectric constant tensor:
#      x y z
#    x 4.147460 0.000000 0.092450 
#    y 0.000000 3.808750 0.000000 
#    z 0.092450 0.000000 3.249590 
# 
# 
# High freq. dielectric constant tensor:
#      x y z
#    x 1.764980 0.000000 0.000730 
#    y 0.000000 1.764110 0.000000 
#    z 0.000730 0.000000 1.745560 
# 
# From -- ./inp_files/246529.got.cif
#   From: 2010.06.25/outbox.cif.g09.slc.cpg/sg12_124_cif.got.tgz:246529.got - 2010.06.28 00:19:55.
