data_PCOD8094667
_publ_section_title
;
Structure prediction by ZEFSAII (Michael W. Deem and Ramdas Pophale) SiO2 
 PCOD8094667
Probable space group: C 2/M
;
_chemical_formula_sum "Si O2"
_cell_formula_units_Z 48
_cell_length_a 13.420058
_cell_length_b 16.123894
_cell_length_c 15.542418
_cell_angle_alpha 90.000000
_cell_angle_beta 140.299815
_cell_angle_gamma 90.000000
_cell_volume 2148.263889
_symmetry_space_group_name_H-M "C 2/M"
_symmetry_group_IT_number 12
_symmetry_cell_setting 'monoclinic'
loop_
_space_group_symop_operation_xyz
x,y,z
-x,y,-z
-x,-y,-z
x,-y,z
1/2+x,1/2+y,z
1/2-x,1/2+y,-z
1/2-x,1/2-y,-z
1/2+x,1/2-y,z
loop_
_atom_site_type_symbol
_atom_site_label
_atom_site_fract_x
_atom_site_fract_y
_atom_site_fract_z
Si Si1 0.188149 0.000000 0.720958
Si Si2 0.167335 0.000000 0.503072
Si Si3 0.111917 0.344801 0.148553
Si Si4 0.877873 0.595847 0.138170
Si Si5 0.698170 0.714287 0.326059
Si Si6 0.378612 0.151467 0.586898
Si Si7 0.467487 0.597751 0.077163
O O1 0.184131 0.000000 0.616327
O O2 0.283975 0.079919 0.818162
O O3 0.015067 0.000000 0.645808
O O4 0.245156 0.084168 0.521508
O O5 0.227992 0.273768 0.263046
O O6 0.997747 0.367093 0.150241
O O7 0.000000 0.309298 0.000000
O O8 0.864399 0.500000 0.110627
O O9 0.950655 0.611831 0.282133
O O10 0.705297 0.633344 0.016995
O O11 0.628779 0.765294 0.360544
O O12 0.856906 0.673796 0.470920
O O13 0.581741 0.641979 0.219635
O O14 0.482891 0.500000 0.103236
O O15 0.500000 0.619942 0.000000
#
# Coordination Sequence:
#
# PCOD8094667 Si02
#       7
#     4   4   8   8   8   8   8
#     4  11  21  36  60  98 128 163 203 243 321 382
#     4  11  20  38  64  90 131 165 198 260 310 373
#     4  11  21  38  61  91 131 164 201 250 306 385
#     4  10  19  38  64  88 119 160 206 255 311 365
#     4  10  22  39  60  90 125 162 207 256 311 363
#     4  10  20  39  63  91 122 162 210 250 306 380
#     4  10  23  42  62  86 118 162 216 267 307 359
#
# _framework density 22.343623000000001
#
# number of rings (size 3 to 8) (size 9 to 14) (size 15 to 20)
#    0.000    1.667    5.000    0.750    1.167    4.000 
#    0.000    9.167    0.000    3.000    0.000    0.000 
#    0.000    0.000    0.000    0.000    0.000    0.000 
#
# Total GULP energy -297414.909580 kJ/mol
# GULP energy per Si atom -12392.287899 kJ/mol
# Density = 2.229277 g / cm^3
# Si number density = 22.343623 Si / 1000 Ang^3
#
#
#
# Elastic Constant Matrix: (Units=GPa)
#
#
# Indices 1 2 3 4 5 6 
#
# 1 18.3825 29.8468 34.6163 0.0011 2.6831 0.0008
# 2 29.8468 88.5888 44.6999 0.0011 -8.5656 0.0009
# 3 34.6163 44.6999 142.1460 0.0032 -30.2173 0.0026
# 4 0.0011 0.0011 0.0032 43.3631 0.0007 -7.8833
# 5 2.6831 -8.5656 -30.2173 0.0007 30.9194 0.0005
# 6 0.0008 0.0009 0.0026 -7.8833 0.0005 3.4377
#
#
#
# Elastic Compliance Matrix: (Units=1/GPa)
#
#
# Indices 1 2 3 4 5 6 
#
# 1 0.830966 -0.207218 -0.207929 0.000031 -0.332723 0.000145
# 2 -0.207218 0.065097 0.047521 -0.000008 0.082458 -0.000036
# 3 -0.207929 0.047521 0.062306 -0.000012 0.092100 -0.000053
# 4 0.000031 -0.000008 -0.000012 0.039549 -0.000018 0.090696
# 5 -0.332723 0.082458 0.092100 -0.000018 0.174067 -0.000084
# 6 0.000145 -0.000036 -0.000053 0.090696 -0.000084 0.498882
#
#
# Mechanical properties :
#
#
# Convention : Reuss Voigt Hill
#
# Bulk Modulus (GPa) = 4.48195 51.93813 28.21004
# Shear Modulus (GPa) = 2.01573 24.87433 13.44503
#
# Velocity S-wave (km/s) = 0.95085 3.34018 2.45570
# Velocity P-wave (km/s) = 1.79325 6.17830 4.54902
#
# Compressibility (1/GPa) = 0.22311703
#
# Stress axis : x y z
#
# Youngs Moduli (GPa) = 1.20342 15.36160 16.04979
#
# Poissons Ratio (x) = 3.18320 3.33722
# Poissons Ratio (y) = 0.24937 -0.76270
# Poissons Ratio (z) = 0.25023 -0.73000
#
# Static dielectric constant tensor:
#      x y z
#    x 3.888160 0.000000 0.011790 
#    y 0.000000 4.231880 0.000000 
#    z 0.011790 0.000000 4.978060 
# 
# 
# High freq. dielectric constant tensor:
#      x y z
#    x 1.831420 0.000000 -0.015500 
#    y 0.000000 1.889140 0.000000 
#    z -0.015500 0.000000 1.904310 
# 
# From -- ./inp_files/271640.got.cif
#   From: 2010.06.25/outbox.cif.g09.slc.cpg/sg12_136_cif.got.tgz:271640.got - 2010.06.28 00:19:55.
