data_PCOD8094142
_publ_section_title
;
Structure prediction by ZEFSAII (Michael W. Deem and Ramdas Pophale) SiO2 
 PCOD8094142
Probable space group: C 2/M
;
_chemical_formula_sum "Si O2"
_cell_formula_units_Z 32
_cell_length_a 5.463309
_cell_length_b 35.590568
_cell_length_c 6.081624
_cell_angle_alpha 90.000000
_cell_angle_beta 102.869021
_cell_angle_gamma 90.000000
_cell_volume 1152.821837
_symmetry_space_group_name_H-M "C 2/M"
_symmetry_group_IT_number 12
_symmetry_cell_setting 'monoclinic'
loop_
_space_group_symop_operation_xyz
x,y,z
-x,y,-z
-x,-y,-z
x,-y,z
1/2+x,1/2+y,z
1/2-x,1/2+y,-z
1/2-x,1/2-y,-z
1/2+x,1/2-y,z
loop_
_atom_site_type_symbol
_atom_site_label
_atom_site_fract_x
_atom_site_fract_y
_atom_site_fract_z
Si Si1 0.284365 0.347042 0.134897
Si Si2 0.416977 0.734787 0.248234
Si Si3 0.796419 0.043401 0.764864
Si Si4 0.208588 0.573475 0.262419
O O1 0.360485 0.308971 0.272617
O O2 0.278901 0.382608 0.297883
O O3 0.500000 0.355899 0.000000
O O4 0.000000 0.340892 0.000000
O O5 0.500000 0.751905 0.500000
O O6 0.660754 0.741328 0.133064
O O7 0.754453 0.053707 0.502832
O O8 0.589022 0.068487 0.859399
O O9 0.096552 0.052552 0.870333
O O10 0.737680 0.000000 0.791772
#
# Coordination Sequence:
#
# PCOD8094142 Si02
#       4
#     8   8   8   8
#     4  12  26  42  62  93 134 174 205 248 315 391
#     4  10  23  44  68  96 124 160 213 268 306 357
#     4  10  19  36  65  93 115 157 217 268 310 363
#     4  10  20  35  58  90 122 156 202 265 303 362
#
# _framework density 27.757973
#
# number of rings (size 3 to 8) (size 9 to 14) (size 15 to 20)
#    0.000    1.500    0.000    6.750    3.500    3.000 
#    9.000    0.000    0.000   25.500    0.000    0.000 
#    0.000    0.000    0.000    0.000    0.000    0.000 
#
# Total GULP energy -198479.937465 kJ/mol
# GULP energy per Si atom -12404.996092 kJ/mol
# Density = 2.769479 g / cm^3
# Si number density = 27.757973 Si / 1000 Ang^3
#
#
#
# Elastic Constant Matrix: (Units=GPa)
#
#
# Indices 1 2 3 4 5 6 
#
# 1 314.3064 82.2692 94.9306 0.0000 -10.1046 0.0000
# 2 82.2692 227.5514 18.5408 0.0000 -6.3605 0.0000
# 3 94.9306 18.5408 98.1624 0.0000 -6.9700 0.0000
# 4 0.0000 0.0000 0.0000 -24.5411 0.0000 -8.6485
# 5 -10.1046 -6.3605 -6.9700 0.0000 51.1511 0.0000
# 6 0.0000 0.0000 0.0000 -8.6485 0.0000 58.2241
#
#
#
# Elastic Compliance Matrix: (Units=1/GPa)
#
#
# Indices 1 2 3 4 5 6 
#
# 1 0.004903 -0.001404 -0.004463 0.000000 0.000186 0.000000
# 2 -0.001404 0.004875 0.000465 0.000000 0.000392 0.000000
# 3 -0.004463 0.000465 0.014498 0.000000 0.001152 0.000000
# 4 0.000000 0.000000 0.000000 -0.038721 0.000000 -0.005752
# 5 0.000186 0.000392 0.001152 0.000000 0.019792 0.000000
# 6 0.000000 0.000000 0.000000 -0.005752 0.000000 0.016321
#
#
# Mechanical properties :
#
#
# Convention : Reuss Voigt Hill
#
# Bulk Modulus (GPa) = 74.23419 114.61128 94.42273
# Shear Modulus (GPa) = 135.26985 46.58548 90.92766
#
# Velocity S-wave (km/s) = 6.98840 4.10112 5.72961
# Velocity P-wave (km/s) = 9.58741 7.98778 8.82392
#
# Compressibility (1/GPa) = 0.01347088
#
# Stress axis : x y z
#
# Youngs Moduli (GPa) = 203.95282 205.11761 68.97698
#
# Poissons Ratio (x) = 0.28795 0.30787
# Poissons Ratio (y) = 0.28631 -0.03205
# Poissons Ratio (z) = 0.91031 -0.09530
#
# Static dielectric constant tensor:
#      x y z
#    x 8.693200 0.000000 0.472650 
#    y 0.000000 4.825000 0.000000 
#    z 0.472650 0.000000 5.487580 
# 
# 
# High freq. dielectric constant tensor:
#      x y z
#    x 2.195270 0.000000 0.004180 
#    y 0.000000 2.099300 0.000000 
#    z 0.004180 0.000000 2.186660 
# 
# From -- ./inp_files/34317.got.cif
#   From: 2010.06.25/outbox.cif.g09.slc.cpg/sg12_18_cif.got.tgz:34317.got - 2010.06.28 00:19:55.
