data_PCOD8094876
_publ_section_title
;
Structure prediction by ZEFSAII (Michael W. Deem and Ramdas Pophale) SiO2 
 PCOD8094876
Probable space group: C 2/M
;
_chemical_formula_sum "Si O2"
_cell_formula_units_Z 52
_cell_length_a 21.101961
_cell_length_b 19.409363
_cell_length_c 11.772117
_cell_angle_alpha 90.000000
_cell_angle_beta 142.344268
_cell_angle_gamma 90.000000
_cell_volume 2945.573346
_symmetry_space_group_name_H-M "C 2/M"
_symmetry_group_IT_number 12
_symmetry_cell_setting 'monoclinic'
loop_
_space_group_symop_operation_xyz
x,y,z
-x,y,-z
-x,-y,-z
x,-y,z
1/2+x,1/2+y,z
1/2-x,1/2+y,-z
1/2-x,1/2-y,-z
1/2+x,1/2-y,z
loop_
_atom_site_type_symbol
_atom_site_label
_atom_site_fract_x
_atom_site_fract_y
_atom_site_fract_z
Si Si1 0.995820 0.854148 0.680202
Si Si2 0.000000 0.253809 0.500000
Si Si3 0.334733 0.209015 0.696675
Si Si4 0.943411 0.741134 0.074099
Si Si5 0.284732 0.580142 0.380066
Si Si6 0.669202 0.188699 0.880679
Si Si7 0.190049 0.922049 0.850275
O O1 0.046882 0.819252 0.863917
O O2 0.074236 0.899175 0.716604
O O3 0.958966 0.791459 0.547301
O O4 0.900692 0.901267 0.586424
O O5 0.096131 0.302352 0.668302
O O6 0.250000 0.250000 0.500000
O O7 0.444528 0.206457 0.788735
O O8 0.295522 0.131239 0.670023
O O9 0.363800 0.247884 0.855458
O O10 0.896433 0.688461 0.097570
O O11 0.259281 0.500000 0.373498
O O12 0.284362 0.592601 0.244534
O O13 0.750000 0.250000 0.000000
O O14 0.728951 0.117168 0.954564
O O15 0.203099 0.000000 0.902364
#
# Coordination Sequence:
#
# PCOD8094876 Si02
#       7
#     8   4   8   8   8   8   8
#     4  11  18  34  56  89 116 137 186 239 291 330
#     4  10  20  28  56  88 110 144 186 230 272 338
#     4  11  22  38  57  80 111 148 196 238 275 323
#     4  10  22  34  56  87 107 141 197 236 272 323
#     4  11  21  35  57  85 116 150 184 230 287 337
#     4  11  19  35  56  84 116 144 185 228 283 337
#     4  11  21  34  55  87 122 148 176 227 291 347
#
# _framework density 17.653608999999999
#
# number of rings (size 3 to 8) (size 9 to 14) (size 15 to 20)
#    0.000    1.231    7.692    0.462    0.000    1.231 
#    0.000    2.692    0.000    2.769    0.000    0.000 
#    0.000    0.000    0.000    0.000    0.000    0.000 
#
# Total GULP energy -322239.455457 kJ/mol
# GULP energy per Si atom -12393.825210 kJ/mol
# Density = 1.761343 g / cm^3
# Si number density = 17.653609 Si / 1000 Ang^3
#
#
#
# Elastic Constant Matrix: (Units=GPa)
#
#
# Indices 1 2 3 4 5 6 
#
# 1 84.5293 41.1674 29.8733 0.0000 8.1612 0.0000
# 2 41.1674 128.9998 59.3747 0.0000 3.3889 0.0000
# 3 29.8733 59.3747 135.8379 0.0000 2.2393 0.0000
# 4 0.0000 0.0000 0.0000 23.1305 0.0000 0.4163
# 5 8.1612 3.3889 2.2393 0.0000 25.2211 0.0000
# 6 0.0000 0.0000 0.0000 0.4163 0.0000 26.4041
#
#
#
# Elastic Compliance Matrix: (Units=1/GPa)
#
#
# Indices 1 2 3 4 5 6 
#
# 1 0.014634 -0.003896 -0.001448 0.000000 -0.004083 0.000000
# 2 -0.003896 0.010764 -0.003850 0.000000 0.000156 0.000000
# 3 -0.001448 -0.003850 0.009361 0.000000 0.000155 0.000000
# 4 0.000000 0.000000 0.000000 0.043245 0.000000 -0.000682
# 5 -0.004083 0.000156 0.000155 0.000000 0.040936 0.000000
# 6 0.000000 0.000000 0.000000 -0.000682 0.000000 0.037884
#
#
# Mechanical properties :
#
#
# Convention : Reuss Voigt Hill
#
# Bulk Modulus (GPa) = 61.09259 67.79978 64.44618
# Shear Modulus (GPa) = 27.67508 29.54792 28.61150
#
# Velocity S-wave (km/s) = 3.96368 4.09560 4.03018
# Velocity P-wave (km/s) = 7.45849 7.80091 7.63162
#
# Compressibility (1/GPa) = 0.01636860
#
# Stress axis : x y z
#
# Youngs Moduli (GPa) = 68.33533 92.90644 106.83096
#
# Poissons Ratio (x) = 0.36200 0.15467
# Poissons Ratio (y) = 0.26626 0.41134
# Poissons Ratio (z) = 0.09894 0.35773
#
# Static dielectric constant tensor:
#      x y z
#    x 3.416450 0.000000 0.048200 
#    y 0.000000 3.586540 0.000000 
#    z 0.048200 0.000000 3.565740 
# 
# 
# High freq. dielectric constant tensor:
#      x y z
#    x 1.681880 0.000000 0.011550 
#    y 0.000000 1.661480 0.000000 
#    z 0.011550 0.000000 1.686190 
# 
# From -- ./inp_files/169478.got.cif
#   From: 2010.06.25/outbox.cif.g09.slc.cpg/sg12_85_cif.got.tgz:169478.got - 2010.06.28 00:19:55.
