data_PCOD8094776
_publ_section_title
;
Structure prediction by ZEFSAII (Michael W. Deem and Ramdas Pophale) SiO2 
 PCOD8094776
Probable space group: C 2/M
;
_chemical_formula_sum "Si O2"
_cell_formula_units_Z 40
_cell_length_a 9.970524
_cell_length_b 22.984972
_cell_length_c 13.373266
_cell_angle_alpha 90.000000
_cell_angle_beta 38.100700
_cell_angle_gamma 90.000000
_cell_volume 1891.109286
_symmetry_space_group_name_H-M "C 2/M"
_symmetry_group_IT_number 12
_symmetry_cell_setting 'monoclinic'
loop_
_space_group_symop_operation_xyz
x,y,z
-x,y,-z
-x,-y,-z
x,-y,z
1/2+x,1/2+y,z
1/2-x,1/2+y,-z
1/2-x,1/2-y,-z
1/2+x,1/2-y,z
loop_
_atom_site_type_symbol
_atom_site_label
_atom_site_fract_x
_atom_site_fract_y
_atom_site_fract_z
Si Si1 0.550445 0.673865 0.165134
Si Si2 0.486858 0.194069 0.786796
Si Si3 0.866307 0.619036 0.678723
Si Si4 0.708358 0.120086 0.807277
Si Si5 0.760543 0.500000 0.846411
Si Si6 0.078264 0.500000 0.841555
O O1 0.478476 0.737335 0.244868
O O2 0.372015 0.643775 0.201701
O O3 0.585845 0.634318 0.243349
O O4 0.760922 0.678091 0.972326
O O5 0.493498 0.164204 0.674757
O O6 0.685528 0.169877 0.736818
O O7 0.849239 0.556411 0.738935
O O8 0.000000 0.612215 0.500000
O O9 0.727046 0.057667 0.739770
O O10 0.500000 0.120615 0.000000
O O11 0.864307 0.500000 0.896729
O O12 0.500000 0.500000 0.000000
O O13 0.000000 0.500000 0.000000
#
# Coordination Sequence:
#
# PCOD8094776 Si02
#       6
#     8   8   8   8   4   4
#     4  10  21  37  65  94 120 160 213 257 308 366
#     4  10  19  39  64  92 122 160 211 261 302 364
#     4  12  26  41  60  92 135 170 205 255 319 388
#     4   9  18  32  57  88 119 146 197 266 307 349
#     4  12  25  43  71  90 118 168 218 268 315 369
#     4  10  20  35  61  94 117 141 195 266 321 356
#
# _framework density 21.151608
#
# number of rings (size 3 to 8) (size 9 to 14) (size 15 to 20)
#    0.000    1.600    2.000    3.300    5.600    4.000 
#    0.000    1.000    0.000    1.200    0.000    0.000 
#    0.000    0.000    0.000    0.000    0.000    0.000 
#
# Total GULP energy -248002.545421 kJ/mol
# GULP energy per Si atom -12400.127271 kJ/mol
# Density = 2.110347 g / cm^3
# Si number density = 21.151608 Si / 1000 Ang^3
#
#
#
# Elastic Constant Matrix: (Units=GPa)
#
#
# Indices 1 2 3 4 5 6 
#
# 1 136.6361 57.8875 16.0946 0.0000 30.1409 0.0000
# 2 57.8875 150.3789 19.4164 0.0000 17.2736 0.0000
# 3 16.0946 19.4164 43.7419 0.0000 20.9076 0.0000
# 4 0.0000 0.0000 0.0000 10.8695 0.0000 9.0492
# 5 30.1409 17.2736 20.9076 0.0000 23.6972 0.0000
# 6 0.0000 0.0000 0.0000 9.0492 0.0000 40.9790
#
#
#
# Elastic Compliance Matrix: (Units=1/GPa)
#
#
# Indices 1 2 3 4 5 6 
#
# 1 0.011961 -0.003285 0.005506 0.000000 -0.017678 0.000000
# 2 -0.003285 0.008196 -0.002716 0.000000 0.000600 0.000000
# 3 0.005506 -0.002716 0.042266 0.000000 -0.042314 0.000000
# 4 0.000000 0.000000 0.000000 0.112724 0.000001 -0.024892
# 5 -0.017678 0.000600 -0.042314 0.000001 0.101579 0.000000
# 6 0.000000 0.000000 0.000000 -0.024892 0.000000 0.029900
#
#
# Mechanical properties :
#
#
# Convention : Reuss Voigt Hill
#
# Bulk Modulus (GPa) = 16.27760 57.50602 36.89181
# Shear Modulus (GPa) = 15.23953 30.93304 23.08629
#
# Velocity S-wave (km/s) = 2.68711 3.82834 3.30732
# Velocity P-wave (km/s) = 4.16411 6.84019 5.66250
#
# Compressibility (1/GPa) = 0.06143413
#
# Stress axis : x y z
#
# Youngs Moduli (GPa) = 83.60306 122.00878 23.65946
#
# Poissons Ratio (x) = 0.40078 -0.13028
# Poissons Ratio (y) = 0.27462 0.06427
# Poissons Ratio (z) = -0.46036 0.33143
#
# Static dielectric constant tensor:
#      x y z
#    x 4.106450 0.000000 0.219950 
#    y 0.000000 4.512850 0.000000 
#    z 0.219950 0.000000 3.301650 
# 
# 
# High freq. dielectric constant tensor:
#      x y z
#    x 1.846360 0.000000 0.022320 
#    y 0.000000 1.850700 0.000000 
#    z 0.022320 0.000000 1.780500 
# 
# From -- ./inp_files/90767.got.cif
#   From: 2010.06.25/outbox.cif.g09.slc.cpg/sg12_46_cif.got.tgz:90767.got - 2010.06.28 00:19:55.
