data_PCOD8094634
_publ_section_title
;
Structure prediction by ZEFSAII (Michael W. Deem and Ramdas Pophale) SiO2 
 PCOD8094634
Probable space group: C 2/M
;
_chemical_formula_sum "Si O2"
_cell_formula_units_Z 56
_cell_length_a 21.166737
_cell_length_b 8.805439
_cell_length_c 15.509817
_cell_angle_alpha 90.000000
_cell_angle_beta 86.321409
_cell_angle_gamma 90.000000
_cell_volume 2884.801156
_symmetry_space_group_name_H-M "C 2/M"
_symmetry_group_IT_number 12
_symmetry_cell_setting 'monoclinic'
loop_
_space_group_symop_operation_xyz
x,y,z
-x,y,-z
-x,-y,-z
x,-y,z
1/2+x,1/2+y,z
1/2-x,1/2+y,-z
1/2-x,1/2-y,-z
1/2+x,1/2-y,z
loop_
_atom_site_type_symbol
_atom_site_label
_atom_site_fract_x
_atom_site_fract_y
_atom_site_fract_z
Si Si1 0.465042 0.320386 0.587883
Si Si2 0.351117 0.677353 0.198103
Si Si3 0.657255 0.175151 0.458529
Si Si4 0.296072 0.326280 0.385485
Si Si5 0.557953 0.678995 0.056443
Si Si6 0.815049 0.320789 0.027519
Si Si7 0.989536 0.820710 0.233297
O O1 0.500000 0.252685 0.500000
O O2 0.471316 0.500000 0.588276
O O3 0.392302 0.273182 0.590677
O O4 0.493272 0.251454 0.674411
O O5 0.351957 0.500000 0.171287
O O6 0.308859 0.707508 0.285291
O O7 0.320317 0.777232 0.126719
O O8 0.421479 0.740146 0.209268
O O9 0.658635 0.224312 0.558644
O O10 0.723557 0.213997 0.408473
O O11 0.638902 0.000000 0.454108
O O12 0.311680 0.500000 0.407716
O O13 0.568243 0.500000 0.043715
O O14 0.541237 0.723525 0.156505
O O15 0.500000 0.732498 0.000000
O O16 0.623509 0.760650 0.028704
O O17 0.811558 0.500000 0.016080
O O18 0.750000 0.250000 0.000000
O O19 0.984920 0.000000 0.242942
#
# Coordination Sequence:
#
# PCOD8094634 Si02
#       7
#     8   8   8   8   8   8   8
#     4  10  20  35  55  80 112 150 194 238 282 341
#     4  10  19  38  63  86 113 148 194 241 292 351
#     4  10  20  34  52  80 116 151 188 235 292 340
#     4   9  19  35  58  82 110 151 194 233 283 352
#     4  10  19  38  65  89 118 155 197 246 300 358
#     4  12  26  42  61  88 122 157 197 246 306 362
#     4   9  18  33  59  88 111 149 196 237 288 351
#
# _framework density 19.412084
#
# number of rings (size 3 to 8) (size 9 to 14) (size 15 to 20)
#    0.000    2.000    1.429    2.571    0.000    5.143 
#    0.000    4.286    0.000    0.000    0.000    0.000 
#    0.000    0.000    0.000    0.000    0.000    0.000 
#
# Total GULP energy -347217.533499 kJ/mol
# GULP energy per Si atom -12400.626196 kJ/mol
# Density = 1.936790 g / cm^3
# Si number density = 19.412084 Si / 1000 Ang^3
#
#
#
# Elastic Constant Matrix: (Units=GPa)
#
#
# Indices 1 2 3 4 5 6 
#
# 1 135.7463 44.4540 76.9452 0.0000 9.9398 0.0000
# 2 44.4540 48.7905 39.5344 0.0000 -1.7495 0.0000
# 3 76.9452 39.5344 153.5750 0.0000 7.2920 0.0000
# 4 0.0000 0.0000 0.0000 24.4696 0.0000 1.5278
# 5 9.9398 -1.7495 7.2920 0.0000 31.1671 0.0000
# 6 0.0000 0.0000 0.0000 1.5278 0.0000 31.7781
#
#
#
# Elastic Compliance Matrix: (Units=1/GPa)
#
#
# Indices 1 2 3 4 5 6 
#
# 1 0.012652 -0.008411 -0.004004 0.000000 -0.003570 0.000000
# 2 -0.008411 0.031779 -0.004226 0.000000 0.005455 0.000000
# 3 -0.004004 -0.004226 0.009664 0.000000 -0.001221 0.000000
# 4 0.000000 0.000000 0.000000 0.040990 0.000000 -0.001971
# 5 -0.003570 0.005455 -0.001221 0.000000 0.033816 0.000000
# 6 0.000000 0.000000 0.000000 -0.001971 0.000000 0.031563
#
#
# Mechanical properties :
#
#
# Convention : Reuss Voigt Hill
#
# Bulk Modulus (GPa) = 48.04777 73.33098 60.68938
# Shear Modulus (GPa) = 24.91488 29.29484 27.10486
#
# Velocity S-wave (km/s) = 3.58645 3.88893 3.74075
# Velocity P-wave (km/s) = 6.47729 7.61728 7.07030
#
# Compressibility (1/GPa) = 0.02081262
#
# Stress axis : x y z
#
# Youngs Moduli (GPa) = 79.03634 31.46740 103.48171
#
# Poissons Ratio (x) = 0.26468 0.41438
# Poissons Ratio (y) = 0.66479 0.43727
# Poissons Ratio (z) = 0.31649 0.13297
#
# Static dielectric constant tensor:
#      x y z
#    x 3.610760 0.000000 -0.018570 
#    y 0.000000 3.299870 0.000000 
#    z -0.018570 0.000000 3.803700 
# 
# 
# High freq. dielectric constant tensor:
#      x y z
#    x 1.762570 0.000000 -0.003690 
#    y 0.000000 1.728790 0.000000 
#    z -0.003690 0.000000 1.767300 
# 
# From -- ./inp_files/230894.got.cif
#   From: 2010.06.25/outbox.cif.g09.slc.cpg/sg12_116_cif.got.tgz:230894.got - 2010.06.28 00:19:55.
