data_PCOD8094386
_publ_section_title
;
Structure prediction by ZEFSAII (Michael W. Deem and Ramdas Pophale) SiO2 
 PCOD8094386
Probable space group: C 2/M
;
_chemical_formula_sum "Si O2"
_cell_formula_units_Z 64
_cell_length_a 9.907946
_cell_length_b 19.960283
_cell_length_c 21.953668
_cell_angle_alpha 90.000000
_cell_angle_beta 51.241754
_cell_angle_gamma 90.000000
_cell_volume 3385.614650
_symmetry_space_group_name_H-M "C 2/M"
_symmetry_group_IT_number 12
_symmetry_cell_setting 'monoclinic'
loop_
_space_group_symop_operation_xyz
x,y,z
-x,y,-z
-x,-y,-z
x,-y,z
1/2+x,1/2+y,z
1/2-x,1/2+y,-z
1/2-x,1/2-y,-z
1/2+x,1/2-y,z
loop_
_atom_site_type_symbol
_atom_site_label
_atom_site_fract_x
_atom_site_fract_y
_atom_site_fract_z
Si Si1 0.515024 0.571849 0.067141
Si Si2 0.307537 0.425264 0.571476
Si Si3 0.640798 0.714062 0.584450
Si Si4 0.997251 0.309877 0.151351
Si Si5 0.128145 0.203221 0.907279
Si Si6 0.911809 0.422359 0.962731
Si Si7 0.248002 0.302597 0.665398
Si Si8 0.688023 0.924715 0.473907
O O1 0.466102 0.500000 0.112312
O O2 0.387192 0.631772 0.124805
O O3 0.500000 0.561097 0.000000
O O4 0.709919 0.592299 0.029035
O O5 0.500000 0.399758 0.500000
O O6 0.318421 0.500000 0.595712
O O7 0.232084 0.377290 0.643792
O O8 0.180821 0.422671 0.549200
O O9 0.750000 0.750000 0.500000
O O10 0.442525 0.720561 0.622124
O O11 0.666140 0.750483 0.641367
O O12 0.686976 0.635565 0.582414
O O13 0.935861 0.263025 0.115022
O O14 0.853892 0.305889 0.243318
O O15 0.177164 0.283343 0.127365
O O16 0.016377 0.383531 0.116784
O O17 0.000000 0.196989 0.000000
O O18 0.951538 0.500000 0.939001
O O19 0.000000 0.396989 0.000000
O O20 0.500000 0.910419 0.500000
O O21 0.753055 0.000000 0.435353
#
# Coordination Sequence:
#
# PCOD8094386 Si02
#       8
#     8   8   8   8   8   8   8   8
#     4   9  17  34  61  87 109 142 199 248 281 332
#     4  10  19  37  62  87 114 150 200 242 285 352
#     4  12  22  40  63  86 114 160 204 244 289 359
#     4  12  25  39  57  88 126 155 193 246 308 356
#     4  11  22  39  62  86 111 160 202 244 287 348
#     4  10  21  38  62  90 117 153 202 249 290 352
#     4  12  25  39  57  89 124 157 191 247 308 353
#     4  10  20  35  61  91 114 144 198 250 284 336
#
# _framework density 18.903511000000002
#
# number of rings (size 3 to 8) (size 9 to 14) (size 15 to 20)
#    0.000    1.250    5.000    2.625    1.750    0.500 
#    0.000    0.000    0.000    0.750    0.000    0.000 
#    0.000    0.000    0.000    0.000    0.000    0.000 
#
# Total GULP energy -396699.118352 kJ/mol
# GULP energy per Si atom -12396.847449 kJ/mol
# Density = 1.886049 g / cm^3
# Si number density = 18.903511 Si / 1000 Ang^3
#
#
#
# Elastic Constant Matrix: (Units=GPa)
#
#
# Indices 1 2 3 4 5 6 
#
# 1 138.3275 32.5827 22.6742 -0.0006 -15.4570 -0.0002
# 2 32.5827 116.4130 31.4083 0.0002 5.9513 -0.0004
# 3 22.6742 31.4083 62.9042 -0.0003 -6.6707 0.0001
# 4 -0.0006 0.0002 -0.0003 5.5069 0.0012 -4.7982
# 5 -15.4570 5.9513 -6.6707 0.0012 19.2911 -0.0003
# 6 -0.0002 -0.0004 0.0001 -4.7982 -0.0003 30.9905
#
#
#
# Elastic Compliance Matrix: (Units=1/GPa)
#
#
# Indices 1 2 3 4 5 6 
#
# 1 0.008853 -0.002559 -0.001118 -0.000001 0.007496 0.000000
# 2 -0.002559 0.011146 -0.005424 0.000001 -0.007365 0.000000
# 3 -0.001118 -0.005424 0.019818 -0.000001 0.007630 0.000000
# 4 -0.000001 0.000001 -0.000001 0.209907 -0.000013 0.032500
# 5 0.007496 -0.007365 0.007630 -0.000013 0.062754 -0.000002
# 6 0.000000 0.000000 0.000000 0.032500 -0.000002 0.037300
#
#
# Mechanical properties :
#
#
# Convention : Reuss Voigt Hill
#
# Bulk Modulus (GPa) = 46.26661 54.55279 50.40970
# Shear Modulus (GPa) = 13.32673 26.55635 19.94154
#
# Velocity S-wave (km/s) = 2.65804 3.75218 3.25146
# Velocity P-wave (km/s) = 5.82653 6.90601 6.38911
#
# Compressibility (1/GPa) = 0.02161386
#
# Stress axis : x y z
#
# Youngs Moduli (GPa) = 112.95553 89.71567 50.46038
#
# Poissons Ratio (x) = 0.22962 0.05643
# Poissons Ratio (y) = 0.28910 0.27369
# Poissons Ratio (z) = 0.12632 0.48660
#
# Static dielectric constant tensor:
#      x y z
#    x 4.412800 -0.000020 -0.061550 
#    y -0.000020 4.237220 0.000000 
#    z -0.061550 0.000000 3.083000 
# 
# 
# High freq. dielectric constant tensor:
#      x y z
#    x 1.760320 0.000000 -0.006570 
#    y 0.000000 1.759940 0.000000 
#    z -0.006570 0.000000 1.679720 
# 
# From -- ./inp_files/333707.got.cif
#   From: 2010.06.25/outbox.cif.g09.slc.cpg/sg12_167_cif.got.tgz:333707.got - 2010.06.28 00:19:55.
