data_PCOD8094092
_publ_section_title
;
Structure prediction by ZEFSAII (Michael W. Deem and Ramdas Pophale) SiO2 
 PCOD8094092
Probable space group: C 2/M
;
_chemical_formula_sum "Si O2"
_cell_formula_units_Z 52
_cell_length_a 7.997429
_cell_length_b 17.192633
_cell_length_c 18.715895
_cell_angle_alpha 90.000000
_cell_angle_beta 88.324690
_cell_angle_gamma 90.000000
_cell_volume 2572.276840
_symmetry_space_group_name_H-M "C 2/M"
_symmetry_group_IT_number 12
_symmetry_cell_setting 'monoclinic'
loop_
_space_group_symop_operation_xyz
x,y,z
-x,y,-z
-x,-y,-z
x,-y,z
1/2+x,1/2+y,z
1/2-x,1/2+y,-z
1/2-x,1/2-y,-z
1/2+x,1/2-y,z
loop_
_atom_site_type_symbol
_atom_site_label
_atom_site_fract_x
_atom_site_fract_y
_atom_site_fract_z
Si Si1 0.000000 0.281857 0.000000
Si Si2 0.302034 0.908418 0.646877
Si Si3 0.801922 0.161733 0.500081
Si Si4 0.483389 0.407316 0.741543
Si Si5 0.002389 0.141398 0.899188
Si Si6 0.247041 0.585306 0.004122
Si Si7 0.677036 0.908435 0.647020
O O1 0.967613 0.228105 0.930879
O O2 0.143773 0.341666 0.976760
O O3 0.274844 0.876919 0.568510
O O4 0.487768 0.882618 0.672383
O O5 0.153033 0.878520 0.700166
O O6 0.290475 0.000000 0.642550
O O7 0.750000 0.250000 0.500000
O O8 0.716255 0.123572 0.568984
O O9 0.000000 0.149372 0.500000
O O10 0.484161 0.500000 0.754124
O O11 0.475487 0.360548 0.815434
O O12 0.318088 0.379167 0.700877
O O13 0.887840 0.078577 0.941536
O O14 0.188146 0.111330 0.918036
O O15 0.158358 0.500000 0.010702
O O16 0.688608 0.000000 0.642060
#
# Coordination Sequence:
#
# PCOD8094092 Si02
#       7
#     4   8   8   8   8   8   8
#     4  10  21  38  61  92 126 152 204 250 305 362
#     4  10  21  39  63  91 120 155 202 255 303 362
#     4  12  23  38  61  86 121 160 205 255 306 362
#     4  10  20  37  62  89 122 161 203 248 304 367
#     4  10  19  37  61  86 120 164 197 246 308 369
#     4  10  19  36  63  90 118 156 206 252 293 354
#     4  10  21  39  63  91 120 155 202 255 303 362
#
# _framework density 20.215553
#
# number of rings (size 3 to 8) (size 9 to 14) (size 15 to 20)
#    0.000    1.846    1.538    5.769    0.000    1.846 
#    2.769    3.077    0.000    0.000    0.000    0.000 
#    0.000    0.000    0.000    0.000    0.000    0.000 
#
# Total GULP energy -322146.725530 kJ/mol
# GULP energy per Si atom -12390.258674 kJ/mol
# Density = 2.016954 g / cm^3
# Si number density = 20.215553 Si / 1000 Ang^3
#
#
#
# Elastic Constant Matrix: (Units=GPa)
#
#
# Indices 1 2 3 4 5 6 
#
# 1 147.0558 42.3314 60.6266 0.0000 7.1154 0.0000
# 2 42.3314 66.7351 37.1130 0.0000 0.2647 0.0000
# 3 60.6266 37.1130 159.0305 0.0000 8.2099 0.0000
# 4 0.0000 0.0000 0.0000 15.6623 0.0000 9.3084
# 5 7.1154 0.2647 8.2099 0.0000 14.5225 0.0000
# 6 0.0000 0.0000 0.0000 9.3084 0.0000 23.4486
#
#
#
# Elastic Compliance Matrix: (Units=1/GPa)
#
#
# Indices 1 2 3 4 5 6 
#
# 1 0.009205 -0.004556 -0.002284 0.000000 -0.003136 0.000000
# 2 -0.004556 0.019532 -0.003006 0.000000 0.003576 0.000000
# 3 -0.002284 -0.003006 0.008034 0.000000 -0.003368 0.000000
# 4 0.000000 0.000000 0.000000 0.083562 0.000000 -0.033172
# 5 -0.003136 0.003576 -0.003368 0.000000 0.072234 0.000000
# 6 0.000000 0.000000 0.000000 -0.033172 0.000000 0.055815
#
#
# Mechanical properties :
#
#
# Convention : Reuss Voigt Hill
#
# Bulk Modulus (GPa) = 58.55108 72.55147 65.55128
# Shear Modulus (GPa) = 18.26370 26.24339 22.25354
#
# Velocity S-wave (km/s) = 3.00900 3.60693 3.32145
# Velocity P-wave (km/s) = 6.41080 7.30161 6.87066
#
# Compressibility (1/GPa) = 0.01707910
#
# Stress axis : x y z
#
# Youngs Moduli (GPa) = 108.63565 51.19751 124.46821
#
# Poissons Ratio (x) = 0.23327 0.28429
# Poissons Ratio (y) = 0.49498 0.37413
# Poissons Ratio (z) = 0.24813 0.15389
#
# Static dielectric constant tensor:
#      x y z
#    x 4.274310 0.000000 0.123140 
#    y 0.000000 3.535710 0.000000 
#    z 0.123140 0.000000 3.482570 
# 
# 
# High freq. dielectric constant tensor:
#      x y z
#    x 1.805160 0.000000 0.004540 
#    y 0.000000 1.786340 0.000000 
#    z 0.004540 0.000000 1.770650 
# 
# From -- ./inp_files/256613.got.cif
#   From: 2010.06.25/outbox.cif.g09.slc.cpg/sg12_129_cif.got.tgz:256613.got - 2010.06.28 00:19:55.
