data_PCOD8094575
_publ_section_title
;
Structure prediction by ZEFSAII (Michael W. Deem and Ramdas Pophale) SiO2 
 PCOD8094575
Probable space group: C 2/M
;
_chemical_formula_sum "Si O2"
_cell_formula_units_Z 64
_cell_length_a 8.999129
_cell_length_b 21.199618
_cell_length_c 23.643250
_cell_angle_alpha 90.000000
_cell_angle_beta 47.331972
_cell_angle_gamma 90.000000
_cell_volume 3316.622652
_symmetry_space_group_name_H-M "C 2/M"
_symmetry_group_IT_number 12
_symmetry_cell_setting 'monoclinic'
loop_
_space_group_symop_operation_xyz
x,y,z
-x,y,-z
-x,-y,-z
x,-y,z
1/2+x,1/2+y,z
1/2-x,1/2+y,-z
1/2-x,1/2-y,-z
1/2+x,1/2-y,z
loop_
_atom_site_type_symbol
_atom_site_label
_atom_site_fract_x
_atom_site_fract_y
_atom_site_fract_z
Si Si1 0.557374 0.767004 0.841606
Si Si2 0.156720 0.361484 0.668440
Si Si3 0.010423 0.778120 0.735024
Si Si4 0.506817 0.568509 0.622556
Si Si5 0.787584 0.098161 0.324311
Si Si6 0.250616 0.427893 0.206905
Si Si7 0.327512 0.072178 0.447085
Si Si8 0.650571 0.328719 0.911459
O O1 0.523218 0.717815 0.799756
O O2 0.560711 0.732504 0.901802
O O3 0.374320 0.817678 0.881456
O O4 0.781790 0.796657 0.775201
O O5 0.070945 0.290987 0.696157
O O6 0.342032 0.375728 0.662228
O O7 0.236700 0.378198 0.585022
O O8 0.983467 0.410883 0.728620
O O9 0.171762 0.828296 0.670987
O O10 0.423676 0.500000 0.623298
O O11 0.569022 0.558776 0.671541
O O12 0.700258 0.588839 0.535440
O O13 0.846801 0.082482 0.244357
O O14 0.561878 0.081356 0.399770
O O15 0.277613 0.500000 0.181303
O O16 0.352302 0.385545 0.132386
O O17 0.288349 0.000000 0.437662
O O18 0.500000 0.347155 0.000000
#
# Coordination Sequence:
#
# PCOD8094575 Si02
#       8
#     8   8   8   8   8   8   8   8
#     4  10  19  38  60  86 119 148 179 236 278 333
#     4  11  20  37  58  82 113 149 195 243 286 338
#     4  11  20  36  59  86 114 148 187 239 287 335
#     4  11  22  35  56  84 111 150 201 248 288 328
#     4  11  21  36  58  81 113 152 198 239 288 342
#     4  11  22  38  59  83 116 155 193 228 282 344
#     4  10  21  38  55  77 114 155 195 243 293 342
#     4  11  22  38  63  94 119 146 186 229 282 341
#
# _framework density 19.296738000000001
#
# number of rings (size 3 to 8) (size 9 to 14) (size 15 to 20)
#    0.000    1.250    3.750    5.625    0.000    2.250 
#    0.000    3.750    0.000    0.000    0.000    0.875 
#    0.000    0.000    0.000    0.000    0.000    0.000 
#
# Total GULP energy -396545.501001 kJ/mol
# GULP energy per Si atom -12392.046906 kJ/mol
# Density = 1.925282 g / cm^3
# Si number density = 19.296738 Si / 1000 Ang^3
#
#
#
# Elastic Constant Matrix: (Units=GPa)
#
#
# Indices 1 2 3 4 5 6 
#
# 1 110.1919 32.4922 40.5867 0.0004 4.4850 0.0019
# 2 32.4922 99.1594 45.6590 0.0001 -0.9132 0.0008
# 3 40.5867 45.6590 105.8599 -0.0005 13.3771 0.0012
# 4 0.0004 0.0001 -0.0005 20.0344 0.0000 1.2111
# 5 4.4850 -0.9132 13.3771 0.0000 23.3054 -0.0012
# 6 0.0019 0.0008 0.0012 1.2111 -0.0012 22.4340
#
#
#
# Elastic Compliance Matrix: (Units=1/GPa)
#
#
# Indices 1 2 3 4 5 6 
#
# 1 0.010895 -0.002081 -0.003239 0.000000 -0.000319 -0.000001
# 2 -0.002081 0.013318 -0.005459 0.000000 0.004056 0.000000
# 3 -0.003239 -0.005459 0.014007 0.000001 -0.007630 -0.000001
# 4 0.000000 0.000000 0.000001 0.050077 0.000000 -0.002703
# 5 -0.000319 0.004056 -0.007630 0.000000 0.047509 0.000003
# 6 -0.000001 0.000000 -0.000001 -0.002703 0.000003 0.044721
#
#
# Mechanical properties :
#
#
# Convention : Reuss Voigt Hill
#
# Bulk Modulus (GPa) = 60.01944 61.40970 60.71457
# Shear Modulus (GPa) = 24.08033 26.25298 25.16665
#
# Velocity S-wave (km/s) = 3.53639 3.69248 3.61528
# Velocity P-wave (km/s) = 6.91706 7.07617 6.99707
#
# Compressibility (1/GPa) = 0.01666127
#
# Stress axis : x y z
#
# Youngs Moduli (GPa) = 91.78659 75.08847 71.39363
#
# Poissons Ratio (x) = 0.15630 0.23124
# Poissons Ratio (y) = 0.19105 0.38970
# Poissons Ratio (z) = 0.29730 0.40987
#
# Static dielectric constant tensor:
#      x y z
#    x 3.786330 0.000000 0.045290 
#    y 0.000000 3.463530 0.000000 
#    z 0.045290 0.000000 3.399580 
# 
# 
# High freq. dielectric constant tensor:
#      x y z
#    x 1.767680 0.000000 0.007230 
#    y 0.000000 1.738410 0.000000 
#    z 0.007230 0.000000 1.731050 
# 
# From -- ./inp_files/301758.got.cif
#   From: 2010.06.25/outbox.cif.g09.slc.cpg/sg12_151_cif.got.tgz:301758.got - 2010.06.28 00:19:55.
