data_PCOD8094203
_publ_section_title
;
Structure prediction by ZEFSAII (Michael W. Deem and Ramdas Pophale) SiO2 
 PCOD8094203
Probable space group: C 2/M
;
_chemical_formula_sum "Si O2"
_cell_formula_units_Z 36
_cell_length_a 28.888132
_cell_length_b 9.675217
_cell_length_c 14.784547
_cell_angle_alpha 90.000000
_cell_angle_beta 152.458085
_cell_angle_gamma 90.000000
_cell_volume 1910.748676
_symmetry_space_group_name_H-M "C 2/M"
_symmetry_group_IT_number 12
_symmetry_cell_setting 'monoclinic'
loop_
_space_group_symop_operation_xyz
x,y,z
-x,y,-z
-x,-y,-z
x,-y,z
1/2+x,1/2+y,z
1/2-x,1/2+y,-z
1/2-x,1/2-y,-z
1/2+x,1/2-y,z
loop_
_atom_site_type_symbol
_atom_site_label
_atom_site_fract_x
_atom_site_fract_y
_atom_site_fract_z
Si Si1 0.454883 0.159542 0.063218
Si Si2 0.695379 0.500000 0.918035
Si Si3 0.926362 0.000000 0.457055
Si Si4 0.342218 0.157616 0.687839
Si Si5 0.554614 0.714085 0.766549
Si Si6 0.576494 0.000000 0.711658
O O1 0.568781 0.178084 0.229112
O O2 0.434643 0.271704 0.106910
O O3 0.436845 0.000000 0.061962
O O4 0.379327 0.199217 0.852000
O O5 0.680276 0.500000 0.780385
O O6 0.648591 0.634392 0.885468
O O7 0.812636 0.500000 0.137746
O O8 0.000000 0.000000 0.500000
O O9 0.950337 0.864265 0.559169
O O10 0.250000 0.250000 0.500000
O O11 0.305823 0.000000 0.624793
O O12 0.552421 0.868029 0.728576
O O13 0.500000 0.000000 0.500000
#
# Coordination Sequence:
#
# PCOD8094203 Si02
#       6
#     8   4   4   8   8   4
#     4   9  18  38  60  82 114 150 179 228 278 332
#     4  10  22  40  54  78 118 151 178 232 291 322
#     4   8  18  38  56  72 113 151 173 226 286 322
#     4   9  19  39  60  81 117 149 180 221 283 337
#     4  10  19  37  58  82 108 143 194 227 272 333
#     4  12  22  36  58  81 109 147 193 228 275 330
#
# _framework density 18.840782999999998
#
# number of rings (size 3 to 8) (size 9 to 14) (size 15 to 20)
#    0.000    2.667    1.111    4.000    0.000    0.000 
#   16.000    1.111    0.000    0.000    0.000    0.000 
#    0.000    0.000    0.000    0.000    0.000    0.000 
#
# Total GULP energy -223079.241493 kJ/mol
# GULP energy per Si atom -12393.291194 kJ/mol
# Density = 1.879790 g / cm^3
# Si number density = 18.840783 Si / 1000 Ang^3
#
#
#
# Elastic Constant Matrix: (Units=GPa)
#
#
# Indices 1 2 3 4 5 6 
#
# 1 75.0585 48.4735 54.9452 0.0000 -25.2858 0.0000
# 2 48.4735 127.1686 59.5898 0.0000 -11.4037 0.0000
# 3 54.9452 59.5898 146.8424 0.0000 -4.2651 0.0000
# 4 0.0000 0.0000 0.0000 41.8473 0.0000 -3.0456
# 5 -25.2858 -11.4037 -4.2651 0.0000 26.7460 0.0000
# 6 0.0000 0.0000 0.0000 -3.0456 0.0000 37.3446
#
#
#
# Elastic Compliance Matrix: (Units=1/GPa)
#
#
# Indices 1 2 3 4 5 6 
#
# 1 0.032986 -0.005826 -0.009187 0.000000 0.027236 0.000000
# 2 -0.005826 0.011082 -0.002351 0.000000 -0.001158 0.000000
# 3 -0.009187 -0.002351 0.010971 0.000000 -0.007939 0.000000
# 4 0.000000 0.000000 0.000000 0.024039 0.000000 0.001960
# 5 0.027236 -0.001158 -0.007939 0.000000 0.061379 0.000000
# 6 0.000000 0.000000 0.000000 0.001960 0.000000 0.026937
#
#
# Mechanical properties :
#
#
# Convention : Reuss Voigt Hill
#
# Bulk Modulus (GPa) = 49.23449 75.00963 62.12206
# Shear Modulus (GPa) = 23.93562 33.59167 28.76364
#
# Velocity S-wave (km/s) = 3.56816 4.22705 3.91150
# Velocity P-wave (km/s) = 6.56995 7.98265 7.31050
#
# Compressibility (1/GPa) = 0.02031096
#
# Stress axis : x y z
#
# Youngs Moduli (GPa) = 30.31555 90.23582 91.14804
#
# Poissons Ratio (x) = 0.52572 0.83742
# Poissons Ratio (y) = 0.17662 0.21427
# Poissons Ratio (z) = 0.27852 0.21213
#
# Static dielectric constant tensor:
#      x y z
#    x 3.421630 0.000000 -0.331830 
#    y 0.000000 3.514890 0.000000 
#    z -0.331830 0.000000 3.995840 
# 
# 
# High freq. dielectric constant tensor:
#      x y z
#    x 1.718590 0.000000 -0.016920 
#    y 0.000000 1.735610 0.000000 
#    z -0.016920 0.000000 1.731700 
# 
# From -- ./inp_files/244988.got.cif
#   From: 2010.06.25/outbox.cif.g09.slc.cpg/sg12_123_cif.got.tgz:244988.got - 2010.06.28 00:19:55.
