data_PCOD8094416
_publ_section_title
;
Structure prediction by ZEFSAII (Michael W. Deem and Ramdas Pophale) SiO2 
 PCOD8094416
Probable space group: C 2/M
;
_chemical_formula_sum "Si O2"
_cell_formula_units_Z 56
_cell_length_a 30.240069
_cell_length_b 8.701425
_cell_length_c 11.126466
_cell_angle_alpha 90.000000
_cell_angle_beta 66.318780
_cell_angle_gamma 90.000000
_cell_volume 2681.194602
_symmetry_space_group_name_H-M "C 2/M"
_symmetry_group_IT_number 12
_symmetry_cell_setting 'monoclinic'
loop_
_space_group_symop_operation_xyz
x,y,z
-x,y,-z
-x,-y,-z
x,-y,z
1/2+x,1/2+y,z
1/2-x,1/2+y,-z
1/2-x,1/2-y,-z
1/2+x,1/2-y,z
loop_
_atom_site_type_symbol
_atom_site_label
_atom_site_fract_x
_atom_site_fract_y
_atom_site_fract_z
Si Si1 0.429446 0.827648 0.405744
Si Si2 0.116846 0.671271 0.306210
Si Si3 0.043870 0.319152 0.026811
Si Si4 0.027683 0.177770 0.296840
Si Si5 0.123307 0.318224 0.766495
Si Si6 0.268136 0.815869 0.352214
Si Si7 0.274255 0.816964 0.851400
O O1 0.384681 0.832267 0.547345
O O2 0.476637 0.738287 0.404629
O O3 0.407469 0.748105 0.310814
O O4 0.447703 0.000000 0.357156
O O5 0.105604 0.500000 0.267191
O O6 0.074134 0.790244 0.326998
O O7 0.168932 0.725627 0.202122
O O8 0.039413 0.500000 0.026704
O O9 0.040917 0.263645 0.162721
O O10 0.095600 0.267790 0.917333
O O11 0.000000 0.244576 0.000000
O O12 0.021582 0.000000 0.282160
O O13 0.125530 0.500000 0.745918
O O14 0.177145 0.254715 0.715533
O O15 0.250000 0.750000 0.500000
O O16 0.243682 0.752955 0.256174
O O17 0.263013 0.000000 0.358518
O O18 0.266448 0.000000 0.856810
O O19 0.250000 0.750000 0.000000
#
# Coordination Sequence:
#
# PCOD8094416 Si02
#       7
#     8   8   8   8   8   8   8
#     4  10  19  39  65  89 116 158 211 251 288 357
#     4  10  23  42  66  87 115 163 214 252 294 367
#     4  10  19  37  63  85 112 157 207 249 290 358
#     4  12  25  37  55  89 130 160 193 250 313 367
#     4   9  19  36  63  92 118 154 205 253 297 360
#     4  11  23  42  68  99 132 169 216 271 325 382
#     4  11  25  46  69  96 129 168 217 274 330 388
#
# _framework density 20.886213000000001
#
# number of rings (size 3 to 8) (size 9 to 14) (size 15 to 20)
#    0.000    1.571    1.429    3.429    2.000    6.000 
#    0.000    3.571    0.000    0.000    0.000    0.000 
#    0.000    0.000    0.000    0.000    0.000    0.000 
#
# Total GULP energy -346953.470538 kJ/mol
# GULP energy per Si atom -12391.195376 kJ/mol
# Density = 2.083868 g / cm^3
# Si number density = 20.886213 Si / 1000 Ang^3
#
#
#
# Elastic Constant Matrix: (Units=GPa)
#
#
# Indices 1 2 3 4 5 6 
#
# 1 123.9774 51.9117 57.1452 0.0000 -15.1182 0.0000
# 2 51.9117 137.9556 40.9246 0.0000 0.9230 0.0000
# 3 57.1452 40.9246 153.7517 0.0000 -18.8045 0.0000
# 4 0.0000 0.0000 0.0000 49.9547 0.0000 3.0552
# 5 -15.1182 0.9230 -18.8045 0.0000 44.8184 0.0000
# 6 0.0000 0.0000 0.0000 3.0552 0.0000 27.8245
#
#
#
# Elastic Compliance Matrix: (Units=1/GPa)
#
#
# Indices 1 2 3 4 5 6 
#
# 1 0.011130 -0.003336 -0.002932 0.000000 0.002593 0.000000
# 2 -0.003336 0.008921 -0.001365 0.000000 -0.001882 0.000000
# 3 -0.002932 -0.001365 0.008263 0.000000 0.002506 0.000000
# 4 0.000000 0.000000 0.000000 0.020153 0.000000 -0.002213
# 5 0.002593 -0.001882 0.002506 0.000000 0.024277 0.000000
# 6 0.000000 0.000000 0.000000 -0.002213 0.000000 0.036182
#
#
# Mechanical properties :
#
#
# Convention : Reuss Voigt Hill
#
# Bulk Modulus (GPa) = 76.62774 79.51643 78.07208
# Shear Modulus (GPa) = 38.89725 42.23309 40.56517
#
# Velocity S-wave (km/s) = 4.32017 4.50161 4.41182
# Velocity P-wave (km/s) = 7.85194 8.07299 7.96323
#
# Compressibility (1/GPa) = 0.01305010
#
# Stress axis : x y z
#
# Youngs Moduli (GPa) = 89.84439 112.08891 121.01437
#
# Poissons Ratio (x) = 0.37392 0.35479
# Poissons Ratio (y) = 0.29971 0.16518
# Poissons Ratio (z) = 0.26340 0.15299
#
# Static dielectric constant tensor:
#      x y z
#    x -6.441380 0.000000 -3.763610 
#    y 0.000000 3.544890 0.000000 
#    z -3.763610 0.000000 2.596950 
# 
# 
# High freq. dielectric constant tensor:
#      x y z
#    x 1.822970 0.000000 -0.004260 
#    y 0.000000 1.790380 0.000000 
#    z -0.004260 0.000000 1.840560 
# 
# From -- ./inp_files/187152.got.cif
#   From: 2010.06.25/outbox.cif.g09.slc.cpg/sg12_94_cif.got.tgz:187152.got - 2010.06.28 00:19:55.
