data_PCOD8094789
_publ_section_title
;
Structure prediction by ZEFSAII (Michael W. Deem and Ramdas Pophale) SiO2 
 PCOD8094789
Probable space group: C 2/M
;
_chemical_formula_sum "Si O2"
_cell_formula_units_Z 48
_cell_length_a 11.766423
_cell_length_b 23.141829
_cell_length_c 9.282936
_cell_angle_alpha 90.000000
_cell_angle_beta 110.491201
_cell_angle_gamma 90.000000
_cell_volume 2367.772923
_symmetry_space_group_name_H-M "C 2/M"
_symmetry_group_IT_number 12
_symmetry_cell_setting 'monoclinic'
loop_
_space_group_symop_operation_xyz
x,y,z
-x,y,-z
-x,-y,-z
x,-y,z
1/2+x,1/2+y,z
1/2-x,1/2+y,-z
1/2-x,1/2-y,-z
1/2+x,1/2-y,z
loop_
_atom_site_type_symbol
_atom_site_label
_atom_site_fract_x
_atom_site_fract_y
_atom_site_fract_z
Si Si1 0.024854 0.567328 0.669969
Si Si2 0.251841 0.362103 0.801519
Si Si3 0.559710 0.769518 0.677336
Si Si4 0.029858 0.934253 0.181095
Si Si5 0.840154 0.154817 0.155845
Si Si6 0.582723 0.851894 0.177167
O O1 0.022391 0.500000 0.658315
O O2 0.153847 0.587946 0.789102
O O3 0.000000 0.594526 0.500000
O O4 0.924018 0.587598 0.739425
O O5 0.182807 0.306804 0.702173
O O6 0.353180 0.392167 0.744472
O O7 0.308693 0.339666 0.974485
O O8 0.500000 0.754055 0.500000
O O9 0.582032 0.710400 0.770601
O O10 0.464891 0.803105 0.735758
O O11 0.918151 0.903908 0.215954
O O12 0.051084 0.000000 0.249557
O O13 0.000000 0.938030 0.000000
O O14 0.722267 0.156144 0.202526
O O15 0.500000 0.852641 0.000000
#
# Coordination Sequence:
#
# PCOD8094789 Si02
#       6
#     8   8   8   8   8   8
#     4  10  21  39  63  92 127 167 205 251 314 377
#     4  10  19  39  65  91 121 167 211 257 302 378
#     4  11  25  42  62  92 125 168 207 258 323 388
#     4   9  20  37  61  92 124 162 206 251 307 372
#     4  11  23  39  62  93 125 162 206 268 314 367
#     4  11  22  39  63  94 123 156 211 267 312 362
#
# _framework density 20.272214999999999
#
# number of rings (size 3 to 8) (size 9 to 14) (size 15 to 20)
#    0.000    1.667    3.333    3.000    2.333    3.000 
#    3.000    0.000    0.000    0.500    0.000    0.000 
#    0.000    0.000    0.000    0.000    0.000    0.000 
#
# Total GULP energy -297501.782793 kJ/mol
# GULP energy per Si atom -12395.907616 kJ/mol
# Density = 2.022607 g / cm^3
# Si number density = 20.272215 Si / 1000 Ang^3
#
#
#
# Elastic Constant Matrix: (Units=GPa)
#
#
# Indices 1 2 3 4 5 6 
#
# 1 108.9988 52.1995 34.6859 0.0000 3.2722 0.0000
# 2 52.1995 124.2388 48.0024 0.0000 8.1255 0.0000
# 3 34.6859 48.0024 97.3091 0.0000 0.4720 0.0000
# 4 0.0000 0.0000 0.0000 27.9731 0.0000 -1.1131
# 5 3.2722 8.1255 0.4720 0.0000 22.4536 0.0000
# 6 0.0000 0.0000 0.0000 -1.1131 0.0000 19.3635
#
#
#
# Elastic Compliance Matrix: (Units=1/GPa)
#
#
# Indices 1 2 3 4 5 6 
#
# 1 0.011850 -0.004120 -0.002191 0.000000 -0.000190 0.000000
# 2 -0.004120 0.011659 -0.004266 0.000000 -0.003529 0.000000
# 3 -0.002191 -0.004266 0.013154 0.000000 0.001586 0.000000
# 4 0.000000 0.000000 0.000000 0.035831 0.000000 0.002060
# 5 -0.000190 -0.003529 0.001586 0.000000 0.045808 0.000000
# 6 0.000000 0.000000 0.000000 0.002060 0.000000 0.051762
#
#
# Mechanical properties :
#
#
# Convention : Reuss Voigt Hill
#
# Bulk Modulus (GPa) = 64.47286 66.70251 65.58769
# Shear Modulus (GPa) = 25.45998 27.00199 26.23098
#
# Velocity S-wave (km/s) = 3.54772 3.65358 3.60104
# Velocity P-wave (km/s) = 6.97527 7.12552 7.05079
#
# Compressibility (1/GPa) = 0.01551040
#
# Stress axis : x y z
#
# Youngs Moduli (GPa) = 84.38550 85.77029 76.02286
#
# Poissons Ratio (x) = 0.35339 0.16654
# Poissons Ratio (y) = 0.34768 0.32429
# Poissons Ratio (z) = 0.18486 0.36587
#
# Static dielectric constant tensor:
#      x y z
#    x 3.985790 0.000000 -0.132890 
#    y 0.000000 3.842730 0.000000 
#    z -0.132890 0.000000 4.108300 
# 
# 
# High freq. dielectric constant tensor:
#      x y z
#    x 1.791740 0.000000 0.009980 
#    y 0.000000 1.799910 0.000000 
#    z 0.009980 0.000000 1.775240 
# 
# From -- ./inp_files/51439.got.cif
#   From: 2010.06.25/outbox.cif.g09.slc.cpg/sg12_26_cif.got.tgz:51439.got - 2010.06.28 00:19:55.
