data_PCOD8094601
_publ_section_title
;
Structure prediction by ZEFSAII (Michael W. Deem and Ramdas Pophale) SiO2 
 PCOD8094601
Probable space group: C 2/M
;
_chemical_formula_sum "Si O2"
_cell_formula_units_Z 64
_cell_length_a 14.588110
_cell_length_b 8.997078
_cell_length_c 25.702531
_cell_angle_alpha 90.000000
_cell_angle_beta 89.567694
_cell_angle_gamma 90.000000
_cell_volume 3373.370513
_symmetry_space_group_name_H-M "C 2/M"
_symmetry_group_IT_number 12
_symmetry_cell_setting 'monoclinic'
loop_
_space_group_symop_operation_xyz
x,y,z
-x,y,-z
-x,-y,-z
x,-y,z
1/2+x,1/2+y,z
1/2-x,1/2+y,-z
1/2-x,1/2-y,-z
1/2+x,1/2-y,z
loop_
_atom_site_type_symbol
_atom_site_label
_atom_site_fract_x
_atom_site_fract_y
_atom_site_fract_z
Si Si1 0.523069 0.323567 0.308828
Si Si2 0.499063 0.825521 0.582351
Si Si3 0.129289 0.170027 0.136818
Si Si4 0.425928 0.670860 0.114282
Si Si5 0.331992 0.175502 0.758256
Si Si6 0.279288 0.824918 0.052882
Si Si7 0.651500 0.826636 0.499592
Si Si8 0.874390 0.175642 0.227894
O O1 0.530806 0.500000 0.307652
O O2 0.497701 0.271427 0.366173
O O3 0.619071 0.253037 0.290661
O O4 0.445169 0.261866 0.270058
O O5 0.590929 0.783947 0.550146
O O6 0.407552 0.781093 0.550837
O O7 0.497458 0.000000 0.595426
O O8 0.124991 0.271906 0.187608
O O9 0.209105 0.224171 0.098333
O O10 0.034527 0.186023 0.105964
O O11 0.143789 0.000000 0.154939
O O12 0.393880 0.500000 0.109190
O O13 0.379097 0.766848 0.069169
O O14 0.397750 0.738130 0.170617
O O15 0.226684 0.226426 0.755395
O O16 0.343307 0.000000 0.753617
O O17 0.280675 0.000000 0.044705
O O18 0.250000 0.750000 0.000000
O O19 0.750000 0.750000 0.500000
O O20 0.670737 0.000000 0.498826
O O21 0.883986 0.000000 0.225682
#
# Coordination Sequence:
#
# PCOD8094601 Si02
#       8
#     8   8   8   8   8   8   8   8
#     4  11  22  38  57  83 118 154 193 237 281 336
#     4   9  20  39  57  82 118 156 190 236 292 339
#     4  10  21  38  60  83 111 146 186 229 279 338
#     4  10  19  38  62  81 109 147 184 228 279 337
#     4  11  21  35  57  84 112 148 188 230 281 338
#     4  11  24  40  59  86 115 146 186 235 285 337
#     4   9  19  37  62  85 115 153 195 239 288 343
#     4   9  19  35  56  80 110 149 186 223 279 338
#
# _framework density 18.972121999999999
#
# number of rings (size 3 to 8) (size 9 to 14) (size 15 to 20)
#    0.000    2.000    2.500    1.875    0.000    3.500 
#    0.000   10.000    0.000    0.000    0.000    0.000 
#    0.000    0.000    0.000    0.000    0.000    0.000 
#
# Total GULP energy -396871.394811 kJ/mol
# GULP energy per Si atom -12402.231088 kJ/mol
# Density = 1.892894 g / cm^3
# Si number density = 18.972122 Si / 1000 Ang^3
#
#
#
# Elastic Constant Matrix: (Units=GPa)
#
#
# Indices 1 2 3 4 5 6 
#
# 1 101.2989 29.5079 17.1921 0.0000 3.8476 0.0000
# 2 29.5079 60.7409 29.6322 0.0000 -0.3022 0.0000
# 3 17.1921 29.6322 76.4008 0.0000 6.7592 0.0000
# 4 0.0000 0.0000 0.0000 36.3984 0.0000 0.6888
# 5 3.8476 -0.3022 6.7592 0.0000 25.6334 0.0000
# 6 0.0000 0.0000 0.0000 0.6888 0.0000 32.1682
#
#
#
# Elastic Compliance Matrix: (Units=1/GPa)
#
#
# Indices 1 2 3 4 5 6 
#
# 1 0.011589 -0.005476 -0.000332 0.000000 -0.001717 0.000000
# 2 -0.005476 0.023035 -0.007985 0.000000 0.003199 0.000000
# 3 -0.000332 -0.007985 0.016653 0.000000 -0.004435 0.000000
# 4 0.000000 0.000000 0.000000 0.027485 0.000000 -0.000589
# 5 -0.001717 0.003199 -0.004435 0.000000 0.040477 0.000000
# 6 0.000000 0.000000 0.000000 -0.000589 0.000000 0.031099
#
#
# Mechanical properties :
#
#
# Convention : Reuss Voigt Hill
#
# Bulk Modulus (GPa) = 42.21133 43.45612 42.83372
# Shear Modulus (GPa) = 26.90774 29.64723 28.27749
#
# Velocity S-wave (km/s) = 3.77009 3.95735 3.86486
# Velocity P-wave (km/s) = 6.42253 6.62086 6.52245
#
# Compressibility (1/GPa) = 0.02369032
#
# Stress axis : x y z
#
# Youngs Moduli (GPa) = 86.29228 43.41202 60.04957
#
# Poissons Ratio (x) = 0.23774 0.01993
# Poissons Ratio (y) = 0.47257 0.47949
# Poissons Ratio (z) = 0.02864 0.34664
#
# Static dielectric constant tensor:
#      x y z
#    x 3.690310 0.000000 -0.011030 
#    y 0.000000 3.311490 0.000000 
#    z -0.011030 0.000000 3.429990 
# 
# 
# High freq. dielectric constant tensor:
#      x y z
#    x 1.749140 0.000000 -0.000740 
#    y 0.000000 1.725280 0.000000 
#    z -0.000740 0.000000 1.734380 
# 
# From -- ./inp_files/338921.got.cif
#   From: 2010.06.25/outbox.cif.g09.slc.cpg/sg12_170_cif.got.tgz:338921.got - 2010.06.28 00:19:55.
