data_PCOD8094736
_publ_section_title
;
Structure prediction by ZEFSAII (Michael W. Deem and Ramdas Pophale) SiO2 
 PCOD8094736
Probable space group: C 2/M
;
_chemical_formula_sum "Si O2"
_cell_formula_units_Z 56
_cell_length_a 15.492937
_cell_length_b 22.438469
_cell_length_c 9.564074
_cell_angle_alpha 90.000000
_cell_angle_beta 118.635216
_cell_angle_gamma 90.000000
_cell_volume 2918.168437
_symmetry_space_group_name_H-M "C 2/M"
_symmetry_group_IT_number 12
_symmetry_cell_setting 'monoclinic'
loop_
_space_group_symop_operation_xyz
x,y,z
-x,y,-z
-x,-y,-z
x,-y,z
1/2+x,1/2+y,z
1/2-x,1/2+y,-z
1/2-x,1/2-y,-z
1/2+x,1/2-y,z
loop_
_atom_site_type_symbol
_atom_site_label
_atom_site_fract_x
_atom_site_fract_y
_atom_site_fract_z
Si Si1 0.655098 0.160551 0.106227
Si Si2 0.819672 0.228164 0.364122
Si Si3 0.367795 0.933462 0.146363
Si Si4 0.500000 0.797250 0.500000
Si Si5 0.148021 0.817055 0.312480
Si Si6 0.422226 0.111305 0.662116
Si Si7 0.242805 0.568038 0.656274
Si Si8 0.000000 0.755012 0.000000
O O1 0.766152 0.182447 0.218636
O O2 0.605538 0.136722 0.209021
O O3 0.584839 0.213637 0.995792
O O4 0.667442 0.109735 0.002242
O O5 0.862449 0.192337 0.530405
O O6 0.742966 0.279829 0.341336
O O7 0.914091 0.257468 0.362672
O O8 0.485108 0.932248 0.255908
O O9 0.316407 0.914301 0.250088
O O10 0.336933 0.000000 0.079489
O O11 0.551416 0.833554 0.416505
O O12 0.165895 0.886897 0.291407
O O13 0.049022 0.796054 0.157547
O O14 0.331211 0.074230 0.531480
O O15 0.282026 0.500000 0.692153
#
# Coordination Sequence:
#
# PCOD8094736 Si02
#       8
#     8   8   8   4   8   8   8   4
#     4  11  22  38  55  89 121 156 191 234 292 355
#     4  10  20  36  59  82 121 152 190 236 292 353
#     4  11  23  37  55  86 124 157 192 239 291 346
#     4  12  20  34  63  88 113 150 190 242 286 344
#     4  10  19  39  57  86 114 157 193 238 290 344
#     4  12  19  36  58  85 119 152 193 232 286 356
#     4  11  22  38  60  84 116 156 203 242 282 343
#     4  10  20  34  60  82 118 146 188 242 286 342
#
# _framework density 19.190118999999999
#
# number of rings (size 3 to 8) (size 9 to 14) (size 15 to 20)
#    0.000    1.143    5.714    2.143    0.000    2.857 
#    5.143    2.500    0.000    0.000    0.000    1.000 
#    0.000    0.000    0.000    0.000    0.000    0.000 
#
# Total GULP energy -347210.857333 kJ/mol
# GULP energy per Si atom -12400.387762 kJ/mol
# Density = 1.914644 g / cm^3
# Si number density = 19.190119 Si / 1000 Ang^3
#
#
#
# Elastic Constant Matrix: (Units=GPa)
#
#
# Indices 1 2 3 4 5 6 
#
# 1 38.2659 28.0691 26.9193 0.0000 10.7483 0.0000
# 2 28.0691 111.6236 54.6035 0.0000 3.8214 0.0000
# 3 26.9193 54.6035 111.2658 0.0000 17.2830 0.0000
# 4 0.0000 0.0000 0.0000 30.4831 0.0000 5.5027
# 5 10.7483 3.8214 17.2830 0.0000 29.0050 0.0000
# 6 0.0000 0.0000 0.0000 5.5027 0.0000 26.5218
#
#
#
# Elastic Compliance Matrix: (Units=1/GPa)
#
#
# Indices 1 2 3 4 5 6 
#
# 1 0.036956 -0.007048 -0.003856 0.000000 -0.010469 0.000000
# 2 -0.007048 0.013249 -0.005434 0.000000 0.004104 0.000000
# 3 -0.003856 -0.005434 0.013504 0.000000 -0.005902 0.000000
# 4 0.000000 0.000000 0.000000 0.034082 0.000000 -0.007071
# 5 -0.010469 0.004104 -0.005902 0.000000 0.041332 0.000000
# 6 0.000000 0.000000 0.000000 -0.007071 0.000000 0.039172
#
#
# Mechanical properties :
#
#
# Convention : Reuss Voigt Hill
#
# Bulk Modulus (GPa) = 32.22499 53.37104 42.79802
# Shear Modulus (GPa) = 22.59221 27.30620 24.94920
#
# Velocity S-wave (km/s) = 3.43488 3.77627 3.60961
# Velocity P-wave (km/s) = 5.70615 6.84731 6.30261
#
# Compressibility (1/GPa) = 0.03103181
#
# Stress axis : x y z
#
# Youngs Moduli (GPa) = 27.05907 75.47847 74.05292
#
# Poissons Ratio (x) = 0.53201 0.28555
# Poissons Ratio (y) = 0.19072 0.40241
# Poissons Ratio (z) = 0.10434 0.41016
#
# Static dielectric constant tensor:
#      x y z
#    x 3.330610 0.000000 0.102910 
#    y 0.000000 3.588250 0.000000 
#    z 0.102910 0.000000 3.826110 
# 
# 
# High freq. dielectric constant tensor:
#      x y z
#    x 1.718560 0.000000 0.004230 
#    y 0.000000 1.740990 0.000000 
#    z 0.004230 0.000000 1.751490 
# 
# From -- ./inp_files/65478.got.cif
#   From: 2010.06.25/outbox.cif.g09.slc.cpg/sg12_33_cif.got.tgz:65478.got - 2010.06.28 00:19:55.
