data_PCOD8094502
_publ_section_title
;
Structure prediction by ZEFSAII (Michael W. Deem and Ramdas Pophale) SiO2 
 PCOD8094502
Probable space group: C 2/M
;
_chemical_formula_sum "Si O2"
_cell_formula_units_Z 48
_cell_length_a 23.628154
_cell_length_b 11.933923
_cell_length_c 9.659254
_cell_angle_alpha 90.000000
_cell_angle_beta 120.016165
_cell_angle_gamma 90.000000
_cell_volume 2358.394630
_symmetry_space_group_name_H-M "C 2/M"
_symmetry_group_IT_number 12
_symmetry_cell_setting 'monoclinic'
loop_
_space_group_symop_operation_xyz
x,y,z
-x,y,-z
-x,-y,-z
x,-y,z
1/2+x,1/2+y,z
1/2-x,1/2+y,-z
1/2-x,1/2-y,-z
1/2+x,1/2-y,z
loop_
_atom_site_type_symbol
_atom_site_label
_atom_site_fract_x
_atom_site_fract_y
_atom_site_fract_z
Si Si1 0.505133 0.870539 0.165093
Si Si2 0.148586 0.628063 0.444608
Si Si3 0.339873 0.683490 0.326376
Si Si4 0.697339 0.125128 0.210980
Si Si5 0.963764 0.000000 0.099512
Si Si6 0.941315 0.000000 0.534844
Si Si7 0.608543 0.723327 0.912060
O O1 0.575842 0.841833 0.308412
O O2 0.453773 0.801783 0.194103
O O3 0.487448 0.000000 0.157274
O O4 0.500000 0.830346 0.000000
O O5 0.154637 0.500000 0.500536
O O6 0.168196 0.701143 0.600279
O O7 0.195951 0.653698 0.372845
O O8 0.271474 0.619254 0.250364
O O9 0.397420 0.609993 0.462539
O O10 0.353191 0.707617 0.183043
O O11 0.666359 0.000000 0.151239
O O12 0.656393 0.218053 0.079909
O O13 0.916111 0.894393 0.058432
O O14 0.025651 0.000000 0.276371
O O15 0.000000 0.000000 0.000000
O O16 0.000000 0.000000 0.500000
#
# Coordination Sequence:
#
# PCOD8094502 Si02
#       7
#     8   8   8   8   4   4   8
#     4  10  19  37  66  95 122 166 215 269 329 388
#     4  10  23  41  66  98 130 165 221 276 331 404
#     4  12  25  44  67  97 134 178 221 275 339 406
#     4  11  24  46  68  93 131 180 227 271 335 405
#     4  12  28  44  68 108 138 176 230 280 332 397
#     4  12  24  48  72  94 138 181 223 281 341 401
#     4  12  24  42  67  98 134 174 221 277 334 396
#
# _framework density 20.352827000000001
#
# number of rings (size 3 to 8) (size 9 to 14) (size 15 to 20)
#    0.000    0.833    4.167    3.000    2.333    1.333 
#    1.500    1.667    0.000    0.000    0.000    0.000 
#    0.000    0.000    0.000    0.000    0.000    0.000 
#
# Total GULP energy -297695.671406 kJ/mol
# GULP energy per Si atom -12403.986309 kJ/mol
# Density = 2.030650 g / cm^3
# Si number density = 20.352827 Si / 1000 Ang^3
#
#
#
# Elastic Constant Matrix: (Units=GPa)
#
#
# Indices 1 2 3 4 5 6 
#
# 1 137.3425 51.0188 31.9550 0.0000 -19.7470 0.0000
# 2 51.0188 119.0288 54.1453 0.0000 -7.2276 0.0000
# 3 31.9550 54.1453 87.5359 0.0000 -18.0792 0.0000
# 4 0.0000 0.0000 0.0000 30.6681 0.0000 3.3907
# 5 -19.7470 -7.2276 -18.0792 0.0000 39.5670 0.0000
# 6 0.0000 0.0000 0.0000 3.3907 0.0000 28.8442
#
#
#
# Elastic Compliance Matrix: (Units=1/GPa)
#
#
# Indices 1 2 3 4 5 6 
#
# 1 0.009235 -0.003549 -0.000395 0.000000 0.003780 0.000000
# 2 -0.003549 0.013115 -0.007384 0.000000 -0.002750 0.000000
# 3 -0.000395 -0.007384 0.017465 0.000000 0.006434 0.000000
# 4 0.000000 0.000000 0.000000 0.033037 0.000000 -0.003884
# 5 0.003780 -0.002750 0.006434 0.000000 0.029598 0.000000
# 6 0.000000 0.000000 0.000000 -0.003884 0.000000 0.035126
#
#
# Mechanical properties :
#
#
# Convention : Reuss Voigt Hill
#
# Bulk Modulus (GPa) = 58.28586 68.68282 63.48434
# Shear Modulus (GPa) = 30.12952 33.60172 31.86562
#
# Velocity S-wave (km/s) = 3.85172 4.06761 3.96114
# Velocity P-wave (km/s) = 6.96282 7.47529 7.22360
#
# Compressibility (1/GPa) = 0.01715682
#
# Stress axis : x y z
#
# Youngs Moduli (GPa) = 108.28529 76.25049 57.25856
#
# Poissons Ratio (x) = 0.27061 0.02263
# Poissons Ratio (y) = 0.38430 0.42282
# Poissons Ratio (z) = 0.04280 0.56307
#
# Static dielectric constant tensor:
#      x y z
#    x 3.918790 0.000000 -0.054230 
#    y 0.000000 3.796590 0.000000 
#    z -0.054230 0.000000 3.421060 
# 
# 
# High freq. dielectric constant tensor:
#      x y z
#    x 1.812980 0.000000 -0.001980 
#    y 0.000000 1.808320 0.000000 
#    z -0.001980 0.000000 1.783440 
# 
# From -- ./inp_files/95011.got.cif
#   From: 2010.06.25/outbox.cif.g09.slc.cpg/sg12_48_cif.got.tgz:95011.got - 2010.06.28 00:19:55.
