data_PCOD8094802
_publ_section_title
;
Structure prediction by ZEFSAII (Michael W. Deem and Ramdas Pophale) SiO2 
 PCOD8094802
Probable space group: C 2/M
;
_chemical_formula_sum "Si O2"
_cell_formula_units_Z 64
_cell_length_a 19.610026
_cell_length_b 8.891825
_cell_length_c 18.604791
_cell_angle_alpha 90.000000
_cell_angle_beta 90.273873
_cell_angle_gamma 90.000000
_cell_volume 3244.060242
_symmetry_space_group_name_H-M "C 2/M"
_symmetry_group_IT_number 12
_symmetry_cell_setting 'monoclinic'
loop_
_space_group_symop_operation_xyz
x,y,z
-x,y,-z
-x,-y,-z
x,-y,z
1/2+x,1/2+y,z
1/2-x,1/2+y,-z
1/2-x,1/2-y,-z
1/2+x,1/2-y,z
loop_
_atom_site_type_symbol
_atom_site_label
_atom_site_fract_x
_atom_site_fract_y
_atom_site_fract_z
Si Si1 0.940923 0.825433 0.557157
Si Si2 0.252377 0.175244 0.212279
Si Si3 0.928477 0.674326 0.973777
Si Si4 0.099358 0.174830 0.175181
Si Si5 0.002133 0.177829 0.706456
Si Si6 0.820729 0.678308 0.477704
Si Si7 0.652624 0.322205 0.674379
Si Si8 0.202730 0.673533 0.941922
O O1 0.968432 0.762274 0.632981
O O2 0.876084 0.725070 0.537177
O O3 0.000000 0.802352 0.500000
O O4 0.918767 0.000000 0.561024
O O5 0.171601 0.204169 0.213872
O O6 0.284807 0.271523 0.276094
O O7 0.283496 0.237185 0.137534
O O8 0.269876 0.000000 0.223859
O O9 0.937716 0.500000 0.956178
O O10 0.900784 0.749248 0.901973
O O11 0.875808 0.701859 0.038393
O O12 0.000000 0.745520 0.000000
O O13 0.039623 0.242999 0.225514
O O14 0.087653 0.000000 0.161655
O O15 0.081343 0.225506 0.711871
O O16 0.995341 0.000000 0.705904
O O17 0.813483 0.500000 0.474571
O O18 0.750000 0.750000 0.500000
O O19 0.844037 0.739952 0.401222
O O20 0.655860 0.500000 0.660814
O O21 0.223037 0.500000 0.942931
O O22 0.250000 0.750000 0.000000
#
# Coordination Sequence:
#
# PCOD8094802 Si02
#       8
#     8   8   8   8   8   8   8   8
#     4  10  19  39  67  89 119 163 204 247 304 364
#     4  10  22  38  58  87 120 156 199 253 306 358
#     4  10  22  38  57  83 117 155 197 249 304 354
#     4  10  21  39  60  85 117 155 200 243 296 363
#     4   9  20  38  61  88 120 158 196 240 299 361
#     4  12  26  43  64  93 126 161 207 257 306 360
#     4  11  23  42  63  89 122 160 203 245 298 365
#     4  10  20  37  59  82 113 153 199 244 299 356
#
# _framework density 19.728363000000002
#
# number of rings (size 3 to 8) (size 9 to 14) (size 15 to 20)
#    0.000    1.750    2.500    1.500    3.500    1.500 
#    0.000    1.250    0.000    0.000    0.000    0.000 
#    0.000    0.000    0.000    0.000    0.000    0.000 
#
# Total GULP energy -396884.143280 kJ/mol
# GULP energy per Si atom -12402.629477 kJ/mol
# Density = 1.968346 g / cm^3
# Si number density = 19.728363 Si / 1000 Ang^3
#
#
#
# Elastic Constant Matrix: (Units=GPa)
#
#
# Indices 1 2 3 4 5 6 
#
# 1 107.8312 37.6682 15.0360 0.0000 -2.0514 0.0000
# 2 37.6682 66.6629 16.3433 0.0000 0.8027 0.0000
# 3 15.0360 16.3433 57.5037 0.0000 -3.2977 0.0000
# 4 0.0000 0.0000 0.0000 30.3106 0.0000 3.6441
# 5 -2.0514 0.8027 -3.2977 0.0000 40.7263 0.0000
# 6 0.0000 0.0000 0.0000 3.6441 0.0000 28.4137
#
#
#
# Elastic Compliance Matrix: (Units=1/GPa)
#
#
# Indices 1 2 3 4 5 6 
#
# 1 0.011654 -0.006293 -0.001224 0.000000 0.000612 0.000000
# 2 -0.006293 0.019541 -0.003967 0.000000 -0.001023 0.000000
# 3 -0.001224 -0.003967 0.018927 0.000000 0.001549 0.000000
# 4 0.000000 0.000000 0.000000 0.033508 0.000000 -0.004298
# 5 0.000612 -0.001023 0.001549 0.000000 0.024731 0.000000
# 6 0.000000 0.000000 0.000000 -0.004298 0.000000 0.035745
#
#
# Mechanical properties :
#
#
# Convention : Reuss Voigt Hill
#
# Bulk Modulus (GPa) = 36.82570 41.12142 38.97356
# Shear Modulus (GPa) = 28.38882 30.75347 29.57115
#
# Velocity S-wave (km/s) = 3.79751 3.95251 3.87578
# Velocity P-wave (km/s) = 6.15914 6.45901 6.31086
#
# Compressibility (1/GPa) = 0.02715495
#
# Stress axis : x y z
#
# Youngs Moduli (GPa) = 85.80588 51.17325 52.83577
#
# Poissons Ratio (x) = 0.32201 0.06466
# Poissons Ratio (y) = 0.53994 0.20961
# Poissons Ratio (z) = 0.10501 0.20302
#
# Static dielectric constant tensor:
#      x y z
#    x 3.248100 0.000000 -0.401650 
#    y 0.000000 3.472580 0.000000 
#    z -0.401650 0.000000 3.763680 
# 
# 
# High freq. dielectric constant tensor:
#      x y z
#    x 1.785190 0.000000 -0.004240 
#    y 0.000000 1.747140 0.000000 
#    z -0.004240 0.000000 1.776600 
# 
# From -- ./inp_files/281346.got.cif
#   From: 2010.06.25/outbox.cif.g09.slc.cpg/sg12_141_cif.got.tgz:281346.got - 2010.06.28 00:19:55.
