data_PCOD8094500
_publ_section_title
;
Structure prediction by ZEFSAII (Michael W. Deem and Ramdas Pophale) SiO2 
 PCOD8094500
Probable space group: C 2/M
;
_chemical_formula_sum "Si O2"
_cell_formula_units_Z 48
_cell_length_a 19.483508
_cell_length_b 15.360084
_cell_length_c 18.008154
_cell_angle_alpha 90.000000
_cell_angle_beta 29.326884
_cell_angle_gamma 90.000000
_cell_volume 2639.619089
_symmetry_space_group_name_H-M "C 2/M"
_symmetry_group_IT_number 12
_symmetry_cell_setting 'monoclinic'
loop_
_space_group_symop_operation_xyz
x,y,z
-x,y,-z
-x,-y,-z
x,-y,z
1/2+x,1/2+y,z
1/2-x,1/2+y,-z
1/2-x,1/2-y,-z
1/2+x,1/2-y,z
loop_
_atom_site_type_symbol
_atom_site_label
_atom_site_fract_x
_atom_site_fract_y
_atom_site_fract_z
Si Si1 0.597501 0.686983 0.037139
Si Si2 0.500000 0.299249 0.500000
Si Si3 0.269544 0.896918 0.309586
Si Si4 0.500000 0.189918 0.000000
Si Si5 0.400613 0.500000 0.026603
Si Si6 0.913064 0.317963 0.722301
Si Si7 0.613579 0.213811 0.665704
Si Si8 0.595475 0.000000 0.339433
O O1 0.485793 0.712240 0.205115
O O2 0.566915 0.745429 0.995395
O O3 0.576355 0.584415 0.045589
O O4 0.761185 0.704168 0.901355
O O5 0.620335 0.357633 0.424874
O O6 0.559836 0.241545 0.375857
O O7 0.333815 0.858332 0.325234
O O8 0.251973 0.000000 0.335762
O O9 0.380236 0.874421 0.141601
O O10 0.257441 0.500000 0.208061
O O11 0.500000 0.500000 0.000000
O O12 0.932332 0.416520 0.682450
O O13 0.025615 0.320126 0.680448
O O14 0.750000 0.250000 0.500000
O O15 0.500000 0.000000 0.500000
#
# Coordination Sequence:
#
# PCOD8094500 Si02
#       8
#     8   4   8   4   4   8   8   4
#     4  10  21  38  61  88 121 161 195 244 304 358
#     4  12  21  39  68  84 122 160 200 253 299 356
#     4  11  24  41  62  90 118 156 205 253 300 353
#     4  10  19  37  66  88 116 154 202 251 299 352
#     4  10  20  34  60  92 124 148 197 248 294 358
#     4  11  22  40  60  90 124 161 197 245 305 362
#     4  11  24  41  62  86 120 161 201 248 307 357
#     4  10  22  34  60  94 122 155 198 246 299 357
#
# _framework density 18.184442000000001
#
# number of rings (size 3 to 8) (size 9 to 14) (size 15 to 20)
#    0.000    1.333    5.000    1.000    1.167    1.333 
#    1.500    0.000    0.000    0.000    0.000    0.000 
#    0.000    0.000    0.000    0.000    0.000    0.000 
#
# Total GULP energy -297332.026632 kJ/mol
# GULP energy per Si atom -12388.834443 kJ/mol
# Density = 1.814305 g / cm^3
# Si number density = 18.184442 Si / 1000 Ang^3
#
#
#
# Elastic Constant Matrix: (Units=GPa)
#
#
# Indices 1 2 3 4 5 6 
#
# 1 121.9237 48.0200 66.3421 0.0000 -20.6412 -0.0002
# 2 48.0200 136.2921 73.8615 0.0001 -6.9104 -0.0001
# 3 66.3421 73.8615 166.5940 0.0010 -3.5273 0.0002
# 4 0.0000 0.0001 0.0010 12.0172 -0.0003 -30.9040
# 5 -20.6412 -6.9104 -3.5273 -0.0003 35.4336 -0.0001
# 6 -0.0002 -0.0001 0.0002 -30.9040 -0.0001 -16.7496
#
#
#
# Elastic Compliance Matrix: (Units=1/GPa)
#
#
# Indices 1 2 3 4 5 6 
#
# 1 0.012101 -0.001849 -0.003866 0.000000 0.006304 0.000000
# 2 -0.001849 0.010016 -0.003694 0.000000 0.000509 0.000000
# 3 -0.003866 -0.003694 0.009136 0.000000 -0.002063 0.000000
# 4 0.000000 0.000000 0.000000 0.014485 0.000000 -0.026726
# 5 0.006304 0.000509 -0.002063 0.000000 0.031788 0.000000
# 6 0.000000 0.000000 0.000000 -0.026726 0.000000 -0.010392
#
#
# Mechanical properties :
#
#
# Convention : Reuss Voigt Hill
#
# Bulk Modulus (GPa) = 80.40982 89.02856 84.71919
# Shear Modulus (GPa) = 55.49712 21.91267 38.70489
#
# Velocity S-wave (km/s) = 5.53039 3.47511 4.61853
# Velocity P-wave (km/s) = 9.22472 8.07259 8.66782
#
# Compressibility (1/GPa) = 0.01243629
#
# Stress axis : x y z
#
# Youngs Moduli (GPa) = 82.64059 99.83860 109.45741
#
# Poissons Ratio (x) = 0.18459 0.42311
# Poissons Ratio (y) = 0.15280 0.40431
# Poissons Ratio (z) = 0.31945 0.36878
#
# Static dielectric constant tensor:
#      x y z
#    x 3.391650 0.000000 -0.079490 
#    y 0.000000 4.185190 0.000000 
#    z -0.079490 0.000000 3.687500 
# 
# 
# High freq. dielectric constant tensor:
#      x y z
#    x 1.712650 0.000000 -0.011500 
#    y 0.000000 1.707490 0.000000 
#    z -0.011500 0.000000 1.724540 
# 
# From -- ./inp_files/278113.got.cif
#   From: 2010.06.25/outbox.cif.g09.slc.cpg/sg12_140_cif.got.tgz:278113.got - 2010.06.28 00:19:55.
