data_PCOD8094786
_publ_section_title
;
Structure prediction by ZEFSAII (Michael W. Deem and Ramdas Pophale) SiO2 
 PCOD8094786
Probable space group: C 2/M
;
_chemical_formula_sum "Si O2"
_cell_formula_units_Z 64
_cell_length_a 24.314054
_cell_length_b 8.817959
_cell_length_c 15.291971
_cell_angle_alpha 90.000000
_cell_angle_beta 89.219155
_cell_angle_gamma 90.000000
_cell_volume 3278.299184
_symmetry_space_group_name_H-M "C 2/M"
_symmetry_group_IT_number 12
_symmetry_cell_setting 'monoclinic'
loop_
_space_group_symop_operation_xyz
x,y,z
-x,y,-z
-x,-y,-z
x,-y,z
1/2+x,1/2+y,z
1/2-x,1/2+y,-z
1/2-x,1/2-y,-z
1/2+x,1/2-y,z
loop_
_atom_site_type_symbol
_atom_site_label
_atom_site_fract_x
_atom_site_fract_y
_atom_site_fract_z
Si Si1 0.128321 0.830961 0.644973
Si Si2 0.507307 0.321072 0.600121
Si Si3 0.121242 0.168233 0.847769
Si Si4 0.806118 0.678835 0.744432
Si Si5 0.736375 0.177621 0.591715
Si Si6 0.433343 0.179137 0.750700
Si Si7 0.004412 0.820591 0.898359
Si Si8 0.234295 0.819266 0.909360
O O1 0.068092 0.767478 0.624976
O O2 0.136278 0.841596 0.747128
O O3 0.172529 0.713392 0.608785
O O4 0.136637 0.000000 0.603869
O O5 0.500000 0.271538 0.500000
O O6 0.499859 0.500000 0.613511
O O7 0.463594 0.240450 0.663731
O O8 0.063003 0.250020 0.865849
O O9 0.173346 0.248566 0.891905
O O10 0.114763 0.000000 0.888030
O O11 0.799514 0.500000 0.732374
O O12 0.776588 0.756454 0.663820
O O13 0.869714 0.728414 0.746161
O O14 0.777137 0.734459 0.834391
O O15 0.750000 0.250000 0.500000
O O16 0.745334 0.000000 0.587762
O O17 0.457232 0.244746 0.840835
O O18 0.439742 0.000000 0.753157
O O19 0.000288 0.000000 0.882133
O O20 0.000000 0.777358 0.000000
O O21 0.233090 0.000000 0.913333
O O22 0.250000 0.750000 0.000000
#
# Coordination Sequence:
#
# PCOD8094786 Si02
#       8
#     8   8   8   8   8   8   8   8
#     4  10  19  39  65  87 121 159 198 250 304 356
#     4  10  22  40  64  92 121 158 203 246 297 362
#     4   9  17  35  61  84 112 155 198 245 299 351
#     4  10  23  44  62  84 124 167 202 248 309 362
#     4  12  26  42  64  93 123 158 204 252 303 362
#     4  11  24  40  60  88 125 162 200 252 310 361
#     4  10  21  38  62  90 119 158 208 254 301 363
#     4  10  21  38  60  85 117 154 199 248 300 357
#
# _framework density 19.522317999999999
#
# number of rings (size 3 to 8) (size 9 to 14) (size 15 to 20)
#    0.000    1.750    2.500    1.500    3.500    2.500 
#    0.000    0.625    0.000    0.000    0.000    0.000 
#    0.000    0.000    0.000    0.000    0.000    0.000 
#
# Total GULP energy -396761.847922 kJ/mol
# GULP energy per Si atom -12398.807748 kJ/mol
# Density = 1.947788 g / cm^3
# Si number density = 19.522318 Si / 1000 Ang^3
#
#
#
# Elastic Constant Matrix: (Units=GPa)
#
#
# Indices 1 2 3 4 5 6 
#
# 1 162.4414 50.8791 67.6898 0.0000 1.8620 0.0000
# 2 50.8791 55.7457 47.1452 0.0000 0.3088 0.0000
# 3 67.6898 47.1452 144.0703 0.0000 2.5702 0.0000
# 4 0.0000 0.0000 0.0000 30.7291 0.0000 0.3366
# 5 1.8620 0.3088 2.5702 0.0000 34.2989 0.0000
# 6 0.0000 0.0000 0.0000 0.3366 0.0000 28.7598
#
#
#
# Elastic Compliance Matrix: (Units=1/GPa)
#
#
# Indices 1 2 3 4 5 6 
#
# 1 0.009080 -0.006473 -0.002143 0.000000 -0.000274 0.000000
# 2 -0.006473 0.029423 -0.006597 0.000000 0.000581 0.000000
# 3 -0.002143 -0.006597 0.010117 0.000000 -0.000582 0.000000
# 4 0.000000 0.000000 0.000000 0.032547 0.000000 -0.000381
# 5 -0.000274 0.000581 -0.000582 0.000000 0.029209 0.000000
# 6 0.000000 0.000000 0.000000 -0.000381 0.000000 0.034775
#
#
# Mechanical properties :
#
#
# Convention : Reuss Voigt Hill
#
# Bulk Modulus (GPa) = 54.96604 77.07618 66.02111
# Shear Modulus (GPa) = 27.52678 31.86046 29.69362
#
# Velocity S-wave (km/s) = 3.75909 4.04419 3.90424
# Velocity P-wave (km/s) = 6.85986 7.83416 7.36314
#
# Compressibility (1/GPa) = 0.01819305
#
# Stress axis : x y z
#
# Youngs Moduli (GPa) = 110.13659 33.98700 98.84277
#
# Poissons Ratio (x) = 0.22001 0.21180
# Poissons Ratio (y) = 0.71295 0.65209
# Poissons Ratio (z) = 0.23600 0.22422
#
# Static dielectric constant tensor:
#      x y z
#    x 4.420390 0.000000 0.136320 
#    y 0.000000 3.471840 0.000000 
#    z 0.136320 0.000000 3.634190 
# 
# 
# High freq. dielectric constant tensor:
#      x y z
#    x 1.781530 0.000000 0.002350 
#    y 0.000000 1.734520 0.000000 
#    z 0.002350 0.000000 1.770330 
# 
# From -- ./inp_files/238583.got.cif
#   From: 2010.06.25/outbox.cif.g09.slc.cpg/sg12_120_cif.got.tgz:238583.got - 2010.06.28 00:19:55.
