data_PCOD8094455
_publ_section_title
;
Structure prediction by ZEFSAII (Michael W. Deem and Ramdas Pophale) SiO2 
 PCOD8094455
Probable space group: C 2/M
;
_chemical_formula_sum "Si O2"
_cell_formula_units_Z 40
_cell_length_a 23.919725
_cell_length_b 8.404347
_cell_length_c 9.641168
_cell_angle_alpha 90.000000
_cell_angle_beta 103.595497
_cell_angle_gamma 90.000000
_cell_volume 1883.852534
_symmetry_space_group_name_H-M "C 2/M"
_symmetry_group_IT_number 12
_symmetry_cell_setting 'monoclinic'
loop_
_space_group_symop_operation_xyz
x,y,z
-x,y,-z
-x,-y,-z
x,-y,z
1/2+x,1/2+y,z
1/2-x,1/2+y,-z
1/2-x,1/2-y,-z
1/2+x,1/2-y,z
loop_
_atom_site_type_symbol
_atom_site_label
_atom_site_fract_x
_atom_site_fract_y
_atom_site_fract_z
Si Si1 0.647077 0.687019 0.293978
Si Si2 0.519838 0.689585 0.158103
Si Si3 0.667782 0.817369 0.599374
Si Si4 0.761290 0.685319 0.853419
Si Si5 0.946802 0.178966 0.367213
O O1 0.645502 0.500000 0.319808
O O2 0.582649 0.755801 0.236235
O O3 0.676618 0.767369 0.444814
O O4 0.683512 0.725710 0.178205
O O5 0.523571 0.500000 0.156808
O O6 0.470521 0.745168 0.235514
O O7 0.500000 0.760515 0.000000
O O8 0.706498 0.712677 0.723640
O O9 0.601703 0.795649 0.604463
O O10 0.686223 0.000000 0.626318
O O11 0.775003 0.500000 0.870481
O O12 0.750000 0.750000 0.000000
O O13 0.000000 0.176544 0.500000
O O14 0.921462 0.000000 0.338607
#
# Coordination Sequence:
#
# PCOD8094455 Si02
#       5
#     8   8   8   8   8
#     4  11  22  42  68  96 129 171 219 267 318 383
#     4   9  19  35  60  94 128 166 209 255 315 382
#     4  12  25  42  65  95 130 172 218 269 322 379
#     4  12  27  47  68  95 128 166 211 267 327 388
#     4  10  19  37  63  93 127 167 213 261 317 385
#
# _framework density 21.233084999999999
#
# number of rings (size 3 to 8) (size 9 to 14) (size 15 to 20)
#    0.000    1.200    2.000    4.800    2.800    0.400 
#    0.000    0.000    0.000    3.000    0.000    0.000 
#    0.000    0.000    0.000    0.000    0.000    0.000 
#
# Total GULP energy -248078.156265 kJ/mol
# GULP energy per Si atom -12403.907813 kJ/mol
# Density = 2.118476 g / cm^3
# Si number density = 21.233085 Si / 1000 Ang^3
#
#
#
# Elastic Constant Matrix: (Units=GPa)
#
#
# Indices 1 2 3 4 5 6 
#
# 1 83.3887 10.9633 28.0518 0.0000 -12.9782 0.0000
# 2 10.9633 60.0551 13.9760 0.0000 -0.0579 0.0000
# 3 28.0518 13.9760 144.2692 0.0000 -17.1921 0.0000
# 4 0.0000 0.0000 0.0000 29.0399 0.0000 -3.0150
# 5 -12.9782 -0.0579 -17.1921 0.0000 42.7387 0.0000
# 6 0.0000 0.0000 0.0000 -3.0150 0.0000 51.6665
#
#
#
# Elastic Compliance Matrix: (Units=1/GPa)
#
#
# Indices 1 2 3 4 5 6 
#
# 1 0.013444 -0.001978 -0.002034 0.000000 0.003262 0.000000
# 2 -0.001978 0.017345 -0.001433 0.000000 -0.001154 0.000000
# 3 -0.002034 -0.001433 0.007764 0.000000 0.002504 0.000000
# 4 0.000000 0.000000 0.000000 0.034645 0.000000 0.002022
# 5 0.003262 -0.001154 0.002504 0.000000 0.025394 0.000000
# 6 0.000000 0.000000 0.000000 0.002022 0.000000 0.019473
#
#
# Mechanical properties :
#
#
# Convention : Reuss Voigt Hill
#
# Bulk Modulus (GPa) = 36.14891 43.74392 39.94642
# Shear Modulus (GPa) = 36.18585 40.33713 38.26149
#
# Velocity S-wave (km/s) = 4.13270 4.36332 4.24957
# Velocity P-wave (km/s) = 6.31142 6.78463 6.55230
#
# Compressibility (1/GPa) = 0.02766335
#
# Stress axis : x y z
#
# Youngs Moduli (GPa) = 74.38359 57.65398 128.79748
#
# Poissons Ratio (x) = 0.11403 0.26194
# Poissons Ratio (y) = 0.14711 0.18459
# Poissons Ratio (z) = 0.15128 0.08263
#
# Static dielectric constant tensor:
#      x y z
#    x 4.005010 0.000000 -0.229920 
#    y 0.000000 3.593830 0.000000 
#    z -0.229920 0.000000 4.196240 
# 
# 
# High freq. dielectric constant tensor:
#      x y z
#    x 1.844220 0.000000 -0.008100 
#    y 0.000000 1.809550 0.000000 
#    z -0.008100 0.000000 1.845450 
# 
# From -- ./inp_files/92837.got.cif
#   From: 2010.06.25/outbox.cif.g09.slc.cpg/sg12_47_cif.got.tgz:92837.got - 2010.06.28 00:19:55.
