data_PCOD8094088
_publ_section_title
;
Structure prediction by ZEFSAII (Michael W. Deem and Ramdas Pophale) SiO2 
 PCOD8094088
Probable space group: C 2/M
;
_chemical_formula_sum "Si O2"
_cell_formula_units_Z 40
_cell_length_a 18.374852
_cell_length_b 13.950837
_cell_length_c 20.805544
_cell_angle_alpha 90.000000
_cell_angle_beta 21.437255
_cell_angle_gamma 90.000000
_cell_volume 1949.257896
_symmetry_space_group_name_H-M "C 2/M"
_symmetry_group_IT_number 12
_symmetry_cell_setting 'monoclinic'
loop_
_space_group_symop_operation_xyz
x,y,z
-x,y,-z
-x,-y,-z
x,-y,z
1/2+x,1/2+y,z
1/2-x,1/2+y,-z
1/2-x,1/2-y,-z
1/2+x,1/2-y,z
loop_
_atom_site_type_symbol
_atom_site_label
_atom_site_fract_x
_atom_site_fract_y
_atom_site_fract_z
Si Si1 0.172299 0.390026 0.616327
Si Si2 0.529244 0.609314 0.853133
Si Si3 0.938951 0.894181 0.781377
Si Si4 0.848138 0.295146 0.799476
Si Si5 0.624600 0.248289 0.456743
O O1 0.138155 0.500000 0.664462
O O2 0.332023 0.378917 0.427990
O O3 0.245263 0.332873 0.619070
O O4 0.966943 0.346473 0.759730
O O5 0.573387 0.500000 0.836026
O O6 0.431705 0.618222 0.863170
O O7 0.734862 0.666163 0.688079
O O8 0.363521 0.653117 0.037679
O O9 0.804317 0.815085 0.856486
O O10 0.863335 0.000000 0.822768
O O11 0.973355 0.300320 0.631337
O O12 0.500000 0.292617 0.500000
#
# Coordination Sequence:
#
# PCOD8094088 Si02
#       5
#     8   8   8   8   8
#     4  10  19  36  63  90 115 148 193 241 288 340
#     4  11  22  36  60  89 114 146 195 243 288 342
#     4   9  17  32  57  88 118 144 181 238 291 335
#     4  11  20  38  61  88 115 148 194 243 289 337
#     4  11  24  41  58  82 122 161 189 232 288 344
#
# _framework density 20.520631000000002
#
# number of rings (size 3 to 8) (size 9 to 14) (size 15 to 20)
#    0.000    1.600    4.000    2.400    0.000    2.400 
#    0.000    1.000    0.000    0.000    0.000    7.000 
#    0.000    0.000    0.000    0.000    0.000    0.000 
#
# Total GULP energy -248049.684056 kJ/mol
# GULP energy per Si atom -12402.484203 kJ/mol
# Density = 2.047393 g / cm^3
# Si number density = 20.520631 Si / 1000 Ang^3
#
#
#
# Elastic Constant Matrix: (Units=GPa)
#
#
# Indices 1 2 3 4 5 6 
#
# 1 73.9875 21.5974 22.6182 0.0163 -8.6020 -0.0036
# 2 21.5974 129.5157 39.3963 0.0715 -0.3049 -0.0038
# 3 22.6182 39.3963 85.6148 0.0795 4.6349 -0.0092
# 4 0.0163 0.0715 0.0795 27.7518 -0.0219 5.4553
# 5 -8.6020 -0.3049 4.6349 -0.0219 6.5677 0.0029
# 6 -0.0036 -0.0038 -0.0092 5.4553 0.0029 12.8775
#
#
#
# Elastic Compliance Matrix: (Units=1/GPa)
#
#
# Indices 1 2 3 4 5 6 
#
# 1 0.019146 -0.001282 -0.006054 0.000037 0.029289 -0.000021
# 2 -0.001282 0.009140 -0.003950 -0.000011 0.001532 0.000004
# 3 -0.006054 -0.003950 0.016154 -0.000055 -0.019512 0.000036
# 4 0.000037 -0.000011 -0.000055 0.039307 0.000225 -0.016652
# 5 0.029289 0.001532 -0.019512 0.000225 0.204464 -0.000146
# 6 -0.000021 0.000004 0.000036 -0.016652 -0.000146 0.084709
#
#
# Mechanical properties :
#
#
# Convention : Reuss Voigt Hill
#
# Bulk Modulus (GPa) = 45.73004 50.70465 48.21735
# Shear Modulus (GPa) = 12.41371 23.13981 17.77676
#
# Velocity S-wave (km/s) = 2.46222 3.36167 2.94647
# Velocity P-wave (km/s) = 5.51513 6.31114 5.92652
#
# Compressibility (1/GPa) = 0.02186746
#
# Stress axis : x y z
#
# Youngs Moduli (GPa) = 52.23042 109.40861 61.90596
#
# Poissons Ratio (x) = 0.14030 0.37476
# Poissons Ratio (y) = 0.06698 0.24453
# Poissons Ratio (z) = 0.31618 0.43217
#
# Static dielectric constant tensor:
#      x y z
#    x 3.298310 -0.000040 0.152510 
#    y -0.000040 3.956310 0.000140 
#    z 0.152510 0.000140 3.640950 
# 
# 
# High freq. dielectric constant tensor:
#      x y z
#    x 1.763450 0.000000 0.014540 
#    y 0.000000 1.810670 0.000020 
#    z 0.014540 0.000020 1.804520 
# 
# From -- ./inp_files/72408.got.cif
#   From: 2010.06.25/outbox.cif.g09.slc.cpg/sg12_37_cif.got.tgz:72408.got - 2010.06.28 00:19:55.
