data_PCOD8094822
_publ_section_title
;
Structure prediction by ZEFSAII (Michael W. Deem and Ramdas Pophale) SiO2 
 PCOD8094822
Probable space group: C 2/M
;
_chemical_formula_sum "Si O2"
_cell_formula_units_Z 56
_cell_length_a 18.648632
_cell_length_b 19.549068
_cell_length_c 15.568673
_cell_angle_alpha 90.000000
_cell_angle_beta 148.882238
_cell_angle_gamma 90.000000
_cell_volume 2933.229803
_symmetry_space_group_name_H-M "C 2/M"
_symmetry_group_IT_number 12
_symmetry_cell_setting 'monoclinic'
loop_
_space_group_symop_operation_xyz
x,y,z
-x,y,-z
-x,-y,-z
x,-y,z
1/2+x,1/2+y,z
1/2-x,1/2+y,-z
1/2-x,1/2-y,-z
1/2+x,1/2-y,z
loop_
_atom_site_type_symbol
_atom_site_label
_atom_site_fract_x
_atom_site_fract_y
_atom_site_fract_z
Si Si1 0.670254 0.828682 0.999508
Si Si2 0.563878 0.313657 0.831433
Si Si3 0.728036 0.316859 0.533820
Si Si4 0.340387 0.223651 0.832658
Si Si5 0.620106 0.629065 0.067162
Si Si6 0.043509 0.581241 0.287225
Si Si7 0.581821 0.921581 0.662780
O O1 0.800776 0.844906 0.073947
O O2 0.729172 0.809948 0.154143
O O3 0.578564 0.767408 0.863869
O O4 0.569347 0.894767 0.899650
O O5 0.435276 0.332682 0.638623
O O6 0.542660 0.349135 0.901135
O O7 0.750000 0.250000 0.500000
O O8 0.767918 0.304241 0.673350
O O9 0.810310 0.381638 0.579436
O O10 0.326138 0.305520 0.823532
O O11 0.500000 0.201023 0.000000
O O12 0.752837 0.583356 0.180966
O O13 0.500000 0.590499 0.000000
O O14 0.065994 0.500000 0.305625
O O15 0.976151 0.608980 0.307686
O O16 0.500000 0.885475 0.500000
O O17 0.539509 0.000000 0.622004
#
# Coordination Sequence:
#
# PCOD8094822 Si02
#       7
#     8   8   8   8   8   8   8
#     4  10  19  40  59  84 122 155 205 250 299 366
#     4  10  21  35  59  88 117 157 195 252 306 355
#     4  12  22  37  61  90 123 158 203 258 310 359
#     4  10  20  35  58  90 119 147 201 257 303 364
#     4  10  20  35  56  85 118 152 194 247 309 356
#     4  11  23  41  63  87 123 170 208 246 304 372
#     4  10  23  39  56  84 121 162 207 242 289 371
#
# _framework density 19.091581999999999
#
# number of rings (size 3 to 8) (size 9 to 14) (size 15 to 20)
#    0.000    1.571    4.286    1.714    4.000    0.857 
#    0.000    2.857    0.000    0.000    0.000    2.000 
#    0.000    0.000    0.000    0.000    0.000    0.000 
#
# Total GULP energy -347107.527151 kJ/mol
# GULP energy per Si atom -12396.697398 kJ/mol
# Density = 1.904813 g / cm^3
# Si number density = 19.091582 Si / 1000 Ang^3
#
#
#
# Elastic Constant Matrix: (Units=GPa)
#
#
# Indices 1 2 3 4 5 6 
#
# 1 101.3761 25.8415 42.0096 0.0000 -1.0703 0.0000
# 2 25.8415 63.6985 30.4250 0.0000 3.6412 0.0000
# 3 42.0096 30.4250 131.4775 0.0000 -0.8138 0.0000
# 4 0.0000 0.0000 0.0000 19.7523 0.0000 6.0623
# 5 -1.0703 3.6412 -0.8138 0.0000 27.8839 0.0000
# 6 0.0000 0.0000 0.0000 6.0623 0.0000 20.9261
#
#
#
# Elastic Compliance Matrix: (Units=1/GPa)
#
#
# Indices 1 2 3 4 5 6 
#
# 1 0.012014 -0.003474 -0.003030 0.000000 0.000826 0.000000
# 2 -0.003474 0.018820 -0.003262 0.000000 -0.002686 0.000000
# 3 -0.003030 -0.003262 0.009332 0.000000 0.000582 0.000000
# 4 0.000000 0.000000 0.000000 0.055568 0.000000 -0.016098
# 5 0.000826 -0.002686 0.000582 0.000000 0.036262 0.000000
# 6 0.000000 0.000000 0.000000 -0.016098 0.000000 0.052451
#
#
# Mechanical properties :
#
#
# Convention : Reuss Voigt Hill
#
# Bulk Modulus (GPa) = 48.46058 54.78935 51.62496
# Shear Modulus (GPa) = 23.71284 26.93086 25.32185
#
# Velocity S-wave (km/s) = 3.52811 3.75989 3.64584
# Velocity P-wave (km/s) = 6.48344 6.89996 6.69494
#
# Compressibility (1/GPa) = 0.02063533
#
# Stress axis : x y z
#
# Youngs Moduli (GPa) = 83.23610 53.13564 107.15495
#
# Poissons Ratio (x) = 0.18460 0.32464
# Poissons Ratio (y) = 0.28917 0.34950
# Poissons Ratio (z) = 0.25218 0.17331
#
# Static dielectric constant tensor:
#      x y z
#    x 3.782700 0.000000 -0.086540 
#    y 0.000000 3.165210 0.000000 
#    z -0.086540 0.000000 3.618650 
# 
# 
# High freq. dielectric constant tensor:
#      x y z
#    x 1.757280 0.000000 0.001040 
#    y 0.000000 1.703660 0.000000 
#    z 0.001040 0.000000 1.740050 
# 
# From -- ./inp_files/227637.got.cif
#   From: 2010.06.25/outbox.cif.g09.slc.cpg/sg12_114_cif.got.tgz:227637.got - 2010.06.28 00:19:55.
