data_PCOD8094723
_publ_section_title
;
Structure prediction by ZEFSAII (Michael W. Deem and Ramdas Pophale) SiO2 
 PCOD8094723
Probable space group: C 2/M
;
_chemical_formula_sum "Si O2"
_cell_formula_units_Z 40
_cell_length_a 20.984092
_cell_length_b 18.056396
_cell_length_c 14.953666
_cell_angle_alpha 90.000000
_cell_angle_beta 160.434491
_cell_angle_gamma 90.000000
_cell_volume 1897.421669
_symmetry_space_group_name_H-M "C 2/M"
_symmetry_group_IT_number 12
_symmetry_cell_setting 'monoclinic'
loop_
_space_group_symop_operation_xyz
x,y,z
-x,y,-z
-x,-y,-z
x,-y,z
1/2+x,1/2+y,z
1/2-x,1/2+y,-z
1/2-x,1/2-y,-z
1/2+x,1/2-y,z
loop_
_atom_site_type_symbol
_atom_site_label
_atom_site_fract_x
_atom_site_fract_y
_atom_site_fract_z
Si Si1 0.592988 0.081645 0.314724
Si Si2 0.329353 0.321251 0.495895
Si Si3 0.883942 0.669637 0.486996
Si Si4 0.291957 0.367107 0.252506
Si Si5 0.238893 0.798263 0.112220
O O1 0.688109 0.147624 0.384074
O O2 0.622119 0.097489 0.458758
O O3 0.679132 0.000000 0.408677
O O4 0.368594 0.077994 0.996286
O O5 0.283595 0.236077 0.410388
O O6 0.292077 0.370351 0.359656
O O7 0.544075 0.327634 0.814419
O O8 0.778862 0.652872 0.254312
O O9 0.101661 0.692711 0.753431
O O10 0.500000 0.394782 0.500000
O O11 0.242371 0.286626 0.147219
#
# Coordination Sequence:
#
# PCOD8094723 Si02
#       5
#     8   8   8   8   8
#     4  12  27  42  57  89 136 173 203 244 309 383
#     4  11  21  38  64  93 126 159 205 258 310 363
#     4  10  20  39  66  96 121 156 211 263 308 361
#     4  11  21  39  67  95 122 156 207 266 313 360
#     4  10  19  38  69 100 116 147 211 278 306 355
#
# _framework density 21.081240000000001
#
# number of rings (size 3 to 8) (size 9 to 14) (size 15 to 20)
#    0.000    1.200    6.000    3.000    0.000    2.800 
#    0.000    7.000    0.000    0.000    0.000    0.000 
#    0.000    0.000    0.000    0.000    0.000    0.000 
#
# Total GULP energy -247965.616820 kJ/mol
# GULP energy per Si atom -12398.280841 kJ/mol
# Density = 2.103326 g / cm^3
# Si number density = 21.081240 Si / 1000 Ang^3
#
#
#
# Elastic Constant Matrix: (Units=GPa)
#
#
# Indices 1 2 3 4 5 6 
#
# 1 110.1376 40.8733 14.7224 0.0000 -5.6683 0.0000
# 2 40.8733 64.5064 23.7770 0.0000 0.2149 0.0000
# 3 14.7224 23.7770 64.0314 0.0001 -6.6156 0.0000
# 4 0.0000 0.0000 0.0001 7.6282 0.0000 1.0667
# 5 -5.6683 0.2149 -6.6156 0.0000 32.7102 0.0000
# 6 0.0000 0.0000 0.0000 1.0667 0.0000 10.7714
#
#
#
# Elastic Compliance Matrix: (Units=1/GPa)
#
#
# Indices 1 2 3 4 5 6 
#
# 1 0.012024 -0.007752 0.000342 0.000000 0.002204 0.000000
# 2 -0.007752 0.023031 -0.007072 0.000000 -0.002925 0.000000
# 3 0.000342 -0.007072 0.018564 0.000000 0.003860 0.000000
# 4 0.000000 0.000000 0.000000 0.132933 0.000000 -0.013164
# 5 0.002204 -0.002925 0.003860 0.000000 0.031753 0.000000
# 6 0.000000 0.000000 0.000000 -0.013164 0.000000 0.094142
#
#
# Mechanical properties :
#
#
# Convention : Reuss Voigt Hill
#
# Bulk Modulus (GPa) = 40.56168 44.15786 42.35977
# Shear Modulus (GPa) = 14.30082 20.84214 17.57148
#
# Velocity S-wave (km/s) = 2.60737 3.14770 2.89019
# Velocity P-wave (km/s) = 5.32419 5.84831 5.59239
#
# Compressibility (1/GPa) = 0.02465381
#
# Stress axis : x y z
#
# Youngs Moduli (GPa) = 83.16539 43.42005 53.86880
#
# Poissons Ratio (x) = 0.33660 -0.01841
# Poissons Ratio (y) = 0.64472 0.38095
# Poissons Ratio (z) = -0.02842 0.30706
#
# Static dielectric constant tensor:
#      x y z
#    x 4.030900 0.000000 -0.237400 
#    y 0.000000 3.278180 0.000000 
#    z -0.237400 0.000000 3.976910 
# 
# 
# High freq. dielectric constant tensor:
#      x y z
#    x 1.845630 0.000000 -0.014910 
#    y 0.000000 1.774410 0.000000 
#    z -0.014910 0.000000 1.833590 
# 
# From -- ./inp_files/46920.got.cif
#   From: 2010.06.25/outbox.cif.g09.slc.cpg/sg12_24_cif.got.tgz:46920.got - 2010.06.28 00:19:55.
