data_PCOD8094823
_publ_section_title
;
Structure prediction by ZEFSAII (Michael W. Deem and Ramdas Pophale) SiO2 
 PCOD8094823
Probable space group: C 2/M
;
_chemical_formula_sum "Si O2"
_cell_formula_units_Z 52
_cell_length_a 15.456261
_cell_length_b 12.956687
_cell_length_c 18.819169
_cell_angle_alpha 90.000000
_cell_angle_beta 140.027476
_cell_angle_gamma 90.000000
_cell_volume 2421.129551
_symmetry_space_group_name_H-M "C 2/M"
_symmetry_group_IT_number 12
_symmetry_cell_setting 'monoclinic'
loop_
_space_group_symop_operation_xyz
x,y,z
-x,y,-z
-x,-y,-z
x,-y,z
1/2+x,1/2+y,z
1/2-x,1/2+y,-z
1/2-x,1/2-y,-z
1/2+x,1/2-y,z
loop_
_atom_site_type_symbol
_atom_site_label
_atom_site_fract_x
_atom_site_fract_y
_atom_site_fract_z
Si Si1 0.755932 0.112284 0.256869
Si Si2 0.315030 0.323622 0.740891
Si Si3 0.322030 0.194299 0.481164
Si Si4 0.420237 0.886587 0.299415
Si Si5 0.389211 0.618533 0.052336
Si Si6 0.295493 0.276963 0.136311
Si Si7 0.000000 0.157985 0.500000
O O1 0.668589 0.198678 0.243339
O O2 0.762649 0.144402 0.178571
O O3 0.904248 0.095582 0.385486
O O4 0.683751 0.000000 0.215628
O O5 0.286570 0.356853 0.641145
O O6 0.187708 0.355819 0.708411
O O7 0.449416 0.379037 0.851625
O O8 0.250000 0.250000 0.500000
O O9 0.428383 0.109276 0.574793
O O10 0.402287 0.277330 0.487185
O O11 0.416397 0.800820 0.234766
O O12 0.386187 0.000000 0.248235
O O13 0.343437 0.500000 0.009133
O O14 0.338506 0.654193 0.097363
O O15 0.329672 0.698951 0.957507
#
# Coordination Sequence:
#
# PCOD8094823 Si02
#       7
#     8   8   8   8   8   8   4
#     4  10  20  38  62  87 120 166 206 253 320 371
#     4  10  22  38  60  92 127 160 212 271 310 381
#     4  11  20  38  60  86 131 168 206 272 323 374
#     4  11  21  38  61  87 124 165 205 262 332 384
#     4  11  23  41  64  91 123 166 213 261 323 380
#     4  10  22  41  61  91 126 158 211 270 305 379
#     4  10  19  40  59  92 124 168 215 266 311 382
#
# _framework density 21.47758
#
# number of rings (size 3 to 8) (size 9 to 14) (size 15 to 20)
#    0.000    1.538    4.615    2.538    0.000    4.308 
#    0.000   16.154    0.000    0.000    0.000    0.000 
#    0.000    0.000    0.000    0.000    0.000    0.000 
#
# Total GULP energy -322204.214920 kJ/mol
# GULP energy per Si atom -12392.469805 kJ/mol
# Density = 2.142870 g / cm^3
# Si number density = 21.477580 Si / 1000 Ang^3
#
#
#
# Elastic Constant Matrix: (Units=GPa)
#
#
# Indices 1 2 3 4 5 6 
#
# 1 77.9235 11.3469 24.5545 0.0000 1.7203 0.0000
# 2 11.3469 124.0012 27.4144 0.0000 1.8514 0.0000
# 3 24.5545 27.4144 108.1533 0.0000 -4.2771 0.0000
# 4 0.0000 0.0000 0.0000 -9.2086 0.0000 6.2492
# 5 1.7203 1.8514 -4.2771 0.0000 29.2872 0.0000
# 6 0.0000 0.0000 0.0000 6.2492 0.0000 12.8904
#
#
#
# Elastic Compliance Matrix: (Units=1/GPa)
#
#
# Indices 1 2 3 4 5 6 
#
# 1 0.013909 -0.000578 -0.003060 0.000000 -0.001227 0.000000
# 2 -0.000578 0.008589 -0.002078 0.000000 -0.000812 0.000000
# 3 -0.003060 -0.002078 0.010541 0.000000 0.001850 0.000000
# 4 0.000000 0.000000 0.000000 -0.081712 0.000000 0.039613
# 5 -0.001227 -0.000812 0.001850 0.000000 0.034538 0.000000
# 6 0.000000 0.000000 0.000000 0.039613 0.000000 0.058373
#
#
# Mechanical properties :
#
#
# Convention : Reuss Voigt Hill
#
# Bulk Modulus (GPa) = 46.28191 48.52328 47.40259
# Shear Modulus (GPa) = 79.52795 23.04462 51.28628
#
# Velocity S-wave (km/s) = 6.09169 3.27916 4.89191
# Velocity P-wave (km/s) = 8.43054 6.08102 7.35027
#
# Compressibility (1/GPa) = 0.02160671
#
# Stress axis : x y z
#
# Youngs Moduli (GPa) = 71.89839 116.42987 94.87024
#
# Poissons Ratio (x) = 0.06729 0.29028
# Poissons Ratio (y) = 0.04155 0.19714
# Poissons Ratio (z) = 0.21999 0.24194
#
# Static dielectric constant tensor:
#      x y z
#    x 3.505460 0.000000 -0.206590 
#    y 0.000000 3.889450 0.000000 
#    z -0.206590 0.000000 4.468530 
# 
# 
# High freq. dielectric constant tensor:
#      x y z
#    x 1.817460 0.000000 -0.015140 
#    y 0.000000 1.840440 0.000000 
#    z -0.015140 0.000000 1.858490 
# 
# From -- ./inp_files/270748.got.cif
#   From: 2010.06.25/outbox.cif.g09.slc.cpg/sg12_136_cif.got.tgz:270748.got - 2010.06.28 00:19:55.
