data_PCOD8094412
_publ_section_title
;
Structure prediction by ZEFSAII (Michael W. Deem and Ramdas Pophale) SiO2 
 PCOD8094412
Probable space group: C 2/M
;
_chemical_formula_sum "Si O2"
_cell_formula_units_Z 64
_cell_length_a 30.443034
_cell_length_b 8.959342
_cell_length_c 12.084914
_cell_angle_alpha 90.000000
_cell_angle_beta 92.394370
_cell_angle_gamma 90.000000
_cell_volume 3293.277152
_symmetry_space_group_name_H-M "C 2/M"
_symmetry_group_IT_number 12
_symmetry_cell_setting 'monoclinic'
loop_
_space_group_symop_operation_xyz
x,y,z
-x,y,-z
-x,-y,-z
x,-y,z
1/2+x,1/2+y,z
1/2-x,1/2+y,-z
1/2-x,1/2-y,-z
1/2+x,1/2-y,z
loop_
_atom_site_type_symbol
_atom_site_label
_atom_site_fract_x
_atom_site_fract_y
_atom_site_fract_z
Si Si1 0.268265 0.827558 0.837972
Si Si2 0.433581 0.170825 0.803460
Si Si3 0.283224 0.176667 0.588356
Si Si4 0.043908 0.675663 0.571176
Si Si5 0.182492 0.827474 0.965592
Si Si6 0.594289 0.829648 0.953813
Si Si7 0.618398 0.176590 0.413044
Si Si8 0.525627 0.676334 0.796781
O O1 0.270517 0.775008 0.711417
O O2 0.219081 0.800230 0.876023
O O3 0.282291 0.000000 0.851726
O O4 0.302087 0.731961 0.913699
O O5 0.401017 0.232402 0.705758
O O6 0.475953 0.273987 0.809230
O O7 0.448444 0.000000 0.780515
O O8 0.407358 0.182218 0.914362
O O9 0.250000 0.250000 0.500000
O O10 0.332212 0.238033 0.566045
O O11 0.280315 0.000000 0.574498
O O12 0.045188 0.500000 0.595044
O O13 0.086553 0.731076 0.507877
O O14 0.045649 0.763002 0.685409
O O15 0.000000 0.718748 0.500000
O O16 0.139976 0.739929 0.917676
O O17 0.170578 0.000000 0.977663
O O18 0.553586 0.739328 0.901054
O O19 0.591488 0.000000 0.912801
O O20 0.620123 0.000000 0.410514
O O21 0.528310 0.500000 0.797360
#
# Coordination Sequence:
#
# PCOD8094412 Si02
#       8
#     8   8   8   8   8   8   8   8
#     4   9  19  37  59  82 114 155 193 233 287 351
#     4  10  20  39  63  84 108 146 196 240 284 345
#     4  10  21  38  58  83 116 150 192 239 289 340
#     4  10  19  37  63  84 110 147 195 243 283 338
#     4  10  20  35  58  87 117 148 188 239 293 343
#     4  11  23  38  59  84 115 154 196 236 285 348
#     4   9  18  35  62  88 108 143 192 242 286 337
#     4  12  25  38  55  83 121 154 187 236 293 346
#
# _framework density 19.433530000000001
#
# number of rings (size 3 to 8) (size 9 to 14) (size 15 to 20)
#    0.000    1.875    1.250    3.000    0.000    6.750 
#    0.000    3.750    0.000    0.000    0.000    0.000 
#    0.000    0.000    0.000    0.000    0.000    0.000 
#
# Total GULP energy -396918.541256 kJ/mol
# GULP energy per Si atom -12403.704414 kJ/mol
# Density = 1.938930 g / cm^3
# Si number density = 19.433530 Si / 1000 Ang^3
#
#
#
# Elastic Constant Matrix: (Units=GPa)
#
#
# Indices 1 2 3 4 5 6 
#
# 1 145.5380 41.9738 49.6059 0.0000 3.0818 0.0000
# 2 41.9738 76.5024 35.1822 0.0000 -0.6424 0.0000
# 3 49.6059 35.1822 71.2071 0.0000 -4.8229 0.0000
# 4 0.0000 0.0000 0.0000 24.4424 0.0000 7.8954
# 5 3.0818 -0.6424 -4.8229 0.0000 29.7099 0.0000
# 6 0.0000 0.0000 0.0000 7.8954 0.0000 30.7013
#
#
#
# Elastic Compliance Matrix: (Units=1/GPa)
#
#
# Indices 1 2 3 4 5 6 
#
# 1 0.009558 -0.002767 -0.005422 0.000000 -0.001932 0.000000
# 2 -0.002767 0.017745 -0.006870 0.000000 -0.000445 0.000000
# 3 -0.005422 -0.006870 0.021480 0.000000 0.003901 0.000000
# 4 0.000000 0.000000 0.000000 0.044619 0.000000 -0.011475
# 5 -0.001932 -0.000445 0.003901 0.000000 0.034483 0.000000
# 6 0.000000 0.000000 0.000000 -0.011475 0.000000 0.035523
#
#
# Mechanical properties :
#
#
# Convention : Reuss Voigt Hill
#
# Bulk Modulus (GPa) = 53.57850 60.75237 57.16543
# Shear Modulus (GPa) = 25.03151 28.06977 26.55064
#
# Velocity S-wave (km/s) = 3.59285 3.80465 3.70026
# Velocity P-wave (km/s) = 6.69637 7.11547 6.90910
#
# Compressibility (1/GPa) = 0.01866420
#
# Stress axis : x y z
#
# Youngs Moduli (GPa) = 104.62347 56.35303 46.55537
#
# Poissons Ratio (x) = 0.15591 0.25244
# Poissons Ratio (y) = 0.28946 0.31985
# Poissons Ratio (z) = 0.56731 0.38717
#
# Static dielectric constant tensor:
#      x y z
#    x 3.733340 0.000000 -0.065520 
#    y 0.000000 3.394540 0.000000 
#    z -0.065520 0.000000 3.623920 
# 
# 
# High freq. dielectric constant tensor:
#      x y z
#    x 1.767950 0.000000 -0.004600 
#    y 0.000000 1.738590 0.000000 
#    z -0.004600 0.000000 1.760980 
# 
# From -- ./inp_files/187497.got.cif
#   From: 2010.06.25/outbox.cif.g09.slc.cpg/sg12_94_cif.got.tgz:187497.got - 2010.06.28 00:19:55.
