data_PCOD8094180
_publ_section_title
;
Structure prediction by ZEFSAII (Michael W. Deem and Ramdas Pophale) SiO2 
 PCOD8094180
Probable space group: C 2/M
;
_chemical_formula_sum "Si O2"
_cell_formula_units_Z 56
_cell_length_a 15.128826
_cell_length_b 17.672454
_cell_length_c 18.973022
_cell_angle_alpha 90.000000
_cell_angle_beta 143.486936
_cell_angle_gamma 90.000000
_cell_volume 3018.283198
_symmetry_space_group_name_H-M "C 2/M"
_symmetry_group_IT_number 12
_symmetry_cell_setting 'monoclinic'
loop_
_space_group_symop_operation_xyz
x,y,z
-x,y,-z
-x,-y,-z
x,-y,z
1/2+x,1/2+y,z
1/2-x,1/2+y,-z
1/2-x,1/2-y,-z
1/2+x,1/2-y,z
loop_
_atom_site_type_symbol
_atom_site_label
_atom_site_fract_x
_atom_site_fract_y
_atom_site_fract_z
Si Si1 0.245267 0.087403 0.272884
Si Si2 0.550256 0.326560 0.917011
Si Si3 0.054218 0.814082 0.758168
Si Si4 0.011742 0.348977 0.672542
Si Si5 0.224249 0.913025 0.424578
Si Si6 0.348974 0.912450 0.100976
Si Si7 0.386211 0.831509 0.983901
O O1 0.386933 0.125062 0.327511
O O2 0.266100 0.094443 0.369623
O O3 0.099559 0.132323 0.154123
O O4 0.231342 0.000000 0.240741
O O5 0.538407 0.292967 0.830446
O O6 0.680321 0.387628 0.006121
O O7 0.588304 0.258351 0.993394
O O8 0.026839 0.740434 0.693529
O O9 0.218922 0.846640 0.849654
O O10 0.937932 0.879122 0.663081
O O11 0.052205 0.395424 0.767945
O O12 0.841803 0.366677 0.545673
O O13 0.223364 0.000000 0.447796
O O14 0.349171 0.000000 0.083892
O O15 0.419798 0.870576 0.079592
O O16 0.500000 0.865643 0.000000
#
# Coordination Sequence:
#
# PCOD8094180 Si02
#       7
#     8   8   8   8   8   8   8
#     4  10  21  34  55  85 116 147 179 219 272 329
#     4  10  19  37  56  81 115 145 180 221 272 331
#     4  10  20  37  59  81 109 150 187 222 271 332
#     4  12  20  36  55  84 118 146 182 223 273 327
#     4  10  22  38  57  81 111 147 188 229 269 320
#     4  11  22  35  55  82 113 146 183 224 279 328
#     4  11  21  38  59  80 110 143 182 234 272 323
#
# _framework density 18.553592999999999
#
# number of rings (size 3 to 8) (size 9 to 14) (size 15 to 20)
#    0.000    1.429    2.857    4.286    0.000    4.857 
#    0.000    1.429    0.000    0.000    0.000    2.000 
#    0.000    0.000    0.000    0.000    0.000    0.000 
#
# Total GULP energy -347334.084812 kJ/mol
# GULP energy per Si atom -12404.788743 kJ/mol
# Density = 1.851136 g / cm^3
# Si number density = 18.553593 Si / 1000 Ang^3
#
#
#
# Elastic Constant Matrix: (Units=GPa)
#
#
# Indices 1 2 3 4 5 6 
#
# 1 88.0644 41.1304 42.1472 -0.0016 21.2095 -0.0006
# 2 41.1304 86.1180 27.1999 0.0007 -1.6429 0.0002
# 3 42.1472 27.1999 108.0777 0.0009 18.8635 -0.0002
# 4 -0.0016 0.0007 0.0009 21.0758 0.0003 1.7085
# 5 21.2095 -1.6429 18.8635 0.0003 19.9771 0.0000
# 6 -0.0006 0.0002 -0.0002 1.7085 0.0000 19.7078
#
#
#
# Elastic Compliance Matrix: (Units=1/GPa)
#
#
# Indices 1 2 3 4 5 6 
#
# 1 0.023033 -0.010742 -0.002223 0.000002 -0.023238 0.000001
# 2 -0.010742 0.018026 -0.003109 -0.000001 0.015823 0.000000
# 3 -0.002223 -0.003109 0.012613 0.000000 -0.009806 0.000000
# 4 0.000002 -0.000001 0.000000 0.047784 -0.000003 -0.004142
# 5 -0.023238 0.015823 -0.009806 -0.000003 0.085289 -0.000001
# 6 0.000001 0.000000 0.000000 -0.004142 -0.000001 0.051100
#
#
# Mechanical properties :
#
#
# Convention : Reuss Voigt Hill
#
# Bulk Modulus (GPa) = 46.45858 55.91278 51.18568
# Shear Modulus (GPa) = 18.03954 23.60431 20.82193
#
# Velocity S-wave (km/s) = 3.12155 3.57069 3.35365
# Velocity P-wave (km/s) = 6.17144 6.87030 6.53022
#
# Compressibility (1/GPa) = 0.02152455
#
# Stress axis : x y z
#
# Youngs Moduli (GPa) = 43.41636 55.47470 79.28014
#
# Poissons Ratio (x) = 0.59590 0.17623
# Poissons Ratio (y) = 0.46637 0.24651
# Poissons Ratio (z) = 0.09651 0.17249
#
# Static dielectric constant tensor:
#      x y z
#    x 3.404590 0.000000 0.054460 
#    y 0.000000 3.397070 0.000000 
#    z 0.054460 0.000000 3.464670 
# 
# 
# High freq. dielectric constant tensor:
#      x y z
#    x 1.710800 0.000000 0.005670 
#    y 0.000000 1.721170 0.000000 
#    z 0.005670 0.000000 1.724430 
# 
# From -- ./inp_files/189607.got.cif
#   From: 2010.06.25/outbox.cif.g09.slc.cpg/sg12_95_cif.got.tgz:189607.got - 2010.06.28 00:19:55.
