data_PCOD8094637
_publ_section_title
;
Structure prediction by ZEFSAII (Michael W. Deem and Ramdas Pophale) SiO2 
 PCOD8094637
Probable space group: C 2/M
;
_chemical_formula_sum "Si O2"
_cell_formula_units_Z 64
_cell_length_a 23.763128
_cell_length_b 22.545357
_cell_length_c 17.295970
_cell_angle_alpha 90.000000
_cell_angle_beta 160.760569
_cell_angle_gamma 90.000000
_cell_volume 3053.393659
_symmetry_space_group_name_H-M "C 2/M"
_symmetry_group_IT_number 12
_symmetry_cell_setting 'monoclinic'
loop_
_space_group_symop_operation_xyz
x,y,z
-x,y,-z
-x,-y,-z
x,-y,z
1/2+x,1/2+y,z
1/2-x,1/2+y,-z
1/2-x,1/2-y,-z
1/2+x,1/2-y,z
loop_
_atom_site_type_symbol
_atom_site_label
_atom_site_fract_x
_atom_site_fract_y
_atom_site_fract_z
Si Si1 0.231103 0.118371 0.275739
Si Si2 0.356925 0.434115 0.378951
Si Si3 0.347584 0.751347 0.856239
Si Si4 0.946177 0.069580 0.212423
Si Si5 0.550313 0.567075 0.180086
Si Si6 0.028486 0.242005 0.622393
Si Si7 0.310493 0.162139 0.934194
Si Si8 0.103693 0.640102 0.793392
O O1 0.158507 0.180555 0.149598
O O2 0.435099 0.114036 0.533379
O O3 0.175479 0.109455 0.293179
O O4 0.141578 0.069494 0.105265
O O5 0.500000 0.437749 0.500000
O O6 0.274979 0.500000 0.282694
O O7 0.436199 0.412170 0.562777
O O8 0.214975 0.387820 0.164840
O O9 0.386297 0.779001 0.991511
O O10 0.158248 0.773967 0.583532
O O11 0.500000 0.774789 0.000000
O O12 0.046888 0.087289 0.265015
O O13 0.903544 0.000000 0.159639
O O14 0.766015 0.102897 0.978498
O O15 0.617410 0.500000 0.260944
O O16 0.134235 0.180806 0.750432
O O17 0.127942 0.290746 0.802158
O O18 0.000000 0.269973 0.500000
O O19 0.429511 0.137090 0.156787
#
# Coordination Sequence:
#
# PCOD8094637 Si02
#       8
#     8   8   8   8   8   8   8   8
#     4  10  21  40  60  88 121 167 195 245 309 359
#     4  10  19  38  63  86 117 158 200 247 302 358
#     4  10  20  37  59  83 118 153 201 249 286 357
#     4  10  23  37  62  97 118 151 210 258 297 358
#     4  10  21  41  66  86 117 165 207 245 308 370
#     4   9  21  36  58  83 122 158 195 243 305 361
#     4  11  22  40  59  90 120 161 202 243 308 367
#     4  11  23  35  58  90 126 157 198 253 304 357
#
# _framework density 20.960284000000001
#
# number of rings (size 3 to 8) (size 9 to 14) (size 15 to 20)
#    0.000    1.875    2.500    2.250    5.250    1.000 
#    2.250    3.750    0.000    0.375    0.000    0.000 
#    0.000    0.000    0.000    0.000    0.000    0.000 
#
# Total GULP energy -396601.762433 kJ/mol
# GULP energy per Si atom -12393.805076 kJ/mol
# Density = 2.091258 g / cm^3
# Si number density = 20.960284 Si / 1000 Ang^3
#
#
#
# Elastic Constant Matrix: (Units=GPa)
#
#
# Indices 1 2 3 4 5 6 
#
# 1 104.2418 28.2751 20.6717 0.0000 -8.8355 0.0000
# 2 28.2751 73.7270 21.6483 0.0000 0.5486 0.0000
# 3 20.6717 21.6483 55.1605 0.0000 -1.6360 0.0000
# 4 0.0000 0.0000 0.0000 28.2810 0.0000 -4.7945
# 5 -8.8355 0.5486 -1.6360 0.0000 32.1121 0.0000
# 6 0.0000 0.0000 0.0000 -4.7945 0.0000 38.3312
#
#
#
# Elastic Compliance Matrix: (Units=1/GPa)
#
#
# Indices 1 2 3 4 5 6 
#
# 1 0.011369 -0.003570 -0.002769 0.000000 0.003048 0.000000
# 2 -0.003570 0.016461 -0.005168 0.000000 -0.001527 0.000000
# 3 -0.002769 -0.005168 0.021207 0.000000 0.000407 0.000000
# 4 0.000000 0.000000 0.000000 0.036125 0.000000 0.004519
# 5 0.003048 -0.001527 0.000407 0.000000 0.032026 0.000000
# 6 0.000000 0.000000 0.000000 0.004519 0.000000 0.026654
#
#
# Mechanical properties :
#
#
# Convention : Reuss Voigt Hill
#
# Bulk Modulus (GPa) = 38.42671 41.59106 40.00888
# Shear Modulus (GPa) = 28.48507 30.58049 29.53278
#
# Velocity S-wave (km/s) = 3.69046 3.82379 3.75772
# Velocity P-wave (km/s) = 6.04419 6.27543 6.16090
#
# Compressibility (1/GPa) = 0.02602356
#
# Stress axis : x y z
#
# Youngs Moduli (GPa) = 87.95988 60.74832 47.15429
#
# Poissons Ratio (x) = 0.21685 0.13058
# Poissons Ratio (y) = 0.31398 0.24369
# Poissons Ratio (z) = 0.24358 0.31395
#
# Static dielectric constant tensor:
#      x y z
#    x 3.948790 0.000000 -0.117840 
#    y 0.000000 3.866030 0.000000 
#    z -0.117840 0.000000 3.689070 
# 
# 
# High freq. dielectric constant tensor:
#      x y z
#    x 1.817980 0.000000 -0.012930 
#    y 0.000000 1.821010 0.000000 
#    z -0.012930 0.000000 1.794640 
# 
# From -- ./inp_files/290960.got.cif
#   From: 2010.06.25/outbox.cif.g09.slc.cpg/sg12_146_cif.got.tgz:290960.got - 2010.06.28 00:19:55.
