data_PCOD8094861
_publ_section_title
;
Structure prediction by ZEFSAII (Michael W. Deem and Ramdas Pophale) SiO2 
 PCOD8094861
Probable space group: C 2/M
;
_chemical_formula_sum "Si O2"
_cell_formula_units_Z 48
_cell_length_a 10.603255
_cell_length_b 28.985825
_cell_length_c 13.307788
_cell_angle_alpha 90.000000
_cell_angle_beta 34.866713
_cell_angle_gamma 90.000000
_cell_volume 2338.167459
_symmetry_space_group_name_H-M "C 2/M"
_symmetry_group_IT_number 12
_symmetry_cell_setting 'monoclinic'
loop_
_space_group_symop_operation_xyz
x,y,z
-x,y,-z
-x,-y,-z
x,-y,z
1/2+x,1/2+y,z
1/2-x,1/2+y,-z
1/2-x,1/2-y,-z
1/2+x,1/2-y,z
loop_
_atom_site_type_symbol
_atom_site_label
_atom_site_fract_x
_atom_site_fract_y
_atom_site_fract_z
Si Si1 0.276336 0.119412 0.701732
Si Si2 0.011007 0.205292 0.872926
Si Si3 0.027687 0.607714 0.220567
Si Si4 0.902877 0.946349 0.874196
Si Si5 0.532187 0.192891 0.096096
Si Si6 0.108938 0.947017 0.530422
O O1 0.500000 0.105550 0.500000
O O2 0.189883 0.168565 0.715335
O O3 0.309486 0.125450 0.799164
O O4 0.100251 0.078661 0.803707
O O5 0.079123 0.258019 0.801418
O O6 0.000000 0.201033 0.000000
O O7 0.788352 0.193003 0.959611
O O8 0.922416 0.651119 0.229763
O O9 0.832320 0.580780 0.403744
O O10 0.164797 0.574967 0.055544
O O11 0.937327 0.939412 0.732672
O O12 0.907023 0.000000 0.902054
O O13 0.500000 0.182854 0.000000
O O14 0.000000 0.928319 0.500000
O O15 0.177227 0.000000 0.474835
#
# Coordination Sequence:
#
# PCOD8094861 Si02
#       6
#     8   8   8   8   8   8
#     4  12  23  41  65  92 129 170 211 275 328 382
#     4  10  19  41  64  90 127 167 211 260 323 382
#     4  12  23  41  67  96 125 172 215 267 326 386
#     4  11  24  41  65  96 127 167 216 264 319 387
#     4  10  22  36  67  96 123 163 215 265 314 389
#     4  10  24  43  62  92 135 172 212 266 322 384
#
# _framework density 20.528897000000001
#
# number of rings (size 3 to 8) (size 9 to 14) (size 15 to 20)
#    0.000    1.167    5.000    1.000    2.333    2.333 
#    0.000    4.167    0.000    0.000    0.000    0.000 
#    0.000    0.000    0.000    0.000    0.000    0.000 
#
# Total GULP energy -297612.978128 kJ/mol
# GULP energy per Si atom -12400.540755 kJ/mol
# Density = 2.048217 g / cm^3
# Si number density = 20.528897 Si / 1000 Ang^3
#
#
#
# Elastic Constant Matrix: (Units=GPa)
#
#
# Indices 1 2 3 4 5 6 
#
# 1 119.4408 33.9947 4.3946 0.0000 10.8333 0.0000
# 2 33.9947 134.8456 39.6410 0.0000 0.4255 0.0000
# 3 4.3946 39.6410 70.8641 0.0000 1.5496 0.0000
# 4 0.0000 0.0000 0.0000 26.0643 0.0000 0.8943
# 5 10.8333 0.4255 1.5496 0.0000 25.4154 0.0000
# 6 0.0000 0.0000 0.0000 0.8943 0.0000 31.3023
#
#
#
# Elastic Compliance Matrix: (Units=1/GPa)
#
#
# Indices 1 2 3 4 5 6 
#
# 1 0.009461 -0.002664 0.000992 0.000000 -0.004049 0.000000
# 2 -0.002664 0.009626 -0.005248 0.000000 0.001294 0.000000
# 3 0.000992 -0.005248 0.017016 0.000000 -0.001372 0.000000
# 4 0.000000 0.000000 0.000000 0.038404 0.000000 -0.001097
# 5 -0.004049 0.001294 -0.001372 0.000000 0.041134 0.000000
# 6 0.000000 0.000000 0.000000 -0.001097 0.000000 0.031978
#
#
# Mechanical properties :
#
#
# Convention : Reuss Voigt Hill
#
# Bulk Modulus (GPa) = 44.91700 53.46791 49.19245
# Shear Modulus (GPa) = 29.60679 33.03110 31.31895
#
# Velocity S-wave (km/s) = 3.80175 4.01559 3.91013
# Velocity P-wave (km/s) = 6.41860 6.89940 6.66334
#
# Compressibility (1/GPa) = 0.02226329
#
# Stress axis : x y z
#
# Youngs Moduli (GPa) = 105.69361 103.88355 58.76937
#
# Poissons Ratio (x) = 0.27675 -0.05830
# Poissons Ratio (y) = 0.28157 0.30842
# Poissons Ratio (z) = -0.10485 0.54517
#
# Static dielectric constant tensor:
#      x y z
#    x 3.850280 0.000000 0.047330 
#    y 0.000000 4.069980 0.000000 
#    z 0.047330 0.000000 3.378990 
# 
# 
# High freq. dielectric constant tensor:
#      x y z
#    x 1.814310 0.000000 0.003820 
#    y 0.000000 1.819620 0.000000 
#    z 0.003820 0.000000 1.774380 
# 
# From -- ./inp_files/209281.got.cif
#   From: 2010.06.25/outbox.cif.g09.slc.cpg/sg12_105_cif.got.tgz:209281.got - 2010.06.28 00:19:55.
