data_PCOD8094022
_publ_section_title
;
Structure prediction by ZEFSAII (Michael W. Deem and Ramdas Pophale) SiO2 
 PCOD8094022
Probable space group: C 2/M
;
_chemical_formula_sum "Si O2"
_cell_formula_units_Z 32
_cell_length_a 22.381928
_cell_length_b 7.586879
_cell_length_c 12.584606
_cell_angle_alpha 90.000000
_cell_angle_beta 127.837194
_cell_angle_gamma 90.000000
_cell_volume 1687.694146
_symmetry_space_group_name_H-M "C 2/M"
_symmetry_group_IT_number 12
_symmetry_cell_setting 'monoclinic'
loop_
_space_group_symop_operation_xyz
x,y,z
-x,y,-z
-x,-y,-z
x,-y,z
1/2+x,1/2+y,z
1/2-x,1/2+y,-z
1/2-x,1/2-y,-z
1/2+x,1/2-y,z
loop_
_atom_site_type_symbol
_atom_site_label
_atom_site_fract_x
_atom_site_fract_y
_atom_site_fract_z
Si Si1 0.106877 0.704193 0.067144
Si Si2 0.619872 0.000000 0.678446
Si Si3 0.032012 0.500000 0.365354
Si Si4 0.735254 0.294849 0.862522
Si Si5 0.961056 0.804247 0.791413
O O1 0.089616 0.500000 0.029336
O O2 0.190695 0.756414 0.123645
O O3 0.097834 0.752509 0.180506
O O4 0.046377 0.806199 0.929302
O O5 0.667386 0.822124 0.744348
O O6 0.586293 0.000000 0.524951
O O7 0.555563 0.000000 0.697814
O O8 0.050058 0.674077 0.318494
O O9 0.714173 0.500000 0.825640
O O10 0.750000 0.250000 0.000000
O O11 0.942318 0.000000 0.729623
#
# Coordination Sequence:
#
# PCOD8094022 Si02
#       5
#     8   4   4   8   8
#     4  10  19  36  61  93 126 150 197 258 296 348
#     4  11  26  42  64  83 124 163 195 250 293 367
#     4  11  24  45  58  86 122 163 205 238 299 356
#     4  11  23  38  63  93 121 154 196 248 308 353
#     4  11  21  35  64  92 119 158 201 247 299 349
#
# _framework density 18.960781000000001
#
# number of rings (size 3 to 8) (size 9 to 14) (size 15 to 20)
#    0.000    1.250    3.750    3.750    3.500    4.000 
#    0.000    3.750    0.000    0.000    0.000    0.000 
#    0.000    0.000    0.000    0.000    0.000    0.000 
#
# Total GULP energy -198472.683887 kJ/mol
# GULP energy per Si atom -12404.542743 kJ/mol
# Density = 1.891763 g / cm^3
# Si number density = 18.960781 Si / 1000 Ang^3
#
#
#
# Elastic Constant Matrix: (Units=GPa)
#
#
# Indices 1 2 3 4 5 6 
#
# 1 149.6432 79.4601 67.4637 0.0000 -2.4193 0.0000
# 2 79.4601 121.2372 45.7117 0.0000 -3.8134 0.0000
# 3 67.4637 45.7117 75.6407 0.0000 -4.5344 0.0000
# 4 0.0000 0.0000 0.0000 11.0191 0.0000 -6.3237
# 5 -2.4193 -3.8134 -4.5344 0.0000 29.6263 0.0000
# 6 0.0000 0.0000 0.0000 -6.3237 0.0000 18.2341
#
#
#
# Elastic Compliance Matrix: (Units=1/GPa)
#
#
# Indices 1 2 3 4 5 6 
#
# 1 0.013636 -0.005647 -0.008807 0.000000 -0.000961 0.000000
# 2 -0.005647 0.013025 -0.002788 0.000000 0.000789 0.000000
# 3 -0.008807 -0.002788 0.022906 0.000000 0.002428 0.000000
# 4 0.000000 0.000000 0.000000 0.113302 0.000000 0.039294
# 5 -0.000961 0.000789 0.002428 0.000000 0.034148 0.000000
# 6 0.000000 0.000000 0.000000 0.039294 0.000000 0.068470
#
#
# Mechanical properties :
#
#
# Convention : Reuss Voigt Hill
#
# Bulk Modulus (GPa) = 66.29742 81.31025 73.80383
# Shear Modulus (GPa) = 16.39360 22.03496 19.21428
#
# Velocity S-wave (km/s) = 2.94361 3.41271 3.18680
# Velocity P-wave (km/s) = 6.82602 7.64887 7.24913
#
# Compressibility (1/GPa) = 0.01508354
#
# Stress axis : x y z
#
# Youngs Moduli (GPa) = 73.33609 76.77444 43.65746
#
# Poissons Ratio (x) = 0.43352 0.38449
# Poissons Ratio (y) = 0.41411 0.12171
# Poissons Ratio (z) = 0.64587 0.21404
#
# Static dielectric constant tensor:
#      x y z
#    x 3.817410 0.000000 -0.087790 
#    y 0.000000 4.052830 0.000000 
#    z -0.087790 0.000000 3.157990 
# 
# 
# High freq. dielectric constant tensor:
#      x y z
#    x 1.755040 0.000000 -0.008680 
#    y 0.000000 1.756260 0.000000 
#    z -0.008680 0.000000 1.706040 
# 
# From -- ./inp_files/162892.got.cif
#   From: 2010.06.25/outbox.cif.g09.slc.cpg/sg12_82_cif.got.tgz:162892.got - 2010.06.28 00:19:55.
