data_PCOD8094343
_publ_section_title
;
Structure prediction by ZEFSAII (Michael W. Deem and Ramdas Pophale) SiO2 
 PCOD8094343
Probable space group: C 2/M
;
_chemical_formula_sum "Si O2"
_cell_formula_units_Z 36
_cell_length_a 22.746226
_cell_length_b 7.478047
_cell_length_c 11.444637
_cell_angle_alpha 90.000000
_cell_angle_beta 100.686619
_cell_angle_gamma 90.000000
_cell_volume 1912.939041
_symmetry_space_group_name_H-M "C 2/M"
_symmetry_group_IT_number 12
_symmetry_cell_setting 'monoclinic'
loop_
_space_group_symop_operation_xyz
x,y,z
-x,y,-z
-x,-y,-z
x,-y,z
1/2+x,1/2+y,z
1/2-x,1/2+y,-z
1/2-x,1/2-y,-z
1/2+x,1/2-y,z
loop_
_atom_site_type_symbol
_atom_site_label
_atom_site_fract_x
_atom_site_fract_y
_atom_site_fract_z
Si Si1 0.844810 0.794525 0.816319
Si Si2 0.904756 0.500000 0.685691
Si Si3 0.454885 0.000000 0.233704
Si Si4 0.135859 0.500000 0.593609
Si Si5 0.382912 0.295065 0.088672
Si Si6 0.707134 0.705011 0.740710
O O1 0.879851 0.677990 0.735667
O O2 0.774705 0.764237 0.779994
O O3 0.860578 0.000000 0.797597
O O4 0.865474 0.735518 0.952504
O O5 0.884829 0.500000 0.545633
O O6 0.975505 0.500000 0.718523
O O7 0.422346 0.000000 0.346272
O O8 0.437796 0.175649 0.153335
O O9 0.175546 0.323524 0.630096
O O10 0.404186 0.500000 0.102085
O O11 0.324710 0.261965 0.146927
O O12 0.702551 0.500000 0.698302
#
# Coordination Sequence:
#
# PCOD8094343 Si02
#       6
#     8   4   4   4   8   8
#     4  11  22  37  56  91 124 152 182 232 302 354
#     4  12  26  40  57  83 120 161 201 236 280 343
#     4  10  22  42  63  83 110 156 205 241 282 337
#     4  10  23  42  62  82 112 156 202 248 282 328
#     4   9  20  36  62  89 117 148 189 242 290 344
#     4  10  19  37  61  89 116 149 193 238 291 347
#
# _framework density 18.819208
#
# number of rings (size 3 to 8) (size 9 to 14) (size 15 to 20)
#    0.000    1.778    2.222    1.667    0.000    4.444 
#    0.000    2.222    0.000    6.667    0.000    0.000 
#    0.000    0.000    0.000    0.000    0.000    0.000 
#
# Total GULP energy -223275.490434 kJ/mol
# GULP energy per Si atom -12404.193913 kJ/mol
# Density = 1.877637 g / cm^3
# Si number density = 18.819208 Si / 1000 Ang^3
#
#
#
# Elastic Constant Matrix: (Units=GPa)
#
#
# Indices 1 2 3 4 5 6 
#
# 1 3693.7575 -148.9146-1121.8437 0.0000 189.3492 0.0000
# 2 -148.9146 142.4302 152.7862 0.0000 -4.6129 0.0000
# 3 -1121.8437 152.7862 580.5997 0.0000 -40.2548 0.0000
# 4 0.0000 0.0000 0.0000 31.0318 0.0000 1.6803
# 5 189.3492 -4.6129 -40.2548 0.0000 28.0847 0.0000
# 6 0.0000 0.0000 0.0000 1.6803 0.0000 21.7886
#
#
#
# Elastic Compliance Matrix: (Units=1/GPa)
#
#
# Indices 1 2 3 4 5 6 
#
# 1 0.001122 -0.001335 0.002198 0.000000 -0.004633 0.000000
# 2 -0.001335 0.011507 -0.005387 0.000000 0.003166 0.000000
# 3 0.002198 -0.005387 0.006993 0.000000 -0.005679 0.000000
# 4 0.000000 0.000000 0.000000 0.032360 0.000000 -0.002496
# 5 -0.004633 0.003166 -0.005679 0.000000 0.059223 0.000000
# 6 0.000000 0.000000 0.000000 -0.002496 0.000000 0.046088
#
#
# Mechanical properties :
#
#
# Convention : Reuss Voigt Hill
#
# Bulk Modulus (GPa) = 94.57622 242.31591 168.44606
# Shear Modulus (GPa) = 29.43491 385.16498 207.29995
#
# Velocity S-wave (km/s) = 3.95915 14.32167 10.50678
# Velocity P-wave (km/s) = 8.44180 20.06289 15.39129
#
# Compressibility (1/GPa) = 0.01057348
#
# Stress axis : x y z
#
# Youngs Moduli (GPa) = 891.33793 86.90156 143.00354
#
# Poissons Ratio (x) = 0.11598 -0.31429
# Poissons Ratio (y) = 1.18959 0.77042
# Poissons Ratio (z) = -1.95894 0.46817
#
# Static dielectric constant tensor:
#      x y z
#    x 3.344360 0.000000 -0.016920 
#    y 0.000000 3.904430 0.000000 
#    z -0.016920 0.000000 3.411060 
# 
# 
# High freq. dielectric constant tensor:
#      x y z
#    x 1.727090 0.000000 0.002020 
#    y 0.000000 1.750210 0.000000 
#    z 0.002020 0.000000 1.727800 
# 
# From -- ./inp_files/93065.got.cif
#   From: 2010.06.25/outbox.cif.g09.slc.cpg/sg12_47_cif.got.tgz:93065.got - 2010.06.28 00:19:55.
