data_PCOD8094207
_publ_section_title
;
Structure prediction by ZEFSAII (Michael W. Deem and Ramdas Pophale) SiO2 
 PCOD8094207
Probable space group: C 2/M
;
_chemical_formula_sum "Si O2"
_cell_formula_units_Z 36
_cell_length_a 17.127118
_cell_length_b 17.548669
_cell_length_c 15.670169
_cell_angle_alpha 90.000000
_cell_angle_beta 25.383254
_cell_angle_gamma 90.000000
_cell_volume 2018.953668
_symmetry_space_group_name_H-M "C 2/M"
_symmetry_group_IT_number 12
_symmetry_cell_setting 'monoclinic'
loop_
_space_group_symop_operation_xyz
x,y,z
-x,y,-z
-x,-y,-z
x,-y,z
1/2+x,1/2+y,z
1/2-x,1/2+y,-z
1/2-x,1/2-y,-z
1/2+x,1/2-y,z
loop_
_atom_site_type_symbol
_atom_site_label
_atom_site_fract_x
_atom_site_fract_y
_atom_site_fract_z
Si Si1 0.148673 0.200372 0.784534
Si Si2 0.507370 0.809905 0.200630
Si Si3 0.291391 0.411673 0.423989
Si Si4 0.916909 0.832549 0.761768
Si Si5 0.500000 0.720071 0.500000
O O1 0.192468 0.127507 0.683749
O O2 0.327871 0.225344 0.657698
O O3 0.072888 0.270759 0.804262
O O4 0.000000 0.174481 0.000000
O O5 0.377554 0.878214 0.356393
O O6 0.516570 0.749287 0.268450
O O7 0.703669 0.845456 0.987326
O O8 0.256843 0.500000 0.443000
O O9 0.476522 0.399446 0.294907
O O10 0.964417 0.835201 0.615148
#
# Coordination Sequence:
#
# PCOD8094207 Si02
#       5
#     8   8   8   8   4
#     4  11  21  35  61  89 111 146 194 243 281 322
#     4  10  19  37  58  84 109 149 201 236 274 328
#     4  11  23  39  55  82 127 158 178 221 291 361
#     4  10  20  34  62  85 104 148 201 241 274 323
#     4  12  18  34  62  88 110 132 196 254 278 312
#
# _framework density 17.831019000000001
#
# number of rings (size 3 to 8) (size 9 to 14) (size 15 to 20)
#    0.000    1.333    6.667    1.333    0.000    1.333 
#    0.000    1.111    0.000    2.000    0.000    0.000 
#    0.000    0.000    0.000    0.000    0.000    0.000 
#
# Total GULP energy -223299.614242 kJ/mol
# GULP energy per Si atom -12405.534125 kJ/mol
# Density = 1.779043 g / cm^3
# Si number density = 17.831019 Si / 1000 Ang^3
#
#
#
# Elastic Constant Matrix: (Units=GPa)
#
#
# Indices 1 2 3 4 5 6 
#
# 1 60.6147 2.7144 21.6188 0.0154 1.7962 -0.0014
# 2 2.7144 79.1157 31.4612 -0.0199 -0.2174 0.0136
# 3 21.6188 31.4612 105.8996 -0.0345 -6.0836 0.0197
# 4 0.0154 -0.0199 -0.0345 12.3113 0.0267 0.3644
# 5 1.7962 -0.2174 -6.0836 0.0267 42.4719 -0.0085
# 6 -0.0014 0.0136 0.0197 0.3644 -0.0085 9.8914
#
#
#
# Elastic Compliance Matrix: (Units=1/GPa)
#
#
# Indices 1 2 3 4 5 6 
#
# 1 0.017930 0.000983 -0.004029 -0.000030 -0.001330 0.000009
# 2 0.000983 0.014399 -0.004514 0.000011 -0.000614 -0.000012
# 3 -0.004029 -0.004514 0.011711 0.000027 0.001825 -0.000017
# 4 -0.000030 0.000011 0.000027 0.081315 -0.000047 -0.002996
# 5 -0.001330 -0.000614 0.001825 -0.000047 0.023859 0.000019
# 6 0.000009 -0.000012 -0.000017 -0.002996 0.000019 0.101208
#
#
# Mechanical properties :
#
#
# Convention : Reuss Voigt Hill
#
# Bulk Modulus (GPa) = 34.57616 39.69097 37.13357
# Shear Modulus (GPa) = 18.16975 25.59064 21.88019
#
# Velocity S-wave (km/s) = 3.19564 3.79248 3.50678
# Velocity P-wave (km/s) = 5.74885 6.44089 6.10468
#
# Compressibility (1/GPa) = 0.02892166
#
# Stress axis : x y z
#
# Youngs Moduli (GPa) = 55.77258 69.44790 85.38832
#
# Poissons Ratio (x) = -0.06829 0.34402
# Poissons Ratio (y) = -0.05484 0.38543
# Poissons Ratio (z) = 0.22470 0.31348
#
# Static dielectric constant tensor:
#      x y z
#    x 3.469690 -0.000020 -0.068820 
#    y -0.000020 2.822530 0.000100 
#    z -0.068820 0.000100 3.535030 
# 
# 
# High freq. dielectric constant tensor:
#      x y z
#    x 1.703050 0.000000 -0.002950 
#    y 0.000000 1.643000 0.000010 
#    z -0.002950 0.000010 1.714980 
# 
# From -- ./inp_files/72232.got.cif
#   From: 2010.06.25/outbox.cif.g09.slc.cpg/sg12_37_cif.got.tgz:72232.got - 2010.06.28 00:19:55.
