data_PCOD8094707
_publ_section_title
;
Structure prediction by ZEFSAII (Michael W. Deem and Ramdas Pophale) SiO2 
 PCOD8094707
Probable space group: C 2/M
;
_chemical_formula_sum "Si O2"
_cell_formula_units_Z 48
_cell_length_a 29.604784
_cell_length_b 8.471888
_cell_length_c 15.035394
_cell_angle_alpha 90.000000
_cell_angle_beta 39.994126
_cell_angle_gamma 90.000000
_cell_volume 2423.658045
_symmetry_space_group_name_H-M "C 2/M"
_symmetry_group_IT_number 12
_symmetry_cell_setting 'monoclinic'
loop_
_space_group_symop_operation_xyz
x,y,z
-x,y,-z
-x,-y,-z
x,-y,z
1/2+x,1/2+y,z
1/2-x,1/2+y,-z
1/2-x,1/2-y,-z
1/2+x,1/2-y,z
loop_
_atom_site_type_symbol
_atom_site_label
_atom_site_fract_x
_atom_site_fract_y
_atom_site_fract_z
Si Si1 0.077063 0.814516 0.600866
Si Si2 0.925803 0.812749 0.890666
Si Si3 0.672365 0.184473 0.608395
Si Si4 0.580635 0.684391 0.900013
Si Si5 0.422282 0.184272 0.591362
Si Si6 0.672507 0.315395 0.115577
O O1 0.136902 0.779185 0.581757
O O2 0.095092 0.721986 0.484012
O O3 0.003178 0.748764 0.749861
O O4 0.073995 0.000000 0.585410
O O5 0.870207 0.742489 0.903850
O O6 0.928714 0.000000 0.882241
O O7 0.903973 0.759576 0.022452
O O8 0.750000 0.250000 0.500000
O O9 0.630562 0.212935 0.762578
O O10 0.673470 0.000000 0.584549
O O11 0.597380 0.500000 0.859941
O O12 0.500000 0.720104 0.000000
O O13 0.500000 0.244754 0.500000
O O14 0.366015 0.275940 0.735026
O O15 0.414316 0.000000 0.622281
O O16 0.676861 0.500000 0.096565
O O17 0.750000 0.250000 0.000000
#
# Coordination Sequence:
#
# PCOD8094707 Si02
#       6
#     8   8   8   8   8   8
#     4  11  21  40  67  94 121 162 213 259 313 376
#     4   9  19  36  63  92 120 158 206 253 307 370
#     4  12  26  43  62  92 130 168 208 259 315 372
#     4  10  19  38  66  93 121 160 206 255 310 373
#     4  11  23  39  62  95 129 165 209 259 311 373
#     4  11  23  41  62  90 127 168 210 261 317 372
#
# _framework density 19.804774999999999
#
# number of rings (size 3 to 8) (size 9 to 14) (size 15 to 20)
#    0.000    1.333    3.333    3.000    0.000    2.333 
#    0.000    6.667    0.000    0.000    0.000    0.000 
#    0.000    0.000    0.000    0.000    0.000    0.000 
#
# Total GULP energy -297717.155904 kJ/mol
# GULP energy per Si atom -12404.881496 kJ/mol
# Density = 1.975970 g / cm^3
# Si number density = 19.804775 Si / 1000 Ang^3
#
#
#
# Elastic Constant Matrix: (Units=GPa)
#
#
# Indices 1 2 3 4 5 6 
#
# 1 150.7233 9.4460 65.8453 -0.0001 0.6432 0.0000
# 2 9.4460 48.9467 16.2934 -0.0010 -6.9429 -0.0002
# 3 65.8453 16.2934 119.2457 -0.0006 -3.3643 0.0000
# 4 -0.0001 -0.0010 -0.0006 33.0275 -0.0003 0.5221
# 5 0.6432 -6.9429 -3.3643 -0.0003 42.7167 0.0001
# 6 0.0000 -0.0002 0.0000 0.5221 0.0001 29.0005
#
#
#
# Elastic Compliance Matrix: (Units=1/GPa)
#
#
# Indices 1 2 3 4 5 6 
#
# 1 0.008756 -0.000159 -0.004829 0.000000 -0.000538 0.000000
# 2 -0.000159 0.021868 -0.002806 0.000001 0.003336 0.000000
# 3 -0.004829 -0.002806 0.011450 0.000000 0.000518 0.000000
# 4 0.000000 0.000001 0.000000 0.030286 0.000000 -0.000545
# 5 -0.000538 0.003336 0.000518 0.000000 0.024001 0.000000
# 6 0.000000 0.000000 0.000000 -0.000545 0.000000 0.034492
#
#
# Mechanical properties :
#
#
# Convention : Reuss Voigt Hill
#
# Bulk Modulus (GPa) = 37.75318 55.78721 46.77019
# Shear Modulus (GPa) = 32.20176 36.10435 34.15305
#
# Velocity S-wave (km/s) = 4.03669 4.27431 4.15720
# Velocity P-wave (km/s) = 6.38988 7.25185 6.83447
#
# Compressibility (1/GPa) = 0.02648784
#
# Stress axis : x y z
#
# Youngs Moduli (GPa) = 114.20300 45.72821 87.33358
#
# Poissons Ratio (x) = 0.00726 0.42170
# Poissons Ratio (y) = 0.01814 0.24508
# Poissons Ratio (z) = 0.55144 0.12832
#
# Static dielectric constant tensor:
#      x y z
#    x 3.781760 0.000000 -0.000880 
#    y 0.000000 3.462520 0.000000 
#    z -0.000880 0.000000 3.628620 
# 
# 
# High freq. dielectric constant tensor:
#      x y z
#    x 1.785530 0.000000 0.007090 
#    y 0.000000 1.760190 0.000000 
#    z 0.007090 0.000000 1.777240 
# 
# From -- ./inp_files/244691.got.cif
#   From: 2010.06.25/outbox.cif.g09.slc.cpg/sg12_123_cif.got.tgz:244691.got - 2010.06.28 00:19:55.
