data_PCOD8094521
_publ_section_title
;
Structure prediction by ZEFSAII (Michael W. Deem and Ramdas Pophale) SiO2 
 PCOD8094521
Probable space group: C 2/M
;
_chemical_formula_sum "Si O2"
_cell_formula_units_Z 64
_cell_length_a 19.312210
_cell_length_b 15.911344
_cell_length_c 11.565668
_cell_angle_alpha 90.000000
_cell_angle_beta 53.210439
_cell_angle_gamma 90.000000
_cell_volume 2846.135604
_symmetry_space_group_name_H-M "C 2/M"
_symmetry_group_IT_number 12
_symmetry_cell_setting 'monoclinic'
loop_
_space_group_symop_operation_xyz
x,y,z
-x,y,-z
-x,-y,-z
x,-y,z
1/2+x,1/2+y,z
1/2-x,1/2+y,-z
1/2-x,1/2-y,-z
1/2+x,1/2-y,z
loop_
_atom_site_type_symbol
_atom_site_label
_atom_site_fract_x
_atom_site_fract_y
_atom_site_fract_z
Si Si1 0.848239 0.098915 0.656662
Si Si2 0.575017 0.846669 0.704756
Si Si3 0.109300 0.403969 0.145297
Si Si4 0.390701 0.596030 0.863896
Si Si5 0.250001 0.600735 0.183402
Si Si6 0.750000 0.659418 0.564260
Si Si7 0.151761 0.401085 0.853140
Si Si8 0.575017 0.346671 0.645210
O O1 0.864667 0.138479 0.767519
O O2 0.750000 0.118920 0.716021
O O3 0.916552 0.141722 0.501246
O O4 0.867022 0.000000 0.637664
O O5 0.492880 0.893570 0.731907
O O6 0.661838 0.887482 0.562145
O O7 0.583448 0.858278 0.834350
O O8 0.564739 0.749999 0.685262
O O9 0.136147 0.500000 0.107998
O O10 0.165327 0.369237 0.196119
O O11 0.135333 0.361521 0.996853
O O12 0.363852 0.500000 0.880290
O O13 0.492881 0.606427 0.782333
O O14 0.334674 0.630762 0.026773
O O15 0.250000 0.500000 0.212238
O O16 0.250001 0.659475 0.296718
O O17 0.750000 0.750000 0.500000
O O18 0.661839 0.612516 0.614177
O O19 0.132977 0.500000 0.871706
#
# Coordination Sequence:
#
# PCOD8094521 Si02
#       8
#     8   8   8   8   8   8   8   8
#     4  10  19  37  69  98 125 164 211 267 327 381
#     4  11  23  41  59  92 132 175 215 258 311 387
#     4  10  21  42  68  99 128 158 209 272 328 386
#     4  10  21  42  68  99 128 158 209 272 328 386
#     4  10  22  43  71  96 127 166 213 271 330 382
#     4  10  24  45  60  84 131 175 212 261 313 384
#     4  10  19  37  69  98 125 164 211 267 327 381
#     4  11  23  41  59  92 132 175 215 258 311 387
#
# _framework density 22.486630000000002
#
# number of rings (size 3 to 8) (size 9 to 14) (size 15 to 20)
#    0.000    1.750    2.500    1.500    0.000    5.000 
#   18.000    3.125    0.000    0.000    0.000    0.000 
#    0.000    0.000    0.000    0.000    0.000    0.000 
#
# Total GULP energy -396661.555173 kJ/mol
# GULP energy per Si atom -12395.673599 kJ/mol
# Density = 2.243545 g / cm^3
# Si number density = 22.486630 Si / 1000 Ang^3
#
#
#
# Elastic Constant Matrix: (Units=GPa)
#
#
# Indices 1 2 3 4 5 6 
#
# 1 152.2821 19.2587 90.9811 0.0000 -3.0718 0.0000
# 2 19.2587 42.3301 26.5225 0.0000 13.2401 0.0000
# 3 90.9811 26.5225 155.4076 0.0000 8.7627 0.0000
# 4 0.0000 0.0000 0.0000 43.8124 0.0000 -24.3183
# 5 -3.0718 13.2401 8.7627 0.0000 51.3800 0.0000
# 6 0.0000 0.0000 0.0000 -24.3183 0.0000 57.1580
#
#
#
# Elastic Compliance Matrix: (Units=1/GPa)
#
#
# Indices 1 2 3 4 5 6 
#
# 1 0.010331 -0.001656 -0.005881 0.000000 0.002047 0.000000
# 2 -0.001656 0.028761 -0.003550 0.000000 -0.006905 0.000000
# 3 -0.005881 -0.003550 0.010553 0.000000 -0.001237 0.000000
# 4 0.000000 0.000000 0.000000 0.029881 0.000000 0.012713
# 5 0.002047 -0.006905 -0.001237 0.000000 0.021575 0.000000
# 6 0.000000 0.000000 0.000000 0.012713 0.000000 0.022904
#
#
# Mechanical properties :
#
#
# Convention : Reuss Voigt Hill
#
# Bulk Modulus (GPa) = 36.40052 69.28274 52.84163
# Shear Modulus (GPa) = 32.18809 44.68723 38.43766
#
# Velocity S-wave (km/s) = 3.78753 4.46273 4.13892
# Velocity P-wave (km/s) = 5.94558 7.57840 6.81110
#
# Compressibility (1/GPa) = 0.02747214
#
# Stress axis : x y z
#
# Youngs Moduli (GPa) = 96.79509 34.76920 94.75783
#
# Poissons Ratio (x) = 0.05757 0.55728
# Poissons Ratio (y) = 0.16027 0.33637
# Poissons Ratio (z) = 0.56926 0.12342
#
# Static dielectric constant tensor:
#      x y z
#    x 4.392710 0.000000 -0.134670 
#    y 0.000000 3.536970 0.000000 
#    z -0.134670 0.000000 4.318820 
# 
# 
# High freq. dielectric constant tensor:
#      x y z
#    x 1.899080 0.000000 -0.006440 
#    y 0.000000 1.845650 0.000000 
#    z -0.006440 0.000000 1.895540 
# 
# From -- ./inp_files/168748.got.cif
#   From: 2010.06.25/outbox.cif.g09.slc.cpg/sg12_85_cif.got.tgz:168748.got - 2010.06.28 00:19:55.
