data_PCOD8094933
_publ_section_title
;
Structure prediction by ZEFSAII (Michael W. Deem and Ramdas Pophale) SiO2 
 PCOD8094933
Probable space group: C 2/M
;
_chemical_formula_sum "Si O2"
_cell_formula_units_Z 48
_cell_length_a 9.132539
_cell_length_b 17.754936
_cell_length_c 27.648225
_cell_angle_alpha 90.000000
_cell_angle_beta 147.387089
_cell_angle_gamma 90.000000
_cell_volume 2416.211388
_symmetry_space_group_name_H-M "C 2/M"
_symmetry_group_IT_number 12
_symmetry_cell_setting 'monoclinic'
loop_
_space_group_symop_operation_xyz
x,y,z
-x,y,-z
-x,-y,-z
x,-y,z
1/2+x,1/2+y,z
1/2-x,1/2+y,-z
1/2-x,1/2-y,-z
1/2+x,1/2-y,z
loop_
_atom_site_type_symbol
_atom_site_label
_atom_site_fract_x
_atom_site_fract_y
_atom_site_fract_z
Si Si1 0.578718 0.853114 0.971740
Si Si2 0.033369 0.310079 0.423703
Si Si3 0.177980 0.202208 0.130096
Si Si4 0.590154 0.208372 0.328607
Si Si5 0.980807 0.083674 0.552029
Si Si6 0.318448 0.917771 0.097715
O O1 0.389978 0.778653 0.917394
O O2 0.521472 0.902505 0.908005
O O3 0.500000 0.895606 0.000000
O O4 0.897101 0.837687 0.064113
O O5 0.751993 0.288798 0.372124
O O6 0.250000 0.250000 0.500000
O O7 0.981228 0.307320 0.351711
O O8 0.170409 0.389421 0.478011
O O9 0.330056 0.216718 0.222433
O O10 0.372791 0.149110 0.151083
O O11 0.787993 0.141120 0.364332
O O12 0.000000 0.083010 0.500000
O O13 0.027079 0.000000 0.586658
O O14 0.413442 0.000000 0.143643
O O15 0.000000 0.918693 0.000000
#
# Coordination Sequence:
#
# PCOD8094933 Si02
#       6
#     8   8   8   8   8   8
#     4  10  20  34  55  78 113 143 189 236 284 325
#     4   9  18  33  51  78 105 139 173 222 270 322
#     4  10  20  33  52  82 109 149 187 236 276 332
#     4  10  20  30  54  80 107 137 183 223 269 324
#     4   8  15  31  52  74 102 136 174 216 262 317
#     4   9  19  36  55  76 107 148 184 222 281 342
#
# _framework density 19.865812999999999
#
# number of rings (size 3 to 8) (size 9 to 14) (size 15 to 20)
#    0.000    2.667    0.000    4.000    4.667    1.000 
#    0.000    0.000    0.000    9.000    0.000    0.000 
#    0.000    0.000    0.000    0.000    0.000    0.000 
#
# Total GULP energy -297346.412446 kJ/mol
# GULP energy per Si atom -12389.433852 kJ/mol
# Density = 1.982060 g / cm^3
# Si number density = 19.865813 Si / 1000 Ang^3
#
#
#
# Elastic Constant Matrix: (Units=GPa)
#
#
# Indices 1 2 3 4 5 6 
#
# 1 69.3910 15.5052 -3.0037 0.0010 -10.5510 0.0005
# 2 15.5052 79.9671 4.3823 -0.0005 9.4664 -0.0005
# 3 -3.0037 4.3823 75.3108 0.0012 -8.8970 0.0021
# 4 0.0010 -0.0005 0.0012 9.3268 0.0022 -8.2342
# 5 -10.5510 9.4664 -8.8970 0.0022 19.4151 0.0017
# 6 0.0005 -0.0005 0.0021 -8.2342 0.0017 16.4251
#
#
#
# Elastic Compliance Matrix: (Units=1/GPa)
#
#
# Indices 1 2 3 4 5 6 
#
# 1 0.017696 -0.005148 0.002578 -0.000014 0.013308 -0.000009
# 2 -0.005148 0.014959 -0.002398 0.000011 -0.011190 0.000008
# 3 0.002578 -0.002398 0.014615 -0.000013 0.009267 -0.000009
# 4 -0.000014 0.000011 -0.000013 0.192351 -0.000049 0.096429
# 5 0.013308 -0.011190 0.009267 -0.000049 0.068441 -0.000034
# 6 -0.000009 0.000008 -0.000009 0.096429 -0.000034 0.109224
#
#
# Mechanical properties :
#
#
# Convention : Reuss Voigt Hill
#
# Bulk Modulus (GPa) = 26.78447 28.71515 27.74981
# Shear Modulus (GPa) = 11.37218 22.88574 17.12896
#
# Velocity S-wave (km/s) = 2.39519 3.39782 2.93957
# Velocity P-wave (km/s) = 4.60013 5.46621 5.05177
#
# Compressibility (1/GPa) = 0.03733507
#
# Stress axis : x y z
#
# Youngs Moduli (GPa) = 56.50839 66.84772 68.42067
#
# Poissons Ratio (x) = 0.34413 -0.17636
# Poissons Ratio (y) = 0.29090 0.16406
# Poissons Ratio (z) = -0.14565 0.16029
#
# Static dielectric constant tensor:
#      x y z
#    x 5.366970 -0.000070 0.511870 
#    y -0.000070 4.586000 -0.000010 
#    z 0.511870 -0.000010 3.570650 
# 
# 
# High freq. dielectric constant tensor:
#      x y z
#    x 1.763910 0.000000 -0.009070 
#    y 0.000000 1.754800 0.000000 
#    z -0.009070 0.000000 1.754610 
# 
# From -- ./inp_files/356960.got.cif
#   From: 2010.06.25/outbox.cif.g09.slc.cpg/sg12_179_cif.got.tgz:356960.got - 2010.06.28 00:19:55.
