data_PCOD8094261
_publ_section_title
;
Structure prediction by ZEFSAII (Michael W. Deem and Ramdas Pophale) SiO2 
 PCOD8094261
Probable space group: C 2/M
;
_chemical_formula_sum "Si O2"
_cell_formula_units_Z 64
_cell_length_a 30.643334
_cell_length_b 8.750789
_cell_length_c 16.509673
_cell_angle_alpha 90.000000
_cell_angle_beta 132.167216
_cell_angle_gamma 90.000000
_cell_volume 3281.334932
_symmetry_space_group_name_H-M "C 2/M"
_symmetry_group_IT_number 12
_symmetry_cell_setting 'monoclinic'
loop_
_space_group_symop_operation_xyz
x,y,z
-x,y,-z
-x,-y,-z
x,-y,z
1/2+x,1/2+y,z
1/2-x,1/2+y,-z
1/2-x,1/2-y,-z
1/2+x,1/2-y,z
loop_
_atom_site_type_symbol
_atom_site_label
_atom_site_fract_x
_atom_site_fract_y
_atom_site_fract_z
Si Si1 0.635410 0.320456 0.080806
Si Si2 0.082889 0.680195 0.859717
Si Si3 0.564496 0.331262 0.561959
Si Si4 0.155069 0.830338 0.811358
Si Si5 0.048928 0.317741 0.287948
Si Si6 0.636309 0.825933 0.528087
Si Si7 0.439069 0.179090 0.880696
Si Si8 0.729786 0.819070 0.767418
O O1 0.628045 0.500000 0.056769
O O2 0.613107 0.273600 0.141921
O O3 0.703156 0.269868 0.158197
O O4 0.596865 0.227407 0.968761
O O5 0.085904 0.500000 0.855256
O O6 0.134665 0.748051 0.868119
O O7 0.015366 0.737206 0.758159
O O8 0.500000 0.278760 0.500000
O O9 0.568276 0.500000 0.524486
O O10 0.596509 0.339633 0.686861
O O11 0.587845 0.193185 0.537107
O O12 0.205890 0.745724 0.823198
O O13 0.178468 0.000000 0.862740
O O14 0.049945 0.500000 0.293948
O O15 0.105065 0.250535 0.409640
O O16 0.057530 0.261716 0.207089
O O17 0.695110 0.752316 0.643544
O O18 0.649995 0.000000 0.524743
O O19 0.424700 0.000000 0.867534
O O20 0.500000 0.218547 0.000000
O O21 0.720485 0.000000 0.758248
#
# Coordination Sequence:
#
# PCOD8094261 Si02
#       8
#     8   8   8   8   8   8   8   8
#     4  11  23  38  56  80 108 140 181 224 269 319
#     4  11  21  35  55  81 111 143 180 222 272 322
#     4   9  17  29  45  69 106 143 173 212 267 318
#     4  10  20  33  51  78 109 143 183 224 265 314
#     4   9  18  33  56  84 109 136 175 222 268 320
#     4   9  17  32  54  76 100 136 180 220 258 305
#     4  10  19  37  60  82 110 140 174 216 269 326
#     4   9  20  38  56  75 106 147 185 221 261 312
#
# _framework density 19.504258
#
# number of rings (size 3 to 8) (size 9 to 14) (size 15 to 20)
#    0.000    2.250    1.250    1.875    0.000    2.500 
#    0.000    1.875    0.000    0.000    0.000    0.000 
#    0.000    0.000    0.000    0.000    0.000    0.000 
#
# Total GULP energy -396464.277177 kJ/mol
# GULP energy per Si atom -12389.508662 kJ/mol
# Density = 1.945987 g / cm^3
# Si number density = 19.504258 Si / 1000 Ang^3
#
#
#
# Elastic Constant Matrix: (Units=GPa)
#
#
# Indices 1 2 3 4 5 6 
#
# 1 113.8865 25.9431 28.0888 0.0000 -1.7427 0.0000
# 2 25.9431 37.7603 12.2691 0.0000 -0.7149 0.0000
# 3 28.0888 12.2691 78.1386 0.0000 -11.9015 0.0000
# 4 0.0000 0.0000 0.0000 18.0939 0.0000 -4.4414
# 5 -1.7427 -0.7149 -11.9015 0.0000 27.2608 0.0000
# 6 0.0000 0.0000 0.0000 -4.4414 0.0000 29.5710
#
#
#
# Elastic Compliance Matrix: (Units=1/GPa)
#
#
# Indices 1 2 3 4 5 6 
#
# 1 0.011023 -0.006598 -0.003048 0.000000 -0.000799 0.000000
# 2 -0.006598 0.031897 -0.002757 0.000000 -0.000789 0.000000
# 3 -0.003048 -0.002757 0.015303 0.000000 0.006414 0.000000
# 4 0.000000 0.000000 0.000000 0.057383 0.000000 0.008619
# 5 -0.000799 -0.000789 0.006414 0.000000 0.039411 0.000000
# 6 0.000000 0.000000 0.000000 0.008619 0.000000 0.035111
#
#
# Mechanical properties :
#
#
# Convention : Reuss Voigt Hill
#
# Bulk Modulus (GPa) = 29.92463 40.26527 35.09495
# Shear Modulus (GPa) = 22.11664 25.88410 24.00037
#
# Velocity S-wave (km/s) = 3.37105 3.64689 3.51168
# Velocity P-wave (km/s) = 5.52521 6.19857 5.87155
#
# Compressibility (1/GPa) = 0.03341728
#
# Stress axis : x y z
#
# Youngs Moduli (GPa) = 90.71663 31.35103 65.34534
#
# Poissons Ratio (x) = 0.20686 0.19919
# Poissons Ratio (y) = 0.59857 0.18013
# Poissons Ratio (z) = 0.27653 0.08642
#
# Static dielectric constant tensor:
#      x y z
#    x 3.443100 0.000000 0.052660 
#    y 0.000000 3.389190 0.000000 
#    z 0.052660 0.000000 3.831070 
# 
# 
# High freq. dielectric constant tensor:
#      x y z
#    x 1.749600 0.000000 0.004270 
#    y 0.000000 1.739020 0.000000 
#    z 0.004270 0.000000 1.765420 
# 
# From -- ./inp_files/249152.got.cif
#   From: 2010.06.25/outbox.cif.g09.slc.cpg/sg12_125_cif.got.tgz:249152.got - 2010.06.28 00:19:55.
