data_PCOD8094906
_publ_section_title
;
Structure prediction by ZEFSAII (Michael W. Deem and Ramdas Pophale) SiO2 
 PCOD8094906
Probable space group: C 2/M
;
_chemical_formula_sum "Si O2"
_cell_formula_units_Z 44
_cell_length_a 7.981808
_cell_length_b 27.876139
_cell_length_c 12.012335
_cell_angle_alpha 90.000000
_cell_angle_beta 59.906490
_cell_angle_gamma 90.000000
_cell_volume 2312.501224
_symmetry_space_group_name_H-M "C 2/M"
_symmetry_group_IT_number 12
_symmetry_cell_setting 'monoclinic'
loop_
_space_group_symop_operation_xyz
x,y,z
-x,y,-z
-x,-y,-z
x,-y,z
1/2+x,1/2+y,z
1/2-x,1/2+y,-z
1/2-x,1/2-y,-z
1/2+x,1/2-y,z
loop_
_atom_site_type_symbol
_atom_site_label
_atom_site_fract_x
_atom_site_fract_y
_atom_site_fract_z
Si Si1 0.294666 0.195949 0.513068
Si Si2 0.582187 0.944037 0.095185
Si Si3 0.631766 0.369996 0.731057
Si Si4 0.626985 0.553442 0.566672
Si Si5 0.435894 0.890648 0.348636
Si Si6 0.000000 0.900084 0.000000
O O1 0.500000 0.194985 0.500000
O O2 0.250000 0.250000 0.500000
O O3 0.129140 0.178140 0.656221
O O4 0.309379 0.159329 0.401596
O O5 0.448569 0.910623 0.218632
O O6 0.810321 0.932272 0.037913
O O7 0.552321 0.000000 0.134842
O O8 0.500000 0.932975 0.000000
O O9 0.534559 0.413698 0.694716
O O10 0.852811 0.383812 0.674360
O O11 0.527702 0.364633 0.884835
O O12 0.500000 0.557937 0.500000
O O13 0.632934 0.500000 0.612875
O O14 0.840816 0.570180 0.461283
#
# Coordination Sequence:
#
# PCOD8094906 Si02
#       6
#     8   8   8   8   8   4
#     4   9  18  35  58  82 104 134 178 230 287 337
#     4  10  21  35  55  80 113 155 192 227 266 327
#     4   9  20  36  55  75 106 145 180 223 269 332
#     4  10  20  30  47  77 108 136 176 228 271 316
#     4   9  19  36  53  73 107 142 179 227 277 323
#     4  10  21  38  56  78 114 152 190 224 269 330
#
# _framework density 19.027018000000002
#
# number of rings (size 3 to 8) (size 9 to 14) (size 15 to 20)
#    0.000    2.545    0.000    2.455    2.545    8.000 
#    0.000    0.000    2.000    3.273    0.000    0.000 
#    0.000    0.000    0.000    0.000    0.000    0.000 
#
# Total GULP energy -272540.595023 kJ/mol
# GULP energy per Si atom -12388.208865 kJ/mol
# Density = 1.898371 g / cm^3
# Si number density = 19.027018 Si / 1000 Ang^3
#
#
#
# Elastic Constant Matrix: (Units=GPa)
#
#
# Indices 1 2 3 4 5 6 
#
# 1 26.3275 22.7105 27.6885 0.0000 1.1428 0.0000
# 2 22.7105 158.7114 86.8252 0.0000 12.2434 0.0000
# 3 27.6885 86.8252 154.9161 0.0000 5.0526 0.0000
# 4 0.0000 0.0000 0.0000 22.8069 0.0000 5.1645
# 5 1.1428 12.2434 5.0526 0.0000 21.7387 0.0000
# 6 0.0000 0.0000 0.0000 5.1645 0.0000 22.3986
#
#
#
# Elastic Compliance Matrix: (Units=1/GPa)
#
#
# Indices 1 2 3 4 5 6 
#
# 1 0.047843 -0.003201 -0.006785 0.000000 0.000865 0.000000
# 2 -0.003201 0.009653 -0.004702 0.000000 -0.004176 0.000000
# 3 -0.006785 -0.004702 0.010283 0.000000 0.000615 0.000000
# 4 0.000000 0.000000 0.000000 0.046262 0.000000 -0.010667
# 5 0.000865 -0.004176 0.000615 0.000000 0.048164 0.000000
# 6 0.000000 0.000000 0.000000 -0.010667 0.000000 0.047105
#
#
# Mechanical properties :
#
#
# Convention : Reuss Voigt Hill
#
# Bulk Modulus (GPa) = 26.03973 68.26705 47.15339
# Shear Modulus (GPa) = 19.88174 26.90423 23.39299
#
# Velocity S-wave (km/s) = 3.23603 3.76440 3.51017
# Velocity P-wave (km/s) = 5.26098 7.40616 6.42375
#
# Compressibility (1/GPa) = 0.03840285
#
# Stress axis : x y z
#
# Youngs Moduli (GPa) = 20.90190 103.59316 97.24662
#
# Poissons Ratio (x) = 0.33156 0.65985
# Poissons Ratio (y) = 0.06690 0.45726
# Poissons Ratio (z) = 0.14183 0.48710
#
# Static dielectric constant tensor:
#      x y z
#    x 3.517060 0.000000 0.115260 
#    y 0.000000 2.934200 0.000000 
#    z 0.115260 0.000000 3.891490 
# 
# 
# High freq. dielectric constant tensor:
#      x y z
#    x 1.739110 0.000000 0.005530 
#    y 0.000000 1.719490 0.000000 
#    z 0.005530 0.000000 1.741140 
# 
# From -- ./inp_files/122980.got.cif
#   From: 2010.06.25/outbox.cif.g09.slc.cpg/sg12_62_cif.got.tgz:122980.got - 2010.06.28 00:19:55.
