data_PCOD8094686
_publ_section_title
;
Structure prediction by ZEFSAII (Michael W. Deem and Ramdas Pophale) SiO2 
 PCOD8094686
Probable space group: C 2/M
;
_chemical_formula_sum "Si O2"
_cell_formula_units_Z 56
_cell_length_a 26.866602
_cell_length_b 13.735830
_cell_length_c 8.644095
_cell_angle_alpha 90.000000
_cell_angle_beta 58.160465
_cell_angle_gamma 90.000000
_cell_volume 2709.975278
_symmetry_space_group_name_H-M "C 2/M"
_symmetry_group_IT_number 12
_symmetry_cell_setting 'monoclinic'
loop_
_space_group_symop_operation_xyz
x,y,z
-x,y,-z
-x,-y,-z
x,-y,z
1/2+x,1/2+y,z
1/2-x,1/2+y,-z
1/2-x,1/2-y,-z
1/2+x,1/2-y,z
loop_
_atom_site_type_symbol
_atom_site_label
_atom_site_fract_x
_atom_site_fract_y
_atom_site_fract_z
Si Si1 0.031785 0.608919 0.103531
Si Si2 0.001794 0.208770 0.675781
Si Si3 0.876539 0.214653 0.369303
Si Si4 0.236515 0.195647 0.257830
Si Si5 0.347529 0.889911 0.243569
Si Si6 0.395579 0.389293 0.017125
Si Si7 0.724054 0.389175 0.946057
O O1 0.009387 0.500000 0.177024
O O2 0.014269 0.677780 0.274247
O O3 0.101782 0.611066 0.969497
O O4 0.000000 0.648115 0.000000
O O5 0.066449 0.185510 0.629113
O O6 0.000000 0.181458 0.500000
O O7 0.956841 0.143058 0.844441
O O8 0.821534 0.171516 0.550966
O O9 0.869686 0.331659 0.359474
O O10 0.879048 0.172920 0.192920
O O11 0.291041 0.164260 0.271349
O O12 0.239462 0.311285 0.215329
O O13 0.236141 0.130313 0.105568
O O14 0.332572 0.000000 0.318060
O O15 0.401514 0.500000 0.061069
O O16 0.344983 0.375186 0.972347
O O17 0.743884 0.500000 0.872691
#
# Coordination Sequence:
#
# PCOD8094686 Si02
#       7
#     8   8   8   8   8   8   8
#     4  10  19  38  65  90 121 163 208 257 314 372
#     4  12  24  41  64  92 128 166 207 263 322 381
#     4  12  24  41  64  94 125 166 215 264 315 376
#     4  11  23  41  63  96 134 169 209 258 318 377
#     4  11  22  38  65  93 124 165 209 259 315 375
#     4  11  24  44  67  92 123 165 217 266 316 375
#     4  10  22  42  67  94 131 171 210 259 314 377
#
# _framework density 20.664396
#
# number of rings (size 3 to 8) (size 9 to 14) (size 15 to 20)
#    0.000    1.000    4.286    2.143    0.000    4.571 
#    0.000    0.000    0.000    0.000    0.000    0.000 
#    0.000    0.000    0.000    0.000    0.000    0.000 
#
# Total GULP energy -347295.287508 kJ/mol
# GULP energy per Si atom -12403.403125 kJ/mol
# Density = 2.061736 g / cm^3
# Si number density = 20.664396 Si / 1000 Ang^3
#
#
#
# Elastic Constant Matrix: (Units=GPa)
#
#
# Indices 1 2 3 4 5 6 
#
# 1 100.6746 15.2730 24.4216 0.0000 -12.9011 0.0000
# 2 15.2730 93.6177 14.2407 0.0000 -1.3221 0.0000
# 3 24.4216 14.2407 88.1966 0.0000 -15.8086 0.0000
# 4 0.0000 0.0000 0.0000 8.2613 0.0000 -0.9903
# 5 -12.9011 -1.3221 -15.8086 0.0000 30.7111 0.0000
# 6 0.0000 0.0000 0.0000 -0.9903 0.0000 27.8649
#
#
#
# Elastic Compliance Matrix: (Units=1/GPa)
#
#
# Indices 1 2 3 4 5 6 
#
# 1 0.011135 -0.001428 -0.002231 0.000000 0.003468 0.000000
# 2 -0.001428 0.011140 -0.001570 0.000000 -0.000928 0.000000
# 3 -0.002231 -0.001570 0.013252 0.000000 0.005817 0.000000
# 4 0.000000 0.000000 0.000000 0.121564 0.000000 0.004320
# 5 0.003468 -0.000928 0.005817 0.000000 0.036972 0.000000
# 6 0.000000 0.000000 0.000000 0.004320 0.000000 0.036041
#
#
# Mechanical properties :
#
#
# Convention : Reuss Voigt Hill
#
# Bulk Modulus (GPa) = 39.88899 43.37326 41.63113
# Shear Modulus (GPa) = 20.08679 28.60439 24.34559
#
# Velocity S-wave (km/s) = 3.12115 3.72457 3.43613
# Velocity P-wave (km/s) = 5.68629 6.28741 5.99439
#
# Compressibility (1/GPa) = 0.02506958
#
# Stress axis : x y z
#
# Youngs Moduli (GPa) = 89.80461 89.76328 75.45929
#
# Poissons Ratio (x) = 0.12821 0.16836
# Poissons Ratio (y) = 0.12826 0.11845
# Poissons Ratio (z) = 0.20037 0.14090
#
# Static dielectric constant tensor:
#      x y z
#    x 3.854660 0.000000 -0.087810 
#    y 0.000000 3.941600 0.000000 
#    z -0.087810 0.000000 3.611630 
# 
# 
# High freq. dielectric constant tensor:
#      x y z
#    x 1.818800 0.000000 -0.011290 
#    y 0.000000 1.817450 0.000000 
#    z -0.011290 0.000000 1.790940 
# 
# From -- ./inp_files/96777.got.cif
#   From: 2010.06.25/outbox.cif.g09.slc.cpg/sg12_49_cif.got.tgz:96777.got - 2010.06.28 00:19:55.
