data_PCOD8094796
_publ_section_title
;
Structure prediction by ZEFSAII (Michael W. Deem and Ramdas Pophale) SiO2 
 PCOD8094796
Probable space group: C 2/M
;
_chemical_formula_sum "Si O2"
_cell_formula_units_Z 40
_cell_length_a 16.669678
_cell_length_b 9.624241
_cell_length_c 16.195910
_cell_angle_alpha 90.000000
_cell_angle_beta 133.327535
_cell_angle_gamma 90.000000
_cell_volume 1890.157855
_symmetry_space_group_name_H-M "C 2/M"
_symmetry_group_IT_number 12
_symmetry_cell_setting 'monoclinic'
loop_
_space_group_symop_operation_xyz
x,y,z
-x,y,-z
-x,-y,-z
x,-y,z
1/2+x,1/2+y,z
1/2-x,1/2+y,-z
1/2-x,1/2-y,-z
1/2+x,1/2-y,z
loop_
_atom_site_type_symbol
_atom_site_label
_atom_site_fract_x
_atom_site_fract_y
_atom_site_fract_z
Si Si1 0.163494 0.000000 0.745241
Si Si2 0.803169 0.500000 0.172074
Si Si3 0.756624 0.227795 0.748833
Si Si4 0.842830 0.500000 0.014246
Si Si5 0.979511 0.717319 0.827926
Si Si6 0.767417 0.500000 0.401124
Si Si7 0.484418 0.500000 0.748833
Si Si8 0.945949 0.500000 0.668923
O O1 0.178976 0.863348 0.700139
O O2 0.253855 0.000000 0.880784
O O3 0.042324 0.000000 0.700138
O O4 0.749122 0.638267 0.171605
O O5 0.781792 0.500000 0.059367
O O6 0.932949 0.500000 0.285752
O O7 0.883822 0.271213 0.828394
O O8 0.715787 0.137205 0.642283
O O9 0.918471 0.636679 0.059367
O O10 0.930723 0.636328 0.714248
O O11 0.022089 0.867055 0.828394
O O12 0.647008 0.500000 0.357717
O O13 0.856669 0.500000 0.535003
#
# Coordination Sequence:
#
# PCOD8094796 Si02
#       8
#     4   4   8   4   8   4   4   4
#     4  12  22  37  60  85 115 150 193 257 292 321
#     4   9  20  39  59  86 117 150 193 238 280 354
#     4  10  21  36  57  84 119 146 188 242 285 330
#     4  10  22  39  60  81 112 163 202 221 289 364
#     4   9  20  39  59  86 117 150 193 238 280 354
#     4   9  22  43  60  79 115 165 193 224 292 363
#     4  10  21  36  57  84 119 146 188 242 285 330
#     4  10  19  39  66  81 112 163 199 221 280 364
#
# _framework density 21.162254999999998
#
# number of rings (size 3 to 8) (size 9 to 14) (size 15 to 20)
#    0.000    2.400    0.000    4.200    0.000    9.600 
#    0.000    6.000    0.000   10.800    0.000    0.000 
#    0.000    0.000    0.000    0.000    0.000    0.000 
#
# Total GULP energy -248062.205774 kJ/mol
# GULP energy per Si atom -12403.110289 kJ/mol
# Density = 2.111409 g / cm^3
# Si number density = 21.162255 Si / 1000 Ang^3
#
#
#
# Elastic Constant Matrix: (Units=GPa)
#
#
# Indices 1 2 3 4 5 6 
#
# 1 170.0875 66.1234 22.5757 0.0000 1.8462 0.0000
# 2 66.1234 169.8988 22.7907 0.0000 -4.6527 0.0000
# 3 22.5757 22.7907 110.0812 0.0000 1.1297 0.0000
# 4 0.0000 0.0000 0.0000 9.0943 0.0000 -4.6404
# 5 1.8462 -4.6527 1.1297 0.0000 8.8794 0.0000
# 6 0.0000 0.0000 0.0000 -4.6404 0.0000 51.6788
#
#
#
# Elastic Compliance Matrix: (Units=1/GPa)
#
#
# Indices 1 2 3 4 5 6 
#
# 1 0.007080 -0.002716 -0.000861 0.000000 -0.002786 0.000000
# 2 -0.002716 0.007196 -0.000979 0.000000 0.004460 0.000000
# 3 -0.000861 -0.000979 0.009479 0.000000 -0.001540 0.000000
# 4 0.000000 0.000000 0.000000 0.115240 0.000000 0.010348
# 5 -0.002786 0.004460 -0.001540 0.000000 0.115733 0.000000
# 6 0.000000 0.000000 0.000000 0.010348 0.000000 0.020279
#
#
# Mechanical properties :
#
#
# Convention : Reuss Voigt Hill
#
# Bulk Modulus (GPa) = 68.28868 74.78302 71.53585
# Shear Modulus (GPa) = 17.30103 36.50233 26.90168
#
# Velocity S-wave (km/s) = 2.86237 4.15767 3.56927
# Velocity P-wave (km/s) = 6.57749 7.64611 7.13184
#
# Compressibility (1/GPa) = 0.01464371
#
# Stress axis : x y z
#
# Youngs Moduli (GPa) = 141.24695 138.95836 105.49418
#
# Poissons Ratio (x) = 0.37744 0.09083
# Poissons Ratio (y) = 0.38365 0.10324
# Poissons Ratio (z) = 0.12161 0.13599
#
# Static dielectric constant tensor:
#      x y z
#    x 4.094840 0.000000 -0.014650 
#    y 0.000000 4.095070 0.000000 
#    z -0.014650 0.000000 3.191290 
# 
# 
# High freq. dielectric constant tensor:
#      x y z
#    x 1.850510 0.000000 -0.001060 
#    y 0.000000 1.850520 0.000000 
#    z -0.001060 0.000000 1.784870 
# 
# From -- ./inp_files/274701.got.cif
#   From: 2010.06.25/outbox.cif.g09.slc.cpg/sg12_138_cif.got.tgz:274701.got - 2010.06.28 00:19:55.
