data_PCOD8094580
_publ_section_title
;
Structure prediction by ZEFSAII (Michael W. Deem and Ramdas Pophale) SiO2 
 PCOD8094580
Probable space group: C 2/M
;
_chemical_formula_sum "Si O2"
_cell_formula_units_Z 48
_cell_length_a 16.496670
_cell_length_b 18.739791
_cell_length_c 13.085806
_cell_angle_alpha 90.000000
_cell_angle_beta 33.473321
_cell_angle_gamma 90.000000
_cell_volume 2231.235051
_symmetry_space_group_name_H-M "C 2/M"
_symmetry_group_IT_number 12
_symmetry_cell_setting 'monoclinic'
loop_
_space_group_symop_operation_xyz
x,y,z
-x,y,-z
-x,-y,-z
x,-y,z
1/2+x,1/2+y,z
1/2-x,1/2+y,-z
1/2-x,1/2-y,-z
1/2+x,1/2-y,z
loop_
_atom_site_type_symbol
_atom_site_label
_atom_site_fract_x
_atom_site_fract_y
_atom_site_fract_z
Si Si1 0.358439 0.165302 0.370477
Si Si2 0.638185 0.081526 0.035057
Si Si3 0.160506 0.668530 0.368286
Si Si4 0.359464 0.319339 0.702727
Si Si5 0.830724 0.917431 0.031154
Si Si6 0.958174 0.815608 0.295654
O O1 0.467984 0.104713 0.215573
O O2 0.328992 0.160436 0.522240
O O3 0.195772 0.156102 0.491601
O O4 0.425094 0.242395 0.269173
O O5 0.707104 0.093391 0.074286
O O6 0.645610 0.000000 0.993009
O O7 0.726715 0.125324 0.855663
O O8 0.197324 0.749883 0.297451
O O9 0.274667 0.614316 0.196686
O O10 0.000000 0.646214 0.500000
O O11 0.500000 0.356450 0.500000
O O12 0.420206 0.294214 0.748889
O O13 0.870588 0.000000 0.004071
O O14 0.979417 0.876192 0.844639
#
# Coordination Sequence:
#
# PCOD8094580 Si02
#       6
#     8   8   8   8   8   8
#     4  11  21  36  58  86 112 142 181 230 281 319
#     4  10  21  36  57  83 112 148 184 222 274 331
#     4  11  19  34  59  85 110 140 186 231 266 319
#     4  10  19  38  61  83 106 142 192 230 267 319
#     4  10  21  36  56  82 113 151 184 218 269 333
#     4  10  21  37  57  83 112 145 182 228 277 324
#
# _framework density 21.51275
#
# number of rings (size 3 to 8) (size 9 to 14) (size 15 to 20)
#    0.000    1.667    5.000    1.000    0.000    5.333 
#    0.000    1.667    0.000    1.000    0.000    0.000 
#    0.000    0.000    0.000    0.000    0.000    0.000 
#
# Total GULP energy -297583.668873 kJ/mol
# GULP energy per Si atom -12399.319536 kJ/mol
# Density = 2.146379 g / cm^3
# Si number density = 21.512750 Si / 1000 Ang^3
#
#
#
# Elastic Constant Matrix: (Units=GPa)
#
#
# Indices 1 2 3 4 5 6 
#
# 1 11.4058 1.4322 -1.0562 -0.0012 -0.9918 -0.0003
# 2 1.4322 111.8709 73.8121 -0.0005 4.8236 -0.0001
# 3 -1.0562 73.8121 120.2343 -0.0033 3.5213 0.0010
# 4 -0.0012 -0.0005 -0.0033 29.0974 0.0029 -2.5523
# 5 -0.9918 4.8236 3.5213 0.0029 31.8270 -0.0004
# 6 -0.0003 -0.0001 0.0010 -2.5523 -0.0004 16.9157
#
#
#
# Elastic Compliance Matrix: (Units=1/GPa)
#
#
# Indices 1 2 3 4 5 6 
#
# 1 0.088519 -0.002884 0.002462 0.000004 0.002923 0.000002
# 2 -0.002884 0.015169 -0.009298 -0.000001 -0.001360 0.000000
# 3 0.002462 -0.009298 0.014049 0.000002 -0.000068 -0.000001
# 4 0.000004 -0.000001 0.000002 0.034828 -0.000003 0.005255
# 5 0.002923 -0.001360 -0.000068 -0.000003 0.031725 0.000000
# 6 0.000002 0.000000 -0.000001 0.005255 0.000000 0.059910
#
#
# Mechanical properties :
#
#
# Convention : Reuss Voigt Hill
#
# Bulk Modulus (GPa) = 10.17310 43.54301 26.85805
# Shear Modulus (GPa) = 16.86882 26.85620 21.86251
#
# Velocity S-wave (km/s) = 2.80327 3.53708 3.19134
# Velocity P-wave (km/s) = 3.90089 6.07995 5.10797
#
# Compressibility (1/GPa) = 0.09829846
#
# Stress axis : x y z
#
# Youngs Moduli (GPa) = 11.29696 65.92331 71.18091
#
# Poissons Ratio (x) = 0.19012 -0.17528
# Poissons Ratio (y) = 0.03258 0.66183
# Poissons Ratio (z) = -0.02782 0.61295
#
# Static dielectric constant tensor:
#      x y z
#    x 3.812990 0.000000 -0.126200 
#    y 0.000000 3.738490 0.000000 
#    z -0.126200 0.000000 4.131320 
# 
# 
# High freq. dielectric constant tensor:
#      x y z
#    x 1.827530 0.000000 -0.005470 
#    y 0.000000 1.826780 0.000000 
#    z -0.005470 0.000000 1.853170 
# 
# From -- ./inp_files/63369.got.cif
#   From: 2010.06.25/outbox.cif.g09.slc.cpg/sg12_32_cif.got.tgz:63369.got - 2010.06.28 00:19:55.
