data_PCOD8094783
_publ_section_title
;
Structure prediction by ZEFSAII (Michael W. Deem and Ramdas Pophale) SiO2 
 PCOD8094783
Probable space group: C 2/M
;
_chemical_formula_sum "Si O2"
_cell_formula_units_Z 52
_cell_length_a 8.715781
_cell_length_b 32.195294
_cell_length_c 15.513317
_cell_angle_alpha 90.000000
_cell_angle_beta 36.579692
_cell_angle_gamma 90.000000
_cell_volume 2594.215898
_symmetry_space_group_name_H-M "C 2/M"
_symmetry_group_IT_number 12
_symmetry_cell_setting 'monoclinic'
loop_
_space_group_symop_operation_xyz
x,y,z
-x,y,-z
-x,-y,-z
x,-y,z
1/2+x,1/2+y,z
1/2-x,1/2+y,-z
1/2-x,1/2-y,-z
1/2+x,1/2-y,z
loop_
_atom_site_type_symbol
_atom_site_label
_atom_site_fract_x
_atom_site_fract_y
_atom_site_fract_z
Si Si1 0.691940 0.911659 0.246644
Si Si2 0.260970 0.000000 0.045985
Si Si3 0.891376 0.336726 0.457233
Si Si4 0.685077 0.000000 0.333785
Si Si5 0.614041 0.694871 0.264263
Si Si6 0.000000 0.356924 0.000000
Si Si7 0.275077 0.087597 0.964692
Si Si8 0.804725 0.725247 0.348331
O O1 0.510924 0.881741 0.384515
O O2 0.634364 0.904527 0.172761
O O3 0.629628 0.958821 0.302743
O O4 0.989688 0.898409 0.122855
O O5 0.500000 0.000000 0.000000
O O6 0.286918 0.961362 0.971541
O O7 0.989879 0.000000 0.221362
O O8 0.581088 0.338624 0.604921
O O9 0.945155 0.305267 0.353529
O O10 0.000000 0.320130 0.500000
O O11 0.500000 0.000000 0.500000
O O12 0.827033 0.709142 0.239586
O O13 0.450081 0.731692 0.295936
O O14 0.754885 0.672531 0.122130
O O15 0.022104 0.386575 0.072070
O O16 0.500000 0.731227 0.500000
#
# Coordination Sequence:
#
# PCOD8094783 Si02
#       8
#     8   4   8   4   8   4   8   8
#     4  10  21  38  61  89 119 153 192 245 286 341
#     4  10  19  39  65  85 116 167 200 237 292 349
#     4  11  20  36  61  85 113 151 192 238 292 342
#     4  10  21  37  63  94 123 153 204 249 289 345
#     4  11  23  38  58  82 114 151 194 238 295 345
#     4  12  24  37  56  86 118 152 190 243 292 354
#     4  10  21  38  60  87 117 154 201 233 285 351
#     4  10  21  39  60  83 109 148 196 241 286 355
#
# _framework density 20.044592000000002
#
# number of rings (size 3 to 8) (size 9 to 14) (size 15 to 20)
#    0.000    1.538    0.769    6.000    0.000    3.692 
#    0.000    1.538    0.000    0.923    0.000    0.000 
#    0.000    0.000    0.000    0.000    0.000    0.000 
#
# Total GULP energy -322266.565235 kJ/mol
# GULP energy per Si atom -12394.867894 kJ/mol
# Density = 1.999897 g / cm^3
# Si number density = 20.044592 Si / 1000 Ang^3
#
#
#
# Elastic Constant Matrix: (Units=GPa)
#
#
# Indices 1 2 3 4 5 6 
#
# 1 121.9344 50.3160 21.6092 0.0000 9.1901 0.0000
# 2 50.3160 124.9036 47.2123 0.0000 -5.7884 0.0000
# 3 21.6092 47.2123 78.5368 0.0000 -0.8507 0.0000
# 4 0.0000 0.0000 0.0000 25.8190 0.0000 -1.6144
# 5 9.1901 -5.7884 -0.8507 0.0000 22.8344 0.0000
# 6 0.0000 0.0000 0.0000 -1.6144 0.0000 26.9939
#
#
#
# Elastic Compliance Matrix: (Units=1/GPa)
#
#
# Indices 1 2 3 4 5 6 
#
# 1 0.010447 -0.004330 -0.000329 0.000000 -0.005315 0.000000
# 2 -0.004330 0.012288 -0.006145 0.000000 0.004629 0.000000
# 3 -0.000329 -0.006145 0.016509 0.000000 -0.000810 0.000000
# 4 0.000000 0.000000 0.000000 0.038877 0.000000 0.002325
# 5 -0.005315 0.004629 -0.000810 0.000000 0.047076 0.000000
# 6 0.000000 0.000000 0.000000 0.002325 0.000000 0.037184
#
#
# Mechanical properties :
#
#
# Convention : Reuss Voigt Hill
#
# Bulk Modulus (GPa) = 56.70623 62.62774 59.66699
# Shear Modulus (GPa) = 26.33412 28.87860 27.60636
#
# Velocity S-wave (km/s) = 3.62854 3.79980 3.71515
# Velocity P-wave (km/s) = 6.77543 7.11079 6.94514
#
# Compressibility (1/GPa) = 0.01763475
#
# Stress axis : x y z
#
# Youngs Moduli (GPa) = 95.72225 81.38016 60.57375
#
# Poissons Ratio (x) = 0.35241 0.01991
# Poissons Ratio (y) = 0.41452 0.37224
# Poissons Ratio (z) = 0.03147 0.50010
#
# Static dielectric constant tensor:
#      x y z
#    x 3.720140 0.000000 0.071100 
#    y 0.000000 3.602470 0.000000 
#    z 0.071100 0.000000 3.534560 
# 
# 
# High freq. dielectric constant tensor:
#      x y z
#    x 1.787180 0.000000 0.006800 
#    y 0.000000 1.789080 0.000000 
#    z 0.006800 0.000000 1.768200 
# 
# From -- ./inp_files/201230.got.cif
#   From: 2010.06.25/outbox.cif.g09.slc.cpg/sg12_101_cif.got.tgz:201230.got - 2010.06.28 00:19:55.
