data_PCOD8094706
_publ_section_title
;
Structure prediction by ZEFSAII (Michael W. Deem and Ramdas Pophale) SiO2 
 PCOD8094706
Probable space group: C 2/M
;
_chemical_formula_sum "Si O2"
_cell_formula_units_Z 52
_cell_length_a 14.743289
_cell_length_b 9.953293
_cell_length_c 28.015360
_cell_angle_alpha 90.000000
_cell_angle_beta 141.597757
_cell_angle_gamma 90.000000
_cell_volume 2553.722851
_symmetry_space_group_name_H-M "C 2/M"
_symmetry_group_IT_number 12
_symmetry_cell_setting 'monoclinic'
loop_
_space_group_symop_operation_xyz
x,y,z
-x,y,-z
-x,-y,-z
x,-y,z
1/2+x,1/2+y,z
1/2-x,1/2+y,-z
1/2-x,1/2-y,-z
1/2+x,1/2-y,z
loop_
_atom_site_type_symbol
_atom_site_label
_atom_site_fract_x
_atom_site_fract_y
_atom_site_fract_z
Si Si1 0.047691 0.234377 0.240071
Si Si2 0.317286 0.500000 0.577320
Si Si3 0.261725 0.646731 0.073450
Si Si4 0.742210 0.000000 0.653576
Si Si5 0.060928 0.848073 0.949151
Si Si6 0.967956 0.500000 0.597996
Si Si7 0.483461 0.257763 0.320410
Si Si8 0.345722 0.151288 0.810122
O O1 0.174890 0.125187 0.289122
O O2 0.093465 0.343951 0.219372
O O3 0.888574 0.174011 0.163680
O O4 0.037097 0.287211 0.289790
O O5 0.239909 0.500000 0.596124
O O6 0.200172 0.500000 0.486597
O O7 0.413085 0.366950 0.612200
O O8 0.192804 0.500000 0.057123
O O9 0.325756 0.639230 0.046914
O O10 0.139767 0.765514 0.024856
O O11 0.571928 0.000000 0.595143
O O12 0.921314 0.762688 0.874705
O O13 0.016130 0.000000 0.947379
O O14 0.009336 0.627409 0.645462
O O15 0.324534 0.322256 0.255696
O O16 0.379769 0.000000 0.842381
#
# Coordination Sequence:
#
# PCOD8094706 Si02
#       8
#     8   4   8   4   8   4   8   8
#     4  10  21  37  61  89 123 158 203 252 295 353
#     4  10  23  44  63  91 127 157 197 243 304 369
#     4   9  16  30  55  82 116 158 204 249 301 350
#     4  10  19  38  66  93 115 159 207 247 291 358
#     4   9  19  32  53  84 119 159 205 252 300 354
#     4  12  23  40  67  94 121 159 195 253 302 362
#     4  11  24  40  64  91 122 158 199 245 305 363
#     4  11  22  38  61  86 122 161 204 249 301 358
#
# _framework density 20.362428000000001
#
# number of rings (size 3 to 8) (size 9 to 14) (size 15 to 20)
#    0.000    1.846    3.077    1.154    3.231    3.692 
#    0.000    0.769    0.000    3.692    0.000    0.000 
#    0.000    0.000    0.000    0.000    0.000    0.000 
#
# Total GULP energy -322298.310933 kJ/mol
# GULP energy per Si atom -12396.088882 kJ/mol
# Density = 2.031608 g / cm^3
# Si number density = 20.362428 Si / 1000 Ang^3
#
#
#
# Elastic Constant Matrix: (Units=GPa)
#
#
# Indices 1 2 3 4 5 6 
#
# 1 54.6058 24.4311 13.8987 0.0000 13.1363 0.0000
# 2 24.4311 146.6353 32.2935 0.0000 16.0427 0.0000
# 3 13.8987 32.2935 67.8288 0.0000 17.4972 0.0000
# 4 0.0000 0.0000 0.0000 -12.9301 0.0000 66.6140
# 5 13.1363 16.0427 17.4972 0.0000 24.1270 0.0000
# 6 0.0000 0.0000 0.0000 66.6140 0.0000 -59.4916
#
#
#
# Elastic Compliance Matrix: (Units=1/GPa)
#
#
# Indices 1 2 3 4 5 6 
#
# 1 0.021946 -0.002406 -0.000839 0.000000 -0.009741 0.000000
# 2 -0.002406 0.008062 -0.002830 0.000000 -0.001999 0.000000
# 3 -0.000839 -0.002830 0.019263 0.000000 -0.011631 0.000000
# 4 0.000000 0.000000 0.000000 0.016218 0.000000 0.018160
# 5 -0.009741 -0.001999 -0.011631 0.000000 0.056515 0.000000
# 6 0.000000 0.000000 0.000000 0.018160 0.000000 0.003525
#
#
# Mechanical properties :
#
#
# Convention : Reuss Voigt Hill
#
# Bulk Modulus (GPa) = 26.93823 45.59072 36.26447
# Shear Modulus (GPa) = 33.32157 3.57083 18.44620
#
# Velocity S-wave (km/s) = 4.04966 1.32569 3.01307
# Velocity P-wave (km/s) = 5.92659 4.97810 5.47293
#
# Compressibility (1/GPa) = 0.03712197
#
# Stress axis : x y z
#
# Youngs Moduli (GPa) = 45.56555 124.03227 51.91414
#
# Poissons Ratio (x) = 0.29844 0.04354
# Poissons Ratio (y) = 0.10964 0.14692
# Poissons Ratio (z) = 0.03821 0.35101
#
# Static dielectric constant tensor:
#      x y z
#    x 3.500480 0.000000 0.021160 
#    y 0.000000 3.836060 0.000000 
#    z 0.021160 0.000000 3.644470 
# 
# 
# High freq. dielectric constant tensor:
#      x y z
#    x 1.783290 0.000000 0.004270 
#    y 0.000000 1.801430 0.000000 
#    z 0.004270 0.000000 1.794740 
# 
# From -- ./inp_files/375730.got.cif
#   From: 2010.06.25/outbox.cif.g09.slc.cpg/sg12_188_cif.got.tgz:375730.got - 2010.06.28 00:19:55.
