data_PCOD8094848
_publ_section_title
;
Structure prediction by ZEFSAII (Michael W. Deem and Ramdas Pophale) SiO2 
 PCOD8094848
Probable space group: C 2/M
;
_chemical_formula_sum "Si O2"
_cell_formula_units_Z 64
_cell_length_a 26.937397
_cell_length_b 27.792878
_cell_length_c 9.188301
_cell_angle_alpha 90.000000
_cell_angle_beta 152.741461
_cell_angle_gamma 90.000000
_cell_volume 3150.619175
_symmetry_space_group_name_H-M "C 2/M"
_symmetry_group_IT_number 12
_symmetry_cell_setting 'monoclinic'
loop_
_space_group_symop_operation_xyz
x,y,z
-x,y,-z
-x,-y,-z
x,-y,z
1/2+x,1/2+y,z
1/2-x,1/2+y,-z
1/2-x,1/2-y,-z
1/2+x,1/2-y,z
loop_
_atom_site_type_symbol
_atom_site_label
_atom_site_fract_x
_atom_site_fract_y
_atom_site_fract_z
Si Si1 0.805818 0.105971 0.772247
Si Si2 0.181367 0.556931 0.709756
Si Si3 0.957218 0.555231 0.239508
Si Si4 0.227282 0.682045 0.332769
Si Si5 0.783794 0.945912 0.447897
Si Si6 0.421683 0.746751 0.920087
Si Si7 0.006012 0.831195 0.356466
Si Si8 0.711364 0.621238 0.769817
O O1 0.730032 0.086436 0.702711
O O2 0.747128 0.145548 0.518401
O O3 0.830154 0.060383 0.731066
O O4 0.918330 0.125836 0.127228
O O5 0.216566 0.500000 0.804175
O O6 0.050354 0.560597 0.358636
O O7 0.215081 0.584541 0.945496
O O8 0.934160 0.500000 0.215756
O O9 0.000000 0.580359 0.500000
O O10 0.841397 0.575124 0.882456
O O11 0.321366 0.722007 0.577187
O O12 0.114308 0.709190 0.070526
O O13 0.221186 0.659375 0.154301
O O14 0.851340 0.912695 0.511463
O O15 0.795440 0.000000 0.427172
O O16 0.500000 0.767649 0.000000
O O17 0.486397 0.707919 0.182941
O O18 0.000000 0.806909 0.500000
O O19 0.125785 0.852507 0.648837
#
# Coordination Sequence:
#
# PCOD8094848 Si02
#       8
#     8   8   8   8   8   8   8   8
#     4  10  22  38  57  87 126 154 204 256 301 358
#     4  11  21  36  59  88 127 171 207 249 300 353
#     4   9  17  32  54  77 106 153 204 246 300 356
#     4   9  21  38  61  91 114 155 200 253 306 364
#     4  10  20  36  58  84 118 161 209 256 302 357
#     4  10  19  40  67  86 116 153 199 245 315 382
#     4  11  22  40  63  88 118 166 201 246 312 370
#     4  11  20  37  61  89 121 163 207 252 295 361
#
# _framework density 20.313466999999999
#
# number of rings (size 3 to 8) (size 9 to 14) (size 15 to 20)
#    0.000    1.875    3.750    0.750    0.000    0.500 
#    4.500    7.500    0.000    0.000    0.000    0.000 
#    0.000    0.000    0.000    0.000    0.000    0.000 
#
# Total GULP energy -396492.838936 kJ/mol
# GULP energy per Si atom -12390.401217 kJ/mol
# Density = 2.026723 g / cm^3
# Si number density = 20.313467 Si / 1000 Ang^3
#
#
#
# Elastic Constant Matrix: (Units=GPa)
#
#
# Indices 1 2 3 4 5 6 
#
# 1 125.1139 34.8756 11.6630 0.0000 6.7119 0.0000
# 2 34.8756 73.0659 9.5992 0.0000 15.2329 0.0000
# 3 11.6630 9.5992 36.7844 0.0000 2.9606 0.0000
# 4 0.0000 0.0000 0.0000 17.6656 0.0000 5.0549
# 5 6.7119 15.2329 2.9606 0.0000 29.0810 0.0000
# 6 0.0000 0.0000 0.0000 5.0549 0.0000 34.7099
#
#
#
# Elastic Compliance Matrix: (Units=1/GPa)
#
#
# Indices 1 2 3 4 5 6 
#
# 1 0.009343 -0.004270 -0.001870 0.000000 0.000271 0.000000
# 2 -0.004270 0.017747 -0.002630 0.000000 -0.008043 0.000000
# 3 -0.001870 -0.002630 0.028553 0.000000 -0.001098 0.000000
# 4 0.000000 0.000000 0.000000 0.059069 0.000000 -0.008602
# 5 0.000271 -0.008043 -0.001098 0.000000 0.038649 0.000000
# 6 0.000000 0.000000 0.000000 -0.008602 0.000000 0.030063
#
#
# Mechanical properties :
#
#
# Convention : Reuss Voigt Hill
#
# Bulk Modulus (GPa) = 26.24485 38.58220 32.41352
# Shear Modulus (GPa) = 23.40126 28.21307 25.80717
#
# Velocity S-wave (km/s) = 3.39781 3.73082 3.56820
# Velocity P-wave (km/s) = 5.32367 6.13134 5.74172
#
# Compressibility (1/GPa) = 0.03810272
#
# Stress axis : x y z
#
# Youngs Moduli (GPa) = 107.03396 56.34819 35.02272
#
# Poissons Ratio (x) = 0.24062 0.06548
# Poissons Ratio (y) = 0.45707 0.09211
# Poissons Ratio (z) = 0.20012 0.14819
#
# Static dielectric constant tensor:
#      x y z
#    x 3.716390 0.000000 -0.006740 
#    y 0.000000 3.693440 0.000000 
#    z -0.006740 0.000000 3.609060 
# 
# 
# High freq. dielectric constant tensor:
#      x y z
#    x 1.805410 0.000000 0.001160 
#    y 0.000000 1.786890 0.000000 
#    z 0.001160 0.000000 1.769530 
# 
# From -- ./inp_files/100234.got.cif
#   From: 2010.06.25/outbox.cif.g09.slc.cpg/sg12_51_cif.got.tgz:100234.got - 2010.06.28 00:19:55.
