data_PCOD8094437
_publ_section_title
;
Structure prediction by ZEFSAII (Michael W. Deem and Ramdas Pophale) SiO2 
 PCOD8094437
Probable space group: C 2/M
;
_chemical_formula_sum "Si O2"
_cell_formula_units_Z 64
_cell_length_a 30.844451
_cell_length_b 8.854581
_cell_length_c 11.864382
_cell_angle_alpha 90.000000
_cell_angle_beta 90.905193
_cell_angle_gamma 90.000000
_cell_volume 3239.932631
_symmetry_space_group_name_H-M "C 2/M"
_symmetry_group_IT_number 12
_symmetry_cell_setting 'monoclinic'
loop_
_space_group_symop_operation_xyz
x,y,z
-x,y,-z
-x,-y,-z
x,-y,z
1/2+x,1/2+y,z
1/2-x,1/2+y,-z
1/2-x,1/2-y,-z
1/2+x,1/2-y,z
loop_
_atom_site_type_symbol
_atom_site_label
_atom_site_fract_x
_atom_site_fract_y
_atom_site_fract_z
Si Si1 0.251301 0.678716 0.878379
Si Si2 0.703008 0.321889 0.504433
Si Si3 0.170104 0.678974 0.725986
Si Si4 0.449056 0.826291 0.486154
Si Si5 0.995267 0.675359 0.131735
Si Si6 0.081324 0.177775 0.739933
Si Si7 0.420973 0.822471 0.730959
Si Si8 0.832417 0.176801 0.738752
O O1 0.252074 0.500000 0.889223
O O2 0.209321 0.731861 0.807129
O O3 0.293848 0.739349 0.815749
O O4 0.250000 0.750000 0.000000
O O5 0.708111 0.500000 0.520497
O O6 0.750000 0.250000 0.500000
O O7 0.675271 0.251865 0.603624
O O8 0.677524 0.280210 0.390147
O O9 0.168797 0.500000 0.712654
O O10 0.125687 0.739652 0.777955
O O11 0.500000 0.803990 0.500000
O O12 0.431226 0.720340 0.387760
O O13 0.426919 0.774359 0.601387
O O14 0.438004 0.000000 0.456436
O O15 0.987325 0.500000 0.161667
O O16 0.038445 0.736541 0.194590
O O17 0.954960 0.771181 0.173651
O O18 0.000000 0.701764 0.000000
O O19 0.088040 0.000000 0.748269
O O20 0.377338 0.751221 0.779107
O O21 0.417410 0.000000 0.743618
O O22 0.836911 0.000000 0.755171
#
# Coordination Sequence:
#
# PCOD8094437 Si02
#       8
#     8   8   8   8   8   8   8   8
#     4  10  23  43  63  86 117 158 203 251 301 352
#     4  11  21  37  62  92 125 159 198 246 304 366
#     4  11  23  42  64  88 123 163 205 250 301 359
#     4  10  19  37  63  88 121 159 199 246 296 358
#     4  10  22  43  66  86 116 159 208 255 299 356
#     4  12  25  39  60  93 127 158 200 249 307 367
#     4  10  21  37  61  92 118 152 200 244 295 356
#     4  10  22  40  59  86 124 157 190 241 303 356
#
# _framework density 19.753498
#
# number of rings (size 3 to 8) (size 9 to 14) (size 15 to 20)
#    0.000    1.500    2.500    2.625    0.000    7.000 
#    0.000    3.750    0.000    0.000    0.000    0.000 
#    0.000    0.000    0.000    0.000    0.000    0.000 
#
# Total GULP energy -396965.630981 kJ/mol
# GULP energy per Si atom -12405.175968 kJ/mol
# Density = 1.970854 g / cm^3
# Si number density = 19.753498 Si / 1000 Ang^3
#
#
#
# Elastic Constant Matrix: (Units=GPa)
#
#
# Indices 1 2 3 4 5 6 
#
# 1 151.8608 38.1484 60.0939 0.0000 -15.1950 0.0000
# 2 38.1484 59.1753 39.4926 0.0000 -6.1084 0.0000
# 3 60.0939 39.4926 118.4933 0.0000 -11.5029 0.0000
# 4 0.0000 0.0000 0.0000 28.2363 0.0000 -2.3987
# 5 -15.1950 -6.1084 -11.5029 0.0000 13.3596 0.0000
# 6 0.0000 0.0000 0.0000 -2.3987 0.0000 36.9834
#
#
#
# Elastic Compliance Matrix: (Units=1/GPa)
#
#
# Indices 1 2 3 4 5 6 
#
# 1 0.009230 -0.003316 -0.002950 0.000000 0.006441 0.000000
# 2 -0.003316 0.023126 -0.005855 0.000000 0.001761 0.000000
# 3 -0.002950 -0.005855 0.012332 0.000000 0.004585 0.000000
# 4 0.000000 0.000000 0.000000 0.035612 0.000000 0.002310
# 5 0.006441 0.001761 0.004585 0.000000 0.086932 0.000000
# 6 0.000000 0.000000 0.000000 0.002310 0.000000 0.027189
#
#
# Mechanical properties :
#
#
# Convention : Reuss Voigt Hill
#
# Bulk Modulus (GPa) = 48.91173 67.22212 58.06692
# Shear Modulus (GPa) = 22.17498 28.50215 25.33856
#
# Velocity S-wave (km/s) = 3.35413 3.80266 3.58542
# Velocity P-wave (km/s) = 6.30992 7.30648 6.82641
#
# Compressibility (1/GPa) = 0.02044499
#
# Stress axis : x y z
#
# Youngs Moduli (GPa) = 108.34074 43.24123 81.08910
#
# Poissons Ratio (x) = 0.14340 0.23925
# Poissons Ratio (y) = 0.35930 0.47476
# Poissons Ratio (z) = 0.31965 0.25317
#
# Static dielectric constant tensor:
#      x y z
#    x 3.855020 0.000000 0.026650 
#    y 0.000000 3.372930 0.000000 
#    z 0.026650 0.000000 3.674480 
# 
# 
# High freq. dielectric constant tensor:
#      x y z
#    x 1.789480 0.000000 -0.002390 
#    y 0.000000 1.761370 0.000000 
#    z -0.002390 0.000000 1.768740 
# 
# From -- ./inp_files/187395.got.cif
#   From: 2010.06.25/outbox.cif.g09.slc.cpg/sg12_94_cif.got.tgz:187395.got - 2010.06.28 00:19:55.
