data_PCOD8094026
_publ_section_title
;
Structure prediction by ZEFSAII (Michael W. Deem and Ramdas Pophale) SiO2 
 PCOD8094026
Probable space group: C 2/M
;
_chemical_formula_sum "Si O2"
_cell_formula_units_Z 44
_cell_length_a 31.000275
_cell_length_b 7.484616
_cell_length_c 16.413799
_cell_angle_alpha 90.000000
_cell_angle_beta 36.557869
_cell_angle_gamma 90.000000
_cell_volume 2268.422467
_symmetry_space_group_name_H-M "C 2/M"
_symmetry_group_IT_number 12
_symmetry_cell_setting 'monoclinic'
loop_
_space_group_symop_operation_xyz
x,y,z
-x,y,-z
-x,-y,-z
x,-y,z
1/2+x,1/2+y,z
1/2-x,1/2+y,-z
1/2-x,1/2-y,-z
1/2+x,1/2-y,z
loop_
_atom_site_type_symbol
_atom_site_label
_atom_site_fract_x
_atom_site_fract_y
_atom_site_fract_z
Si Si1 0.377817 0.500000 0.330234
Si Si2 0.255947 0.708252 0.739649
Si Si3 0.448943 0.794487 0.820849
Si Si4 0.176562 0.000000 0.758189
Si Si5 0.795002 0.295363 0.010817
Si Si6 0.390347 0.207099 0.443888
Si Si7 0.540755 0.500000 0.064626
O O1 0.319038 0.500000 0.346879
O O2 0.367205 0.323310 0.400913
O O3 0.456818 0.500000 0.168516
O O4 0.234624 0.500000 0.762658
O O5 0.236313 0.791863 0.858386
O O6 0.342091 0.735683 0.594567
O O7 0.214655 0.821225 0.733399
O O8 0.525367 0.754134 0.660124
O O9 0.440534 0.678288 0.913945
O O10 0.444940 0.000000 0.854732
O O11 0.379941 0.746131 0.867794
O O12 0.091569 0.000000 0.909163
O O13 0.785104 0.500000 0.043194
O O14 0.750000 0.250000 0.000000
O O15 0.378443 0.000000 0.439308
#
# Coordination Sequence:
#
# PCOD8094026 Si02
#       7
#     4   8   8   4   8   8   4
#     4  10  23  38  56  90 116 147 201 246 272 343
#     4  11  23  40  57  85 118 153 191 240 289 340
#     4   9  19  36  58  84 114 151 190 233 288 339
#     4  12  23  36  62  83 117 158 191 237 298 337
#     4  10  22  37  60  88 115 144 189 241 287 345
#     4  10  20  39  61  81 115 159 193 232 288 341
#     4  10  19  36  62  81 114 151 194 234 290 341
#
# _framework density 19.396739
#
# number of rings (size 3 to 8) (size 9 to 14) (size 15 to 20)
#    0.000    1.818    3.636    0.273    2.545    1.455 
#    0.000    0.909    0.000   10.909    0.000    0.000 
#    0.000    0.000    0.000    0.000    0.000    0.000 
#
# Total GULP energy -272648.767034 kJ/mol
# GULP energy per Si atom -12393.125774 kJ/mol
# Density = 1.935259 g / cm^3
# Si number density = 19.396739 Si / 1000 Ang^3
#
#
#
# Elastic Constant Matrix: (Units=GPa)
#
#
# Indices 1 2 3 4 5 6 
#
# 1 139.0163 39.1775 58.8569 -0.0002 2.5872 0.0003
# 2 39.1775 94.8689 28.3941 -0.0033 -1.0479 0.0013
# 3 58.8569 28.3941 127.4764 -0.0004 -11.0166 0.0003
# 4 -0.0002 -0.0033 -0.0004 20.4663 0.0002 -3.3259
# 5 2.5872 -1.0479 -11.0166 0.0002 16.5174 -0.0002
# 6 0.0003 0.0013 0.0003 -3.3259 -0.0002 25.5615
#
#
#
# Elastic Compliance Matrix: (Units=1/GPa)
#
#
# Indices 1 2 3 4 5 6 
#
# 1 0.009923 -0.002848 -0.004348 0.000000 -0.004635 0.000000
# 2 -0.002848 0.012127 -0.001360 0.000002 0.000309 0.000000
# 3 -0.004348 -0.001360 0.010831 0.000000 0.007818 0.000000
# 4 0.000000 0.000002 0.000000 0.049916 0.000000 0.006495
# 5 -0.004635 0.000309 0.007818 0.000000 0.066502 0.000000
# 6 0.000000 0.000000 0.000000 0.006495 0.000000 0.039966
#
#
# Mechanical properties :
#
#
# Convention : Reuss Voigt Hill
#
# Bulk Modulus (GPa) = 63.41045 68.24650 65.82848
# Shear Modulus (GPa) = 23.62580 28.17124 25.89852
#
# Velocity S-wave (km/s) = 3.49381 3.81513 3.65800
# Velocity P-wave (km/s) = 7.00271 7.39377 7.20090
#
# Compressibility (1/GPa) = 0.01577027
#
# Stress axis : x y z
#
# Youngs Moduli (GPa) = 100.77631 82.45892 92.33168
#
# Poissons Ratio (x) = 0.23482 0.40143
# Poissons Ratio (y) = 0.28699 0.12555
# Poissons Ratio (z) = 0.43815 0.11212
#
# Static dielectric constant tensor:
#      x y z
#    x 3.099980 0.000000 -0.435470 
#    y 0.000000 3.749900 0.000000 
#    z -0.435470 0.000000 3.822300 
# 
# 
# High freq. dielectric constant tensor:
#      x y z
#    x 1.726130 0.000000 -0.024930 
#    y 0.000000 1.769190 0.000000 
#    z -0.024930 0.000000 1.762570 
# 
# From -- ./inp_files/248062.got.cif
#   From: 2010.06.25/outbox.cif.g09.slc.cpg/sg12_125_cif.got.tgz:248062.got - 2010.06.28 00:19:55.
