data_PCOD8094799
_publ_section_title
;
Structure prediction by ZEFSAII (Michael W. Deem and Ramdas Pophale) SiO2 
 PCOD8094799
Probable space group: C 2/M
;
_chemical_formula_sum "Si O2"
_cell_formula_units_Z 56
_cell_length_a 21.321901
_cell_length_b 8.615745
_cell_length_c 15.372649
_cell_angle_alpha 90.000000
_cell_angle_beta 86.331234
_cell_angle_gamma 90.000000
_cell_volume 2818.230659
_symmetry_space_group_name_H-M "C 2/M"
_symmetry_group_IT_number 12
_symmetry_cell_setting 'monoclinic'
loop_
_space_group_symop_operation_xyz
x,y,z
-x,y,-z
-x,-y,-z
x,-y,z
1/2+x,1/2+y,z
1/2-x,1/2+y,-z
1/2-x,1/2-y,-z
1/2+x,1/2-y,z
loop_
_atom_site_type_symbol
_atom_site_label
_atom_site_fract_x
_atom_site_fract_y
_atom_site_fract_z
Si Si1 0.169304 0.821889 0.944976
Si Si2 0.791769 0.176964 0.869216
Si Si3 0.352292 0.819188 0.702567
Si Si4 0.989285 0.682856 0.732944
Si Si5 0.540461 0.182372 0.911788
Si Si6 0.314806 0.318258 0.529243
Si Si7 0.442661 0.183033 0.444065
O O1 0.219250 0.709120 0.895881
O O2 0.103077 0.781743 0.909788
O O3 0.187341 0.000000 0.924429
O O4 0.166909 0.790773 0.048540
O O5 0.814036 0.295790 0.794211
O O6 0.799037 0.000000 0.836572
O O7 0.422187 0.749504 0.709155
O O8 0.318767 0.724092 0.629920
O O9 0.353390 0.000000 0.677193
O O10 0.981889 0.500000 0.737915
O O11 0.006090 0.743458 0.827660
O O12 0.041732 0.729780 0.657079
O O13 0.556005 0.000000 0.905641
O O14 0.500000 0.222240 0.000000
O O15 0.312062 0.500000 0.516465
O O16 0.250000 0.250000 0.500000
O O17 0.376046 0.257048 0.473209
O O18 0.500000 0.243125 0.500000
O O19 0.435686 0.000000 0.456989
#
# Coordination Sequence:
#
# PCOD8094799 Si02
#       7
#     8   8   8   8   8   8   8
#     4  10  21  37  56  81 116 158 201 248 301 357
#     4  10  21  37  58  84 115 155 200 247 301 363
#     4  11  21  39  64  90 118 153 199 248 305 371
#     4   9  19  35  60  89 116 155 201 244 301 369
#     4  10  20  35  56  84 119 156 197 247 301 361
#     4  12  26  43  63  91 126 163 205 257 315 372
#     4  10  19  39  66  89 120 162 205 255 314 375
#
# _framework density 19.870622999999998
#
# number of rings (size 3 to 8) (size 9 to 14) (size 15 to 20)
#    0.000    1.714    1.429    3.429    0.000    4.571 
#    0.000    6.429    0.000    0.000    0.000    0.000 
#    0.000    0.000    0.000    0.000    0.000    0.000 
#
# Total GULP energy -347258.686732 kJ/mol
# GULP energy per Si atom -12402.095955 kJ/mol
# Density = 1.982540 g / cm^3
# Si number density = 19.870623 Si / 1000 Ang^3
#
#
#
# Elastic Constant Matrix: (Units=GPa)
#
#
# Indices 1 2 3 4 5 6 
#
# 1 140.2522 40.8284 69.0240 0.0000 17.2293 0.0000
# 2 40.8284 60.2337 34.0556 0.0000 0.7307 0.0000
# 3 69.0240 34.0556 136.7317 0.0000 4.2650 0.0000
# 4 0.0000 0.0000 0.0000 25.4343 0.0000 -2.5990
# 5 17.2293 0.7307 4.2650 0.0000 32.2250 0.0000
# 6 0.0000 0.0000 0.0000 -2.5990 0.0000 33.3138
#
#
#
# Elastic Compliance Matrix: (Units=1/GPa)
#
#
# Indices 1 2 3 4 5 6 
#
# 1 0.011443 -0.005261 -0.004297 0.000000 -0.005430 0.000000
# 2 -0.005261 0.021743 -0.002844 0.000000 0.002696 0.000000
# 3 -0.004297 -0.002844 0.010159 0.000000 0.001017 0.000000
# 4 0.000000 0.000000 0.000000 0.039633 0.000000 0.003092
# 5 -0.005430 0.002696 0.001017 0.000000 0.033739 0.000000
# 6 0.000000 0.000000 0.000000 0.003092 0.000000 0.030259
#
#
# Mechanical properties :
#
#
# Convention : Reuss Voigt Hill
#
# Bulk Modulus (GPa) = 53.93143 69.44817 61.68980
# Shear Modulus (GPa) = 28.09586 31.08193 29.58889
#
# Velocity S-wave (km/s) = 3.76432 3.95931 3.86304
# Velocity P-wave (km/s) = 6.78923 7.47847 7.14217
#
# Compressibility (1/GPa) = 0.01854207
#
# Stress axis : x y z
#
# Youngs Moduli (GPa) = 87.38624 45.99086 98.43191
#
# Poissons Ratio (x) = 0.24198 0.42296
# Poissons Ratio (y) = 0.45977 0.27991
# Poissons Ratio (z) = 0.37550 0.13078
#
# Static dielectric constant tensor:
#      x y z
#    x 3.643050 0.000000 0.060120 
#    y 0.000000 3.416970 0.000000 
#    z 0.060120 0.000000 3.772040 
# 
# 
# High freq. dielectric constant tensor:
#      x y z
#    x 1.779480 0.000000 -0.001980 
#    y 0.000000 1.760390 0.000000 
#    z -0.001980 0.000000 1.784050 
# 
# From -- ./inp_files/231037.got.cif
#   From: 2010.06.25/outbox.cif.g09.slc.cpg/sg12_116_cif.got.tgz:231037.got - 2010.06.28 00:19:55.
