data_PCOD8094048
_publ_section_title
;
Structure prediction by ZEFSAII (Michael W. Deem and Ramdas Pophale) SiO2 
 PCOD8094048
Probable space group: C 2/M
;
_chemical_formula_sum "Si O2"
_cell_formula_units_Z 56
_cell_length_a 17.914423
_cell_length_b 19.350117
_cell_length_c 9.133893
_cell_angle_alpha 90.000000
_cell_angle_beta 118.731617
_cell_angle_gamma 90.000000
_cell_volume 2776.406267
_symmetry_space_group_name_H-M "C 2/M"
_symmetry_group_IT_number 12
_symmetry_cell_setting 'monoclinic'
loop_
_space_group_symop_operation_xyz
x,y,z
-x,y,-z
-x,-y,-z
x,-y,z
1/2+x,1/2+y,z
1/2-x,1/2+y,-z
1/2-x,1/2-y,-z
1/2+x,1/2-y,z
loop_
_atom_site_type_symbol
_atom_site_label
_atom_site_fract_x
_atom_site_fract_y
_atom_site_fract_z
Si Si1 0.644180 0.922528 0.670517
Si Si2 0.594753 0.392247 0.096319
Si Si3 0.267817 0.678940 0.264259
Si Si4 0.082710 0.278520 0.656720
Si Si5 0.086042 0.734463 0.006904
Si Si6 0.720552 0.577259 0.456612
Si Si7 0.783060 0.074310 0.034285
O O1 0.577439 0.859882 0.608659
O O2 0.702396 0.915242 0.583384
O O3 0.602517 0.000000 0.633985
O O4 0.695668 0.909318 0.868665
O O5 0.600236 0.310890 0.077912
O O6 0.631862 0.411116 0.289797
O O7 0.500000 0.420553 0.000000
O O8 0.643762 0.432146 0.016418
O O9 0.329168 0.746148 0.325195
O O10 0.169377 0.693538 0.137370
O O11 0.270691 0.637133 0.416623
O O12 0.306346 0.632573 0.171637
O O13 0.000000 0.244259 0.500000
O O14 0.076082 0.266891 0.823279
O O15 0.000000 0.703013 0.000000
O O16 0.721440 0.500000 0.527136
O O17 0.776047 0.000000 0.107681
#
# Coordination Sequence:
#
# PCOD8094048 Si02
#       7
#     8   8   8   8   8   8   8
#     4   9  20  41  65  87 121 166 212 256 313 381
#     4  10  21  38  61  87 128 167 216 263 314 382
#     4  12  23  40  67  92 131 167 208 268 324 369
#     4  12  26  41  66  99 130 164 215 266 317 383
#     4  11  25  43  65  96 126 164 214 268 325 386
#     4  10  23  39  61  95 126 168 219 260 313 380
#     4  10  19  36  62  88 117 168 213 254 315 377
#
# _framework density 20.169957
#
# number of rings (size 3 to 8) (size 9 to 14) (size 15 to 20)
#    0.000    1.429    2.857    3.857    6.000    2.571 
#    0.000    0.000    0.000    4.714    0.000    0.000 
#    0.000    0.000    0.000    0.000    0.000    0.000 
#
# Total GULP energy -347097.227659 kJ/mol
# GULP energy per Si atom -12396.329559 kJ/mol
# Density = 2.012405 g / cm^3
# Si number density = 20.169957 Si / 1000 Ang^3
#
#
#
# Elastic Constant Matrix: (Units=GPa)
#
#
# Indices 1 2 3 4 5 6 
#
# 1 76.5560 24.6154 41.0056 0.0000 17.0044 0.0000
# 2 24.6154 97.2116 26.8167 0.0000 -6.3445 0.0000
# 3 41.0056 26.8167 97.8326 0.0000 2.3367 0.0000
# 4 0.0000 0.0000 0.0000 19.9444 0.0000 -2.1943
# 5 17.0044 -6.3445 2.3367 0.0000 30.9168 0.0000
# 6 0.0000 0.0000 0.0000 -2.1943 0.0000 3.2717
#
#
#
# Elastic Compliance Matrix: (Units=1/GPa)
#
#
# Indices 1 2 3 4 5 6 
#
# 1 0.020932 -0.004032 -0.007387 0.000000 -0.011782 0.000000
# 2 -0.004032 0.012104 -0.001743 0.000000 0.004833 0.000000
# 3 -0.007387 -0.001743 0.013732 0.000000 0.002667 0.000000
# 4 0.000000 0.000000 0.000000 0.054134 0.000000 0.036306
# 5 -0.011782 0.004833 0.002667 0.000000 0.039615 0.000000
# 6 0.000000 0.000000 0.000000 0.036306 0.000000 0.330002
#
#
# Mechanical properties :
#
#
# Convention : Reuss Voigt Hill
#
# Bulk Modulus (GPa) = 48.91376 50.71952 49.81664
# Shear Modulus (GPa) = 9.92736 22.77075 16.34906
#
# Velocity S-wave (km/s) = 2.22093 3.36362 2.85013
# Velocity P-wave (km/s) = 5.55699 6.34712 5.96515
#
# Compressibility (1/GPa) = 0.02044414
#
# Stress axis : x y z
#
# Youngs Moduli (GPa) = 47.77304 82.61693 72.82282
#
# Poissons Ratio (x) = 0.33307 0.53795
# Poissons Ratio (y) = 0.19260 0.12697
# Poissons Ratio (z) = 0.35290 0.14404
#
# Static dielectric constant tensor:
#      x y z
#    x 3.680350 0.000000 0.068140 
#    y 0.000000 3.789320 0.000000 
#    z 0.068140 0.000000 3.636550 
# 
# 
# High freq. dielectric constant tensor:
#      x y z
#    x 1.778440 0.000000 0.000860 
#    y 0.000000 1.800510 0.000000 
#    z 0.000860 0.000000 1.784780 
# 
# From -- ./inp_files/77394.got.cif
#   From: 2010.06.25/outbox.cif.g09.slc.cpg/sg12_39_cif.got.tgz:77394.got - 2010.06.28 00:19:55.
