data_PCOD8094655
_publ_section_title
;
Structure prediction by ZEFSAII (Michael W. Deem and Ramdas Pophale) SiO2 
 PCOD8094655
Probable space group: C 2/M
;
_chemical_formula_sum "Si O2"
_cell_formula_units_Z 48
_cell_length_a 17.675530
_cell_length_b 27.599347
_cell_length_c 9.048658
_cell_angle_alpha 90.000000
_cell_angle_beta 32.297941
_cell_angle_gamma 90.000000
_cell_volume 2358.622626
_symmetry_space_group_name_H-M "C 2/M"
_symmetry_group_IT_number 12
_symmetry_cell_setting 'monoclinic'
loop_
_space_group_symop_operation_xyz
x,y,z
-x,y,-z
-x,-y,-z
x,-y,z
1/2+x,1/2+y,z
1/2-x,1/2+y,-z
1/2-x,1/2-y,-z
1/2+x,1/2-y,z
loop_
_atom_site_type_symbol
_atom_site_label
_atom_site_fract_x
_atom_site_fract_y
_atom_site_fract_z
Si Si1 0.712429 0.921925 0.224016
Si Si2 0.500000 0.842969 0.500000
Si Si3 0.425766 0.693703 0.461036
Si Si4 0.173122 0.500000 0.045424
Si Si5 0.517532 0.400402 0.801161
Si Si6 0.325146 0.500000 0.511263
Si Si7 0.374099 0.000000 0.411237
Si Si8 0.851474 0.269759 0.954626
O O1 0.620626 0.873966 0.379097
O O2 0.668420 0.952485 0.152892
O O3 0.691695 0.952266 0.406465
O O4 0.873088 0.905842 0.949629
O O5 0.439137 0.813364 0.738017
O O6 0.500000 0.688135 0.500000
O O7 0.403168 0.642444 0.416732
O O8 0.530970 0.729197 0.191786
O O9 0.262233 0.713763 0.732455
O O10 0.041328 0.500000 0.152742
O O11 0.309359 0.500000 0.714646
O O12 0.594044 0.451952 0.670325
O O13 0.500000 0.384702 0.000000
O O14 0.172222 0.500000 0.682804
O O15 0.750000 0.250000 0.000000
#
# Coordination Sequence:
#
# PCOD8094655 Si02
#       8
#     8   4   8   4   8   4   4   8
#     4  11  22  38  66  93 125 172 223 266 319 386
#     4  12  20  35  70 100 132 161 220 270 332 386
#     4  10  22  40  67  97 129 165 222 273 328 387
#     4  11  24  40  61  98 128 164 219 282 315 378
#     4  12  26  43  64  91 132 180 219 267 335 396
#     4  12  26  42  64  90 137 175 212 265 332 398
#     4  11  20  45  61  87 135 172 209 260 328 397
#     4  10  19  38  63  98 132 165 205 278 334 380
#
# _framework density 20.350859
#
# number of rings (size 3 to 8) (size 9 to 14) (size 15 to 20)
#    0.000    1.000    5.833    4.000    4.667    0.667 
#    0.000    0.833    0.000    0.000    0.000    0.000 
#    0.000    0.000    0.000    0.000    0.000    0.000 
#
# Total GULP energy -297461.224327 kJ/mol
# GULP energy per Si atom -12394.217680 kJ/mol
# Density = 2.030454 g / cm^3
# Si number density = 20.350859 Si / 1000 Ang^3
#
#
#
# Elastic Constant Matrix: (Units=GPa)
#
#
# Indices 1 2 3 4 5 6 
#
# 1 67.7440 38.3633 36.1443 -0.0005 -13.1221 0.0001
# 2 38.3633 135.8578 51.7334 0.0001 -5.0198 0.0000
# 3 36.1443 51.7334 114.9798 -0.0007 -8.0282 0.0001
# 4 -0.0005 0.0001 -0.0007 122.5039 0.0005 2.3235
# 5 -13.1221 -5.0198 -8.0282 0.0005 34.1713 0.0000
# 6 0.0001 0.0000 0.0001 2.3235 0.0000 10.8128
#
#
#
# Elastic Compliance Matrix: (Units=1/GPa)
#
#
# Indices 1 2 3 4 5 6 
#
# 1 0.020462 -0.003938 -0.004221 0.000000 0.006287 0.000000
# 2 -0.003938 0.009645 -0.003160 0.000000 -0.000838 0.000000
# 3 -0.004221 -0.003160 0.011489 0.000000 0.000614 0.000000
# 4 0.000000 0.000000 0.000000 0.008196 0.000000 -0.001761
# 5 0.006287 -0.000838 0.000614 0.000000 0.031700 0.000000
# 6 0.000000 0.000000 0.000000 -0.001761 0.000000 0.092862
#
#
# Mechanical properties :
#
#
# Convention : Reuss Voigt Hill
#
# Bulk Modulus (GPa) = 52.75267 63.45151 58.10209
# Shear Modulus (GPa) = 24.59274 46.32028 35.45651
#
# Velocity S-wave (km/s) = 3.48003 4.77601 4.17857
# Velocity P-wave (km/s) = 6.49040 7.85240 7.20366
#
# Compressibility (1/GPa) = 0.01895639
#
# Stress axis : x y z
#
# Youngs Moduli (GPa) = 48.87167 103.67937 87.04056
#
# Poissons Ratio (x) = 0.40831 0.36742
# Poissons Ratio (y) = 0.19247 0.27506
# Poissons Ratio (z) = 0.20630 0.32765
#
# Static dielectric constant tensor:
#      x y z
#    x 3.409160 0.000000 -0.176130 
#    y 0.000000 4.592430 0.000000 
#    z -0.176130 0.000000 4.056670 
# 
# 
# High freq. dielectric constant tensor:
#      x y z
#    x 1.767160 0.000000 -0.015630 
#    y 0.000000 1.806870 0.000000 
#    z -0.015630 0.000000 1.806100 
# 
# From -- ./inp_files/80675.got.cif
#   From: 2010.06.25/outbox.cif.g09.slc.cpg/sg12_41_cif.got.tgz:80675.got - 2010.06.28 00:19:55.
