data_PCOD8094077
_publ_section_title
;
Structure prediction by ZEFSAII (Michael W. Deem and Ramdas Pophale) SiO2 
 PCOD8094077
Probable space group: C 2/M
;
_chemical_formula_sum "Si O2"
_cell_formula_units_Z 56
_cell_length_a 18.664541
_cell_length_b 17.088428
_cell_length_c 8.837153
_cell_angle_alpha 90.000000
_cell_angle_beta 75.176345
_cell_angle_gamma 90.000000
_cell_volume 2724.780584
_symmetry_space_group_name_H-M "C 2/M"
_symmetry_group_IT_number 12
_symmetry_cell_setting 'monoclinic'
loop_
_space_group_symop_operation_xyz
x,y,z
-x,y,-z
-x,-y,-z
x,-y,z
1/2+x,1/2+y,z
1/2-x,1/2+y,-z
1/2-x,1/2-y,-z
1/2+x,1/2-y,z
loop_
_atom_site_type_symbol
_atom_site_label
_atom_site_fract_x
_atom_site_fract_y
_atom_site_fract_z
Si Si1 0.276389 0.411196 0.657714
Si Si2 0.162803 0.587854 0.473432
Si Si3 0.431178 0.590854 0.440312
Si Si4 0.940000 0.200174 0.155195
Si Si5 0.379424 0.911004 0.823751
Si Si6 0.306863 0.792461 0.080876
Si Si7 0.478332 0.165601 0.346180
O O1 0.264052 0.500000 0.730141
O O2 0.242374 0.406289 0.507568
O O3 0.362391 0.393024 0.588802
O O4 0.241946 0.343287 0.777523
O O5 0.131389 0.500000 0.484359
O O6 0.168913 0.616473 0.296417
O O7 0.105900 0.636392 0.606693
O O8 0.500000 0.623227 0.500000
O O9 0.440279 0.500000 0.397204
O O10 0.421648 0.632192 0.283958
O O11 0.861280 0.229009 0.128889
O O12 0.983984 0.267792 0.218601
O O13 0.000000 0.169253 0.000000
O O14 0.465980 0.903467 0.732999
O O15 0.362751 0.000000 0.881567
O O16 0.359780 0.853952 0.969544
O O17 0.250000 0.750000 0.000000
O O18 0.500000 0.198304 0.500000
#
# Coordination Sequence:
#
# PCOD8094077 Si02
#       7
#     8   8   8   8   8   8   8
#     4  10  22  43  68  93 123 166 219 266 314 376
#     4   9  18  34  60  92 126 165 213 256 297 364
#     4  10  25  48  72  93 116 162 223 279 326 371
#     4  12  25  43  64  96 131 166 207 258 319 389
#     4  10  21  39  62  91 130 172 210 250 306 378
#     4  12  27  41  60  95 136 172 205 255 323 385
#     4  10  19  36  62  94 130 168 205 250 309 371
#
# _framework density 20.552114
#
# number of rings (size 3 to 8) (size 9 to 14) (size 15 to 20)
#    0.000    1.571    2.857    1.286    4.000    4.857 
#    0.000    1.429    0.000    0.000    0.000    0.000 
#    0.000    0.000    0.000    0.000    0.000    0.000 
#
# Total GULP energy -347152.921695 kJ/mol
# GULP energy per Si atom -12398.318632 kJ/mol
# Density = 2.050534 g / cm^3
# Si number density = 20.552114 Si / 1000 Ang^3
#
#
#
# Elastic Constant Matrix: (Units=GPa)
#
#
# Indices 1 2 3 4 5 6 
#
# 1 131.4011 38.3296 41.9110 0.0000 3.5985 0.0000
# 2 38.3296 80.1446 45.4494 0.0000 3.8823 0.0000
# 3 41.9110 45.4494 99.1312 0.0000 1.6483 0.0000
# 4 0.0000 0.0000 0.0000 41.4191 0.0000 2.7326
# 5 3.5985 3.8823 1.6483 0.0000 26.9080 0.0000
# 6 0.0000 0.0000 0.0000 2.7326 0.0000 26.9242
#
#
#
# Elastic Compliance Matrix: (Units=1/GPa)
#
#
# Indices 1 2 3 4 5 6 
#
# 1 0.009312 -0.002966 -0.002566 0.000000 -0.000660 0.000000
# 2 -0.002966 0.017910 -0.006928 0.000000 -0.001763 0.000000
# 3 -0.002566 -0.006928 0.014341 0.000000 0.000464 0.000000
# 4 0.000000 0.000000 0.000000 0.024306 0.000000 -0.002467
# 5 -0.000660 -0.001763 0.000464 0.000000 0.037478 0.000000
# 6 0.000000 0.000000 0.000000 -0.002467 0.000000 0.037392
#
#
# Mechanical properties :
#
#
# Convention : Reuss Voigt Hill
#
# Bulk Modulus (GPa) = 60.08635 62.45077 61.26856
# Shear Modulus (GPa) = 29.20428 31.38273 30.29351
#
# Velocity S-wave (km/s) = 3.77369 3.91190 3.84342
# Velocity P-wave (km/s) = 6.94890 7.13137 7.04073
#
# Compressibility (1/GPa) = 0.01664272
#
# Stress axis : x y z
#
# Youngs Moduli (GPa) = 107.38714 55.83354 69.72960
#
# Poissons Ratio (x) = 0.16563 0.17892
# Poissons Ratio (y) = 0.31856 0.48309
# Poissons Ratio (z) = 0.27555 0.38682
#
# Static dielectric constant tensor:
#      x y z
#    x 3.752360 0.000000 0.114850 
#    y 0.000000 3.633760 0.000000 
#    z 0.114850 0.000000 3.711340 
# 
# 
# High freq. dielectric constant tensor:
#      x y z
#    x 1.811150 0.000000 0.003820 
#    y 0.000000 1.798130 0.000000 
#    z 0.003820 0.000000 1.803040 
# 
# From -- ./inp_files/75842.got.cif
#   From: 2010.06.25/outbox.cif.g09.slc.cpg/sg12_38_cif.got.tgz:75842.got - 2010.06.28 00:19:55.
