data_PCOD8094304
_publ_section_title
;
Structure prediction by ZEFSAII (Michael W. Deem and Ramdas Pophale) SiO2 
 PCOD8094304
Probable space group: C 2/M
;
_chemical_formula_sum "Si O2"
_cell_formula_units_Z 64
_cell_length_a 19.779208
_cell_length_b 8.901288
_cell_length_c 19.652022
_cell_angle_alpha 90.000000
_cell_angle_beta 82.865855
_cell_angle_gamma 90.000000
_cell_volume 3433.156853
_symmetry_space_group_name_H-M "C 2/M"
_symmetry_group_IT_number 12
_symmetry_cell_setting 'monoclinic'
loop_
_space_group_symop_operation_xyz
x,y,z
-x,y,-z
-x,-y,-z
x,-y,z
1/2+x,1/2+y,z
1/2-x,1/2+y,-z
1/2-x,1/2-y,-z
1/2+x,1/2-y,z
loop_
_atom_site_type_symbol
_atom_site_label
_atom_site_fract_x
_atom_site_fract_y
_atom_site_fract_z
Si Si1 0.514042 0.821907 0.313996
Si Si2 0.795724 0.176420 0.051089
Si Si3 0.433922 0.174500 0.049344
Si Si4 0.062032 0.669779 0.543586
Si Si5 0.689592 0.677700 0.465135
Si Si6 0.921313 0.324862 0.205767
Si Si7 0.282076 0.676172 0.205981
Si Si8 0.665233 0.178185 0.324426
O O1 0.465419 0.768639 0.381208
O O2 0.479776 0.761562 0.248803
O O3 0.590622 0.758566 0.313230
O O4 0.519813 0.000000 0.313129
O O5 0.872792 0.226708 0.027896
O O6 0.772185 0.231136 0.129234
O O7 0.789412 0.000000 0.044618
O O8 0.750000 0.250000 0.000000
O O9 0.446872 0.210621 0.126765
O O10 0.416413 0.000000 0.040062
O O11 0.500000 0.224429 0.000000
O O12 0.091645 0.500000 0.546066
O O13 0.119208 0.782656 0.510765
O O14 0.000000 0.669645 0.500000
O O15 0.698762 0.500000 0.461369
O O16 0.750000 0.750000 0.500000
O O17 0.691271 0.742239 0.388964
O O18 0.910765 0.500000 0.219840
O O19 0.848874 0.249570 0.230838
O O20 0.294356 0.500000 0.205992
O O21 0.215803 0.722798 0.256942
O O22 0.664035 0.000000 0.337681
#
# Coordination Sequence:
#
# PCOD8094304 Si02
#       8
#     8   8   8   8   8   8   8   8
#     4   9  18  33  56  81 106 140 179 219 269 327
#     4  10  20  35  55  82 113 149 188 228 277 329
#     4   9  18  33  54  80 111 146 185 229 272 322
#     4  10  19  37  61  82 109 145 182 224 276 331
#     4  12  26  41  58  83 113 146 187 232 278 330
#     4   9  18  33  54  80 108 142 183 223 269 328
#     4   9  20  36  56  80 110 145 183 229 276 325
#     4  10  20  39  60  81 110 146 185 227 276 328
#
# _framework density 18.641736000000002
#
# number of rings (size 3 to 8) (size 9 to 14) (size 15 to 20)
#    0.000    2.250    1.250    1.500    1.750    2.500 
#    0.000    4.375    0.000    0.000    0.000    0.000 
#    0.000    0.000    0.000    0.000    0.000    0.000 
#
# Total GULP energy -396834.522702 kJ/mol
# GULP energy per Si atom -12401.078834 kJ/mol
# Density = 1.859931 g / cm^3
# Si number density = 18.641736 Si / 1000 Ang^3
#
#
#
# Elastic Constant Matrix: (Units=GPa)
#
#
# Indices 1 2 3 4 5 6 
#
# 1 129.4320 48.8227 90.2201 0.0000 2.7350 0.0000
# 2 48.8227 55.0514 42.7970 0.0000 0.7200 0.0000
# 3 90.2201 42.7970 132.5929 0.0000 5.8149 0.0000
# 4 0.0000 0.0000 0.0000 24.2482 0.0000 0.5069
# 5 2.7350 0.7200 5.8149 0.0000 40.3636 0.0000
# 6 0.0000 0.0000 0.0000 0.5069 0.0000 27.9875
#
#
#
# Elastic Compliance Matrix: (Units=1/GPa)
#
#
# Indices 1 2 3 4 5 6 
#
# 1 0.017059 -0.008142 -0.008992 0.000000 0.000285 0.000000
# 2 -0.008142 0.028156 -0.003572 0.000000 0.000564 0.000000
# 3 -0.008992 -0.003572 0.014878 0.000000 -0.001470 0.000000
# 4 0.000000 0.000000 0.000000 0.041256 0.000000 -0.000747
# 5 0.000285 0.000564 -0.001470 0.000000 0.024957 0.000000
# 6 0.000000 0.000000 0.000000 -0.000747 0.000000 0.035744
#
#
# Mechanical properties :
#
#
# Convention : Reuss Voigt Hill
#
# Bulk Modulus (GPa) = 53.53473 75.63956 64.58714
# Shear Modulus (GPa) = 23.84482 27.53563 25.69022
#
# Velocity S-wave (km/s) = 3.58034 3.84747 3.71631
# Velocity P-wave (km/s) = 6.77287 7.77180 7.28947
#
# Compressibility (1/GPa) = 0.01867946
#
# Stress axis : x y z
#
# Youngs Moduli (GPa) = 58.61916 35.51684 67.21450
#
# Poissons Ratio (x) = 0.28920 0.60439
# Poissons Ratio (y) = 0.47731 0.24010
# Poissons Ratio (z) = 0.52710 0.12687
#
# Static dielectric constant tensor:
#      x y z
#    x 3.689530 0.000000 0.068670 
#    y 0.000000 3.286040 0.000000 
#    z 0.068670 0.000000 3.652850 
# 
# 
# High freq. dielectric constant tensor:
#      x y z
#    x 1.729750 0.000000 0.001180 
#    y 0.000000 1.703070 0.000000 
#    z 0.001180 0.000000 1.733990 
# 
# From -- ./inp_files/314034.got.cif
#   From: 2010.06.25/outbox.cif.g09.slc.cpg/sg12_158_cif.got.tgz:314034.got - 2010.06.28 00:19:55.
