data_PCOD8094724
_publ_section_title
;
Structure prediction by ZEFSAII (Michael W. Deem and Ramdas Pophale) SiO2 
 PCOD8094724
Probable space group: C 2/M
;
_chemical_formula_sum "Si O2"
_cell_formula_units_Z 32
_cell_length_a 18.419983
_cell_length_b 7.910093
_cell_length_c 18.672400
_cell_angle_alpha 90.000000
_cell_angle_beta 146.834258
_cell_angle_gamma 90.000000
_cell_volume 1488.360550
_symmetry_space_group_name_H-M "C 2/M"
_symmetry_group_IT_number 12
_symmetry_cell_setting 'monoclinic'
loop_
_space_group_symop_operation_xyz
x,y,z
-x,y,-z
-x,-y,-z
x,-y,z
1/2+x,1/2+y,z
1/2-x,1/2+y,-z
1/2-x,1/2-y,-z
1/2+x,1/2-y,z
loop_
_atom_site_type_symbol
_atom_site_label
_atom_site_fract_x
_atom_site_fract_y
_atom_site_fract_z
Si Si1 0.839955 0.696051 0.172787
Si Si2 0.440869 0.189905 0.101737
Si Si3 0.645838 0.000000 0.583761
Si Si4 0.572344 0.500000 0.135298
Si Si5 0.457281 0.318035 0.546298
O O1 0.804227 0.500000 0.153712
O O2 0.931687 0.723395 0.178964
O O3 0.913436 0.769972 0.301882
O O4 0.703933 0.798063 0.053123
O O5 0.537666 0.329922 0.149238
O O6 0.495410 0.000000 0.131439
O O7 0.500000 0.000000 0.500000
O O8 0.767202 0.000000 0.740510
O O9 0.652623 0.831957 0.538933
O O10 0.500000 0.500000 0.000000
O O11 0.500000 0.335898 0.500000
O O12 0.399603 0.500000 0.524847
#
# Coordination Sequence:
#
# PCOD8094724 Si02
#       5
#     8   8   4   4   8
#     4  10  19  38  69 100 132 176 220 266 327 398
#     4  10  23  40  65 100 136 172 218 272 331 391
#     4  10  24  44  64  92 130 173 216 270 329 392
#     4  12  28  44  68 100 135 173 220 281 328 387
#     4  10  21  35  62  95 126 168 220 267 319 391
#
# _framework density 21.500166
#
# number of rings (size 3 to 8) (size 9 to 14) (size 15 to 20)
#    0.000    1.750    2.500    0.750   10.500    1.500 
#    0.000    1.250    0.000    0.000    0.000    0.000 
#    0.000    0.000    0.000    0.000    0.000    0.000 
#
# Total GULP energy -198302.446568 kJ/mol
# GULP energy per Si atom -12393.902911 kJ/mol
# Density = 2.145123 g / cm^3
# Si number density = 21.500166 Si / 1000 Ang^3
#
#
#
# Elastic Constant Matrix: (Units=GPa)
#
#
# Indices 1 2 3 4 5 6 
#
# 1 59.5177 30.8620 40.4790 0.0000 -2.6270 0.0000
# 2 30.8620 183.0737 38.4863 0.0000 8.5900 0.0000
# 3 40.4790 38.4863 141.5608 0.0000 -14.2715 0.0000
# 4 0.0000 0.0000 0.0000 24.1138 0.0000 -4.6979
# 5 -2.6270 8.5900 -14.2715 0.0000 32.7793 0.0000
# 6 0.0000 0.0000 0.0000 -4.6979 0.0000 17.8497
#
#
#
# Elastic Compliance Matrix: (Units=1/GPa)
#
#
# Indices 1 2 3 4 5 6 
#
# 1 0.021902 -0.002519 -0.005579 0.000000 -0.000014 0.000000
# 2 -0.002519 0.006254 -0.001219 0.000000 -0.002372 0.000000
# 3 -0.005579 -0.001219 0.009390 0.000000 0.003961 0.000000
# 4 0.000000 0.000000 0.000000 0.043711 0.000000 0.011505
# 5 -0.000014 -0.002372 0.003961 0.000000 0.032852 0.000000
# 6 0.000000 0.000000 0.000000 0.011505 0.000000 0.059051
#
#
# Mechanical properties :
#
#
# Convention : Reuss Voigt Hill
#
# Bulk Modulus (GPa) = 52.87683 67.08964 59.98323
# Shear Modulus (GPa) = 25.23983 33.23689 29.23836
#
# Velocity S-wave (km/s) = 3.42999 3.93605 3.69170
# Velocity P-wave (km/s) = 6.35087 7.20615 6.79199
#
# Compressibility (1/GPa) = 0.01891188
#
# Stress axis : x y z
#
# Youngs Moduli (GPa) = 45.65851 159.88579 106.49238
#
# Poissons Ratio (x) = 0.40268 0.59417
# Poissons Ratio (y) = 0.11499 0.12985
# Poissons Ratio (z) = 0.25475 0.19496
#
# Static dielectric constant tensor:
#      x y z
#    x 3.596810 0.000000 -0.301740 
#    y 0.000000 5.764120 0.000000 
#    z -0.301740 0.000000 3.834360 
# 
# 
# High freq. dielectric constant tensor:
#      x y z
#    x 1.796670 0.000000 -0.026740 
#    y 0.000000 1.879030 0.000000 
#    z -0.026740 0.000000 1.843980 
# 
# From -- ./inp_files/150907.got.cif
#   From: 2010.06.25/outbox.cif.g09.slc.cpg/sg12_76_cif.got.tgz:150907.got - 2010.06.28 00:19:55.
