data_PCOD8094846
_publ_section_title
;
Structure prediction by ZEFSAII (Michael W. Deem and Ramdas Pophale) SiO2 
 PCOD8094846
Probable space group: C 2/M
;
_chemical_formula_sum "Si O2"
_cell_formula_units_Z 56
_cell_length_a 11.397734
_cell_length_b 20.953701
_cell_length_c 11.841402
_cell_angle_alpha 90.000000
_cell_angle_beta 72.986679
_cell_angle_gamma 90.000000
_cell_volume 2704.256097
_symmetry_space_group_name_H-M "C 2/M"
_symmetry_group_IT_number 12
_symmetry_cell_setting 'monoclinic'
loop_
_space_group_symop_operation_xyz
x,y,z
-x,y,-z
-x,-y,-z
x,-y,z
1/2+x,1/2+y,z
1/2-x,1/2+y,-z
1/2-x,1/2-y,-z
1/2+x,1/2-y,z
loop_
_atom_site_type_symbol
_atom_site_label
_atom_site_fract_x
_atom_site_fract_y
_atom_site_fract_z
Si Si1 0.749719 0.424767 0.175235
Si Si2 0.754534 0.426169 0.922423
Si Si3 0.704317 0.000000 0.387640
Si Si4 0.980516 0.380419 0.207090
Si Si5 0.540277 0.000000 0.650185
Si Si6 0.314511 0.626252 0.286285
Si Si7 0.453859 0.646917 0.636903
Si Si8 0.075688 0.707916 0.367027
O O1 0.782705 0.500000 0.184024
O O2 0.868384 0.376632 0.149362
O O3 0.646047 0.404050 0.293575
O O4 0.698039 0.414717 0.062577
O O5 0.745645 0.500000 0.891266
O O6 0.677289 0.386719 0.850837
O O7 0.895484 0.403174 0.887312
O O8 0.789880 0.938593 0.361560
O O9 0.611480 0.000000 0.515157
O O10 0.609373 0.000000 0.309437
O O11 0.920690 0.435229 0.301484
O O12 0.003051 0.317218 0.276203
O O13 0.439362 0.653604 0.300377
O O14 0.206798 0.675384 0.342028
O O15 0.500000 0.625216 0.500000
O O16 0.396224 0.717251 0.647360
O O17 0.000000 0.689946 0.500000
#
# Coordination Sequence:
#
# PCOD8094846 Si02
#       8
#     8   8   4   8   4   8   8   8
#     4  11  25  40  64  93 129 165 202 258 317 370
#     4  10  19  40  66  95 122 162 211 255 308 361
#     4  11  20  32  59  97 128 158 204 254 313 361
#     4  11  19  36  63  98 128 155 205 260 312 358
#     4  11  18  30  57 102 129 154 197 261 317 358
#     4  11  22  41  66  90 125 163 207 258 298 372
#     4  11  29  44  60  90 128 170 206 249 310 378
#     4  10  23  41  66  91 120 170 211 249 304 368
#
# _framework density 20.708098
#
# number of rings (size 3 to 8) (size 9 to 14) (size 15 to 20)
#    0.000    1.286    5.000    1.286    7.000    3.143 
#    0.000    4.286    6.286    0.000    0.000    0.000 
#    0.000    0.000    0.000    0.000    0.000    0.000 
#
# Total GULP energy -347090.615136 kJ/mol
# GULP energy per Si atom -12396.093398 kJ/mol
# Density = 2.066097 g / cm^3
# Si number density = 20.708098 Si / 1000 Ang^3
#
#
#
# Elastic Constant Matrix: (Units=GPa)
#
#
# Indices 1 2 3 4 5 6 
#
# 1 87.2246 13.8603 24.8733 0.0000 10.2575 0.0000
# 2 13.8603 65.3197 31.5763 0.0000 -3.4544 0.0000
# 3 24.8733 31.5763 101.3910 0.0000 4.2530 0.0000
# 4 0.0000 0.0000 0.0000 27.4835 0.0000 2.3042
# 5 10.2575 -3.4544 4.2530 0.0000 22.8215 0.0000
# 6 0.0000 0.0000 0.0000 2.3042 0.0000 21.1334
#
#
#
# Elastic Compliance Matrix: (Units=1/GPa)
#
#
# Indices 1 2 3 4 5 6 
#
# 1 0.013127 -0.001942 -0.002374 0.000000 -0.005751 0.000000
# 2 -0.001942 0.018644 -0.005528 0.000000 0.004725 0.000000
# 3 -0.002374 -0.005528 0.012253 0.000000 -0.002053 0.000000
# 4 0.000000 0.000000 0.000000 0.036721 0.000000 -0.004004
# 5 -0.005751 0.004725 -0.002053 0.000000 0.047501 0.000000
# 6 0.000000 0.000000 0.000000 -0.004004 0.000000 0.047755
#
#
# Mechanical properties :
#
#
# Convention : Reuss Voigt Hill
#
# Bulk Modulus (GPa) = 41.09302 43.83947 42.46624
# Shear Modulus (GPa) = 24.53384 26.52938 25.53161
#
# Velocity S-wave (km/s) = 3.44575 3.58314 3.51512
# Velocity P-wave (km/s) = 5.97645 6.19150 6.08493
#
# Compressibility (1/GPa) = 0.02433503
#
# Stress axis : x y z
#
# Youngs Moduli (GPa) = 76.18113 53.63796 81.61292
#
# Poissons Ratio (x) = 0.10415 0.19377
# Poissons Ratio (y) = 0.14793 0.45116
# Poissons Ratio (z) = 0.18087 0.29651
#
# Static dielectric constant tensor:
#      x y z
#    x 3.805830 0.000000 0.270040 
#    y 0.000000 3.581770 0.000000 
#    z 0.270040 0.000000 3.820410 
# 
# 
# High freq. dielectric constant tensor:
#      x y z
#    x 1.800670 0.000000 0.010060 
#    y 0.000000 1.795490 0.000000 
#    z 0.010060 0.000000 1.817120 
# 
# From -- ./inp_files/133913.got.cif
#   From: 2010.06.25/outbox.cif.g09.slc.cpg/sg12_67_cif.got.tgz:133913.got - 2010.06.28 00:19:55.
