data_PCOD8094965
_publ_section_title
;
Structure prediction by ZEFSAII (Michael W. Deem and Ramdas Pophale) SiO2 
 PCOD8094965
Probable space group: C 2/M
;
_chemical_formula_sum "Si O2"
_cell_formula_units_Z 40
_cell_length_a 28.114863
_cell_length_b 9.344370
_cell_length_c 26.050907
_cell_angle_alpha 90.000000
_cell_angle_beta 19.790250
_cell_angle_gamma 90.000000
_cell_volume 2317.220345
_symmetry_space_group_name_H-M "C 2/M"
_symmetry_group_IT_number 12
_symmetry_cell_setting 'monoclinic'
loop_
_space_group_symop_operation_xyz
x,y,z
-x,y,-z
-x,-y,-z
x,-y,z
1/2+x,1/2+y,z
1/2-x,1/2+y,-z
1/2-x,1/2-y,-z
1/2+x,1/2-y,z
loop_
_atom_site_type_symbol
_atom_site_label
_atom_site_fract_x
_atom_site_fract_y
_atom_site_fract_z
Si Si1 0.610138 0.335390 0.343077
Si Si2 0.605036 0.167288 0.142671
Si Si3 0.894706 0.831703 0.062661
Si Si4 0.415258 0.157732 0.725967
Si Si5 0.419455 0.341631 0.925430
O O1 0.500000 0.315851 0.500000
O O2 0.647696 0.500000 0.294909
O O3 0.750221 0.252532 0.216595
O O4 0.539679 0.272545 0.362524
O O5 0.520572 0.191379 0.282281
O O6 0.522462 0.232867 0.177246
O O7 0.633354 0.000000 0.104320
O O8 0.750000 0.250000 0.000000
O O9 0.859916 0.000000 0.101334
O O10 0.968985 0.795854 0.932393
O O11 0.000000 0.781360 0.000000
O O12 0.465208 0.000000 0.657216
O O13 0.248334 0.158745 0.902031
O O14 0.475573 0.500000 0.854657
#
# Coordination Sequence:
#
# PCOD8094965 Si02
#       5
#     8   8   8   8   8
#     4  10  20  31  44  66  93 118 147 183 222 263
#     4   9  15  22  34  55  82 109 138 172 212 257
#     4   9  18  32  48  66  89 118 152 185 216 258
#     4   8  15  26  39  57  82 113 146 177 212 258
#     4   8  14  24  38  58  83 109 138 173 214 258
#
# _framework density 17.262062
#
# number of rings (size 3 to 8) (size 9 to 14) (size 15 to 20)
#    0.000    3.200    0.000    3.600    0.000   10.000 
#    0.000    0.000    0.000    0.000    0.000    1.400 
#    0.000    0.000    0.000    0.000    0.000    0.000 
#
# Total GULP energy -247777.877624 kJ/mol
# GULP energy per Si atom -12388.893881 kJ/mol
# Density = 1.722277 g / cm^3
# Si number density = 17.262062 Si / 1000 Ang^3
#
#
#
# Elastic Constant Matrix: (Units=GPa)
#
#
# Indices 1 2 3 4 5 6 
#
# 1 155.9166 74.0004 33.6755 0.0127 27.2371 -0.0009
# 2 74.0004 115.2139 37.3559 0.0462 19.2788 -0.0238
# 3 33.6755 37.3559 30.6236 0.0537 11.7407 -0.0283
# 4 0.0127 0.0462 0.0537 17.5633 -0.0249 9.2609
# 5 27.2371 19.2788 11.7407 -0.0249 19.3397 0.0090
# 6 -0.0009 -0.0238 -0.0283 9.2609 0.0090 30.4075
#
#
#
# Elastic Compliance Matrix: (Units=1/GPa)
#
#
# Indices 1 2 3 4 5 6 
#
# 1 0.010705 -0.004430 -0.002973 0.000003 -0.008856 -0.000004
# 2 -0.004430 0.016541 -0.014828 0.000004 -0.001249 -0.000002
# 3 -0.002973 -0.014828 0.060918 -0.000235 -0.018015 0.000122
# 4 0.000003 0.000004 -0.000235 0.067831 0.000231 -0.020659
# 5 -0.008856 -0.001249 -0.018015 0.000231 0.076361 -0.000111
# 6 -0.000004 -0.000002 0.000122 -0.020659 -0.000111 0.039179
#
#
# Mechanical properties :
#
#
# Convention : Reuss Voigt Hill
#
# Bulk Modulus (GPa) = 22.88140 65.75754 44.31947
# Shear Modulus (GPa) = 15.12563 23.91025 19.51794
#
# Velocity S-wave (km/s) = 2.96334 3.72578 3.36621
# Velocity P-wave (km/s) = 4.99926 7.52894 6.39052
#
# Compressibility (1/GPa) = 0.04370362
#
# Stress axis : x y z
#
# Youngs Moduli (GPa) = 93.41001 60.45426 16.41548
#
# Poissons Ratio (x) = 0.26782 0.04880
# Poissons Ratio (y) = 0.41382 0.24340
# Poissons Ratio (z) = 0.27771 0.89639
#
# Static dielectric constant tensor:
#      x y z
#    x 4.425130 0.000000 0.526640 
#    y 0.000000 3.448330 0.000010 
#    z 0.526640 0.000010 2.614740 
# 
# 
# High freq. dielectric constant tensor:
#      x y z
#    x 1.682750 0.000000 0.037650 
#    y 0.000000 1.672450 0.000000 
#    z 0.037650 0.000000 1.590840 
# 
# From -- ./inp_files/101005.got.cif
#   From: 2010.06.25/outbox.cif.g09.slc.cpg/sg12_51_cif.got.tgz:101005.got - 2010.06.28 00:19:55.
