data_PCOD8094979
_publ_section_title
;
Structure prediction by ZEFSAII (Michael W. Deem and Ramdas Pophale) SiO2 
 PCOD8094979
Probable space group: C 2/M
;
_chemical_formula_sum "Si O2"
_cell_formula_units_Z 48
_cell_length_a 31.322410
_cell_length_b 7.692147
_cell_length_c 11.454999
_cell_angle_alpha 90.000000
_cell_angle_beta 100.854352
_cell_angle_gamma 90.000000
_cell_volume 2710.550581
_symmetry_space_group_name_H-M "C 2/M"
_symmetry_group_IT_number 12
_symmetry_cell_setting 'monoclinic'
loop_
_space_group_symop_operation_xyz
x,y,z
-x,y,-z
-x,-y,-z
x,-y,z
1/2+x,1/2+y,z
1/2-x,1/2+y,-z
1/2-x,1/2-y,-z
1/2+x,1/2-y,z
loop_
_atom_site_type_symbol
_atom_site_label
_atom_site_fract_x
_atom_site_fract_y
_atom_site_fract_z
Si Si1 0.381291 0.299599 0.028564
Si Si2 0.775325 0.800955 0.338579
Si Si3 0.397690 0.698753 0.766908
Si Si4 0.444311 0.000000 0.088045
Si Si5 0.810770 0.794824 0.596646
Si Si6 0.460190 0.000000 0.823097
Si Si7 0.207997 0.203862 0.905133
O O1 0.390972 0.500000 0.068868
O O2 0.417854 0.175786 0.104567
O O3 0.335190 0.230087 0.052192
O O4 0.380200 0.278463 0.888897
O O5 0.801257 0.717322 0.462068
O O6 0.723559 0.784944 0.330104
O O7 0.788620 0.710388 0.222745
O O8 0.788997 0.000000 0.338208
O O9 0.412600 0.500000 0.752229
O O10 0.359124 0.755813 0.660366
O O11 0.437991 0.825631 0.760583
O O12 0.488931 0.000000 0.185733
O O13 0.455674 0.000000 0.958695
O O14 0.803866 0.000000 0.595318
O O15 0.205509 0.000000 0.890796
O O16 0.250000 0.250000 0.000000
#
# Coordination Sequence:
#
# PCOD8094979 Si02
#       7
#     8   8   8   4   8   4   8
#     4   9  18  31  46  67  95 127 158 190 236 285
#     4   9  18  30  45  65  91 126 162 192 231 278
#     4   9  17  29  47  69  94 123 154 193 241 287
#     4   9  18  32  48  69  97 125 153 196 243 291
#     4   9  17  30  45  65  94 123 155 196 237 280
#     4   9  18  30  48  73  95 119 157 196 243 294
#     4  10  20  31  45  67  94 126 162 195 228 276
#
# _framework density 17.708580000000001
#
# number of rings (size 3 to 8) (size 9 to 14) (size 15 to 20)
#    0.000    2.833    0.000    1.000    2.333    2.667 
#    0.000    3.333    0.000    0.000    0.000    2.333 
#    0.000    6.667    0.000    0.000    0.000    0.000 
#
# Total GULP energy -297480.446494 kJ/mol
# GULP energy per Si atom -12395.018604 kJ/mol
# Density = 1.766827 g / cm^3
# Si number density = 17.708580 Si / 1000 Ang^3
#
#
#
# Elastic Constant Matrix: (Units=GPa)
#
#
# Indices 1 2 3 4 5 6 
#
# 1 139.3671 53.6162 55.2755 0.0000 25.3804 0.0000
# 2 53.6162 71.0060 27.3065 0.0000 13.7074 0.0000
# 3 55.2755 27.3065 81.2534 0.0000 10.5178 0.0000
# 4 0.0000 0.0000 0.0000 14.1884 0.0000 5.9939
# 5 25.3804 13.7074 10.5178 0.0000 26.6063 0.0000
# 6 0.0000 0.0000 0.0000 5.9939 0.0000 27.9051
#
#
#
# Elastic Compliance Matrix: (Units=1/GPa)
#
#
# Indices 1 2 3 4 5 6 
#
# 1 0.013277 -0.006370 -0.005983 0.000000 -0.007018 0.000000
# 2 -0.006370 0.020378 -0.002047 0.000000 -0.003613 0.000000
# 3 -0.005983 -0.002047 0.017063 0.000000 0.000017 0.000000
# 4 0.000000 0.000000 0.000000 0.077514 0.000000 -0.016650
# 5 -0.007018 -0.003613 0.000017 0.000000 0.046135 0.000000
# 6 0.000000 0.000000 0.000000 -0.016650 0.000000 0.039412
#
#
# Mechanical properties :
#
#
# Convention : Reuss Voigt Hill
#
# Bulk Modulus (GPa) = 45.62488 62.66922 54.14705
# Shear Modulus (GPa) = 20.00927 24.10185 22.05556
#
# Velocity S-wave (km/s) = 3.36507 3.69321 3.53295
# Velocity P-wave (km/s) = 6.39676 7.32478 6.87644
#
# Compressibility (1/GPa) = 0.02191787
#
# Stress axis : x y z
#
# Youngs Moduli (GPa) = 75.31934 49.07306 58.60570
#
# Poissons Ratio (x) = 0.31257 0.35063
# Poissons Ratio (y) = 0.47975 0.11999
# Poissons Ratio (z) = 0.45063 0.10048
#
# Static dielectric constant tensor:
#      x y z
#    x 3.295820 0.000000 0.014430 
#    y 0.000000 3.357340 0.000000 
#    z 0.014430 0.000000 3.459700 
# 
# 
# High freq. dielectric constant tensor:
#      x y z
#    x 1.664400 0.000000 0.011570 
#    y 0.000000 1.687490 0.000000 
#    z 0.011570 0.000000 1.663000 
# 
# From -- ./inp_files/179351.got.cif
#   From: 2010.06.25/outbox.cif.g09.slc.cpg/sg12_90_cif.got.tgz:179351.got - 2010.06.28 00:19:55.
