data_PCOD8094204
_publ_section_title
;
Structure prediction by ZEFSAII (Michael W. Deem and Ramdas Pophale) SiO2 
 PCOD8094204
Probable space group: C 2/M
;
_chemical_formula_sum "Si O2"
_cell_formula_units_Z 56
_cell_length_a 25.852175
_cell_length_b 11.798358
_cell_length_c 14.387311
_cell_angle_alpha 90.000000
_cell_angle_beta 39.172162
_cell_angle_gamma 90.000000
_cell_volume 2771.894216
_symmetry_space_group_name_H-M "C 2/M"
_symmetry_group_IT_number 12
_symmetry_cell_setting 'monoclinic'
loop_
_space_group_symop_operation_xyz
x,y,z
-x,y,-z
-x,-y,-z
x,-y,z
1/2+x,1/2+y,z
1/2-x,1/2+y,-z
1/2-x,1/2-y,-z
1/2+x,1/2-y,z
loop_
_atom_site_type_symbol
_atom_site_label
_atom_site_fract_x
_atom_site_fract_y
_atom_site_fract_z
Si Si1 0.649001 0.629603 0.376470
Si Si2 0.805530 0.866880 0.324821
Si Si3 0.865647 0.255200 0.417717
Si Si4 0.730924 0.376213 0.951067
Si Si5 0.882357 0.234546 0.770977
Si Si6 0.823729 0.280648 0.128641
Si Si7 0.531467 0.132918 0.200130
O O1 0.619643 0.500000 0.409086
O O2 0.614097 0.684265 0.518241
O O3 0.605729 0.702016 0.353265
O O4 0.748371 0.630634 0.240564
O O5 0.846301 0.837729 0.366359
O O6 0.708546 0.842814 0.463384
O O7 0.847311 0.779291 0.193279
O O8 0.820802 0.000000 0.280667
O O9 0.944054 0.330393 0.280445
O O10 0.759498 0.500000 0.886708
O O11 0.808212 0.321416 0.894622
O O12 0.711824 0.321968 0.879895
O O13 0.649838 0.377213 0.129724
O O14 0.957648 0.295234 0.718656
O O15 0.901105 0.340188 0.972870
O O16 0.532416 0.000000 0.221735
#
# Coordination Sequence:
#
# PCOD8094204 Si02
#       7
#     8   8   8   8   8   8   8
#     4  10  19  37  58  82 115 155 192 230 266 321
#     4  10  20  41  63  82 110 149 188 236 280 330
#     4  10  23  38  59  86 112 146 195 228 277 346
#     4   9  15  28  48  78 112 145 179 224 269 320
#     4   9  19  30  51  80 110 147 191 221 267 334
#     4   9  20  34  59  88 110 141 191 229 274 336
#     4  11  22  40  58  83 117 145 178 238 291 330
#
# _framework density 20.202791999999999
#
# number of rings (size 3 to 8) (size 9 to 14) (size 15 to 20)
#    0.000    2.286    0.000    3.429    0.000    1.143 
#    0.000   15.714    0.000    0.000    0.000    0.000 
#    0.000    0.000    0.000    0.000    0.000    0.000 
#
# Total GULP energy -347007.838497 kJ/mol
# GULP energy per Si atom -12393.137089 kJ/mol
# Density = 2.015681 g / cm^3
# Si number density = 20.202792 Si / 1000 Ang^3
#
#
#
# Elastic Constant Matrix: (Units=GPa)
#
#
# Indices 1 2 3 4 5 6 
#
# 1 79.2928 34.3439 36.4461 0.0000 6.6668 0.0000
# 2 34.3439 110.6876 23.0975 0.0000 -3.8916 0.0000
# 3 36.4461 23.0975 72.9565 0.0000 -0.0784 0.0000
# 4 0.0000 0.0000 0.0000 16.2628 0.0000 -1.9314
# 5 6.6668 -3.8916 -0.0784 0.0000 34.1999 0.0000
# 6 0.0000 0.0000 0.0000 -1.9314 0.0000 19.7937
#
#
#
# Elastic Compliance Matrix: (Units=1/GPa)
#
#
# Indices 1 2 3 4 5 6 
#
# 1 0.018390 -0.004210 -0.007859 0.000000 -0.004082 0.000000
# 2 -0.004210 0.010678 -0.001275 0.000000 0.002033 0.000000
# 3 -0.007859 -0.001275 0.018038 0.000000 0.001428 0.000000
# 4 0.000000 0.000000 0.000000 0.062211 0.000000 0.006070
# 5 -0.004082 0.002033 0.001428 0.000000 0.030270 0.000000
# 6 0.000000 0.000000 0.000000 0.006070 0.000000 0.051113
#
#
# Mechanical properties :
#
#
# Convention : Reuss Voigt Hill
#
# Bulk Modulus (GPa) = 48.97440 50.07909 49.52674
# Shear Modulus (GPa) = 22.30205 25.32125 23.81165
#
# Velocity S-wave (km/s) = 3.32612 3.54411 3.43685
# Velocity P-wave (km/s) = 6.24858 6.44901 6.34958
#
# Compressibility (1/GPa) = 0.02041883
#
# Stress axis : x y z
#
# Youngs Moduli (GPa) = 54.37704 93.64848 55.43867
#
# Poissons Ratio (x) = 0.39423 0.43567
# Poissons Ratio (y) = 0.22891 0.07071
# Poissons Ratio (z) = 0.42733 0.11945
#
# Static dielectric constant tensor:
#      x y z
#    x 3.647940 0.000000 0.119080 
#    y 0.000000 3.515830 0.000000 
#    z 0.119080 0.000000 3.701350 
# 
# 
# High freq. dielectric constant tensor:
#      x y z
#    x 1.786060 0.000000 0.011900 
#    y 0.000000 1.786260 0.000000 
#    z 0.011900 0.000000 1.776190 
# 
# From -- ./inp_files/245635.got.cif
#   From: 2010.06.25/outbox.cif.g09.slc.cpg/sg12_123_cif.got.tgz:245635.got - 2010.06.28 00:19:55.
