data_PCOD8094825
_publ_section_title
;
Structure prediction by ZEFSAII (Michael W. Deem and Ramdas Pophale) SiO2 
 PCOD8094825
Probable space group: C 2/M
;
_chemical_formula_sum "Si O2"
_cell_formula_units_Z 60
_cell_length_a 16.760755
_cell_length_b 20.303221
_cell_length_c 9.052492
_cell_angle_alpha 90.000000
_cell_angle_beta 103.875010
_cell_angle_gamma 90.000000
_cell_volume 2990.652177
_symmetry_space_group_name_H-M "C 2/M"
_symmetry_group_IT_number 12
_symmetry_cell_setting 'monoclinic'
loop_
_space_group_symop_operation_xyz
x,y,z
-x,y,-z
-x,-y,-z
x,-y,z
1/2+x,1/2+y,z
1/2-x,1/2+y,-z
1/2-x,1/2-y,-z
1/2+x,1/2-y,z
loop_
_atom_site_type_symbol
_atom_site_label
_atom_site_fract_x
_atom_site_fract_y
_atom_site_fract_z
Si Si1 0.500000 0.363492 0.000000
Si Si2 0.588699 0.810494 0.574098
Si Si3 0.808262 0.665092 0.647423
Si Si4 0.859214 0.195517 0.775089
Si Si5 0.381279 0.669351 0.472906
Si Si6 0.586456 0.426336 0.764895
Si Si7 0.221198 0.574870 0.112903
Si Si8 0.207624 0.311497 0.888223
O O1 0.573778 0.314444 0.069266
O O2 0.472687 0.407804 0.126186
O O3 0.500000 0.845962 0.500000
O O4 0.656532 0.847348 0.501187
O O5 0.570680 0.737064 0.512887
O O6 0.621701 0.801991 0.758845
O O7 0.856418 0.726471 0.740950
O O8 0.713028 0.685443 0.609184
O O9 0.815097 0.597594 0.744423
O O10 0.883182 0.148789 0.646118
O O11 0.773102 0.167770 0.794524
O O12 0.427167 0.617919 0.387019
O O13 0.564773 0.500000 0.706804
O O14 0.680775 0.420425 0.854826
O O15 0.191516 0.500000 0.069045
O O16 0.185697 0.626436 0.980022
O O17 0.250000 0.250000 0.000000
#
# Coordination Sequence:
#
# PCOD8094825 Si02
#       8
#     4   8   8   8   8   8   8   8
#     4  12  25  34  56  90 129 158 200 256 308 364
#     4  11  23  36  63  95 123 152 207 272 319 371
#     4  10  19  40  61  85 121 157 202 255 311 369
#     4  11  21  35  58  88 118 160 201 253 308 361
#     4  10  20  38  60  83 118 160 204 255 304 365
#     4  10  22  39  57  84 124 168 203 245 303 374
#     4  10  21  39  65  90 120 164 211 251 312 388
#     4  12  20  38  64  94 128 165 204 263 322 371
#
# _framework density 20.062512000000002
#
# number of rings (size 3 to 8) (size 9 to 14) (size 15 to 20)
#    0.000    1.333    5.333    1.800    3.733    0.000 
#    0.000    3.333    0.000    2.400    0.000    0.000 
#    0.000    0.000    0.000    0.000    0.000    0.000 
#
# Total GULP energy -371652.327786 kJ/mol
# GULP energy per Si atom -12388.410926 kJ/mol
# Density = 2.001685 g / cm^3
# Si number density = 20.062512 Si / 1000 Ang^3
#
#
#
# Elastic Constant Matrix: (Units=GPa)
#
#
# Indices 1 2 3 4 5 6 
#
# 1 78.9181 26.0673 41.4572 0.0000 -5.6755 0.0000
# 2 26.0673 94.2623 42.9247 0.0000 -13.0572 0.0000
# 3 41.4572 42.9247 110.3709 0.0000 -8.0867 0.0000
# 4 0.0000 0.0000 0.0000 27.7931 0.0000 -3.2558
# 5 -5.6755 -13.0572 -8.0867 0.0000 39.8417 0.0000
# 6 0.0000 0.0000 0.0000 -3.2558 0.0000 10.8734
#
#
#
# Elastic Compliance Matrix: (Units=1/GPa)
#
#
# Indices 1 2 3 4 5 6 
#
# 1 0.016123 -0.001993 -0.005239 0.000000 0.000580 0.000000
# 2 -0.001993 0.013568 -0.004287 0.000000 0.003293 0.000000
# 3 -0.005239 -0.004287 0.012727 0.000000 0.000432 0.000000
# 4 0.000000 0.000000 0.000000 0.037288 0.000000 0.011165
# 5 0.000580 0.003293 0.000432 0.000000 0.026349 0.000000
# 6 0.000000 0.000000 0.000000 0.011165 0.000000 0.095311
#
#
# Mechanical properties :
#
#
# Convention : Reuss Voigt Hill
#
# Bulk Modulus (GPa) = 51.59570 56.04998 53.82284
# Shear Modulus (GPa) = 21.65783 27.24178 24.44981
#
# Velocity S-wave (km/s) = 3.28917 3.68889 3.49475
# Velocity P-wave (km/s) = 6.34020 6.79281 6.57040
#
# Compressibility (1/GPa) = 0.01938146
#
# Stress axis : x y z
#
# Youngs Moduli (GPa) = 62.02206 73.70240 78.57307
#
# Poissons Ratio (x) = 0.14687 0.41162
# Poissons Ratio (y) = 0.12360 0.33684
# Poissons Ratio (z) = 0.32491 0.31596
#
# Static dielectric constant tensor:
#      x y z
#    x 3.658020 0.000000 -0.174610 
#    y 0.000000 3.398970 0.000000 
#    z -0.174610 0.000000 3.962590 
# 
# 
# High freq. dielectric constant tensor:
#      x y z
#    x 1.780180 0.000000 -0.008540 
#    y 0.000000 1.742460 0.000000 
#    z -0.008540 0.000000 1.795950 
# 
# From -- ./inp_files/77555.got.cif
#   From: 2010.06.25/outbox.cif.g09.slc.cpg/sg12_39_cif.got.tgz:77555.got - 2010.06.28 00:19:55.
