data_PCOD8094494
_publ_section_title
;
Structure prediction by ZEFSAII (Michael W. Deem and Ramdas Pophale) SiO2 
 PCOD8094494
Probable space group: C 2/M
;
_chemical_formula_sum "Si O2"
_cell_formula_units_Z 60
_cell_length_a 9.968563
_cell_length_b 16.677366
_cell_length_c 22.820585
_cell_angle_alpha 90.000000
_cell_angle_beta 53.506441
_cell_angle_gamma 90.000000
_cell_volume 3050.012616
_symmetry_space_group_name_H-M "C 2/M"
_symmetry_group_IT_number 12
_symmetry_cell_setting 'monoclinic'
loop_
_space_group_symop_operation_xyz
x,y,z
-x,y,-z
-x,-y,-z
x,-y,z
1/2+x,1/2+y,z
1/2-x,1/2+y,-z
1/2-x,1/2-y,-z
1/2+x,1/2-y,z
loop_
_atom_site_type_symbol
_atom_site_label
_atom_site_fract_x
_atom_site_fract_y
_atom_site_fract_z
Si Si1 0.524544 0.766131 0.260723
Si Si2 0.613519 0.680300 0.028814
Si Si3 0.545778 0.908165 0.340585
Si Si4 0.000000 0.211866 0.500000
Si Si5 0.275167 0.410626 0.496397
Si Si6 0.399477 0.227291 0.164941
Si Si7 0.931071 0.408235 0.954234
Si Si8 0.748396 0.335030 0.617351
O O1 0.529802 0.854732 0.286949
O O2 0.418236 0.774388 0.229476
O O3 0.705531 0.731302 0.199196
O O4 0.433988 0.704138 0.328206
O O5 0.487053 0.692554 0.115881
O O6 0.500000 0.683031 0.000000
O O7 0.750000 0.750000 0.000000
O O8 0.727648 0.600490 0.003525
O O9 0.390808 0.895049 0.423985
O O10 0.708965 0.880451 0.333536
O O11 0.562636 0.000000 0.315805
O O12 0.908630 0.156041 0.477284
O O13 0.876899 0.263792 0.571085
O O14 0.344474 0.500000 0.489996
O O15 0.240632 0.400769 0.436600
O O16 0.477474 0.146773 0.117294
O O17 0.975872 0.500000 0.928694
O O18 0.000000 0.382657 0.000000
#
# Coordination Sequence:
#
# PCOD8094494 Si02
#       8
#     8   8   8   4   8   8   8   8
#     4  12  24  39  62  90 126 170 208 245 308 385
#     4  10  19  37  65  95 120 153 206 256 294 349
#     4  11  23  41  59  86 120 157 207 267 321 368
#     4  12  21  36  61  90 114 146 210 272 311 360
#     4  11  23  38  61  86 115 153 202 272 328 362
#     4  11  22  39  63  91 125 166 205 242 301 379
#     4  10  21  40  66  95 127 162 203 259 309 351
#     4  12  22  39  62  87 114 160 215 260 308 375
#
# _framework density 19.672048
#
# number of rings (size 3 to 8) (size 9 to 14) (size 15 to 20)
#    0.000    0.933    4.000    5.800    0.000    1.867 
#    0.000    2.000    0.000    0.000    0.000    0.000 
#    0.000    0.000    0.000    0.000    0.000    0.000 
#
# Total GULP energy -372012.375652 kJ/mol
# GULP energy per Si atom -12400.412522 kJ/mol
# Density = 1.962727 g / cm^3
# Si number density = 19.672048 Si / 1000 Ang^3
#
#
#
# Elastic Constant Matrix: (Units=GPa)
#
#
# Indices 1 2 3 4 5 6 
#
# 1 96.4049 21.2566 20.1081 -0.0002 -0.1104 0.0003
# 2 21.2566 84.9629 38.6115 -0.0001 -5.5573 0.0002
# 3 20.1081 38.6115 86.2042 0.0003 -8.9769 -0.0002
# 4 -0.0002 -0.0001 0.0003 2.0286 0.0000 31.2691
# 5 -0.1104 -5.5573 -8.9769 0.0000 45.4193 -0.0001
# 6 0.0003 0.0002 -0.0002 31.2691 -0.0001 -20.8350
#
#
#
# Elastic Compliance Matrix: (Units=1/GPa)
#
#
# Indices 1 2 3 4 5 6 
#
# 1 0.011188 -0.002038 -0.001756 0.000000 -0.000569 0.000000
# 2 -0.002038 0.015161 -0.006251 0.000000 0.000615 0.000000
# 3 -0.001756 -0.006251 0.015039 0.000000 0.002203 0.000000
# 4 0.000000 0.000000 0.000000 0.020426 0.000000 0.030655
# 5 -0.000569 0.000615 0.002203 0.000000 0.022526 0.000000
# 6 0.000000 0.000000 0.000000 0.030655 0.000000 -0.001989
#
#
# Mechanical properties :
#
#
# Convention : Reuss Voigt Hill
#
# Bulk Modulus (GPa) = 46.95467 47.50273 47.22870
# Shear Modulus (GPa) = 45.64464 17.82897 31.73681
#
# Velocity S-wave (km/s) = 4.82215 3.01376 4.02094
# Velocity P-wave (km/s) = 7.41112 6.02579 6.75407
#
# Compressibility (1/GPa) = 0.02129714
#
# Stress axis : x y z
#
# Youngs Moduli (GPa) = 89.38175 65.95923 66.49200
#
# Poissons Ratio (x) = 0.13444 0.11676
# Poissons Ratio (y) = 0.18219 0.41566
# Poissons Ratio (z) = 0.15696 0.41233
#
# Static dielectric constant tensor:
#      x y z
#    x 3.840130 0.000000 -0.120730 
#    y 0.000000 3.691380 0.000000 
#    z -0.120730 0.000000 3.627730 
# 
# 
# High freq. dielectric constant tensor:
#      x y z
#    x 1.778730 0.000000 0.000790 
#    y 0.000000 1.760670 0.000000 
#    z 0.000790 0.000000 1.762890 
# 
# From -- ./inp_files/333344.got.cif
#   From: 2010.06.25/outbox.cif.g09.slc.cpg/sg12_167_cif.got.tgz:333344.got - 2010.06.28 00:19:55.
