data_PCOD8094954
_publ_section_title
;
Structure prediction by ZEFSAII (Michael W. Deem and Ramdas Pophale) SiO2 
 PCOD8094954
Probable space group: C 2/M
;
_chemical_formula_sum "Si O2"
_cell_formula_units_Z 56
_cell_length_a 18.869610
_cell_length_b 9.309417
_cell_length_c 20.281497
_cell_angle_alpha 90.000000
_cell_angle_beta 116.318698
_cell_angle_gamma 90.000000
_cell_volume 3193.442207
_symmetry_space_group_name_H-M "C 2/M"
_symmetry_group_IT_number 12
_symmetry_cell_setting 'monoclinic'
loop_
_space_group_symop_operation_xyz
x,y,z
-x,y,-z
-x,-y,-z
x,-y,z
1/2+x,1/2+y,z
1/2-x,1/2+y,-z
1/2-x,1/2-y,-z
1/2+x,1/2-y,z
loop_
_atom_site_type_symbol
_atom_site_label
_atom_site_fract_x
_atom_site_fract_y
_atom_site_fract_z
Si Si1 0.734026 0.329390 0.298839
Si Si2 0.908475 0.168307 0.152531
Si Si3 0.266960 0.167776 0.164728
Si Si4 0.466936 0.330094 0.585741
Si Si5 0.317880 0.663781 0.994324
Si Si6 0.123585 0.170024 0.579637
Si Si7 0.432907 0.670780 0.716255
O O1 0.741422 0.500000 0.308853
O O2 0.746618 0.277447 0.229138
O O3 0.797297 0.255463 0.372110
O O4 0.648353 0.272614 0.286169
O O5 0.842214 0.247599 0.168238
O O6 0.994706 0.225618 0.208512
O O7 0.900652 0.000000 0.165571
O O8 0.898294 0.198496 0.068769
O O9 0.187527 0.196179 0.086543
O O10 0.288706 0.000000 0.174251
O O11 0.468469 0.500000 0.589250
O O12 0.402716 0.283205 0.504771
O O13 0.554976 0.279415 0.601913
O O14 0.443516 0.264742 0.646961
O O15 0.295993 0.500000 0.997456
O O16 0.250000 0.750000 0.000000
O O17 0.138849 0.000000 0.590770
O O18 0.431848 0.500000 0.713148
#
# Coordination Sequence:
#
# PCOD8094954 Si02
#       7
#     8   8   8   8   8   8   8
#     4  10  20  31  43  63  93 124 146 170 215 267
#     4   9  16  28  49  70  84 109 152 189 212 247
#     4   9  17  29  44  64  92 119 141 175 224 265
#     4   8  15  29  49  69  87 110 143 184 224 256
#     4   8  14  25  42  65  88 109 140 181 219 253
#     4   9  17  31  51  70  85 108 147 188 220 253
#     4   9  17  29  44  64  91 119 146 177 215 260
#
# _framework density 17.535937000000001
#
# number of rings (size 3 to 8) (size 9 to 14) (size 15 to 20)
#    0.000    3.143    0.000    1.714    0.000    2.286 
#    0.000    2.857    0.000    6.000    0.000    0.000 
#    0.000   12.571    0.000    0.000    0.000    0.000 
#
# Total GULP energy -346883.472975 kJ/mol
# GULP energy per Si atom -12388.695463 kJ/mol
# Density = 1.749602 g / cm^3
# Si number density = 17.535937 Si / 1000 Ang^3
#
#
#
# Elastic Constant Matrix: (Units=GPa)
#
#
# Indices 1 2 3 4 5 6 
#
# 1 104.0887 19.7857 75.1385 0.0000 21.8034 0.0000
# 2 19.7857 20.3055 25.4373 0.0000 5.6560 0.0000
# 3 75.1385 25.4373 156.1560 0.0000 25.1298 0.0000
# 4 0.0000 0.0000 0.0000 22.6081 0.0000 3.9253
# 5 21.8034 5.6560 25.1298 0.0000 17.0982 0.0000
# 6 0.0000 0.0000 0.0000 3.9253 0.0000 16.8619
#
#
#
# Elastic Compliance Matrix: (Units=1/GPa)
#
#
# Indices 1 2 3 4 5 6 
#
# 1 0.017194 -0.006871 -0.005228 0.000000 -0.011969 0.000000
# 2 -0.006871 0.065344 -0.006902 0.000000 -0.002710 0.000000
# 3 -0.005228 -0.006902 0.011269 0.000000 -0.007612 0.000000
# 4 0.000000 0.000000 0.000000 0.046095 0.000000 -0.010730
# 5 -0.011969 -0.002710 -0.007612 0.000000 0.085833 0.000000
# 6 0.000000 0.000000 0.000000 -0.010730 0.000000 0.061803
#
#
# Mechanical properties :
#
#
# Convention : Reuss Voigt Hill
#
# Bulk Modulus (GPa) = 17.91957 57.91925 37.91941
# Shear Modulus (GPa) = 14.52886 21.99289 18.26088
#
# Velocity S-wave (km/s) = 2.88152 3.54526 3.23048
# Velocity P-wave (km/s) = 4.61648 7.06109 5.96535
#
# Compressibility (1/GPa) = 0.05580491
#
# Stress axis : x y z
#
# Youngs Moduli (GPa) = 58.15819 15.30364 88.74025
#
# Poissons Ratio (x) = 0.10515 0.46394
# Poissons Ratio (y) = 0.39960 0.61250
# Poissons Ratio (z) = 0.30406 0.10563
#
# Static dielectric constant tensor:
#      x y z
#    x 3.116610 0.000000 -0.120430 
#    y 0.000000 2.869120 0.000000 
#    z -0.120430 0.000000 3.991280 
# 
# 
# High freq. dielectric constant tensor:
#      x y z
#    x 1.649780 0.000000 0.001160 
#    y 0.000000 1.642710 0.000000 
#    z 0.001160 0.000000 1.705380 
# 
# From -- ./inp_files/315114.got.cif
#   From: 2010.06.25/outbox.cif.g09.slc.cpg/sg12_158_cif.got.tgz:315114.got - 2010.06.28 00:19:55.
