data_PCOD8094071
_publ_section_title
;
Structure prediction by ZEFSAII (Michael W. Deem and Ramdas Pophale) SiO2 
 PCOD8094071
Probable space group: C 2/M
;
_chemical_formula_sum "Si O2"
_cell_formula_units_Z 64
_cell_length_a 27.051391
_cell_length_b 22.276399
_cell_length_c 12.499982
_cell_angle_alpha 90.000000
_cell_angle_beta 154.031146
_cell_angle_gamma 90.000000
_cell_volume 3298.386648
_symmetry_space_group_name_H-M "C 2/M"
_symmetry_group_IT_number 12
_symmetry_cell_setting 'monoclinic'
loop_
_space_group_symop_operation_xyz
x,y,z
-x,y,-z
-x,-y,-z
x,-y,z
1/2+x,1/2+y,z
1/2-x,1/2+y,-z
1/2-x,1/2-y,-z
1/2+x,1/2-y,z
loop_
_atom_site_type_symbol
_atom_site_label
_atom_site_fract_x
_atom_site_fract_y
_atom_site_fract_z
Si Si1 0.738140 0.930740 0.583511
Si Si2 0.254268 0.069575 0.645347
Si Si3 0.263722 0.240026 0.901313
Si Si4 0.711772 0.429373 0.913911
Si Si5 0.572096 0.860369 0.740541
Si Si6 0.998847 0.431128 0.206023
Si Si7 0.606802 0.359166 0.526609
Si Si8 0.154678 0.135316 0.015563
O O1 0.772731 0.915130 0.529945
O O2 0.605254 0.916790 0.338084
O O3 0.763516 0.000000 0.658907
O O4 0.813875 0.890384 0.807927
O O5 0.174678 0.109876 0.563045
O O6 0.229626 0.000000 0.623058
O O7 0.384821 0.085136 0.921308
O O8 0.153192 0.207932 0.637788
O O9 0.250000 0.250000 0.000000
O O10 0.371304 0.197011 0.093346
O O11 0.279711 0.302419 0.872396
O O12 0.701631 0.500000 0.880916
O O13 0.617799 0.398090 0.656446
O O14 0.691900 0.411861 0.997868
O O15 0.834427 0.408584 0.113387
O O16 0.500000 0.837868 0.500000
O O17 0.489105 0.891640 0.663560
O O18 0.999144 0.500000 0.242749
O O19 0.477844 0.353020 0.243859
#
# Coordination Sequence:
#
# PCOD8094071 Si02
#       8
#     8   8   8   8   8   8   8   8
#     4  10  23  40  63  94 126 162 205 254 310 361
#     4  10  20  41  67  92 124 164 207 251 304 368
#     4  11  24  42  60  85 119 165 208 249 298 366
#     4  11  22  37  56  88 128 161 196 243 308 373
#     4  11  22  34  60  89 122 160 205 250 307 360
#     4  10  19  36  62  93 126 161 202 251 304 364
#     4  11  24  41  64  90 122 160 209 249 306 365
#     4  12  25  40  61  90 125 161 202 259 302 366
#
# _framework density 19.403424999999999
#
# number of rings (size 3 to 8) (size 9 to 14) (size 15 to 20)
#    0.000    1.250    5.000    2.625    1.750    6.500 
#    0.000    1.875    0.000    0.000    0.000    0.000 
#    0.000    0.000    0.000    0.000    0.000    0.000 
#
# Total GULP energy -396935.912177 kJ/mol
# GULP energy per Si atom -12404.247256 kJ/mol
# Density = 1.935926 g / cm^3
# Si number density = 19.403425 Si / 1000 Ang^3
#
#
#
# Elastic Constant Matrix: (Units=GPa)
#
#
# Indices 1 2 3 4 5 6 
#
# 1 86.9969 32.0835 25.6931 0.0000 -13.2625 0.0000
# 2 32.0835 87.6103 40.1963 0.0000 -4.6405 0.0000
# 3 25.6931 40.1963 86.5975 0.0000 -7.5986 0.0000
# 4 0.0000 0.0000 0.0000 25.8364 0.0000 -6.9655
# 5 -13.2625 -4.6405 -7.5986 0.0000 32.6349 0.0000
# 6 0.0000 0.0000 0.0000 -6.9655 0.0000 21.4595
#
#
#
# Elastic Compliance Matrix: (Units=1/GPa)
#
#
# Indices 1 2 3 4 5 6 
#
# 1 0.014304 -0.004104 -0.001919 0.000000 0.004783 0.000000
# 2 -0.004104 0.015689 -0.006141 0.000000 -0.000867 0.000000
# 3 -0.001919 -0.006141 0.015131 0.000000 0.001870 0.000000
# 4 0.000000 0.000000 0.000000 0.042417 0.000000 0.013768
# 5 0.004783 -0.000867 0.001870 0.000000 0.032898 0.000000
# 6 0.000000 0.000000 0.000000 0.013768 0.000000 0.051068
#
#
# Mechanical properties :
#
#
# Convention : Reuss Voigt Hill
#
# Bulk Modulus (GPa) = 48.08617 50.79450 49.44034
# Shear Modulus (GPa) = 24.65876 26.86829 25.76353
#
# Velocity S-wave (km/s) = 3.56876 3.72522 3.64783
# Velocity P-wave (km/s) = 6.46665 6.68864 6.57858
#
# Compressibility (1/GPa) = 0.02079600
#
# Stress axis : x y z
#
# Youngs Moduli (GPa) = 69.90942 63.74017 66.08742
#
# Poissons Ratio (x) = 0.26162 0.12683
# Poissons Ratio (y) = 0.28694 0.40581
# Poissons Ratio (z) = 0.13417 0.39140
#
# Static dielectric constant tensor:
#      x y z
#    x 3.613900 0.000000 0.027130 
#    y 0.000000 4.126810 0.000000 
#    z 0.027130 0.000000 3.602670 
# 
# 
# High freq. dielectric constant tensor:
#      x y z
#    x 1.752670 0.000000 0.002820 
#    y 0.000000 1.751530 0.000000 
#    z 0.002820 0.000000 1.756300 
# 
# From -- ./inp_files/184706.got.cif
#   From: 2010.06.25/outbox.cif.g09.slc.cpg/sg12_93_cif.got.tgz:184706.got - 2010.06.28 00:19:55.
