data_PCOD8094268
_publ_section_title
;
Structure prediction by ZEFSAII (Michael W. Deem and Ramdas Pophale) SiO2 
 PCOD8094268
Probable space group: C 2/M
;
_chemical_formula_sum "Si O2"
_cell_formula_units_Z 56
_cell_length_a 22.263469
_cell_length_b 8.704068
_cell_length_c 14.918110
_cell_angle_alpha 90.000000
_cell_angle_beta 113.427072
_cell_angle_gamma 90.000000
_cell_volume 2652.568703
_symmetry_space_group_name_H-M "C 2/M"
_symmetry_group_IT_number 12
_symmetry_cell_setting 'monoclinic'
loop_
_space_group_symop_operation_xyz
x,y,z
-x,y,-z
-x,-y,-z
x,-y,z
1/2+x,1/2+y,z
1/2-x,1/2+y,-z
1/2-x,1/2-y,-z
1/2+x,1/2-y,z
loop_
_atom_site_type_symbol
_atom_site_label
_atom_site_fract_x
_atom_site_fract_y
_atom_site_fract_z
Si Si1 0.339314 0.319897 0.252261
Si Si2 0.490680 0.322590 0.098810
Si Si3 0.115215 0.322237 0.232966
Si Si4 0.652002 0.317703 0.943595
Si Si5 0.575210 0.818210 0.550419
Si Si6 0.211284 0.179639 0.159332
Si Si7 0.822802 0.320008 0.540799
O O1 0.351979 0.500000 0.267567
O O2 0.332152 0.257919 0.146210
O O3 0.397834 0.234206 0.337194
O O4 0.268044 0.271630 0.247168
O O5 0.499127 0.500000 0.132327
O O6 0.538766 0.217976 0.186735
O O7 0.419824 0.255846 0.078449
O O8 0.500000 0.298689 0.000000
O O9 0.127573 0.500000 0.217461
O O10 0.145630 0.213098 0.174950
O O11 0.143526 0.278664 0.346002
O O12 0.652067 0.500000 0.947618
O O13 0.701784 0.259036 0.050730
O O14 0.500000 0.754751 0.500000
O O15 0.626831 0.754159 0.505882
O O16 0.573054 0.000000 0.542205
O O17 0.227119 0.000000 0.170929
O O18 0.814258 0.500000 0.520443
O O19 0.750000 0.250000 0.500000
#
# Coordination Sequence:
#
# PCOD8094268 Si02
#       7
#     8   8   8   8   8   8   8
#     4  11  23  39  60  89 122 152 194 251 302 345
#     4  10  19  37  60  83 116 160 201 235 283 356
#     4  11  23  37  58  91 123 150 191 250 304 346
#     4   9  20  37  58  85 120 158 197 238 286 351
#     4  10  23  44  66  87 118 161 209 253 302 368
#     4  11  21  39  62  86 119 162 201 233 286 360
#     4  10  23  42  63  89 120 156 200 252 307 363
#
# _framework density 21.111612000000001
#
# number of rings (size 3 to 8) (size 9 to 14) (size 15 to 20)
#    0.000    1.714    1.429    2.571    2.000    4.571 
#    0.000    2.857    0.000    0.000    0.000    0.000 
#    0.000    0.000    0.000    0.000    0.000    0.000 
#
# Total GULP energy -347101.100283 kJ/mol
# GULP energy per Si atom -12396.467867 kJ/mol
# Density = 2.106356 g / cm^3
# Si number density = 21.111612 Si / 1000 Ang^3
#
#
#
# Elastic Constant Matrix: (Units=GPa)
#
#
# Indices 1 2 3 4 5 6 
#
# 1 111.1497 18.9434 52.9618 0.0000 19.7633 0.0000
# 2 18.9434 26.8304 30.5856 0.0000 4.4220 0.0000
# 3 52.9618 30.5856 132.6970 0.0000 24.6046 0.0000
# 4 0.0000 0.0000 0.0000 30.9125 0.0000 5.0123
# 5 19.7633 4.4220 24.6046 0.0000 42.4776 0.0000
# 6 0.0000 0.0000 0.0000 5.0123 0.0000 26.2752
#
#
#
# Elastic Compliance Matrix: (Units=1/GPa)
#
#
# Indices 1 2 3 4 5 6 
#
# 1 0.011782 -0.004216 -0.003132 0.000000 -0.003229 0.000000
# 2 -0.004216 0.052169 -0.010865 0.000000 0.002824 0.000000
# 3 -0.003132 -0.010865 0.012111 0.000000 -0.004427 0.000000
# 4 0.000000 0.000000 0.000000 0.033382 0.000000 -0.006368
# 5 -0.003229 0.002824 -0.004427 0.000000 0.027314 0.000000
# 6 0.000000 0.000000 0.000000 -0.006368 0.000000 0.039273
#
#
# Mechanical properties :
#
#
# Convention : Reuss Voigt Hill
#
# Bulk Modulus (GPa) = 25.23037 52.85096 39.04066
# Shear Modulus (GPa) = 22.15627 31.14549 26.65088
#
# Velocity S-wave (km/s) = 3.24309 3.84510 3.55685
# Velocity P-wave (km/s) = 5.09906 6.69339 5.94987
#
# Compressibility (1/GPa) = 0.03963478
#
# Stress axis : x y z
#
# Youngs Moduli (GPa) = 84.87637 19.16862 82.56809
#
# Poissons Ratio (x) = 0.08082 0.25860
# Poissons Ratio (y) = 0.35785 0.89714
# Poissons Ratio (z) = 0.26583 0.20827
#
# Static dielectric constant tensor:
#      x y z
#    x 4.229790 0.000000 0.068990 
#    y 0.000000 3.439990 0.000000 
#    z 0.068990 0.000000 3.949260 
# 
# 
# High freq. dielectric constant tensor:
#      x y z
#    x 1.841160 0.000000 0.010070 
#    y 0.000000 1.801170 0.000000 
#    z 0.010070 0.000000 1.838250 
# 
# From -- ./inp_files/238869.got.cif
#   From: 2010.06.25/outbox.cif.g09.slc.cpg/sg12_120_cif.got.tgz:238869.got - 2010.06.28 00:19:55.
