data_PCOD8094801
_publ_section_title
;
Structure prediction by ZEFSAII (Michael W. Deem and Ramdas Pophale) SiO2 
 PCOD8094801
Probable space group: C 2/M
;
_chemical_formula_sum "Si O2"
_cell_formula_units_Z 56
_cell_length_a 13.663721
_cell_length_b 13.831101
_cell_length_c 18.362930
_cell_angle_alpha 90.000000
_cell_angle_beta 136.043434
_cell_angle_gamma 90.000000
_cell_volume 2408.783735
_symmetry_space_group_name_H-M "C 2/M"
_symmetry_group_IT_number 12
_symmetry_cell_setting 'monoclinic'
loop_
_space_group_symop_operation_xyz
x,y,z
-x,y,-z
-x,-y,-z
x,-y,z
1/2+x,1/2+y,z
1/2-x,1/2+y,-z
1/2-x,1/2-y,-z
1/2+x,1/2-y,z
loop_
_atom_site_type_symbol
_atom_site_label
_atom_site_fract_x
_atom_site_fract_y
_atom_site_fract_z
Si Si1 0.299095 0.789083 0.802394
Si Si2 0.963316 0.108039 0.886142
Si Si3 0.384186 0.606062 0.689637
Si Si4 0.240600 0.212794 0.576495
Si Si5 0.025218 0.112401 0.610047
Si Si6 0.521938 0.112721 0.214998
Si Si7 0.736131 0.286336 0.073219
O O1 0.321331 0.672598 0.817938
O O2 0.170487 0.826414 0.682510
O O3 0.438403 0.837985 0.842174
O O4 0.275476 0.806178 0.876683
O O5 0.995633 0.110870 0.816042
O O6 0.928113 0.000000 0.893102
O O7 0.096028 0.146588 0.003855
O O8 0.310503 0.500000 0.647238
O O9 0.265368 0.689999 0.638394
O O10 0.470952 0.624808 0.662961
O O11 0.250000 0.250000 0.500000
O O12 0.364112 0.137128 0.661354
O O13 0.090964 0.157349 0.508175
O O14 0.053302 0.000000 0.606073
O O15 0.373717 0.150688 0.165215
O O16 0.515121 0.000000 0.197235
O O17 0.750000 0.250000 0.000000
#
# Coordination Sequence:
#
# PCOD8094801 Si02
#       7
#     8   8   8   8   8   8   8
#     4  12  25  43  67  98 140 177 227 289 342 412
#     4  11  23  42  68  95 129 177 227 276 337 410
#     4   9  18  38  65  94 129 173 222 273 333 399
#     4  10  19  39  67 102 136 179 224 280 342 410
#     4  10  21  38  64  95 132 177 219 269 337 407
#     4  12  26  45  70 105 144 183 232 292 348 417
#     4  12  24  45  71  99 135 183 226 285 350 413
#
# _framework density 23.248248
#
# number of rings (size 3 to 8) (size 9 to 14) (size 15 to 20)
#    0.000    1.143    2.857    4.286    0.000    2.857 
#    0.000    5.000    0.000    1.714    0.000    0.000 
#    0.000    0.000    0.000    0.000    0.000    0.000 
#
# Total GULP energy -347033.765878 kJ/mol
# GULP energy per Si atom -12394.063067 kJ/mol
# Density = 2.319533 g / cm^3
# Si number density = 23.248248 Si / 1000 Ang^3
#
#
#
# Elastic Constant Matrix: (Units=GPa)
#
#
# Indices 1 2 3 4 5 6 
#
# 1 83.7299 33.4723 44.1412 0.0000 16.0934 0.0000
# 2 33.4723 148.0926 56.0577 0.0000 29.3140 0.0000
# 3 44.1412 56.0577 146.9398 0.0000 12.4210 0.0000
# 4 0.0000 0.0000 0.0000 36.8119 0.0000 2.3379
# 5 16.0934 29.3140 12.4210 0.0000 44.8165 0.0000
# 6 0.0000 0.0000 0.0000 2.3379 0.0000 30.1900
#
#
#
# Elastic Compliance Matrix: (Units=1/GPa)
#
#
# Indices 1 2 3 4 5 6 
#
# 1 0.015118 -0.001298 -0.003747 0.000000 -0.003542 0.000000
# 2 -0.001298 0.008968 -0.002637 0.000000 -0.004669 0.000000
# 3 -0.003747 -0.002637 0.008886 0.000000 0.000608 0.000000
# 4 0.000000 0.000000 0.000000 0.027299 0.000000 -0.002114
# 5 -0.003542 -0.004669 0.000608 0.000000 0.026471 0.000000
# 6 0.000000 0.000000 0.000000 -0.002114 0.000000 0.033287
#
#
# Mechanical properties :
#
#
# Convention : Reuss Voigt Hill
#
# Bulk Modulus (GPa) = 56.78968 71.78941 64.28955
# Shear Modulus (GPa) = 35.39521 38.70309 37.04915
#
# Velocity S-wave (km/s) = 3.90614 4.08459 3.99636
# Velocity P-wave (km/s) = 6.69511 7.29326 7.00058
#
# Compressibility (1/GPa) = 0.01760883
#
# Stress axis : x y z
#
# Youngs Moduli (GPa) = 66.14615 111.50503 112.53958
#
# Poissons Ratio (x) = 0.14469 0.42170
# Poissons Ratio (y) = 0.08583 0.29675
# Poissons Ratio (z) = 0.24786 0.29403
#
# Static dielectric constant tensor:
#      x y z
#    x 4.628940 0.000000 -0.211210 
#    y 0.000000 4.429520 0.000000 
#    z -0.211210 0.000000 4.719970 
# 
# 
# High freq. dielectric constant tensor:
#      x y z
#    x 1.933930 0.000000 -0.030900 
#    y 0.000000 1.913680 0.000000 
#    z -0.030900 0.000000 1.931000 
# 
# From -- ./inp_files/310847.got.cif
#   From: 2010.06.25/outbox.cif.g09.slc.cpg/sg12_156_cif.got.tgz:310847.got - 2010.06.28 00:19:55.
