data_PCOD8094406
_publ_section_title
;
Structure prediction by ZEFSAII (Michael W. Deem and Ramdas Pophale) SiO2 
 PCOD8094406
Probable space group: C 2/M
;
_chemical_formula_sum "Si O2"
_cell_formula_units_Z 56
_cell_length_a 27.068232
_cell_length_b 18.478582
_cell_length_c 9.517640
_cell_angle_alpha 90.000000
_cell_angle_beta 37.035222
_cell_angle_gamma 90.000000
_cell_volume 2867.311627
_symmetry_space_group_name_H-M "C 2/M"
_symmetry_group_IT_number 12
_symmetry_cell_setting 'monoclinic'
loop_
_space_group_symop_operation_xyz
x,y,z
-x,y,-z
-x,-y,-z
x,-y,z
1/2+x,1/2+y,z
1/2-x,1/2+y,-z
1/2-x,1/2-y,-z
1/2+x,1/2-y,z
loop_
_atom_site_type_symbol
_atom_site_label
_atom_site_fract_x
_atom_site_fract_y
_atom_site_fract_z
Si Si1 0.705809 0.830729 0.972876
Si Si2 0.489286 0.653378 0.858409
Si Si3 0.869889 0.083672 0.643398
Si Si4 0.149817 0.084330 0.994537
Si Si5 0.211501 0.689422 0.279206
Si Si6 0.533848 0.812630 0.772571
Si Si7 0.451063 0.917703 0.754442
O O1 0.787146 0.878047 0.785406
O O2 0.725589 0.756588 0.844204
O O3 0.678973 0.812270 0.192668
O O4 0.633569 0.873522 0.060177
O O5 0.556914 0.609992 0.619227
O O6 0.401474 0.623502 0.010389
O O7 0.494160 0.737889 0.807972
O O8 0.500000 0.640737 0.000000
O O9 0.890656 0.098482 0.760284
O O10 0.855963 0.000000 0.647966
O O11 0.155906 0.000000 0.945839
O O12 0.241781 0.116038 0.784811
O O13 0.132220 0.697470 0.557750
O O14 0.511270 0.879805 0.726934
O O15 0.500000 0.833072 0.000000
O O16 0.500000 0.917766 0.500000
O O17 0.431931 0.000000 0.844963
#
# Coordination Sequence:
#
# PCOD8094406 Si02
#       7
#     8   8   8   8   8   8   8
#     4  10  19  37  62  94 119 148 204 253 297 347
#     4  11  23  40  59  88 121 159 200 243 297 356
#     4  10  20  36  61  89 122 156 193 246 302 359
#     4  10  22  38  61  90 119 155 197 246 300 358
#     4  10  20  38  63  90 118 158 201 245 299 351
#     4  11  24  43  62  86 122 162 202 244 298 361
#     4  11  23  39  64  93 122 157 201 252 299 350
#
# _framework density 19.530487999999998
#
# number of rings (size 3 to 8) (size 9 to 14) (size 15 to 20)
#    0.000    1.571    2.857    2.143    0.000    4.857 
#    2.571    2.143    0.000    0.000    0.000    0.000 
#    0.000    0.000    0.000    0.000    0.000    0.000 
#
# Total GULP energy -347291.373407 kJ/mol
# GULP energy per Si atom -12403.263336 kJ/mol
# Density = 1.948604 g / cm^3
# Si number density = 19.530488 Si / 1000 Ang^3
#
#
#
# Elastic Constant Matrix: (Units=GPa)
#
#
# Indices 1 2 3 4 5 6 
#
# 1 84.7151 64.5017 44.1810 0.0000 -1.4465 0.0000
# 2 64.5017 155.2834 52.1577 0.0000 6.6284 0.0000
# 3 44.1810 52.1577 102.2035 0.0000 0.9050 0.0000
# 4 0.0000 0.0000 0.0000 3.0597 0.0000 -112.9910
# 5 -1.4465 6.6284 0.9050 0.0000 28.6008 0.0000
# 6 0.0000 0.0000 0.0000 -112.9910 0.0000 -220.1363
#
#
#
# Elastic Compliance Matrix: (Units=1/GPa)
#
#
# Indices 1 2 3 4 5 6 
#
# 1 0.019451 -0.006469 -0.005130 0.000000 0.002645 0.000000
# 2 -0.006469 0.010005 -0.002287 0.000000 -0.002574 0.000000
# 3 -0.005130 -0.002287 0.013170 0.000000 -0.000146 0.000000
# 4 0.000000 0.000000 0.000000 0.016379 0.000000 -0.008407
# 5 0.002645 -0.002574 -0.000146 0.000000 0.035699 0.000000
# 6 0.000000 0.000000 0.000000 -0.008407 0.000000 -0.000228
#
#
# Mechanical properties :
#
#
# Convention : Reuss Voigt Hill
#
# Bulk Modulus (GPa) = 67.32184 73.76477 70.54331
# Shear Modulus (GPa) = 39.30868 -25.60440 6.85214
#
# Velocity S-wave (km/s) = 4.49116 -3.62470 1.87511
# Velocity P-wave (km/s) = 7.83830 4.50923 6.39422
#
# Compressibility (1/GPa) = 0.01485402
#
# Stress axis : x y z
#
# Youngs Moduli (GPa) = 51.41246 99.95147 75.92863
#
# Poissons Ratio (x) = 0.64660 0.38953
# Poissons Ratio (y) = 0.33259 0.17361
# Poissons Ratio (z) = 0.26376 0.22854
#
# Static dielectric constant tensor:
#      x y z
#    x 3.262560 0.000000 -0.071890 
#    y 0.000000 3.804080 0.000000 
#    z -0.071890 0.000000 3.483930 
# 
# 
# High freq. dielectric constant tensor:
#      x y z
#    x 1.747260 0.000000 -0.013120 
#    y 0.000000 1.777870 0.000000 
#    z -0.013120 0.000000 1.755870 
# 
# From -- ./inp_files/105928.got.cif
#   From: 2010.06.25/outbox.cif.g09.slc.cpg/sg12_53_cif.got.tgz:105928.got - 2010.06.28 00:19:55.
