data_PCOD8094673
_publ_section_title
;
Structure prediction by ZEFSAII (Michael W. Deem and Ramdas Pophale) SiO2 
 PCOD8094673
Probable space group: C 2/M
;
_chemical_formula_sum "Si O2"
_cell_formula_units_Z 60
_cell_length_a 9.189560
_cell_length_b 27.512023
_cell_length_c 17.508615
_cell_angle_alpha 90.000000
_cell_angle_beta 45.672768
_cell_angle_gamma 90.000000
_cell_volume 3166.606631
_symmetry_space_group_name_H-M "C 2/M"
_symmetry_group_IT_number 12
_symmetry_cell_setting 'monoclinic'
loop_
_space_group_symop_operation_xyz
x,y,z
-x,y,-z
-x,-y,-z
x,-y,z
1/2+x,1/2+y,z
1/2-x,1/2+y,-z
1/2-x,1/2-y,-z
1/2+x,1/2-y,z
loop_
_atom_site_type_symbol
_atom_site_label
_atom_site_fract_x
_atom_site_fract_y
_atom_site_fract_z
Si Si1 0.059831 0.054389 0.207938
Si Si2 0.336314 0.802939 0.452669
Si Si3 0.616893 0.616787 0.854985
Si Si4 0.774380 0.196871 0.290524
Si Si5 0.500000 0.918575 0.000000
Si Si6 0.494115 0.644071 0.336461
Si Si7 0.693050 0.865652 0.066895
Si Si8 0.625715 0.804105 0.741683
O O1 0.296862 0.051569 0.095134
O O2 0.924293 0.071063 0.185054
O O3 0.008288 0.088854 0.299428
O O4 0.993231 0.000000 0.255265
O O5 0.250000 0.750000 0.500000
O O6 0.556179 0.805708 0.413729
O O7 0.187048 0.846497 0.535384
O O8 0.378981 0.805684 0.347307
O O9 0.751645 0.658810 0.768307
O O10 0.739346 0.599120 0.886086
O O11 0.405120 0.645725 0.947784
O O12 0.954282 0.180424 0.280756
O O13 0.817659 0.251268 0.246194
O O14 0.462208 0.888012 0.937009
O O15 0.709076 0.656145 0.294099
O O16 0.589364 0.817906 0.140807
#
# Coordination Sequence:
#
# PCOD8094673 Si02
#       8
#     8   8   8   8   4   8   8   8
#     4  10  21  40  64  88 115 152 197 247 302 351
#     4  12  22  36  57  86 120 160 203 242 287 340
#     4   9  21  39  58  82 119 157 195 237 296 356
#     4  11  21  36  55  85 119 160 199 239 286 348
#     4  10  19  38  64  92 116 144 194 250 301 358
#     4  11  23  35  56  89 121 153 194 249 292 342
#     4  10  20  38  58  85 121 155 190 239 299 359
#     4  12  21  35  58  86 122 155 199 244 292 347
#
# _framework density 18.947728000000001
#
# number of rings (size 3 to 8) (size 9 to 14) (size 15 to 20)
#    0.000    1.333    5.333    1.000    0.000    0.533 
#    0.000    7.333    0.000    8.000    0.000    0.000 
#    0.000    0.000    0.000    0.000    0.000    0.000 
#
# Total GULP energy -371690.501036 kJ/mol
# GULP energy per Si atom -12389.683368 kJ/mol
# Density = 1.890460 g / cm^3
# Si number density = 18.947728 Si / 1000 Ang^3
#
#
#
# Elastic Constant Matrix: (Units=GPa)
#
#
# Indices 1 2 3 4 5 6 
#
# 1 76.6879 34.2213 9.6740 0.0000 5.6550 0.0000
# 2 34.2213 124.7568 53.1793 0.0000 0.9236 0.0000
# 3 9.6740 53.1793 77.5748 0.0000 -1.8338 0.0000
# 4 0.0000 0.0000 0.0000 22.7805 0.0000 1.3338
# 5 5.6550 0.9236 -1.8338 0.0000 30.8911 0.0000
# 6 0.0000 0.0000 0.0000 1.3338 0.0000 13.6005
#
#
#
# Elastic Compliance Matrix: (Units=1/GPa)
#
#
# Indices 1 2 3 4 5 6 
#
# 1 0.015156 -0.004672 0.001252 0.000000 -0.002560 0.000000
# 2 -0.004672 0.012785 -0.008182 0.000000 -0.000013 0.000000
# 3 0.001252 -0.008182 0.018370 0.000000 0.001106 0.000000
# 4 0.000000 0.000000 0.000000 0.044151 0.000000 -0.004330
# 5 -0.002560 -0.000013 0.001106 0.000000 0.032907 0.000000
# 6 0.000000 0.000000 0.000000 -0.004330 0.000000 0.073951
#
#
# Mechanical properties :
#
#
# Convention : Reuss Voigt Hill
#
# Bulk Modulus (GPa) = 43.27765 52.57430 47.92598
# Shear Modulus (GPa) = 21.90824 25.58408 23.74616
#
# Velocity S-wave (km/s) = 3.40405 3.67855 3.54396
# Velocity P-wave (km/s) = 6.19195 6.77123 6.48806
#
# Compressibility (1/GPa) = 0.02310662
#
# Stress axis : x y z
#
# Youngs Moduli (GPa) = 65.98226 78.21682 54.43741
#
# Poissons Ratio (x) = 0.36544 -0.06817
# Poissons Ratio (y) = 0.30828 0.44541
# Poissons Ratio (z) = -0.08263 0.63997
#
# Static dielectric constant tensor:
#      x y z
#    x 3.746360 0.000000 0.065330 
#    y 0.000000 3.104770 0.000000 
#    z 0.065330 0.000000 3.779660 
# 
# 
# High freq. dielectric constant tensor:
#      x y z
#    x 1.760430 0.000000 -0.000140 
#    y 0.000000 1.689800 0.000000 
#    z -0.000140 0.000000 1.741730 
# 
# From -- ./inp_files/259701.got.cif
#   From: 2010.06.25/outbox.cif.g09.slc.cpg/sg12_130_cif.got.tgz:259701.got - 2010.06.28 00:19:55.
