data_PCOD8094557
_publ_section_title
;
Structure prediction by ZEFSAII (Michael W. Deem and Ramdas Pophale) SiO2 
 PCOD8094557
Probable space group: C 2/M
;
_chemical_formula_sum "Si O2"
_cell_formula_units_Z 48
_cell_length_a 14.313271
_cell_length_b 18.971940
_cell_length_c 13.029938
_cell_angle_alpha 90.000000
_cell_angle_beta 137.439319
_cell_angle_gamma 90.000000
_cell_volume 2393.193146
_symmetry_space_group_name_H-M "C 2/M"
_symmetry_group_IT_number 12
_symmetry_cell_setting 'monoclinic'
loop_
_space_group_symop_operation_xyz
x,y,z
-x,y,-z
-x,-y,-z
x,-y,z
1/2+x,1/2+y,z
1/2-x,1/2+y,-z
1/2-x,1/2-y,-z
1/2+x,1/2-y,z
loop_
_atom_site_type_symbol
_atom_site_label
_atom_site_fract_x
_atom_site_fract_y
_atom_site_fract_z
Si Si1 0.932433 0.287337 0.654081
Si Si2 0.843224 0.079147 0.389030
Si Si3 0.137517 0.306419 0.164999
Si Si4 0.742424 0.200114 0.896052
Si Si5 0.165748 0.139991 0.408003
Si Si6 0.544785 0.579179 0.919955
O O1 0.897683 0.287419 0.747031
O O2 0.922023 0.205147 0.614317
O O3 0.818375 0.332083 0.498476
O O4 0.081866 0.318386 0.746444
O O5 0.749267 0.131590 0.246477
O O6 0.811365 0.082801 0.484328
O O7 0.000000 0.101599 0.500000
O O8 0.814543 0.000000 0.326677
O O9 0.191139 0.236435 0.150277
O O10 0.000000 0.335076 0.000000
O O11 0.750000 0.250000 0.000000
O O12 0.822850 0.128725 0.989467
O O13 0.087971 0.105332 0.250314
O O14 0.585116 0.500000 0.917528
O O15 0.500000 0.580097 0.000000
#
# Coordination Sequence:
#
# PCOD8094557 Si02
#       6
#     8   8   8   8   8   8
#     4  10  21  35  61  91 119 155 207 251 308 357
#     4  10  22  36  54  83 119 159 199 241 301 369
#     4  11  21  37  57  85 121 157 198 253 302 357
#     4  12  21  37  64  91 120 158 204 263 299 362
#     4  10  19  38  59  85 119 159 201 253 302 366
#     4  11  24  42  64  90 123 165 207 255 320 377
#
# _framework density 20.056884
#
# number of rings (size 3 to 8) (size 9 to 14) (size 15 to 20)
#    0.000    1.333    3.333    3.000    0.000    0.333 
#    0.000   10.000    0.000    2.000    0.000    0.000 
#    0.000    0.000    0.000    0.000    0.000    0.000 
#
# Total GULP energy -297617.761264 kJ/mol
# GULP energy per Si atom -12400.740053 kJ/mol
# Density = 2.001123 g / cm^3
# Si number density = 20.056884 Si / 1000 Ang^3
#
#
#
# Elastic Constant Matrix: (Units=GPa)
#
#
# Indices 1 2 3 4 5 6 
#
# 1 63.7764 37.7182 40.0489 0.0000 15.5074 0.0000
# 2 37.7182 132.9890 71.9199 0.0000 19.1676 0.0000
# 3 40.0489 71.9199 153.6679 0.0000 27.5091 0.0000
# 4 0.0000 0.0000 0.0000 30.8110 0.0000 2.2699
# 5 15.5074 19.1676 27.5091 0.0000 36.4332 0.0000
# 6 0.0000 0.0000 0.0000 2.2699 0.0000 24.0589
#
#
#
# Elastic Compliance Matrix: (Units=1/GPa)
#
#
# Indices 1 2 3 4 5 6 
#
# 1 0.020800 -0.003671 -0.002849 0.000000 -0.004771 0.000000
# 2 -0.003671 0.010844 -0.003905 0.000000 -0.001194 0.000000
# 3 -0.002849 -0.003905 0.009820 0.000000 -0.004148 0.000000
# 4 0.000000 0.000000 0.000000 0.032683 0.000000 -0.003084
# 5 -0.004771 -0.001194 -0.004148 0.000000 0.033238 0.000000
# 6 0.000000 0.000000 0.000000 -0.003084 0.000000 0.041856
#
#
# Mechanical properties :
#
#
# Convention : Reuss Voigt Hill
#
# Bulk Modulus (GPa) = 48.50792 72.20082 60.35437
# Shear Modulus (GPa) = 28.25461 31.64371 29.94916
#
# Velocity S-wave (km/s) = 3.75737 3.97633 3.86840
# Velocity P-wave (km/s) = 6.56212 7.56028 7.07882
#
# Compressibility (1/GPa) = 0.02061519
#
# Stress axis : x y z
#
# Youngs Moduli (GPa) = 48.07742 92.21268 101.83251
#
# Poissons Ratio (x) = 0.33852 0.29008
# Poissons Ratio (y) = 0.17650 0.39765
# Poissons Ratio (z) = 0.13695 0.36008
#
# Static dielectric constant tensor:
#      x y z
#    x 3.561760 0.000000 0.159280 
#    y 0.000000 3.740690 0.000000 
#    z 0.159280 0.000000 4.061470 
# 
# 
# High freq. dielectric constant tensor:
#      x y z
#    x 1.768810 0.000000 0.002550 
#    y 0.000000 1.773460 0.000000 
#    z 0.002550 0.000000 1.800700 
# 
# From -- ./inp_files/216491.got.cif
#   From: 2010.06.25/outbox.cif.g09.slc.cpg/sg12_109_cif.got.tgz:216491.got - 2010.06.28 00:19:55.
