data_PCOD8094296
_publ_section_title
;
Structure prediction by ZEFSAII (Michael W. Deem and Ramdas Pophale) SiO2 
 PCOD8094296
Probable space group: C 2/M
;
_chemical_formula_sum "Si O2"
_cell_formula_units_Z 64
_cell_length_a 14.589176
_cell_length_b 9.056126
_cell_length_c 26.814677
_cell_angle_alpha 90.000000
_cell_angle_beta 105.996155
_cell_angle_gamma 90.000000
_cell_volume 3405.616826
_symmetry_space_group_name_H-M "C 2/M"
_symmetry_group_IT_number 12
_symmetry_cell_setting 'monoclinic'
loop_
_space_group_symop_operation_xyz
x,y,z
-x,y,-z
-x,-y,-z
x,-y,z
1/2+x,1/2+y,z
1/2-x,1/2+y,-z
1/2-x,1/2-y,-z
1/2+x,1/2-y,z
loop_
_atom_site_type_symbol
_atom_site_label
_atom_site_fract_x
_atom_site_fract_y
_atom_site_fract_z
Si Si1 0.705450 0.327053 0.423366
Si Si2 0.208118 0.825445 0.760068
Si Si3 0.306673 0.825929 0.052469
Si Si4 0.491403 0.325430 0.226981
Si Si5 0.199235 0.168627 0.135970
Si Si6 0.101459 0.673610 0.493979
Si Si7 0.515573 0.669670 0.886466
Si Si8 0.817012 0.175189 0.693296
O O1 0.687998 0.500000 0.426546
O O2 0.813347 0.284386 0.455216
O O3 0.625162 0.247918 0.444635
O O4 0.690790 0.273283 0.364828
O O5 0.101454 0.773760 0.757080
O O6 0.279373 0.770782 0.813660
O O7 0.231907 0.751088 0.710967
O O8 0.217017 0.000000 0.756889
O O9 0.259568 0.778770 0.097716
O O10 0.414552 0.766695 0.068978
O O11 0.304896 0.000000 0.043904
O O12 0.250000 0.750000 0.000000
O O13 0.499364 0.500000 0.225399
O O14 0.486480 0.264347 0.169949
O O15 0.583555 0.263812 0.269581
O O16 0.088541 0.183935 0.104940
O O17 0.223046 0.000000 0.154441
O O18 0.095174 0.500000 0.484032
O O19 0.000000 0.732712 0.500000
O O20 0.550826 0.500000 0.891758
O O21 0.807153 0.000000 0.696827
#
# Coordination Sequence:
#
# PCOD8094296 Si02
#       8
#     8   8   8   8   8   8   8   8
#     4   9  19  34  54  79 106 144 188 229 268 323
#     4  11  21  33  53  82 109 138 178 221 269 318
#     4  11  24  40  59  85 113 142 181 228 275 322
#     4   9  18  33  54  77 105 143 176 214 268 322
#     4  10  21  38  60  81 106 144 183 216 265 329
#     4   9  18  34  55  78 109 145 182 227 285 333
#     4  10  19  37  61  80 105 142 180 217 267 322
#     4  10  20  37  55  76 111 148 185 222 268 328
#
# _framework density 18.792484999999999
#
# number of rings (size 3 to 8) (size 9 to 14) (size 15 to 20)
#    0.000    2.125    2.500    0.750    0.000    3.250 
#    0.000    3.750    0.000    0.000    0.000    0.000 
#    0.000    0.000    0.000    0.000    0.000    0.000 
#
# Total GULP energy -396881.321761 kJ/mol
# GULP energy per Si atom -12402.541305 kJ/mol
# Density = 1.874971 g / cm^3
# Si number density = 18.792485 Si / 1000 Ang^3
#
#
#
# Elastic Constant Matrix: (Units=GPa)
#
#
# Indices 1 2 3 4 5 6 
#
# 1 94.7911 22.3581 12.1349 0.0000 -1.1636 0.0000
# 2 22.3581 45.1870 24.1990 0.0000 -4.2330 0.0000
# 3 12.1349 24.1990 76.0625 0.0000 2.3600 0.0000
# 4 0.0000 0.0000 0.0000 28.8897 0.0000 -3.9321
# 5 -1.1636 -4.2330 2.3600 0.0000 26.0779 0.0000
# 6 0.0000 0.0000 0.0000 -3.9321 0.0000 29.6420
#
#
#
# Elastic Compliance Matrix: (Units=1/GPa)
#
#
# Indices 1 2 3 4 5 6 
#
# 1 0.011948 -0.005953 0.000001 0.000000 -0.000433 0.000000
# 2 -0.005953 0.030339 -0.008872 0.000000 0.005462 0.000000
# 3 0.000001 -0.008872 0.016059 0.000000 -0.002893 0.000000
# 4 0.000000 0.000000 0.000000 0.035251 0.000000 0.004676
# 5 -0.000433 0.005462 -0.002893 0.000000 0.039476 0.000000
# 6 0.000000 0.000000 0.000000 0.004676 0.000000 0.034356
#
#
# Mechanical properties :
#
#
# Convention : Reuss Voigt Hill
#
# Bulk Modulus (GPa) = 34.84497 37.04717 35.94607
# Shear Modulus (GPa) = 24.19639 27.41183 25.80411
#
# Velocity S-wave (km/s) = 3.59215 3.82338 3.70957
# Velocity P-wave (km/s) = 5.98222 6.26479 6.12513
#
# Compressibility (1/GPa) = 0.02869855
#
# Stress axis : x y z
#
# Youngs Moduli (GPa) = 83.69484 32.96137 62.26954
#
# Poissons Ratio (x) = 0.19622 -0.00007
# Poissons Ratio (y) = 0.49824 0.55244
# Poissons Ratio (z) = -0.00010 0.29243
#
# Static dielectric constant tensor:
#      x y z
#    x 3.634630 0.000000 -0.002440 
#    y 0.000000 3.262130 0.000000 
#    z -0.002440 0.000000 3.452490 
# 
# 
# High freq. dielectric constant tensor:
#      x y z
#    x 1.740650 0.000000 -0.000740 
#    y 0.000000 1.712650 0.000000 
#    z -0.000740 0.000000 1.725880 
# 
# From -- ./inp_files/359986.got.cif
#   From: 2010.06.25/outbox.cif.g09.slc.cpg/sg12_180_cif.got.tgz:359986.got - 2010.06.28 00:19:55.
