data_PCOD8094196
_publ_section_title
;
Structure prediction by ZEFSAII (Michael W. Deem and Ramdas Pophale) SiO2 
 PCOD8094196
Probable space group: C 2/M
;
_chemical_formula_sum "Si O2"
_cell_formula_units_Z 44
_cell_length_a 14.161472
_cell_length_b 25.379289
_cell_length_c 11.134425
_cell_angle_alpha 90.000000
_cell_angle_beta 31.155759
_cell_angle_gamma 90.000000
_cell_volume 2070.398054
_symmetry_space_group_name_H-M "C 2/M"
_symmetry_group_IT_number 12
_symmetry_cell_setting 'monoclinic'
loop_
_space_group_symop_operation_xyz
x,y,z
-x,y,-z
-x,-y,-z
x,-y,z
1/2+x,1/2+y,z
1/2-x,1/2+y,-z
1/2-x,1/2-y,-z
1/2+x,1/2-y,z
loop_
_atom_site_type_symbol
_atom_site_label
_atom_site_fract_x
_atom_site_fract_y
_atom_site_fract_z
Si Si1 0.984472 0.059493 0.781088
Si Si2 0.378976 0.113157 0.748752
Si Si3 0.789782 0.322781 0.233781
Si Si4 0.210018 0.204277 0.800213
Si Si5 0.786023 0.359128 0.495272
Si Si6 0.500000 0.597184 0.500000
O O1 0.129271 0.097469 0.690287
O O2 0.013508 0.062478 0.605118
O O3 0.029061 0.000000 0.771204
O O4 0.779891 0.071656 0.048569
O O5 0.500000 0.096117 0.500000
O O6 0.279524 0.170175 0.837639
O O7 0.512194 0.114083 0.721160
O O8 0.744024 0.265579 0.228760
O O9 0.734021 0.326505 0.433939
O O10 0.675948 0.365854 0.284785
O O11 0.000000 0.337559 0.000000
O O12 0.312649 0.183158 0.571793
O O13 0.000000 0.195991 0.000000
#
# Coordination Sequence:
#
# PCOD8094196 Si02
#       6
#     8   8   8   8   8   4
#     4  11  23  42  63  86 118 157 203 253 296 341
#     4  10  22  38  62  87 125 152 196 246 296 357
#     4  10  21  36  57  87 121 156 196 234 293 353
#     4  10  19  37  57  86 123 158 189 236 294 350
#     4  10  21  38  58  85 120 156 196 245 285 355
#     4  10  23  40  62  90 118 156 203 244 292 356
#
# _framework density 21.251951999999999
#
# number of rings (size 3 to 8) (size 9 to 14) (size 15 to 20)
#    0.000    1.818    1.818    1.909    3.818    1.091 
#    0.000    9.091    0.000    6.000    0.000    0.000 
#    0.000    0.000    0.000    0.000    0.000    0.000 
#
# Total GULP energy -272698.972389 kJ/mol
# GULP energy per Si atom -12395.407836 kJ/mol
# Density = 2.120358 g / cm^3
# Si number density = 21.251952 Si / 1000 Ang^3
#
#
#
# Elastic Constant Matrix: (Units=GPa)
#
#
# Indices 1 2 3 4 5 6 
#
# 1 53.6968 10.8353 3.7158 0.0012 -14.4887 0.0008
# 2 10.8353 91.6116 38.1539 -0.0003 -10.6479 0.0015
# 3 3.7158 38.1539 93.1985 0.0020 -23.5360 0.0006
# 4 0.0012 -0.0003 0.0020 22.5737 -0.0011 0.8278
# 5 -14.4887 -10.6479 -23.5360 -0.0011 35.4479 -0.0007
# 6 0.0008 0.0015 0.0006 0.8278 -0.0007 12.8837
#
#
#
# Elastic Compliance Matrix: (Units=1/GPa)
#
#
# Indices 1 2 3 4 5 6 
#
# 1 0.021601 -0.002516 0.002652 -0.000001 0.009834 -0.000001
# 2 -0.002516 0.013458 -0.005585 0.000001 -0.000694 -0.000001
# 3 0.002652 -0.005585 0.015331 -0.000001 0.009586 0.000000
# 4 -0.000001 0.000001 -0.000001 0.044404 0.000000 -0.002853
# 5 0.009834 -0.000694 0.009586 0.000000 0.038386 0.000001
# 6 -0.000001 -0.000001 0.000000 -0.002853 0.000001 0.077801
#
#
# Mechanical properties :
#
#
# Convention : Reuss Voigt Hill
#
# Bulk Modulus (GPa) = 25.32084 38.21300 31.76692
# Shear Modulus (GPa) = 21.27275 26.56787 23.92031
#
# Velocity S-wave (km/s) = 3.16726 3.53956 3.35857
# Velocity P-wave (km/s) = 5.03148 5.89276 5.47907
#
# Compressibility (1/GPa) = 0.03949316
#
# Stress axis : x y z
#
# Youngs Moduli (GPa) = 46.29454 74.30273 65.22726
#
# Poissons Ratio (x) = 0.18698 -0.17301
# Poissons Ratio (y) = 0.11650 0.36426
# Poissons Ratio (z) = -0.12280 0.41495
#
# Static dielectric constant tensor:
#      x y z
#    x 4.042590 0.000000 -0.309840 
#    y 0.000000 3.586210 0.000000 
#    z -0.309840 0.000000 3.984420 
# 
# 
# High freq. dielectric constant tensor:
#      x y z
#    x 1.833630 0.000000 -0.017750 
#    y 0.000000 1.810730 0.000000 
#    z -0.017750 0.000000 1.840950 
# 
# From -- ./inp_files/149391.got.cif
#   From: 2010.06.25/outbox.cif.g09.slc.cpg/sg12_75_cif.got.tgz:149391.got - 2010.06.28 00:19:55.
