data_PCOD8094219
_publ_section_title
;
Structure prediction by ZEFSAII (Michael W. Deem and Ramdas Pophale) SiO2 
 PCOD8094219
Probable space group: C 2/M
;
_chemical_formula_sum "Si O2"
_cell_formula_units_Z 56
_cell_length_a 14.997061
_cell_length_b 8.758274
_cell_length_c 29.032511
_cell_angle_alpha 90.000000
_cell_angle_beta 48.789168
_cell_angle_gamma 90.000000
_cell_volume 2868.763761
_symmetry_space_group_name_H-M "C 2/M"
_symmetry_group_IT_number 12
_symmetry_cell_setting 'monoclinic'
loop_
_space_group_symop_operation_xyz
x,y,z
-x,y,-z
-x,-y,-z
x,-y,z
1/2+x,1/2+y,z
1/2-x,1/2+y,-z
1/2-x,1/2-y,-z
1/2+x,1/2-y,z
loop_
_atom_site_type_symbol
_atom_site_label
_atom_site_fract_x
_atom_site_fract_y
_atom_site_fract_z
Si Si1 0.382630 0.318515 0.092083
Si Si2 0.778815 0.680421 0.771710
Si Si3 0.558577 0.828488 0.435664
Si Si4 0.969345 0.824790 0.312355
Si Si5 0.149337 0.672099 0.564126
Si Si6 0.151119 0.180615 0.999579
Si Si7 0.275829 0.323204 0.308806
O O1 0.381984 0.500000 0.091989
O O2 0.296367 0.248452 0.160547
O O3 0.517228 0.265541 0.058051
O O4 0.333211 0.263894 0.058970
O O5 0.765018 0.500000 0.778092
O O6 0.728240 0.748929 0.740913
O O7 0.915876 0.721076 0.728935
O O8 0.500000 0.742545 0.500000
O O9 0.471459 0.829415 0.422597
O O10 0.678374 0.746085 0.376448
O O11 0.590694 0.000000 0.441418
O O12 0.873827 0.769664 0.382314
O O13 0.907237 0.804923 0.283886
O O14 0.003470 0.000000 0.310556
O O15 0.187935 0.500000 0.563897
O O16 0.250000 0.750000 0.500000
O O17 0.163819 0.000000 0.999270
O O18 0.250000 0.250000 0.000000
O O19 0.238025 0.500000 0.317407
#
# Coordination Sequence:
#
# PCOD8094219 Si02
#       7
#     8   8   8   8   8   8   8
#     4   8  17  33  55  79 109 149 188 224 267 325
#     4  10  19  37  59  77 104 147 192 226 265 327
#     4   9  16  29  51  74  95 128 173 215 256 318
#     4  11  22  36  55  81 111 140 176 229 281 328
#     4  11  21  35  56  79 106 140 180 225 278 337
#     4   9  17  33  55  83 114 147 186 226 270 320
#     4   9  18  33  53  75 100 138 182 217 263 331
#
# _framework density 19.520603000000001
#
# number of rings (size 3 to 8) (size 9 to 14) (size 15 to 20)
#    0.000    2.429    1.429    2.571    0.000    3.429 
#    0.000    5.714    0.000    1.714    0.000    0.000 
#    0.000    0.000    0.000    0.000    0.000    0.000 
#
# Total GULP energy -347010.420855 kJ/mol
# GULP energy per Si atom -12393.229316 kJ/mol
# Density = 1.947617 g / cm^3
# Si number density = 19.520603 Si / 1000 Ang^3
#
#
#
# Elastic Constant Matrix: (Units=GPa)
#
#
# Indices 1 2 3 4 5 6 
#
# 1 129.8695 15.4740 58.7156 0.0002 9.8047 0.0009
# 2 15.4740 24.7394 11.1988 0.0006 3.2156 0.0017
# 3 58.7156 11.1988 158.7944 0.0000 14.4224 0.0001
# 4 0.0002 0.0006 0.0000 16.2848 0.0000 -2.1279
# 5 9.8047 3.2156 14.4224 0.0000 25.9922 0.0001
# 6 0.0009 0.0017 0.0001 -2.1279 0.0001 25.4613
#
#
#
# Elastic Compliance Matrix: (Units=1/GPa)
#
#
# Indices 1 2 3 4 5 6 
#
# 1 0.009774 -0.004499 -0.003172 0.000000 -0.001370 0.000000
# 2 -0.004499 0.044170 -0.001168 -0.000002 -0.003119 -0.000003
# 3 -0.003172 -0.001168 0.007825 0.000000 -0.003001 0.000000
# 4 0.000000 -0.000002 0.000000 0.062085 0.000000 0.005189
# 5 -0.001370 -0.003119 -0.003001 0.000000 0.041041 0.000000
# 6 0.000000 -0.000003 0.000000 0.005189 0.000000 0.039709
#
#
# Mechanical properties :
#
#
# Convention : Reuss Voigt Hill
#
# Bulk Modulus (GPa) = 22.68100 53.79779 38.23939
# Shear Modulus (GPa) = 21.09890 28.74867 24.92378
#
# Velocity S-wave (km/s) = 3.29120 3.84179 3.57710
# Velocity P-wave (km/s) = 5.10753 6.87738 6.05745
#
# Compressibility (1/GPa) = 0.04408977
#
# Stress axis : x y z
#
# Youngs Moduli (GPa) = 102.31502 22.63992 127.79007
#
# Poissons Ratio (x) = 0.10186 0.40537
# Poissons Ratio (y) = 0.46034 0.14927
# Poissons Ratio (z) = 0.32456 0.02645
#
# Static dielectric constant tensor:
#      x y z
#    x 3.697960 0.000000 0.168630 
#    y 0.000000 3.188280 0.000000 
#    z 0.168630 0.000000 3.962340 
# 
# 
# High freq. dielectric constant tensor:
#      x y z
#    x 1.768420 0.000000 0.004340 
#    y 0.000000 1.710130 0.000000 
#    z 0.004340 0.000000 1.767680 
# 
# From -- ./inp_files/374947.got.cif
#   From: 2010.06.25/outbox.cif.g09.slc.cpg/sg12_188_cif.got.tgz:374947.got - 2010.06.28 00:19:55.
