data_PCOD8094596
_publ_section_title
;
Structure prediction by ZEFSAII (Michael W. Deem and Ramdas Pophale) SiO2 
 PCOD8094596
Probable space group: C 2/M
;
_chemical_formula_sum "Si O2"
_cell_formula_units_Z 56
_cell_length_a 13.744946
_cell_length_b 26.125265
_cell_length_c 10.108475
_cell_angle_alpha 90.000000
_cell_angle_beta 137.989393
_cell_angle_gamma 90.000000
_cell_volume 2429.347015
_symmetry_space_group_name_H-M "C 2/M"
_symmetry_group_IT_number 12
_symmetry_cell_setting 'monoclinic'
loop_
_space_group_symop_operation_xyz
x,y,z
-x,y,-z
-x,-y,-z
x,-y,z
1/2+x,1/2+y,z
1/2-x,1/2+y,-z
1/2-x,1/2-y,-z
1/2+x,1/2-y,z
loop_
_atom_site_type_symbol
_atom_site_label
_atom_site_fract_x
_atom_site_fract_y
_atom_site_fract_z
Si Si1 0.656440 0.183757 0.198417
Si Si2 0.437494 0.364756 0.146028
Si Si3 0.046065 0.330212 0.362412
Si Si4 0.369788 0.265690 0.224718
Si Si5 0.829807 0.399592 0.992674
Si Si6 0.706517 0.000000 0.667048
Si Si7 0.797208 0.111728 0.738850
Si Si8 0.459530 0.000000 0.226519
O O1 0.660762 0.181923 0.361047
O O2 0.789341 0.218493 0.280139
O O3 0.500000 0.208337 0.000000
O O4 0.664760 0.125390 0.148098
O O5 0.454010 0.313539 0.247882
O O6 0.602013 0.383680 0.289979
O O7 0.337731 0.405218 0.128140
O O8 0.363438 0.356446 0.927628
O O9 0.134461 0.365732 0.554810
O O10 0.987656 0.278505 0.372145
O O11 0.904018 0.359253 0.167161
O O12 0.250000 0.250000 0.000000
O O13 0.916805 0.452412 0.090267
O O14 0.799940 0.051441 0.773124
O O15 0.628091 0.000000 0.442064
O O16 0.610407 0.000000 0.700616
#
# Coordination Sequence:
#
# PCOD8094596 Si02
#       8
#     8   8   8   8   8   4   8   4
#     4   9  19  36  63  92 128 167 211 260 317 386
#     4  10  23  40  60  92 131 167 212 272 320 390
#     4  11  22  41  67  92 130 169 214 269 322 391
#     4  11  20  40  66  90 124 173 214 263 328 377
#     4  10  19  38  61  91 123 168 209 262 323 379
#     4  11  22  36  64  96 131 171 207 278 332 381
#     4  11  24  41  62  96 135 165 218 268 330 390
#     4  11  20  35  64  94 129 161 221 269 329 386
#
# _framework density 23.051459999999999
#
# number of rings (size 3 to 8) (size 9 to 14) (size 15 to 20)
#    0.000    1.571    7.143    0.000    0.000    5.143 
#    0.000    8.214    0.000    0.000    0.000    5.000 
#    0.000    0.000    0.000    0.000    0.000    0.000 
#
# Total GULP energy -347037.948217 kJ/mol
# GULP energy per Si atom -12394.212436 kJ/mol
# Density = 2.299899 g / cm^3
# Si number density = 23.051460 Si / 1000 Ang^3
#
#
#
# Elastic Constant Matrix: (Units=GPa)
#
#
# Indices 1 2 3 4 5 6 
#
# 1 112.6214 43.8167 13.5060 0.0000 9.9907 0.0000
# 2 43.8167 130.5700 23.4096 0.0000 7.6083 0.0000
# 3 13.5060 23.4096 47.8089 0.0000 3.7927 0.0000
# 4 0.0000 0.0000 0.0000 5.3735 0.0000 8.2255
# 5 9.9907 7.6083 3.7927 0.0000 29.2530 0.0000
# 6 0.0000 0.0000 0.0000 8.2255 0.0000 21.2155
#
#
#
# Elastic Compliance Matrix: (Units=1/GPa)
#
#
# Indices 1 2 3 4 5 6 
#
# 1 0.010480 -0.003148 -0.001213 0.000000 -0.002603 0.000000
# 2 -0.003148 0.009423 -0.003653 0.000000 -0.000902 0.000000
# 3 -0.001213 -0.003653 0.023178 0.000000 -0.001641 0.000000
# 4 0.000000 0.000000 0.000000 0.457785 0.000000 -0.177488
# 5 -0.002603 -0.000902 -0.001641 0.000000 0.035521 0.000000
# 6 0.000000 0.000000 0.000000 -0.177488 0.000000 0.115950
#
#
# Mechanical properties :
#
#
# Convention : Reuss Voigt Hill
#
# Bulk Modulus (GPa) = 36.96339 50.27388 43.61863
# Shear Modulus (GPa) = 7.38136 25.18626 16.28381
#
# Velocity S-wave (km/s) = 1.79139 3.30905 2.66072
# Velocity P-wave (km/s) = 4.51096 6.03792 5.32941
#
# Compressibility (1/GPa) = 0.02705380
#
# Stress axis : x y z
#
# Youngs Moduli (GPa) = 95.41601 106.12811 43.14424
#
# Poissons Ratio (x) = 0.33408 0.05233
# Poissons Ratio (y) = 0.30036 0.15760
# Poissons Ratio (z) = 0.11572 0.38768
#
# Static dielectric constant tensor:
#      x y z
#    x 4.430750 0.000000 0.124850 
#    y 0.000000 4.513650 0.000000 
#    z 0.124850 0.000000 3.896260 
# 
# 
# High freq. dielectric constant tensor:
#      x y z
#    x 1.924320 0.000000 0.008010 
#    y 0.000000 1.891230 0.000000 
#    z 0.008010 0.000000 1.892850 
# 
# From -- ./inp_files/149538.got.cif
#   From: 2010.06.25/outbox.cif.g09.slc.cpg/sg12_75_cif.got.tgz:149538.got - 2010.06.28 00:19:55.
