data_PCOD8094959
_publ_section_title
;
Structure prediction by ZEFSAII (Michael W. Deem and Ramdas Pophale) SiO2 
 PCOD8094959
Probable space group: C 2/M
;
_chemical_formula_sum "Si O2"
_cell_formula_units_Z 56
_cell_length_a 23.595743
_cell_length_b 9.310351
_cell_length_c 14.772233
_cell_angle_alpha 90.000000
_cell_angle_beta 89.943061
_cell_angle_gamma 90.000000
_cell_volume 3245.231226
_symmetry_space_group_name_H-M "C 2/M"
_symmetry_group_IT_number 12
_symmetry_cell_setting 'monoclinic'
loop_
_space_group_symop_operation_xyz
x,y,z
-x,y,-z
-x,-y,-z
x,-y,z
1/2+x,1/2+y,z
1/2-x,1/2+y,-z
1/2-x,1/2-y,-z
1/2+x,1/2-y,z
loop_
_atom_site_type_symbol
_atom_site_label
_atom_site_fract_x
_atom_site_fract_y
_atom_site_fract_z
Si Si1 0.617215 0.667412 0.710958
Si Si2 0.332057 0.666448 0.845881
Si Si3 0.709802 0.167432 0.793190
Si Si4 0.956829 0.333340 0.144017
Si Si5 0.142954 0.337761 0.975954
Si Si6 0.548462 0.668151 0.226752
Si Si7 0.984892 0.833444 0.403738
O O1 0.624269 0.500000 0.733873
O O2 0.678881 0.743388 0.712439
O O3 0.579739 0.744099 0.785582
O O4 0.582323 0.688731 0.617096
O O5 0.325904 0.500000 0.867922
O O6 0.274962 0.719744 0.796514
O O7 0.384521 0.698224 0.779002
O O8 0.340093 0.737422 0.942563
O O9 0.680953 0.203410 0.889241
O O10 0.703901 0.000000 0.769556
O O11 0.961396 0.500000 0.172987
O O12 0.924219 0.321000 0.047928
O O13 0.018707 0.258558 0.145083
O O14 0.155916 0.500000 0.005601
O O15 0.534179 0.500000 0.213532
O O16 0.524948 0.727569 0.323009
O O17 0.000000 0.758406 0.500000
O O18 0.000047 0.000000 0.410606
#
# Coordination Sequence:
#
# PCOD8094959 Si02
#       7
#     8   8   8   8   8   8   8
#     4   9  16  27  47  72  91 112 147 185 219 259
#     4  10  20  31  44  63  89 121 154 190 225 257
#     4   9  18  32  46  62  89 123 155 185 221 260
#     4   9  17  30  46  64  90 121 149 182 226 269
#     4   9  18  30  44  63  85 115 157 194 222 259
#     4   9  18  31  46  67  91 116 150 184 220 268
#     4   8  14  27  49  73  92 109 136 179 224 266
#
# _framework density 17.256088999999999
#
# number of rings (size 3 to 8) (size 9 to 14) (size 15 to 20)
#    0.000    3.000    0.000    3.000    0.000    4.571 
#    0.000    2.857    0.000   11.571    0.000    0.000 
#    0.000    0.000    0.000    0.000    0.000    0.571 
#
# Total GULP energy -346936.620422 kJ/mol
# GULP energy per Si atom -12390.593587 kJ/mol
# Density = 1.721681 g / cm^3
# Si number density = 17.256089 Si / 1000 Ang^3
#
#
#
# Elastic Constant Matrix: (Units=GPa)
#
#
# Indices 1 2 3 4 5 6 
#
# 1 127.6254 46.2242 62.0652 0.0000 25.4127 0.0000
# 2 46.2242 64.3852 37.1216 0.0000 17.3921 0.0000
# 3 62.0652 37.1216 66.2316 0.0000 23.1441 0.0000
# 4 0.0000 0.0000 0.0000 12.7838 0.0000 7.1662
# 5 25.4127 17.3921 23.1441 0.0000 22.2357 0.0000
# 6 0.0000 0.0000 0.0000 7.1662 0.0000 25.6547
#
#
#
# Elastic Compliance Matrix: (Units=1/GPa)
#
#
# Indices 1 2 3 4 5 6 
#
# 1 0.015156 -0.003690 -0.011143 0.000000 -0.002837 0.000000
# 2 -0.003690 0.024596 -0.007982 0.000000 -0.006713 0.000000
# 3 -0.011143 -0.007982 0.036748 0.000000 -0.019272 0.000000
# 4 0.000000 0.000000 0.000000 0.092747 0.000000 -0.025907
# 5 -0.002837 -0.006713 -0.019272 0.000000 0.073525 0.000000
# 6 0.000000 0.000000 0.000000 -0.025907 0.000000 0.046216
#
#
# Mechanical properties :
#
#
# Convention : Reuss Voigt Hill
#
# Bulk Modulus (GPa) = 32.39316 61.00713 46.70015
# Shear Modulus (GPa) = 14.49666 19.65691 17.07678
#
# Velocity S-wave (km/s) = 2.90157 3.37876 3.14922
# Velocity P-wave (km/s) = 5.48072 7.11703 6.35179
#
# Compressibility (1/GPa) = 0.03087071
#
# Stress axis : x y z
#
# Youngs Moduli (GPa) = 65.98252 40.65688 27.21218
#
# Poissons Ratio (x) = 0.15002 0.30322
# Poissons Ratio (y) = 0.24347 0.21721
# Poissons Ratio (z) = 0.73522 0.32452
#
# Static dielectric constant tensor:
#      x y z
#    x 3.752770 0.000000 0.420890 
#    y 0.000000 3.257690 0.000000 
#    z 0.420890 0.000000 3.221350 
# 
# 
# High freq. dielectric constant tensor:
#      x y z
#    x 1.668860 0.000000 0.025720 
#    y 0.000000 1.656950 0.000000 
#    z 0.025720 0.000000 1.630000 
# 
# From -- ./inp_files/287068.got.cif
#   From: 2010.06.25/outbox.cif.g09.slc.cpg/sg12_144_cif.got.tgz:287068.got - 2010.06.28 00:19:55.
