data_PCOD8094335
_publ_section_title
;
Structure prediction by ZEFSAII (Michael W. Deem and Ramdas Pophale) SiO2 
 PCOD8094335
Probable space group: C 2/M
;
_chemical_formula_sum "Si O2"
_cell_formula_units_Z 40
_cell_length_a 11.259623
_cell_length_b 25.761235
_cell_length_c 13.938667
_cell_angle_alpha 90.000000
_cell_angle_beta 149.717704
_cell_angle_gamma 90.000000
_cell_volume 2038.764178
_symmetry_space_group_name_H-M "C 2/M"
_symmetry_group_IT_number 12
_symmetry_cell_setting 'monoclinic'
loop_
_space_group_symop_operation_xyz
x,y,z
-x,y,-z
-x,-y,-z
x,-y,z
1/2+x,1/2+y,z
1/2-x,1/2+y,-z
1/2-x,1/2-y,-z
1/2+x,1/2-y,z
loop_
_atom_site_type_symbol
_atom_site_label
_atom_site_fract_x
_atom_site_fract_y
_atom_site_fract_z
Si Si1 0.736393 0.705979 0.111311
Si Si2 0.759165 0.595201 0.789942
Si Si3 0.575902 0.315412 0.791300
Si Si4 0.074805 0.630969 0.448508
Si Si5 0.738476 0.558620 0.569819
O O1 0.911020 0.755131 0.228070
O O2 0.854804 0.662881 0.258122
O O3 0.500000 0.724163 0.000000
O O4 0.693124 0.679656 0.977705
O O5 0.719022 0.651235 0.811793
O O6 0.779673 0.597827 0.688282
O O7 0.534696 0.558647 0.654997
O O8 0.000000 0.570659 0.000000
O O9 0.306669 0.333432 0.607503
O O10 0.103252 0.578926 0.406354
O O11 0.000000 0.611064 0.500000
O O12 0.811360 0.500000 0.647851
#
# Coordination Sequence:
#
# PCOD8094335 Si02
#       5
#     8   8   8   8   8
#     4  11  21  37  59  85 120 154 194 231 281 343
#     4  10  19  37  61  87 118 145 185 242 298 341
#     4  10  22  37  58  89 117 155 190 231 286 346
#     4  11  22  40  58  82 118 157 194 237 282 340
#     4  10  23  39  59  87 115 149 197 246 294 343
#
# _framework density 19.619729
#
# number of rings (size 3 to 8) (size 9 to 14) (size 15 to 20)
#    0.000    1.600    2.000    3.600    0.000    3.600 
#    7.200    0.000    0.000    0.600    0.000    0.000 
#    0.000    0.000    0.000    0.000    0.000    0.000 
#
# Total GULP energy -247957.405385 kJ/mol
# GULP energy per Si atom -12397.870269 kJ/mol
# Density = 1.957507 g / cm^3
# Si number density = 19.619729 Si / 1000 Ang^3
#
#
#
# Elastic Constant Matrix: (Units=GPa)
#
#
# Indices 1 2 3 4 5 6 
#
# 1 151.3550 52.5830 36.4697 0.0000 -13.9657 0.0001
# 2 52.5830 77.7587 24.9118 0.0000 -15.0991 0.0000
# 3 36.4697 24.9118 79.6156 -0.0002 -3.7908 0.0000
# 4 0.0000 0.0000 -0.0002 17.9392 0.0000 -4.3991
# 5 -13.9657 -15.0991 -3.7908 0.0000 33.3038 0.0002
# 6 0.0001 0.0000 0.0000 -4.3991 0.0002 21.5511
#
#
#
# Elastic Compliance Matrix: (Units=1/GPa)
#
#
# Indices 1 2 3 4 5 6 
#
# 1 0.009101 -0.005114 -0.002511 0.000000 0.001212 0.000000
# 2 -0.005114 0.018470 -0.003157 0.000000 0.005870 0.000000
# 3 -0.002511 -0.003157 0.014659 0.000000 -0.000816 0.000000
# 4 0.000000 0.000000 0.000000 0.058681 0.000000 0.011978
# 5 0.001212 0.005870 -0.000816 0.000000 0.033103 0.000000
# 6 0.000000 0.000000 0.000000 0.011978 0.000000 0.048846
#
#
# Mechanical properties :
#
#
# Convention : Reuss Voigt Hill
#
# Bulk Modulus (GPa) = 48.38932 59.62870 54.00901
# Shear Modulus (GPa) = 23.66150 27.54316 25.60233
#
# Velocity S-wave (km/s) = 3.47653 3.75086 3.61630
# Velocity P-wave (km/s) = 6.39000 7.01547 6.71003
#
# Compressibility (1/GPa) = 0.02066572
#
# Stress axis : x y z
#
# Youngs Moduli (GPa) = 109.88287 54.14161 68.21534
#
# Poissons Ratio (x) = 0.27691 0.17127
# Poissons Ratio (y) = 0.56199 0.21536
# Poissons Ratio (z) = 0.27589 0.17093
#
# Static dielectric constant tensor:
#      x y z
#    x 3.710240 0.000000 -0.063200 
#    y 0.000000 3.284880 0.000000 
#    z -0.063200 0.000000 3.648120 
# 
# 
# High freq. dielectric constant tensor:
#      x y z
#    x 1.774020 0.000000 -0.002670 
#    y 0.000000 1.741710 0.000000 
#    z -0.002670 0.000000 1.770790 
# 
# From -- ./inp_files/125015.got.cif
#   From: 2010.06.25/outbox.cif.g09.slc.cpg/sg12_63_cif.got.tgz:125015.got - 2010.06.28 00:19:55.
