data_PCOD8094486
_publ_section_title
;
Structure prediction by ZEFSAII (Michael W. Deem and Ramdas Pophale) SiO2 
 PCOD8094486
Probable space group: C 2/M
;
_chemical_formula_sum "Si O2"
_cell_formula_units_Z 40
_cell_length_a 15.477958
_cell_length_b 11.767492
_cell_length_c 15.487299
_cell_angle_alpha 90.000000
_cell_angle_beta 35.382816
_cell_angle_gamma 90.000000
_cell_volume 1633.350278
_symmetry_space_group_name_H-M "C 2/M"
_symmetry_group_IT_number 12
_symmetry_cell_setting 'monoclinic'
loop_
_space_group_symop_operation_xyz
x,y,z
-x,y,-z
-x,-y,-z
x,-y,z
1/2+x,1/2+y,z
1/2-x,1/2+y,-z
1/2-x,1/2-y,-z
1/2+x,1/2-y,z
loop_
_atom_site_type_symbol
_atom_site_label
_atom_site_fract_x
_atom_site_fract_y
_atom_site_fract_z
Si Si1 0.818817 0.369140 0.833717
Si Si2 0.475833 0.246276 0.916971
Si Si3 0.269685 0.871362 0.670791
Si Si4 0.403255 0.736184 0.423002
Si Si5 0.040844 0.500000 0.866050
Si Si6 0.382094 0.500000 0.521602
O O1 0.840875 0.500000 0.846432
O O2 0.794500 0.363763 0.751486
O O3 0.959743 0.289018 0.744606
O O4 0.671198 0.312774 0.994697
O O5 0.616140 0.313193 0.763793
O O6 0.469352 0.116020 0.885344
O O7 0.500000 0.242478 0.000000
O O8 0.402698 0.807763 0.512831
O O9 0.266662 0.000000 0.640530
O O10 0.250000 0.750000 0.500000
O O11 0.420862 0.604675 0.428674
O O12 0.217832 0.500000 0.699300
O O13 0.000000 0.500000 0.000000
O O14 0.500000 0.500000 0.500000
#
# Coordination Sequence:
#
# PCOD8094486 Si02
#       6
#     8   8   8   8   4   4
#     4  10  21  39  66  94 122 161 214 267 323 397
#     4   9  18  33  60  94 124 156 204 271 328 377
#     4  10  19  37  65  90 120 159 211 261 319 385
#     4  12  27  41  61  90 135 173 212 268 331 389
#     4  10  20  36  64  96 134 157 213 289 335 371
#     4  12  26  44  72 100 131 179 235 274 320 400
#
# _framework density 24.489543000000001
#
# number of rings (size 3 to 8) (size 9 to 14) (size 15 to 20)
#    0.000    1.600    2.000    3.000    8.400    4.000 
#    0.000    1.000    0.000    0.000    0.000    0.000 
#    0.000    0.000    0.000    0.000    0.000    0.000 
#
# Total GULP energy -247974.070468 kJ/mol
# GULP energy per Si atom -12398.703523 kJ/mol
# Density = 2.443380 g / cm^3
# Si number density = 24.489543 Si / 1000 Ang^3
#
#
#
# Elastic Constant Matrix: (Units=GPa)
#
#
# Indices 1 2 3 4 5 6 
#
# 1 34.1651 29.1472 0.6040 0.0000 -22.6191 0.0000
# 2 29.1472 237.1527 60.4751 0.0000 -23.7971 0.0000
# 3 0.6040 60.4751 134.8124 0.0001 -27.9980 0.0000
# 4 0.0000 0.0000 0.0001 44.9052 -0.0001 -5.3339
# 5 -22.6191 -23.7971 -27.9980 -0.0001 42.0236 0.0000
# 6 0.0000 0.0000 0.0000 -5.3339 0.0000 33.0256
#
#
#
# Elastic Compliance Matrix: (Units=1/GPa)
#
#
# Indices 1 2 3 4 5 6 
#
# 1 0.055967 -0.005933 0.009249 0.000000 0.032926 0.000000
# 2 -0.005933 0.005471 -0.002840 0.000000 -0.001988 0.000000
# 3 0.009249 -0.002840 0.010852 0.000000 0.010600 0.000000
# 4 0.000000 0.000000 0.000000 0.022705 0.000000 0.003667
# 5 0.032926 -0.001988 0.010600 0.000000 0.047455 0.000000
# 6 0.000000 0.000000 0.000000 0.003667 0.000000 0.030872
#
#
# Mechanical properties :
#
#
# Convention : Reuss Voigt Hill
#
# Bulk Modulus (GPa) = 13.65374 65.17586 39.41480
# Shear Modulus (GPa) = 25.40870 45.05113 35.22991
#
# Velocity S-wave (km/s) = 3.22457 4.29372 3.79696
# Velocity P-wave (km/s) = 4.41036 7.15911 5.94576
#
# Compressibility (1/GPa) = 0.07324001
#
# Stress axis : x y z
#
# Youngs Moduli (GPa) = 17.86778 182.79102 92.15085
#
# Poissons Ratio (x) = 1.08452 -0.85229
# Poissons Ratio (y) = 0.10601 0.26174
# Poissons Ratio (z) = -0.16526 0.51919
#
# Static dielectric constant tensor:
#      x y z
#    x 4.107110 0.000000 0.063900 
#    y 0.000000 4.775370 0.000000 
#    z 0.063900 0.000000 4.925840 
# 
# 
# High freq. dielectric constant tensor:
#      x y z
#    x 1.974670 0.000000 0.002170 
#    y 0.000000 1.988430 0.000000 
#    z 0.002170 0.000000 1.981440 
# 
# From -- ./inp_files/315560.got.cif
#   From: 2010.06.25/outbox.cif.g09.slc.cpg/sg12_158_cif.got.tgz:315560.got - 2010.06.28 00:19:55.
