data_PCOD8094407
_publ_section_title
;
Structure prediction by ZEFSAII (Michael W. Deem and Ramdas Pophale) SiO2 
 PCOD8094407
Probable space group: C 2/M
;
_chemical_formula_sum "Si O2"
_cell_formula_units_Z 56
_cell_length_a 21.661671
_cell_length_b 18.854275
_cell_length_c 9.677810
_cell_angle_alpha 90.000000
_cell_angle_beta 46.823785
_cell_angle_gamma 90.000000
_cell_volume 2882.417944
_symmetry_space_group_name_H-M "C 2/M"
_symmetry_group_IT_number 12
_symmetry_cell_setting 'monoclinic'
loop_
_space_group_symop_operation_xyz
x,y,z
-x,y,-z
-x,-y,-z
x,-y,z
1/2+x,1/2+y,z
1/2-x,1/2+y,-z
1/2-x,1/2-y,-z
1/2+x,1/2-y,z
loop_
_atom_site_type_symbol
_atom_site_label
_atom_site_fract_x
_atom_site_fract_y
_atom_site_fract_z
Si Si1 0.246758 0.674303 0.934674
Si Si2 0.723121 0.917375 0.475161
Si Si3 0.835073 0.161395 0.515916
Si Si4 0.835754 0.126490 0.049784
Si Si5 0.597386 0.802275 0.694781
Si Si6 0.092578 0.715859 0.022492
Si Si7 0.489773 0.420445 0.170784
O O1 0.315129 0.668213 0.707873
O O2 0.250000 0.750000 0.000000
O O3 0.273448 0.618757 0.013221
O O4 0.151412 0.662417 0.022808
O O5 0.762663 0.885005 0.554192
O O6 0.790150 0.906281 0.251385
O O7 0.635714 0.875759 0.576249
O O8 0.702797 0.000000 0.526681
O O9 0.838413 0.239965 0.446741
O O10 0.926241 0.125736 0.358070
O O11 0.867286 0.206266 0.029579
O O12 0.919435 0.080007 0.893192
O O13 0.503875 0.788079 0.774359
O O14 0.593908 0.809478 0.863964
O O15 0.453597 0.500000 0.215567
O O16 0.500000 0.387651 0.000000
#
# Coordination Sequence:
#
# PCOD8094407 Si02
#       7
#     8   8   8   8   8   8   8
#     4  10  23  39  60  91 127 160 206 261 316 373
#     4  12  24  39  63  94 124 164 213 256 309 376
#     4  12  21  39  65  94 123 162 210 263 313 370
#     4  11  21  40  60  89 132 164 200 255 315 378
#     4  11  20  36  67  94 118 152 211 266 307 359
#     4  10  19  37  62  95 118 153 205 265 314 355
#     4  11  21  36  61  95 131 164 206 259 314 375
#
# _framework density 19.428132000000002
#
# number of rings (size 3 to 8) (size 9 to 14) (size 15 to 20)
#    0.000    1.000    5.714    3.000    0.000    0.571 
#    0.000    7.143    0.000    0.857    0.000    0.000 
#    0.000    0.000    0.000    0.000    0.000    0.000 
#
# Total GULP energy -347170.537830 kJ/mol
# GULP energy per Si atom -12398.947780 kJ/mol
# Density = 1.938391 g / cm^3
# Si number density = 19.428132 Si / 1000 Ang^3
#
#
#
# Elastic Constant Matrix: (Units=GPa)
#
#
# Indices 1 2 3 4 5 6 
#
# 1 107.3201 28.1429 24.8127 0.0000 -3.4283 0.0000
# 2 28.1429 106.0093 40.4024 0.0000 -10.4562 0.0000
# 3 24.8127 40.4024 92.5638 0.0000 -1.0169 0.0000
# 4 0.0000 0.0000 0.0000 20.4290 0.0000 -4.8577
# 5 -3.4283 -10.4562 -1.0169 0.0000 31.3009 0.0000
# 6 0.0000 0.0000 0.0000 -4.8577 0.0000 21.5105
#
#
#
# Elastic Compliance Matrix: (Units=1/GPa)
#
#
# Indices 1 2 3 4 5 6 
#
# 1 0.010285 -0.001969 -0.001893 0.000000 0.000407 0.000000
# 2 -0.001969 0.012118 -0.004721 0.000000 0.003679 0.000000
# 3 -0.001893 -0.004721 0.013357 0.000000 -0.001351 0.000000
# 4 0.000000 0.000000 0.000000 0.051728 0.000000 0.011682
# 5 0.000407 0.003679 -0.001351 0.000000 0.033178 0.000000
# 6 0.000000 0.000000 0.000000 0.011682 0.000000 0.049127
#
#
# Mechanical properties :
#
#
# Convention : Reuss Voigt Hill
#
# Bulk Modulus (GPa) = 53.78211 54.73437 54.25824
# Shear Modulus (GPa) = 25.88581 28.81708 27.35144
#
# Velocity S-wave (km/s) = 3.65415 3.85550 3.75617
# Velocity P-wave (km/s) = 6.74881 6.93208 6.84106
#
# Compressibility (1/GPa) = 0.01859354
#
# Stress axis : x y z
#
# Youngs Moduli (GPa) = 97.22998 82.52202 74.86874
#
# Poissons Ratio (x) = 0.16246 0.14174
# Poissons Ratio (y) = 0.19141 0.35347
# Poissons Ratio (z) = 0.18408 0.38960
#
# Static dielectric constant tensor:
#      x y z
#    x 4.135450 0.000000 -0.128310 
#    y 0.000000 3.492910 0.000000 
#    z -0.128310 0.000000 3.608530 
# 
# 
# High freq. dielectric constant tensor:
#      x y z
#    x 1.755800 0.000000 -0.012360 
#    y 0.000000 1.733760 0.000000 
#    z -0.012360 0.000000 1.753500 
# 
# From -- ./inp_files/89521.got.cif
#   From: 2010.06.25/outbox.cif.g09.slc.cpg/sg12_45_cif.got.tgz:89521.got - 2010.06.28 00:19:55.
