data_PCOD8094518
_publ_section_title
;
Structure prediction by ZEFSAII (Michael W. Deem and Ramdas Pophale) SiO2 
 PCOD8094518
Probable space group: C 2/M
;
_chemical_formula_sum "Si O2"
_cell_formula_units_Z 32
_cell_length_a 30.552916
_cell_length_b 7.638382
_cell_length_c 23.226359
_cell_angle_alpha 90.000000
_cell_angle_beta 164.104288
_cell_angle_gamma 90.000000
_cell_volume 1484.591523
_symmetry_space_group_name_H-M "C 2/M"
_symmetry_group_IT_number 12
_symmetry_cell_setting 'monoclinic'
loop_
_space_group_symop_operation_xyz
x,y,z
-x,y,-z
-x,-y,-z
x,-y,z
1/2+x,1/2+y,z
1/2-x,1/2+y,-z
1/2-x,1/2-y,-z
1/2+x,1/2-y,z
loop_
_atom_site_type_symbol
_atom_site_label
_atom_site_fract_x
_atom_site_fract_y
_atom_site_fract_z
Si Si1 0.812495 0.000000 0.255733
Si Si2 0.506010 0.702456 0.318211
Si Si3 0.518543 0.000000 0.955203
Si Si4 0.283883 0.198295 0.133274
Si Si5 0.190823 0.196371 0.361996
O O1 0.763137 0.824552 0.160523
O O2 0.000000 0.000000 0.500000
O O3 0.709279 0.000000 0.183846
O O4 0.552788 0.500000 0.378998
O O5 0.450900 0.765761 0.311562
O O6 0.660546 0.808217 0.493848
O O7 0.362888 0.741531 0.093723
O O8 0.442524 0.827868 0.830235
O O9 0.500000 0.000000 0.000000
O O10 0.280381 0.000000 0.151370
O O11 0.250000 0.250000 0.500000
O O12 0.118385 0.000000 0.273090
#
# Coordination Sequence:
#
# PCOD8094518 Si02
#       5
#     4   8   4   8   8
#     4  12  28  46  70  92 142 191 234 274 347 423
#     4  10  19  37  69 106 141 171 222 294 357 405
#     4  12  30  50  72 106 153 191 236 299 363 433
#     4  10  22  39  66 103 137 176 230 290 343 409
#     4  12  24  43  74 107 142 189 241 296 359 427
#
# _framework density 21.554749999999999
#
# number of rings (size 3 to 8) (size 9 to 14) (size 15 to 20)
#    0.000    1.000    3.750    2.250    7.000    4.000 
#    0.000    0.000    0.000    0.000    0.000    0.000 
#    0.000    0.000    0.000    0.000    0.000    0.000 
#
# Total GULP energy -198436.305701 kJ/mol
# GULP energy per Si atom -12402.269106 kJ/mol
# Density = 2.150569 g / cm^3
# Si number density = 21.554750 Si / 1000 Ang^3
#
#
#
# Elastic Constant Matrix: (Units=GPa)
#
#
# Indices 1 2 3 4 5 6 
#
# 1 128.8205 39.5680 43.5831 0.0000 15.9810 0.0000
# 2 39.5680 136.8319 48.4540 0.0000 -10.8186 0.0000
# 3 43.5831 48.4540 83.3838 0.0000 17.8753 0.0000
# 4 0.0000 0.0000 0.0000 27.2805 0.0000 6.0192
# 5 15.9810 -10.8186 17.8753 0.0000 42.3043 0.0001
# 6 0.0000 0.0000 0.0000 6.0192 0.0001 13.3452
#
#
#
# Elastic Compliance Matrix: (Units=1/GPa)
#
#
# Indices 1 2 3 4 5 6 
#
# 1 0.009843 -0.001817 -0.003510 0.000000 -0.002700 0.000000
# 2 -0.001817 0.010646 -0.006562 0.000000 0.006182 0.000000
# 3 -0.003510 -0.006562 0.019481 0.000000 -0.008583 0.000000
# 4 0.000000 0.000000 0.000000 0.040707 0.000000 -0.018361
# 5 -0.002700 0.006182 -0.008583 0.000000 0.029866 0.000000
# 6 0.000000 0.000000 0.000000 -0.018361 0.000000 0.083215
#
#
# Mechanical properties :
#
#
# Convention : Reuss Voigt Hill
#
# Bulk Modulus (GPa) = 61.75958 68.02737 64.89348
# Shear Modulus (GPa) = 22.42822 31.08141 26.75482
#
# Velocity S-wave (km/s) = 3.22921 3.80145 3.52696
# Velocity P-wave (km/s) = 6.52828 7.13420 6.83795
#
# Compressibility (1/GPa) = 0.01619182
#
# Stress axis : x y z
#
# Youngs Moduli (GPa) = 101.59129 93.93195 51.33270
#
# Poissons Ratio (x) = 0.17065 0.18020
# Poissons Ratio (y) = 0.18457 0.33684
# Poissons Ratio (z) = 0.35663 0.61637
#
# Static dielectric constant tensor:
#      x y z
#    x 4.055460 0.000000 0.251100 
#    y 0.000000 4.019470 0.000000 
#    z 0.251100 0.000000 3.811810 
# 
# 
# High freq. dielectric constant tensor:
#      x y z
#    x 1.848800 0.000000 0.025690 
#    y 0.000000 1.860770 0.000000 
#    z 0.025690 0.000000 1.828800 
# 
# From -- ./inp_files/327109.got.cif
#   From: 2010.06.25/outbox.cif.g09.slc.cpg/sg12_164_cif.got.tgz:327109.got - 2010.06.28 00:19:55.
