data_PCOD8094399
_publ_section_title
;
Structure prediction by ZEFSAII (Michael W. Deem and Ramdas Pophale) SiO2 
 PCOD8094399
Probable space group: C 2/M
;
_chemical_formula_sum "Si O2"
_cell_formula_units_Z 48
_cell_length_a 8.741163
_cell_length_b 27.902699
_cell_length_c 14.507462
_cell_angle_alpha 90.000000
_cell_angle_beta 141.644558
_cell_angle_gamma 90.000000
_cell_volume 2195.711846
_symmetry_space_group_name_H-M "C 2/M"
_symmetry_group_IT_number 12
_symmetry_cell_setting 'monoclinic'
loop_
_space_group_symop_operation_xyz
x,y,z
-x,y,-z
-x,-y,-z
x,-y,z
1/2+x,1/2+y,z
1/2-x,1/2+y,-z
1/2-x,1/2-y,-z
1/2+x,1/2-y,z
loop_
_atom_site_type_symbol
_atom_site_label
_atom_site_fract_x
_atom_site_fract_y
_atom_site_fract_z
Si Si1 0.042147 0.055919 0.290980
Si Si2 0.763524 0.707198 0.577556
Si Si3 0.254937 0.204985 0.066882
Si Si4 0.917636 0.445548 0.803967
Si Si5 0.256719 0.398726 0.446846
Si Si6 0.614730 0.603134 0.953653
O O1 0.787452 0.071674 0.220495
O O2 0.082047 0.090794 0.220553
O O3 0.251730 0.068249 0.465901
O O4 0.056977 0.000000 0.271236
O O5 0.500000 0.708778 0.500000
O O6 0.750000 0.750000 0.500000
O O7 0.785775 0.655617 0.538942
O O8 0.998864 0.711053 0.755851
O O9 0.250000 0.250000 0.000000
O O10 0.248083 0.155084 0.006365
O O11 0.000000 0.206131 0.000000
O O12 0.863083 0.500000 0.751473
O O13 0.948976 0.414931 0.723801
O O14 0.184774 0.438204 0.975112
O O15 0.500000 0.406636 0.500000
O O16 0.500000 0.597090 0.000000
#
# Coordination Sequence:
#
# PCOD8094399 Si02
#       6
#     8   8   8   8   8   8
#     4  10  21  37  62  93 119 162 218 263 312 372
#     4  11  23  42  67  96 127 166 212 263 326 383
#     4  11  25  44  66  96 129 168 213 263 325 384
#     4  10  19  37  62  88 120 159 207 266 312 371
#     4   9  19  37  61  90 123 156 207 264 319 366
#     4  11  24  40  58  86 129 165 206 256 320 384
#
# _framework density 21.860790999999999
#
# number of rings (size 3 to 8) (size 9 to 14) (size 15 to 20)
#    0.000    1.667    1.667    2.500    2.333    6.000 
#    0.000    0.833    0.000    2.000    0.000    0.000 
#    0.000    0.000    0.000    0.000    0.000    0.000 
#
# Total GULP energy -297373.009012 kJ/mol
# GULP energy per Si atom -12390.542042 kJ/mol
# Density = 2.181104 g / cm^3
# Si number density = 21.860791 Si / 1000 Ang^3
#
#
#
# Elastic Constant Matrix: (Units=GPa)
#
#
# Indices 1 2 3 4 5 6 
#
# 1 58.7261 42.9505 34.2499 0.0000 -14.8480 0.0000
# 2 42.9505 143.5203 44.9001 0.0000 -29.6856 0.0000
# 3 34.2499 44.9001 118.0739 0.0000 -16.2031 0.0000
# 4 0.0000 0.0000 0.0000 44.8418 0.0000 -9.8631
# 5 -14.8480 -29.6856 -16.2031 0.0000 46.1322 0.0000
# 6 0.0000 0.0000 0.0000 -9.8631 0.0000 36.8375
#
#
#
# Elastic Compliance Matrix: (Units=1/GPa)
#
#
# Indices 1 2 3 4 5 6 
#
# 1 0.024285 -0.005224 -0.004672 0.000000 0.002814 0.000000
# 2 -0.005224 0.009908 -0.001690 0.000000 0.004101 0.000000
# 3 -0.004672 -0.001690 0.010623 0.000000 0.001140 0.000000
# 4 0.000000 0.000000 0.000000 0.023696 0.000000 0.006345
# 5 0.002814 0.004101 0.001140 0.000000 0.025622 0.000000
# 6 0.000000 0.000000 0.000000 0.006345 0.000000 0.028845
#
#
# Mechanical properties :
#
#
# Convention : Reuss Voigt Hill
#
# Bulk Modulus (GPa) = 46.19898 62.72459 54.46179
# Shear Modulus (GPa) = 32.60199 38.77695 35.68947
#
# Velocity S-wave (km/s) = 3.86598 4.21623 4.04490
# Velocity P-wave (km/s) = 6.41147 7.24273 6.83974
#
# Compressibility (1/GPa) = 0.02164550
#
# Stress axis : x y z
#
# Youngs Moduli (GPa) = 41.17774 100.93054 94.13194
#
# Poissons Ratio (x) = 0.52727 0.43975
# Poissons Ratio (y) = 0.21512 0.15904
# Poissons Ratio (z) = 0.19237 0.17053
#
# Static dielectric constant tensor:
#      x y z
#    x 3.612630 0.000000 -0.031860 
#    y 0.000000 3.797400 0.000000 
#    z -0.031860 0.000000 4.237850 
# 
# 
# High freq. dielectric constant tensor:
#      x y z
#    x 1.837550 0.000000 -0.001710 
#    y 0.000000 1.868620 0.000000 
#    z -0.001710 0.000000 1.873540 
# 
# From -- ./inp_files/200232.got.cif
#   From: 2010.06.25/outbox.cif.g09.slc.cpg/sg12_101_cif.got.tgz:200232.got - 2010.06.28 00:19:55.
