data_PCOD8094945
_publ_section_title
;
Structure prediction by ZEFSAII (Michael W. Deem and Ramdas Pophale) SiO2 
 PCOD8094945
Probable space group: C 2/M
;
_chemical_formula_sum "Si O2"
_cell_formula_units_Z 56
_cell_length_a 27.461712
_cell_length_b 8.882684
_cell_length_c 16.405366
_cell_angle_alpha 90.000000
_cell_angle_beta 115.177208
_cell_angle_gamma 90.000000
_cell_volume 3621.634128
_symmetry_space_group_name_H-M "C 2/M"
_symmetry_group_IT_number 12
_symmetry_cell_setting 'monoclinic'
loop_
_space_group_symop_operation_xyz
x,y,z
-x,y,-z
-x,-y,-z
x,-y,z
1/2+x,1/2+y,z
1/2-x,1/2+y,-z
1/2-x,1/2-y,-z
1/2+x,1/2-y,z
loop_
_atom_site_type_symbol
_atom_site_label
_atom_site_fract_x
_atom_site_fract_y
_atom_site_fract_z
Si Si1 0.395312 0.820119 0.803329
Si Si2 0.414043 0.822040 0.462271
Si Si3 0.992837 0.319722 0.190617
Si Si4 0.301191 0.676934 0.637120
Si Si5 0.310044 0.323228 0.457478
Si Si6 0.058225 0.335337 0.002027
Si Si7 0.015591 0.677809 0.635634
O O1 0.446136 0.768708 0.784822
O O2 0.341969 0.747757 0.730136
O O3 0.403466 0.757269 0.902590
O O4 0.390246 0.000000 0.799859
O O5 0.359899 0.732311 0.439962
O O6 0.433955 0.778560 0.385325
O O7 0.459508 0.764214 0.557640
O O8 0.403805 0.000000 0.463571
O O9 0.989698 0.500000 0.184558
O O10 0.976501 0.255501 0.267829
O O11 0.950892 0.252691 0.092361
O O12 0.299577 0.500000 0.648529
O O13 0.319081 0.721321 0.558353
O O14 0.242633 0.742452 0.614919
O O15 0.302416 0.500000 0.441590
O O16 0.082844 0.500000 0.002310
O O17 0.000000 0.354378 0.000000
O O18 0.010822 0.500000 0.636546
#
# Coordination Sequence:
#
# PCOD8094945 Si02
#       7
#     8   8   8   8   8   8   8
#     4   9  15  24  41  63  85 109 137 169 201 233
#     4   9  16  27  42  61  85 110 138 170 201 233
#     4   8  12  20  37  61  87 113 140 167 194 230
#     4  10  20  31  43  60  81 106 135 165 201 246
#     4  10  20  32  44  59  80 106 136 168 202 240
#     4   7  11  19  33  57  85 109 135 166 197 231
#     4   8  14  23  38  61  86 113 141 165 194 236
#
# _framework density 15.462633
#
# number of rings (size 3 to 8) (size 9 to 14) (size 15 to 20)
#    0.000    3.286    0.000    4.286    0.000    2.857 
#    0.000    1.429    0.000    4.714    0.000    1.000 
#    0.000    0.000    0.000    0.000    0.000    0.000 
#
# Total GULP energy -346884.860398 kJ/mol
# GULP energy per Si atom -12388.745014 kJ/mol
# Density = 1.542744 g / cm^3
# Si number density = 15.462633 Si / 1000 Ang^3
#
#
#
# Elastic Constant Matrix: (Units=GPa)
#
#
# Indices 1 2 3 4 5 6 
#
# 1 92.5844 19.6550 65.1976 0.0000 -1.6469 0.0000
# 2 19.6550 26.1992 27.2299 0.0000 3.5047 0.0000
# 3 65.1976 27.2299 155.2850 0.0000 -3.5181 0.0000
# 4 0.0000 0.0000 0.0000 12.9340 0.0000 4.3139
# 5 -1.6469 3.5047 -3.5181 0.0000 25.4578 0.0000
# 6 0.0000 0.0000 0.0000 4.3139 0.0000 19.9929
#
#
#
# Elastic Compliance Matrix: (Units=1/GPa)
#
#
# Indices 1 2 3 4 5 6 
#
# 1 0.016147 -0.006418 -0.005628 0.000000 0.001150 0.000000
# 2 -0.006418 0.050732 -0.006389 0.000000 -0.008282 0.000000
# 3 -0.005628 -0.006389 0.009966 0.000000 0.001893 0.000000
# 4 0.000000 0.000000 0.000000 0.083311 0.000000 -0.017976
# 5 0.001150 -0.008282 0.001893 0.000000 0.040757 0.000000
# 6 0.000000 0.000000 0.000000 -0.017976 0.000000 0.053896
#
#
# Mechanical properties :
#
#
# Convention : Reuss Voigt Hill
#
# Bulk Modulus (GPa) = 25.01570 55.35929 40.18749
# Shear Modulus (GPa) = 16.39315 22.47604 19.43459
#
# Velocity S-wave (km/s) = 3.25957 3.81671 3.54909
# Velocity P-wave (km/s) = 5.51178 7.43658 6.54532
#
# Compressibility (1/GPa) = 0.03997490
#
# Stress axis : x y z
#
# Youngs Moduli (GPa) = 61.93034 19.71128 100.34185
#
# Poissons Ratio (x) = 0.12651 0.56472
# Poissons Ratio (y) = 0.39749 0.64108
# Poissons Ratio (z) = 0.34854 0.12594
#
# Static dielectric constant tensor:
#      x y z
#    x 2.813270 0.000000 -0.200260 
#    y 0.000000 2.578900 0.000000 
#    z -0.200260 0.000000 3.439810 
# 
# 
# High freq. dielectric constant tensor:
#      x y z
#    x 1.564710 0.000000 -0.004070 
#    y 0.000000 1.556190 0.000000 
#    z -0.004070 0.000000 1.599730 
# 
# From -- ./inp_files/291476.got.cif
#   From: 2010.06.25/outbox.cif.g09.slc.cpg/sg12_146_cif.got.tgz:291476.got - 2010.06.28 00:19:55.
