data_PCOD8094624
_publ_section_title
;
Structure prediction by ZEFSAII (Michael W. Deem and Ramdas Pophale) SiO2 
 PCOD8094624
Probable space group: C 2/M
;
_chemical_formula_sum "Si O2"
_cell_formula_units_Z 56
_cell_length_a 13.532821
_cell_length_b 26.241165
_cell_length_c 13.756555
_cell_angle_alpha 90.000000
_cell_angle_beta 32.814619
_cell_angle_gamma 90.000000
_cell_volume 2647.393216
_symmetry_space_group_name_H-M "C 2/M"
_symmetry_group_IT_number 12
_symmetry_cell_setting 'monoclinic'
loop_
_space_group_symop_operation_xyz
x,y,z
-x,y,-z
-x,-y,-z
x,-y,z
1/2+x,1/2+y,z
1/2-x,1/2+y,-z
1/2-x,1/2-y,-z
1/2+x,1/2-y,z
loop_
_atom_site_type_symbol
_atom_site_label
_atom_site_fract_x
_atom_site_fract_y
_atom_site_fract_z
Si Si1 0.145222 0.854841 0.960787
Si Si2 0.954118 0.770465 0.830156
Si Si3 0.640235 0.191687 0.807659
Si Si4 0.242675 0.407749 0.633022
Si Si5 0.874590 0.941310 0.731538
Si Si6 0.598475 0.235413 0.322732
Si Si7 0.356214 0.941400 0.890689
O O1 0.266633 0.809493 0.818002
O O2 0.270644 0.903765 0.881071
O O3 0.046812 0.830849 0.139335
O O4 0.000000 0.872733 0.000000
O O5 0.032555 0.753877 0.658686
O O6 0.066022 0.742958 0.821258
O O7 0.750000 0.750000 0.000000
O O8 0.693003 0.151697 0.681170
O O9 0.811610 0.210004 0.727918
O O10 0.500000 0.166483 0.000000
O O11 0.271302 0.429877 0.716946
O O12 0.431272 0.412508 0.417344
O O13 0.075104 0.435507 0.717467
O O14 0.926615 0.000000 0.692169
O O15 0.736993 0.925996 0.930563
O O16 0.500000 0.214404 0.500000
O O17 0.313442 0.000000 0.897434
#
# Coordination Sequence:
#
# PCOD8094624 Si02
#       7
#     8   8   8   8   8   8   8
#     4  11  22  46  66  86 126 175 219 273 324 376
#     4  10  19  38  63  81 122 169 203 253 314 375
#     4  12  21  37  60  93 125 172 213 251 312 391
#     4  11  22  35  64  98 137 169 206 263 329 395
#     4  10  22  41  62  95 136 170 212 268 328 395
#     4  11  24  38  61  95 132 164 212 261 318 390
#     4  11  24  42  69  94 121 171 226 273 329 385
#
# _framework density 21.152882000000002
#
# number of rings (size 3 to 8) (size 9 to 14) (size 15 to 20)
#    0.000    1.143    4.286    4.714    4.000    2.000 
#    5.143    0.000    0.000    0.429    0.000    0.000 
#    0.000    0.000    0.000    0.000    0.000    0.000 
#
# Total GULP energy -347022.105044 kJ/mol
# GULP energy per Si atom -12393.646609 kJ/mol
# Density = 2.110474 g / cm^3
# Si number density = 21.152882 Si / 1000 Ang^3
#
#
#
# Elastic Constant Matrix: (Units=GPa)
#
#
# Indices 1 2 3 4 5 6 
#
# 1 120.1703 32.3321 31.0946 -0.0009 -10.2453 -0.0020
# 2 32.3321 101.2832 17.0200 0.0014 -10.8924 0.0004
# 3 31.0946 17.0200 67.8775 -0.0048 -4.7696 0.0034
# 4 -0.0009 0.0014 -0.0048 7.3388 0.0023 -1.7167
# 5 -10.2453 -10.8924 -4.7696 0.0023 31.9296 0.0005
# 6 -0.0020 0.0004 0.0034 -1.7167 0.0005 36.3333
#
#
#
# Elastic Compliance Matrix: (Units=1/GPa)
#
#
# Indices 1 2 3 4 5 6 
#
# 1 0.010132 -0.002377 -0.003915 -0.000001 0.001855 0.000001
# 2 -0.002377 0.011191 -0.001519 -0.000004 0.002828 0.000000
# 3 -0.003915 -0.001519 0.016960 0.000010 0.000759 -0.000001
# 4 -0.000001 -0.000004 0.000010 0.137785 -0.000010 0.006510
# 5 0.001855 0.002828 0.000759 -0.000010 0.032993 -0.000001
# 6 0.000001 0.000000 -0.000001 0.006510 -0.000001 0.027831
#
#
# Mechanical properties :
#
#
# Convention : Reuss Voigt Hill
#
# Bulk Modulus (GPa) = 44.12615 50.02494 47.07555
# Shear Modulus (GPa) = 19.22573 29.04594 24.13584
#
# Velocity S-wave (km/s) = 3.01806 3.70961 3.38156
# Velocity P-wave (km/s) = 5.74898 6.48451 6.12779
#
# Compressibility (1/GPa) = 0.02266230
#
# Stress axis : x y z
#
# Youngs Moduli (GPa) = 98.69394 89.35385 58.96193
#
# Poissons Ratio (x) = 0.21240 0.23085
# Poissons Ratio (y) = 0.23460 0.08954
# Poissons Ratio (z) = 0.38641 0.13569
#
# Static dielectric constant tensor:
#      x y z
#    x 3.002040 -0.000020 -0.113340 
#    y -0.000020 3.785500 -0.000010 
#    z -0.113340 -0.000010 3.960020 
# 
# 
# High freq. dielectric constant tensor:
#      x y z
#    x 1.823870 0.000000 -0.008030 
#    y 0.000000 1.823890 0.000000 
#    z -0.008030 0.000000 1.819350 
# 
# From -- ./inp_files/218683.got.cif
#   From: 2010.06.25/outbox.cif.g09.slc.cpg/sg12_110_cif.got.tgz:218683.got - 2010.06.28 00:19:55.
