data_PCOD8094414
_publ_section_title
;
Structure prediction by ZEFSAII (Michael W. Deem and Ramdas Pophale) SiO2 
 PCOD8094414
Probable space group: C 2/M
;
_chemical_formula_sum "Si O2"
_cell_formula_units_Z 56
_cell_length_a 20.264042
_cell_length_b 21.859604
_cell_length_c 9.184603
_cell_angle_alpha 90.000000
_cell_angle_beta 44.668220
_cell_angle_gamma 90.000000
_cell_volume 2860.120232
_symmetry_space_group_name_H-M "C 2/M"
_symmetry_group_IT_number 12
_symmetry_cell_setting 'monoclinic'
loop_
_space_group_symop_operation_xyz
x,y,z
-x,y,-z
-x,-y,-z
x,-y,z
1/2+x,1/2+y,z
1/2-x,1/2+y,-z
1/2-x,1/2-y,-z
1/2+x,1/2-y,z
loop_
_atom_site_type_symbol
_atom_site_label
_atom_site_fract_x
_atom_site_fract_y
_atom_site_fract_z
Si Si1 0.270266 0.639008 0.469801
Si Si2 0.103194 0.164474 0.169648
Si Si3 0.904480 0.569032 0.566714
Si Si4 0.101939 0.196037 0.483577
Si Si5 0.091007 0.929137 0.940611
Si Si6 0.212748 0.686295 0.267312
Si Si7 0.908214 0.430666 0.220209
O O1 0.335068 0.671489 0.485211
O O2 0.321340 0.584406 0.301621
O O3 0.238422 0.687827 0.398539
O O4 0.180586 0.609693 0.690607
O O5 0.111232 0.150384 0.329923
O O6 0.006025 0.201635 0.294197
O O7 0.100326 0.101780 0.083445
O O8 0.193555 0.202844 0.971560
O O9 0.868538 0.500000 0.663418
O O10 0.826467 0.620319 0.726930
O O11 0.926056 0.573180 0.363079
O O12 0.000000 0.584374 0.500000
O O13 0.134402 0.261805 0.371209
O O14 0.083375 0.000000 0.984891
O O15 0.000000 0.903685 0.000000
O O16 0.891409 0.500000 0.193371
O O17 0.000000 0.402602 0.000000
#
# Coordination Sequence:
#
# PCOD8094414 Si02
#       7
#     8   8   8   8   8   8   8
#     4  10  20  37  58  86 114 150 199 245 286 349
#     4  10  23  39  59  85 117 154 194 246 292 348
#     4   9  19  36  60  86 112 143 192 244 283 340
#     4  11  22  40  56  84 123 152 194 247 293 347
#     4  10  19  37  63  85 109 152 197 237 292 351
#     4  10  22  38  61  84 113 161 196 234 293 353
#     4   9  18  34  53  79 114 148 184 232 292 344
#
# _framework density 19.579597
#
# number of rings (size 3 to 8) (size 9 to 14) (size 15 to 20)
#    0.000    2.143    1.429    1.286    2.000    4.571 
#    5.143    2.857    0.000    0.000    0.000    0.000 
#    0.000    0.000    0.000    0.000    0.000    0.000 
#
# Total GULP energy -347117.165866 kJ/mol
# GULP energy per Si atom -12397.041638 kJ/mol
# Density = 1.953503 g / cm^3
# Si number density = 19.579597 Si / 1000 Ang^3
#
#
#
# Elastic Constant Matrix: (Units=GPa)
#
#
# Indices 1 2 3 4 5 6 
#
# 1 112.0581 43.6169 38.8203 0.0000 -10.7898 0.0000
# 2 43.6169 77.2261 48.3167 0.0000 -9.8662 0.0000
# 3 38.8203 48.3167 122.3133 0.0000 -34.3601 0.0000
# 4 0.0000 0.0000 0.0000 19.4828 0.0000 -7.8383
# 5 -10.7898 -9.8662 -34.3601 0.0000 36.4172 0.0000
# 6 0.0000 0.0000 0.0000 -7.8383 0.0000 25.0573
#
#
#
# Elastic Compliance Matrix: (Units=1/GPa)
#
#
# Indices 1 2 3 4 5 6 
#
# 1 0.011645 -0.005712 -0.001232 0.000000 0.000741 0.000000
# 2 -0.005712 0.020155 -0.006926 0.000000 -0.002767 0.000000
# 3 -0.001232 -0.006926 0.014522 0.000000 0.011460 0.000000
# 4 0.000000 0.000000 0.000000 0.058717 0.000000 0.018367
# 5 0.000741 -0.002767 0.011460 0.000000 0.037742 0.000000
# 6 0.000000 0.000000 0.000000 0.018367 0.000000 0.045654
#
#
# Mechanical properties :
#
#
# Convention : Reuss Voigt Hill
#
# Bulk Modulus (GPa) = 53.81256 63.67838 58.74547
# Shear Modulus (GPa) = 22.48516 28.24772 25.36644
#
# Velocity S-wave (km/s) = 3.39248 3.80243 3.60329
# Velocity P-wave (km/s) = 6.54896 7.20218 6.88332
#
# Compressibility (1/GPa) = 0.01858302
#
# Stress axis : x y z
#
# Youngs Moduli (GPa) = 85.87214 49.61567 68.86126
#
# Poissons Ratio (x) = 0.28341 0.08480
# Poissons Ratio (y) = 0.49050 0.47693
# Poissons Ratio (z) = 0.10575 0.34364
#
# Static dielectric constant tensor:
#      x y z
#    x 3.788940 0.000000 -0.152740 
#    y 0.000000 3.386420 0.000000 
#    z -0.152740 0.000000 3.636900 
# 
# 
# High freq. dielectric constant tensor:
#      x y z
#    x 1.776980 0.000000 -0.011220 
#    y 0.000000 1.741720 0.000000 
#    z -0.011220 0.000000 1.761140 
# 
# From -- ./inp_files/89497.got.cif
#   From: 2010.06.25/outbox.cif.g09.slc.cpg/sg12_45_cif.got.tgz:89497.got - 2010.06.28 00:19:55.
