data_PCOD8094956
_publ_section_title
;
Structure prediction by ZEFSAII (Michael W. Deem and Ramdas Pophale) SiO2 
 PCOD8094956
Probable space group: C 2/M
;
_chemical_formula_sum "Si O2"
_cell_formula_units_Z 64
_cell_length_a 24.759640
_cell_length_b 9.211600
_cell_length_c 17.704859
_cell_angle_alpha 90.000000
_cell_angle_beta 89.867943
_cell_angle_gamma 90.000000
_cell_volume 4038.040922
_symmetry_space_group_name_H-M "C 2/M"
_symmetry_group_IT_number 12
_symmetry_cell_setting 'monoclinic'
loop_
_space_group_symop_operation_xyz
x,y,z
-x,y,-z
-x,-y,-z
x,-y,z
1/2+x,1/2+y,z
1/2-x,1/2+y,-z
1/2-x,1/2-y,-z
1/2+x,1/2-y,z
loop_
_atom_site_type_symbol
_atom_site_label
_atom_site_fract_x
_atom_site_fract_y
_atom_site_fract_z
Si Si1 0.435186 0.331421 0.802268
Si Si2 0.564474 0.162168 0.506364
Si Si3 0.864807 0.335711 0.916709
Si Si4 0.643926 0.168938 0.906549
Si Si5 0.754608 0.832290 0.077960
Si Si6 0.558709 0.829548 0.342325
Si Si7 0.552292 0.333949 0.642976
Si Si8 0.561958 0.663307 0.809002
O O1 0.423178 0.500000 0.791520
O O2 0.404697 0.274872 0.876088
O O3 0.411829 0.249332 0.727924
O O4 0.498506 0.300612 0.812453
O O5 0.500000 0.173385 0.500000
O O6 0.588715 0.199998 0.422886
O O7 0.586419 0.272721 0.570989
O O8 0.581851 0.000000 0.529917
O O9 0.885302 0.500000 0.903931
O O10 0.804138 0.318773 0.882348
O O11 0.865596 0.298133 0.005384
O O12 0.696915 0.255672 0.875753
O O13 0.591896 0.221647 0.861129
O O14 0.653394 0.000000 0.891432
O O15 0.769322 0.000000 0.063828
O O16 0.750000 0.750000 0.000000
O O17 0.499046 0.767318 0.348336
O O18 0.555479 0.000000 0.325677
O O19 0.534978 0.500000 0.627108
O O20 0.584124 0.324056 0.722478
O O21 0.572298 0.500000 0.839001
#
# Coordination Sequence:
#
# PCOD8094956 Si02
#       8
#     8   8   8   8   8   8   8   8
#     4  10  20  31  44  63  87 118 152 182 216 257
#     4   8  14  23  36  55  77 106 142 175 212 254
#     4   9  19  33  47  65  87 112 143 178 220 264
#     4  10  20  32  48  68  86 112 149 184 221 261
#     4   9  17  31  50  69  88 109 137 178 224 265
#     4   9  16  26  39  55  80 112 143 177 215 255
#     4   9  16  25  38  57  81 110 144 179 214 253
#     4   9  19  32  42  59  89 121 150 180 218 259
#
# _framework density 15.849270000000001
#
# number of rings (size 3 to 8) (size 9 to 14) (size 15 to 20)
#    0.000    2.875    0.000    4.125    0.000    9.250 
#    0.000    2.500    0.000    0.000    0.000    0.000 
#    0.000    1.000    0.000    3.250    0.000    5.375 
#
# Total GULP energy -396500.100564 kJ/mol
# GULP energy per Si atom -12390.628143 kJ/mol
# Density = 1.581320 g / cm^3
# Si number density = 15.849270 Si / 1000 Ang^3
#
#
#
# Elastic Constant Matrix: (Units=GPa)
#
#
# Indices 1 2 3 4 5 6 
#
# 1 45.8688 41.6542 35.6160 0.0000 2.3575 0.0000
# 2 41.6542 117.1167 60.4557 0.0000 1.7143 0.0000
# 3 35.6160 60.4557 86.7323 0.0000 0.3297 0.0000
# 4 0.0000 0.0000 0.0000 31.6035 0.0000 0.5472
# 5 2.3575 1.7143 0.3297 0.0000 0.7320 0.0000
# 6 0.0000 0.0000 0.0000 0.5472 0.0000 22.6193
#
#
#
# Elastic Compliance Matrix: (Units=1/GPa)
#
#
# Indices 1 2 3 4 5 6 
#
# 1 0.044685 -0.007647 -0.012562 0.000000 -0.120348 0.000000
# 2 -0.007647 0.015205 -0.007429 0.000000 -0.007635 0.000000
# 3 -0.012562 -0.007429 0.021684 0.000000 0.048089 0.000000
# 4 0.000000 0.000000 0.000000 0.031655 0.000000 -0.000766
# 5 -0.120348 -0.007635 0.048089 0.000000 1.749968 0.000000
# 6 0.000000 0.000000 0.000000 -0.000766 0.000000 0.044228
#
#
# Mechanical properties :
#
#
# Convention : Reuss Voigt Hill
#
# Bulk Modulus (GPa) = 38.02607 58.35215 48.18911
# Shear Modulus (GPa) = 2.53618 18.45710 10.49664
#
# Velocity S-wave (km/s) = 1.26636 3.41624 2.57627
# Velocity P-wave (km/s) = 5.11690 7.24277 6.27058
#
# Compressibility (1/GPa) = 0.02629775
#
# Stress axis : x y z
#
# Youngs Moduli (GPa) = 22.37891 65.76818 46.11721
#
# Poissons Ratio (x) = 0.50291 0.57932
# Poissons Ratio (y) = 0.17113 0.34262
# Poissons Ratio (z) = 0.28112 0.48861
#
# Static dielectric constant tensor:
#      x y z
#    x 2.845040 0.000000 -0.008060 
#    y 0.000000 3.192730 0.000000 
#    z -0.008060 0.000000 3.428680 
# 
# 
# High freq. dielectric constant tensor:
#      x y z
#    x 1.551040 0.000000 -0.000850 
#    y 0.000000 1.626830 0.000000 
#    z -0.000850 0.000000 1.605470 
# 
# From -- ./inp_files/291622.got.cif
#   From: 2010.06.25/outbox.cif.g09.slc.cpg/sg12_146_cif.got.tgz:291622.got - 2010.06.28 00:19:55.
