data_PCOD8094148
_publ_section_title
;
Structure prediction by ZEFSAII (Michael W. Deem and Ramdas Pophale) SiO2 
 PCOD8094148
Probable space group: C 2/M
;
_chemical_formula_sum "Si O2"
_cell_formula_units_Z 56
_cell_length_a 18.605647
_cell_length_b 30.725324
_cell_length_c 8.860420
_cell_angle_alpha 90.000000
_cell_angle_beta 143.190287
_cell_angle_gamma 90.000000
_cell_volume 3034.854577
_symmetry_space_group_name_H-M "C 2/M"
_symmetry_group_IT_number 12
_symmetry_cell_setting 'monoclinic'
loop_
_space_group_symop_operation_xyz
x,y,z
-x,y,-z
-x,-y,-z
x,-y,z
1/2+x,1/2+y,z
1/2-x,1/2+y,-z
1/2-x,1/2-y,-z
1/2+x,1/2-y,z
loop_
_atom_site_type_symbol
_atom_site_label
_atom_site_fract_x
_atom_site_fract_y
_atom_site_fract_z
Si Si1 0.076179 0.823575 0.492219
Si Si2 0.884529 0.950994 0.200647
Si Si3 0.037678 0.329725 0.889593
Si Si4 0.792302 0.334815 0.302646
Si Si5 0.225881 0.258469 0.135312
Si Si6 0.568323 0.382130 0.966996
Si Si7 0.770937 0.379623 0.950848
O O1 0.172225 0.786970 0.607996
O O2 0.142539 0.865488 0.670700
O O3 0.000000 0.802427 0.500000
O O4 0.994179 0.840097 0.216957
O O5 0.926407 0.924732 0.125260
O O6 0.760319 0.929626 0.059834
O O7 0.000000 0.951375 0.500000
O O8 0.848102 0.000000 0.095269
O O9 0.921740 0.335413 0.592905
O O10 0.100347 0.283595 0.952818
O O11 0.124947 0.371107 0.997999
O O12 0.000000 0.331231 0.000000
O O13 0.728640 0.288180 0.218263
O O14 0.703929 0.368393 0.238403
O O15 0.805281 0.348902 0.149869
O O16 0.250000 0.250000 0.000000
O O17 0.500000 0.396560 0.000000
#
# Coordination Sequence:
#
# PCOD8094148 Si02
#       7
#     8   8   8   8   8   8   8
#     4  11  18  35  56  82 109 151 202 232 292 342
#     4  10  19  36  65  96 118 146 196 243 292 363
#     4  11  26  39  56  84 116 154 201 246 294 349
#     4  11  23  38  58  83 110 163 206 238 291 346
#     4  11  23  36  58  80 112 157 201 255 282 339
#     4  11  23  37  59  86 127 158 187 244 304 360
#     4  10  19  38  61  81 115 152 194 237 286 358
#
# _framework density 18.452285
#
# number of rings (size 3 to 8) (size 9 to 14) (size 15 to 20)
#    0.000    1.286    7.143    0.429    8.000    1.429 
#    0.000    0.000    0.000    7.286    0.000    0.000 
#    0.000    0.000    0.000    0.000    0.000    0.000 
#
# Total GULP energy -346990.996590 kJ/mol
# GULP energy per Si atom -12392.535592 kJ/mol
# Density = 1.841029 g / cm^3
# Si number density = 18.452285 Si / 1000 Ang^3
#
#
#
# Elastic Constant Matrix: (Units=GPa)
#
#
# Indices 1 2 3 4 5 6 
#
# 1 130.8650 44.6582 30.8896 0.0000 6.4680 0.0000
# 2 44.6582 120.8002 33.7370 0.0000 4.7649 0.0000
# 3 30.8896 33.7370 91.1350 0.0000 19.2264 0.0000
# 4 0.0000 0.0000 0.0000 19.6503 0.0000 9.6007
# 5 6.4680 4.7649 19.2264 0.0000 22.4272 0.0000
# 6 0.0000 0.0000 0.0000 9.6007 0.0000 13.5935
#
#
#
# Elastic Compliance Matrix: (Units=1/GPa)
#
#
# Indices 1 2 3 4 5 6 
#
# 1 0.009076 -0.002791 -0.001973 0.000000 -0.000333 0.000000
# 2 -0.002791 0.010117 -0.003071 0.000000 0.001288 0.000000
# 3 -0.001973 -0.003071 0.015285 0.000000 -0.011882 0.000000
# 4 0.000000 0.000000 0.000000 0.077703 0.000000 -0.054879
# 5 -0.000333 0.001288 -0.011882 0.000000 0.054597 0.000000
# 6 0.000000 0.000000 0.000000 -0.054879 0.000000 0.112324
#
#
# Mechanical properties :
#
#
# Convention : Reuss Voigt Hill
#
# Bulk Modulus (GPa) = 53.16785 62.37441 57.77113
# Shear Modulus (GPa) = 16.60904 26.70191 21.65547
#
# Velocity S-wave (km/s) = 3.00343 3.80818 3.42949
# Velocity P-wave (km/s) = 6.39560 7.29471 6.85990
#
# Compressibility (1/GPa) = 0.01880836
#
# Stress axis : x y z
#
# Youngs Moduli (GPa) = 110.17959 98.84541 65.42440
#
# Poissons Ratio (x) = 0.27590 0.12906
# Poissons Ratio (y) = 0.30754 0.20090
# Poissons Ratio (z) = 0.21735 0.30353
#
# Static dielectric constant tensor:
#      x y z
#    x 3.418120 0.000000 0.134920 
#    y 0.000000 3.482430 0.000000 
#    z 0.134920 0.000000 3.419660 
# 
# 
# High freq. dielectric constant tensor:
#      x y z
#    x 1.705920 0.000000 0.012100 
#    y 0.000000 1.694510 0.000000 
#    z 0.012100 0.000000 1.718340 
# 
# From -- ./inp_files/80487.got.cif
#   From: 2010.06.25/outbox.cif.g09.slc.cpg/sg12_41_cif.got.tgz:80487.got - 2010.06.28 00:19:55.
