data_PCOD8094290
_publ_section_title
;
Structure prediction by ZEFSAII (Michael W. Deem and Ramdas Pophale) SiO2 
 PCOD8094290
Probable space group: C 2/M
;
_chemical_formula_sum "Si O2"
_cell_formula_units_Z 64
_cell_length_a 27.619961
_cell_length_b 17.962606
_cell_length_c 10.631964
_cell_angle_alpha 90.000000
_cell_angle_beta 146.421680
_cell_angle_gamma 90.000000
_cell_volume 2917.366454
_symmetry_space_group_name_H-M "C 2/M"
_symmetry_group_IT_number 12
_symmetry_cell_setting 'monoclinic'
loop_
_space_group_symop_operation_xyz
x,y,z
-x,y,-z
-x,-y,-z
x,-y,z
1/2+x,1/2+y,z
1/2-x,1/2+y,-z
1/2-x,1/2-y,-z
1/2+x,1/2-y,z
loop_
_atom_site_type_symbol
_atom_site_label
_atom_site_fract_x
_atom_site_fract_y
_atom_site_fract_z
Si Si1 0.945621 0.282711 0.203284
Si Si2 0.682492 0.638260 0.649755
Si Si3 0.849399 0.763718 0.750479
Si Si4 0.627388 0.210586 0.455997
Si Si5 0.593216 0.362876 0.723771
Si Si6 0.102581 0.081474 0.229770
Si Si7 0.854412 0.584521 0.123017
Si Si8 0.230766 0.584400 0.794105
O O1 0.930553 0.217307 0.270072
O O2 0.044276 0.285260 0.367240
O O3 0.877988 0.273936 0.941904
O O4 0.931207 0.360035 0.246783
O O5 0.696232 0.724068 0.639895
O O6 0.635025 0.641424 0.678906
O O7 0.624083 0.595650 0.422038
O O8 0.774293 0.595723 0.853535
O O9 0.750000 0.750000 0.500000
O O10 0.905141 0.725176 0.757617
O O11 0.861965 0.853370 0.784212
O O12 0.684405 0.135335 0.588754
O O13 0.500000 0.405931 0.500000
O O14 0.664028 0.403323 0.967207
O O15 0.139697 0.000000 0.268284
O O16 0.000000 0.081155 0.000000
O O17 0.889569 0.500000 0.190324
O O18 0.818747 0.604063 0.183722
O O19 0.214425 0.500000 0.718122
#
# Coordination Sequence:
#
# PCOD8094290 Si02
#       8
#     8   8   8   8   8   8   8   8
#     4  12  23  39  64  96 125 161 214 263 316 375
#     4  10  19  37  60  89 120 157 207 255 307 371
#     4  11  23  41  65  91 124 165 216 261 308 374
#     4  11  22  40  63  89 123 165 206 266 311 369
#     4  11  22  38  63  95 125 162 207 258 319 381
#     4  10  21  38  62  89 121 160 202 255 313 370
#     4  10  22  38  62  89 121 165 209 258 310 374
#     4  10  23  42  62  90 130 170 210 258 321 383
#
# _framework density 21.937595000000002
#
# number of rings (size 3 to 8) (size 9 to 14) (size 15 to 20)
#    0.000    1.375    1.250    6.000    0.000    3.250 
#    0.000    4.375    0.000    1.500    0.000    0.000 
#    0.000    0.000    0.000    0.000    0.000    0.000 
#
# Total GULP energy -396657.332545 kJ/mol
# GULP energy per Si atom -12395.541642 kJ/mol
# Density = 2.188766 g / cm^3
# Si number density = 21.937595 Si / 1000 Ang^3
#
#
#
# Elastic Constant Matrix: (Units=GPa)
#
#
# Indices 1 2 3 4 5 6 
#
# 1 51.5169 20.2397 -6.1468 0.0000 8.4327 0.0000
# 2 20.2397 143.6156 23.2873 0.0000 8.0910 0.0000
# 3 -6.1468 23.2873 61.9650 0.0000 1.6845 0.0000
# 4 0.0000 0.0000 0.0000 15.3281 0.0000 15.8331
# 5 8.4327 8.0910 1.6845 0.0000 30.9566 0.0000
# 6 0.0000 0.0000 0.0000 15.8331 0.0000 -11.4647
#
#
#
# Elastic Compliance Matrix: (Units=1/GPa)
#
#
# Indices 1 2 3 4 5 6 
#
# 1 0.022044 -0.003392 0.003606 0.000000 -0.005315 0.000000
# 2 -0.003392 0.008037 -0.003330 0.000000 -0.000995 0.000000
# 3 0.003606 -0.003330 0.017777 0.000000 -0.001079 0.000000
# 4 0.000000 0.000000 0.000000 0.026886 0.000000 0.037130
# 5 -0.005315 -0.000995 -0.001079 0.000000 0.034070 0.000000
# 6 0.000000 0.000000 0.000000 0.037130 0.000000 -0.035946
#
#
# Mechanical properties :
#
#
# Convention : Reuss Voigt Hill
#
# Bulk Modulus (GPa) = 24.02356 36.87310 30.44833
# Shear Modulus (GPa) = 53.77817 21.61180 37.69499
#
# Velocity S-wave (km/s) = 4.95655 3.14211 4.14971
# Velocity P-wave (km/s) = 6.61295 5.47800 6.07205
#
# Compressibility (1/GPa) = 0.04162580
#
# Stress axis : x y z
#
# Youngs Moduli (GPa) = 45.36402 124.42342 56.25380
#
# Poissons Ratio (x) = 0.42204 -0.20285
# Poissons Ratio (y) = 0.15387 0.18732
# Poissons Ratio (z) = -0.16358 0.41431
#
# Static dielectric constant tensor:
#      x y z
#    x 4.279920 0.000000 -0.086440 
#    y 0.000000 4.223850 0.000000 
#    z -0.086440 0.000000 4.171980 
# 
# 
# High freq. dielectric constant tensor:
#      x y z
#    x 1.860900 0.000000 -0.002550 
#    y 0.000000 1.854000 0.000000 
#    z -0.002550 0.000000 1.872050 
# 
# From -- ./inp_files/190085.got.cif
#   From: 2010.06.25/outbox.cif.g09.slc.cpg/sg12_96_cif.got.tgz:190085.got - 2010.06.28 00:19:55.
