data_PCOD8094075
_publ_section_title
;
Structure prediction by ZEFSAII (Michael W. Deem and Ramdas Pophale) SiO2 
 PCOD8094075
Probable space group: C 2/M
;
_chemical_formula_sum "Si O2"
_cell_formula_units_Z 56
_cell_length_a 18.420736
_cell_length_b 28.287874
_cell_length_c 9.576797
_cell_angle_alpha 90.000000
_cell_angle_beta 37.247588
_cell_angle_gamma 90.000000
_cell_volume 3020.437722
_symmetry_space_group_name_H-M "C 2/M"
_symmetry_group_IT_number 12
_symmetry_cell_setting 'monoclinic'
loop_
_space_group_symop_operation_xyz
x,y,z
-x,y,-z
-x,-y,-z
x,-y,z
1/2+x,1/2+y,z
1/2-x,1/2+y,-z
1/2-x,1/2-y,-z
1/2+x,1/2-y,z
loop_
_atom_site_type_symbol
_atom_site_label
_atom_site_fract_x
_atom_site_fract_y
_atom_site_fract_z
Si Si1 0.521808 0.303104 0.307207
Si Si2 0.525122 0.052922 0.802136
Si Si3 0.868002 0.353101 0.427875
Si Si4 0.751077 0.644666 0.896074
Si Si5 0.621892 0.946883 0.232675
Si Si6 0.263905 0.705735 0.579514
Si Si7 0.609799 0.797054 0.087300
O O1 0.500000 0.316757 0.500000
O O2 0.401618 0.304405 0.401607
O O3 0.578434 0.251151 0.213824
O O4 0.610616 0.342798 0.107679
O O5 0.619260 0.090209 0.595792
O O6 0.403889 0.055799 0.894543
O O7 0.580071 0.000000 0.707299
O O8 0.500000 0.066648 0.000000
O O9 0.809237 0.337631 0.663140
O O10 0.784240 0.340209 0.426212
O O11 0.993858 0.326263 0.217278
O O12 0.771302 0.588608 0.889220
O O13 0.813320 0.671729 0.926606
O O14 0.500000 0.931943 0.500000
O O15 0.660451 0.000000 0.216983
O O16 0.250000 0.750000 0.500000
O O17 0.188801 0.716081 0.832930
#
# Coordination Sequence:
#
# PCOD8094075 Si02
#       7
#     8   8   8   8   8   8   8
#     4  12  26  42  61  85 120 166 208 245 296 367
#     4  10  20  34  56  90 127 156 189 246 313 362
#     4  12  23  37  62  90 122 156 198 256 309 356
#     4  12  23  39  62  89 123 160 199 249 306 367
#     4  10  19  36  62  94 124 152 198 255 306 357
#     4  12  26  42  59  86 120 164 207 253 298 361
#     4  12  23  40  62  87 120 159 203 256 304 352
#
# _framework density 18.540358000000001
#
# number of rings (size 3 to 8) (size 9 to 14) (size 15 to 20)
#    0.000    0.571    5.714    3.857    0.000    1.714 
#    0.000    0.000    0.000    1.286    0.000    2.000 
#    0.000    0.000    0.000    0.000    0.000    0.000 
#
# Total GULP energy -347293.967145 kJ/mol
# GULP energy per Si atom -12403.355969 kJ/mol
# Density = 1.849816 g / cm^3
# Si number density = 18.540358 Si / 1000 Ang^3
#
#
#
# Elastic Constant Matrix: (Units=GPa)
#
#
# Indices 1 2 3 4 5 6 
#
# 1 99.5827 26.7500 44.9937 0.0000 -12.1742 0.0000
# 2 26.7500 103.3368 46.4357 0.0000 -16.8831 0.0000
# 3 44.9937 46.4357 114.6559 0.0000 -2.3556 0.0000
# 4 0.0000 0.0000 0.0000 25.3845 0.0000 1.7738
# 5 -12.1742 -16.8831 -2.3556 0.0000 36.6843 0.0000
# 6 0.0000 0.0000 0.0000 1.7738 0.0000 29.1431
#
#
#
# Elastic Compliance Matrix: (Units=1/GPa)
#
#
# Indices 1 2 3 4 5 6 
#
# 1 0.012771 -0.000598 -0.004694 0.000000 0.003661 0.000000
# 2 -0.000598 0.012914 -0.004884 0.000000 0.005431 0.000000
# 3 -0.004694 -0.004884 0.012480 0.000000 -0.003004 0.000000
# 4 0.000000 0.000000 0.000000 0.039562 0.000000 -0.002408
# 5 0.003661 0.005431 -0.003004 0.000000 0.030781 0.000000
# 6 0.000000 0.000000 0.000000 -0.002408 0.000000 0.034460
#
#
# Mechanical properties :
#
#
# Convention : Reuss Voigt Hill
#
# Bulk Modulus (GPa) = 56.14009 61.54826 58.84417
# Shear Modulus (GPa) = 29.54052 31.53544 30.53798
#
# Velocity S-wave (km/s) = 3.99596 4.12868 4.06286
# Velocity P-wave (km/s) = 7.18581 7.48311 7.33597
#
# Compressibility (1/GPa) = 0.01781258
#
# Stress axis : x y z
#
# Youngs Moduli (GPa) = 78.30128 77.43596 80.12801
#
# Poissons Ratio (x) = 0.04634 0.37613
# Poissons Ratio (y) = 0.04686 0.39132
# Poissons Ratio (z) = 0.36756 0.37818
#
# Static dielectric constant tensor:
#      x y z
#    x 3.512630 0.000000 0.264310 
#    y 0.000000 3.558440 0.000000 
#    z 0.264310 0.000000 3.448170 
# 
# 
# High freq. dielectric constant tensor:
#      x y z
#    x 1.723380 0.000000 0.027120 
#    y 0.000000 1.721840 0.000000 
#    z 0.027120 0.000000 1.709910 
# 
# From -- ./inp_files/53148.got.cif
#   From: 2010.06.25/outbox.cif.g09.slc.cpg/sg12_27_cif.got.tgz:53148.got - 2010.06.28 00:19:55.
