data_PCOD8094742
_publ_section_title
;
Structure prediction by ZEFSAII (Michael W. Deem and Ramdas Pophale) SiO2 
 PCOD8094742
Probable space group: C 2/M
;
_chemical_formula_sum "Si O2"
_cell_formula_units_Z 56
_cell_length_a 14.640037
_cell_length_b 28.146798
_cell_length_c 9.610509
_cell_angle_alpha 90.000000
_cell_angle_beta 132.561488
_cell_angle_gamma 90.000000
_cell_volume 2916.895759
_symmetry_space_group_name_H-M "C 2/M"
_symmetry_group_IT_number 12
_symmetry_cell_setting 'monoclinic'
loop_
_space_group_symop_operation_xyz
x,y,z
-x,y,-z
-x,-y,-z
x,-y,z
1/2+x,1/2+y,z
1/2-x,1/2+y,-z
1/2-x,1/2-y,-z
1/2+x,1/2-y,z
loop_
_atom_site_type_symbol
_atom_site_label
_atom_site_fract_x
_atom_site_fract_y
_atom_site_fract_z
Si Si1 0.646081 0.053931 0.672456
Si Si2 0.321982 0.744006 0.431615
Si Si3 0.361508 0.687137 0.877033
Si Si4 0.511619 0.173986 0.356840
Si Si5 0.640729 0.364507 0.612917
Si Si6 0.745879 0.117329 0.547053
Si Si7 0.266740 0.867339 0.028824
O O1 0.500000 0.058440 0.500000
O O2 0.716302 0.070021 0.603756
O O3 0.690631 0.084692 0.850248
O O4 0.685259 0.000000 0.743525
O O5 0.250000 0.750000 0.500000
O O6 0.239301 0.770406 0.228884
O O7 0.454395 0.770333 0.589187
O O8 0.346126 0.690719 0.411110
O O9 0.339008 0.650946 0.727693
O O10 0.345208 0.658913 0.005194
O O11 0.500000 0.707549 0.000000
O O12 0.500000 0.150663 0.500000
O O13 0.619626 0.146418 0.386442
O O14 0.383854 0.168594 0.142291
O O15 0.500000 0.378204 0.500000
O O16 0.690145 0.395687 0.533811
O O17 0.723703 0.379081 0.829829
#
# Coordination Sequence:
#
# PCOD8094742 Si02
#       7
#     8   8   8   8   8   8   8
#     4  10  19  39  72 101 120 144 192 250 315 383
#     4  11  22  37  55  79 118 163 211 262 287 340
#     4  10  20  36  56  78 113 161 211 248 288 350
#     4  11  17  38  59  81 119 156 198 251 300 349
#     4  12  26  40  57  84 123 172 209 248 304 356
#     4  10  19  39  60  83 124 157 186 247 308 355
#     4  11  22  37  62  90 118 164 193 256 308 359
#
# _framework density 19.198492999999999
#
# number of rings (size 3 to 8) (size 9 to 14) (size 15 to 20)
#    0.000    1.286    8.571    1.286    0.000    2.286 
#    0.000    0.714    0.000   18.000    0.000    0.000 
#    0.000    0.000    0.000    0.000    0.000    0.000 
#
# Total GULP energy -347177.157086 kJ/mol
# GULP energy per Si atom -12399.184182 kJ/mol
# Density = 1.915480 g / cm^3
# Si number density = 19.198493 Si / 1000 Ang^3
#
#
#
# Elastic Constant Matrix: (Units=GPa)
#
#
# Indices 1 2 3 4 5 6 
#
# 1 122.9637 26.8077 50.2790 0.0000 -6.0773 0.0000
# 2 26.8077 93.0101 26.8981 0.0000 0.5913 0.0000
# 3 50.2790 26.8981 105.6566 0.0000 -4.7539 0.0000
# 4 0.0000 0.0000 0.0000 14.8749 0.0000 2.5614
# 5 -6.0773 0.5913 -4.7539 0.0000 38.7164 0.0000
# 6 0.0000 0.0000 0.0000 2.5614 0.0000 19.1920
#
#
#
# Elastic Compliance Matrix: (Units=1/GPa)
#
#
# Indices 1 2 3 4 5 6 
#
# 1 0.010382 -0.001711 -0.004455 0.000000 0.001109 0.000000
# 2 -0.001711 0.011899 -0.002248 0.000000 -0.000726 0.000000
# 3 -0.004455 -0.002248 0.012194 0.000000 0.000832 0.000000
# 4 0.000000 0.000000 0.000000 0.068809 0.000000 -0.009183
# 5 0.001109 -0.000726 0.000832 0.000000 0.026116 0.000000
# 6 0.000000 0.000000 0.000000 -0.009183 0.000000 0.053331
#
#
# Mechanical properties :
#
#
# Convention : Reuss Voigt Hill
#
# Bulk Modulus (GPa) = 56.66362 58.84443 57.75403
# Shear Modulus (GPa) = 24.33787 29.06638 26.70213
#
# Velocity S-wave (km/s) = 3.56434 3.89523 3.73345
# Velocity P-wave (km/s) = 6.82041 7.13775 6.98088
#
# Compressibility (1/GPa) = 0.01764801
#
# Stress axis : x y z
#
# Youngs Moduli (GPa) = 96.32136 84.03827 82.00540
#
# Poissons Ratio (x) = 0.14379 0.36533
# Poissons Ratio (y) = 0.16481 0.18433
# Poissons Ratio (z) = 0.42911 0.18890
#
# Static dielectric constant tensor:
#      x y z
#    x 3.942980 0.000000 0.038190 
#    y 0.000000 3.409870 0.000000 
#    z 0.038190 0.000000 3.394000 
# 
# 
# High freq. dielectric constant tensor:
#      x y z
#    x 1.760290 0.000000 0.004450 
#    y 0.000000 1.710550 0.000000 
#    z 0.004450 0.000000 1.733360 
# 
# From -- ./inp_files/68120.got.cif
#   From: 2010.06.25/outbox.cif.g09.slc.cpg/sg12_35_cif.got.tgz:68120.got - 2010.06.28 00:19:55.
