data_PCOD8094032
_publ_section_title
;
Structure prediction by ZEFSAII (Michael W. Deem and Ramdas Pophale) SiO2 
 PCOD8094032
Probable space group: C 2/M
;
_chemical_formula_sum "Si O2"
_cell_formula_units_Z 64
_cell_length_a 30.503460
_cell_length_b 17.028136
_cell_length_c 12.237269
_cell_angle_alpha 90.000000
_cell_angle_beta 31.111123
_cell_angle_gamma 90.000000
_cell_volume 3284.269622
_symmetry_space_group_name_H-M "C 2/M"
_symmetry_group_IT_number 12
_symmetry_cell_setting 'monoclinic'
loop_
_space_group_symop_operation_xyz
x,y,z
-x,y,-z
-x,-y,-z
x,-y,z
1/2+x,1/2+y,z
1/2-x,1/2+y,-z
1/2-x,1/2-y,-z
1/2+x,1/2-y,z
loop_
_atom_site_type_symbol
_atom_site_label
_atom_site_fract_x
_atom_site_fract_y
_atom_site_fract_z
Si Si1 0.403428 0.803505 0.977466
Si Si2 0.243536 0.908339 0.018886
Si Si3 0.738072 0.698794 0.818289
Si Si4 0.185715 0.089686 0.752688
Si Si5 0.009309 0.835392 0.110116
Si Si6 0.724783 0.088881 0.657966
Si Si7 0.924501 0.591692 0.737708
Si Si8 0.338570 0.648466 0.599675
O O1 0.474715 0.754685 0.889344
O O2 0.443561 0.868213 0.812911
O O3 0.347830 0.747397 0.017871
O O4 0.350950 0.848015 0.184879
O O5 0.230492 0.852019 0.943800
O O6 0.333548 0.885844 0.880916
O O7 0.239730 0.000000 0.992527
O O8 0.167326 0.888303 0.266230
O O9 0.749114 0.639415 0.693360
O O10 0.817594 0.758429 0.649870
O O11 0.208877 0.108927 0.578483
O O12 0.200476 0.000000 0.751774
O O13 0.087758 0.110991 0.980299
O O14 0.928788 0.866256 0.349947
O O15 0.000000 0.842400 0.000000
O O16 0.769604 0.099614 0.678623
O O17 0.690161 0.000000 0.721959
O O18 0.930387 0.500000 0.746807
O O19 0.000000 0.621522 0.500000
#
# Coordination Sequence:
#
# PCOD8094032 Si02
#       8
#     8   8   8   8   8   8   8   8
#     4  10  22  36  59  83 117 150 193 243 287 353
#     4  11  22  39  61  86 117 153 197 243 291 350
#     4  10  22  37  60  85 114 153 192 238 288 349
#     4  10  22  39  59  84 117 156 197 241 290 345
#     4  11  24  38  56  88 121 156 190 239 298 345
#     4  10  19  36  62  85 110 151 200 245 287 340
#     4  10  21  36  56  83 113 150 193 242 296 344
#     4  11  22  36  61  88 116 151 198 241 290 344
#
# _framework density 19.486827999999999
#
# number of rings (size 3 to 8) (size 9 to 14) (size 15 to 20)
#    0.000    1.625    3.750    1.500    3.500    2.750 
#    0.000    1.875    0.000    5.250    0.000    0.000 
#    0.000    0.000    0.000    0.000    0.000    0.000 
#
# Total GULP energy -396759.818248 kJ/mol
# GULP energy per Si atom -12398.744320 kJ/mol
# Density = 1.944248 g / cm^3
# Si number density = 19.486828 Si / 1000 Ang^3
#
#
#
# Elastic Constant Matrix: (Units=GPa)
#
#
# Indices 1 2 3 4 5 6 
#
# 1 47.1048 26.8440 19.0169 0.0000 21.7313 0.0000
# 2 26.8440 84.1811 26.2278 0.0000 12.9163 0.0000
# 3 19.0169 26.2278 103.0400 0.0000 15.5967 0.0000
# 4 0.0000 0.0000 0.0000 26.2598 0.0000 11.3030
# 5 21.7313 12.9163 15.5967 0.0000 27.0364 0.0000
# 6 0.0000 0.0000 0.0000 11.3030 0.0000 29.3049
#
#
#
# Elastic Compliance Matrix: (Units=1/GPa)
#
#
# Indices 1 2 3 4 5 6 
#
# 1 0.038325 -0.007828 -0.001078 0.000000 -0.026443 0.000000
# 2 -0.007828 0.015065 -0.002468 0.000000 0.000519 0.000000
# 3 -0.001078 -0.002468 0.011201 0.000000 -0.004416 0.000000
# 4 0.000000 0.000000 0.000000 0.045662 0.000000 -0.017612
# 5 -0.026443 0.000519 -0.004416 0.000000 0.060541 0.000000
# 6 0.000000 0.000000 0.000000 -0.017612 0.000000 0.040917
#
#
# Mechanical properties :
#
#
# Convention : Reuss Voigt Hill
#
# Bulk Modulus (GPa) = 23.89985 42.05590 32.97787
# Shear Modulus (GPa) = 20.12836 27.33603 23.73220
#
# Velocity S-wave (km/s) = 3.21740 3.74945 3.49357
# Velocity P-wave (km/s) = 5.10817 6.35398 5.76483
#
# Compressibility (1/GPa) = 0.04184127
#
# Stress axis : x y z
#
# Youngs Moduli (GPa) = 26.09280 66.37988 89.28082
#
# Poissons Ratio (x) = 0.51962 0.09625
# Poissons Ratio (y) = 0.20425 0.22038
# Poissons Ratio (z) = 0.02813 0.16385
#
# Static dielectric constant tensor:
#      x y z
#    x 3.416300 0.000000 0.125100 
#    y 0.000000 3.714500 0.000000 
#    z 0.125100 0.000000 3.598430 
# 
# 
# High freq. dielectric constant tensor:
#      x y z
#    x 1.740110 0.000000 0.020140 
#    y 0.000000 1.772290 0.000000 
#    z 0.020140 0.000000 1.756520 
# 
# From -- ./inp_files/190009.got.cif
#   From: 2010.06.25/outbox.cif.g09.slc.cpg/sg12_96_cif.got.tgz:190009.got - 2010.06.28 00:19:55.
