data_PCOD8094638
_publ_section_title
;
Structure prediction by ZEFSAII (Michael W. Deem and Ramdas Pophale) SiO2 
 PCOD8094638
Probable space group: C 2/M
;
_chemical_formula_sum "Si O2"
_cell_formula_units_Z 52
_cell_length_a 15.205353
_cell_length_b 10.117359
_cell_length_c 21.684914
_cell_angle_alpha 90.000000
_cell_angle_beta 125.746524
_cell_angle_gamma 90.000000
_cell_volume 2707.499928
_symmetry_space_group_name_H-M "C 2/M"
_symmetry_group_IT_number 12
_symmetry_cell_setting 'monoclinic'
loop_
_space_group_symop_operation_xyz
x,y,z
-x,y,-z
-x,-y,-z
x,-y,z
1/2+x,1/2+y,z
1/2-x,1/2+y,-z
1/2-x,1/2-y,-z
1/2+x,1/2-y,z
loop_
_atom_site_type_symbol
_atom_site_label
_atom_site_fract_x
_atom_site_fract_y
_atom_site_fract_z
Si Si1 0.904184 0.145341 0.725090
Si Si2 0.250562 0.847834 0.443353
Si Si3 0.118794 0.855206 0.575498
Si Si4 0.257171 0.000000 0.913872
Si Si5 0.631027 0.759204 0.824831
Si Si6 0.628622 0.000000 0.910598
Si Si7 0.121667 0.500000 0.155348
Si Si8 0.730286 0.270080 0.736654
O O1 0.865480 0.152683 0.637951
O O2 0.800551 0.164423 0.727187
O O3 0.000456 0.249743 0.772314
O O4 0.951074 0.000000 0.757913
O O5 0.250000 0.750000 0.500000
O O6 0.334397 0.778991 0.432386
O O7 0.284302 0.000000 0.473719
O O8 0.134379 0.836161 0.655788
O O9 0.000000 0.863343 0.500000
O O10 0.172743 0.000000 0.580755
O O11 0.183721 0.873682 0.871069
O O12 0.362004 0.000000 0.912052
O O13 0.294964 0.000000 0.999170
O O14 0.673214 0.793343 0.773216
O O15 0.662274 0.874708 0.883931
O O16 0.504348 0.000000 0.880328
O O17 0.179156 0.374111 0.207338
#
# Coordination Sequence:
#
# PCOD8094638 Si02
#       8
#     8   8   8   4   8   4   4   8
#     4  10  21  39  62  83 120 164 202 248 301 362
#     4  10  22  39  57  85 120 158 204 255 306 363
#     4  10  21  36  59  87 118 159 202 254 302 360
#     4  10  23  42  63  89 126 162 195 248 306 381
#     4  11  23  39  65  91 121 160 202 249 301 368
#     4  12  23  40  63  97 121 153 201 257 310 355
#     4  10  19  38  63  86 118 159 199 245 299 361
#     4  10  21  38  59  88 121 157 205 248 297 360
#
# _framework density 19.205908999999998
#
# number of rings (size 3 to 8) (size 9 to 14) (size 15 to 20)
#    0.000    1.692    3.077    1.154    3.231    0.308 
#    1.385    0.000    0.000    0.923    0.000    0.000 
#    0.000    0.000    0.000    0.000    0.000    0.000 
#
# Total GULP energy -322111.870613 kJ/mol
# GULP energy per Si atom -12388.918101 kJ/mol
# Density = 1.916220 g / cm^3
# Si number density = 19.205909 Si / 1000 Ang^3
#
#
#
# Elastic Constant Matrix: (Units=GPa)
#
#
# Indices 1 2 3 4 5 6 
#
# 1 97.8560 33.7352 50.2986 0.0000 -9.8294 0.0000
# 2 33.7352 124.6353 45.4843 0.0000 -15.3220 0.0000
# 3 50.2986 45.4843 122.1559 0.0000 -16.2724 0.0000
# 4 0.0000 0.0000 0.0000 30.1711 0.0000 -0.6925
# 5 -9.8294 -15.3220 -16.2724 0.0000 27.9295 0.0000
# 6 0.0000 0.0000 0.0000 -0.6925 0.0000 19.0217
#
#
#
# Elastic Compliance Matrix: (Units=1/GPa)
#
#
# Indices 1 2 3 4 5 6 
#
# 1 0.013348 -0.001775 -0.004704 0.000000 0.000983 0.000000
# 2 -0.001775 0.009818 -0.002483 0.000000 0.003314 0.000000
# 3 -0.004704 -0.002483 0.011542 0.000000 0.003707 0.000000
# 4 0.000000 0.000000 0.000000 0.033172 0.000000 0.001208
# 5 0.000983 0.003314 0.003707 0.000000 0.040128 0.000000
# 6 0.000000 0.000000 0.000000 0.001208 0.000000 0.052616
#
#
# Mechanical properties :
#
#
# Convention : Reuss Voigt Hill
#
# Bulk Modulus (GPa) = 59.58763 67.07594 63.33179
# Shear Modulus (GPa) = 27.15302 29.76639 28.45971
#
# Velocity S-wave (km/s) = 3.76411 3.94109 3.85362
# Velocity P-wave (km/s) = 7.06997 7.46392 7.26961
#
# Compressibility (1/GPa) = 0.01678201
#
# Stress axis : x y z
#
# Youngs Moduli (GPa) = 74.91881 101.85851 86.64383
#
# Poissons Ratio (x) = 0.18083 0.40758
# Poissons Ratio (y) = 0.13301 0.21514
# Poissons Ratio (z) = 0.35242 0.25292
#
# Static dielectric constant tensor:
#      x y z
#    x 3.584250 0.000000 -0.403800 
#    y 0.000000 3.564560 0.000000 
#    z -0.403800 0.000000 4.094230 
# 
# 
# High freq. dielectric constant tensor:
#      x y z
#    x 1.733180 0.000000 -0.005710 
#    y 0.000000 1.754270 0.000000 
#    z -0.005710 0.000000 1.756890 
# 
# From -- ./inp_files/314951.got.cif
#   From: 2010.06.25/outbox.cif.g09.slc.cpg/sg12_158_cif.got.tgz:314951.got - 2010.06.28 00:19:55.
