data_PCOD8094470
_publ_section_title
;
Structure prediction by ZEFSAII (Michael W. Deem and Ramdas Pophale) SiO2 
 PCOD8094470
Probable space group: C 2/M
;
_chemical_formula_sum "Si O2"
_cell_formula_units_Z 56
_cell_length_a 21.312653
_cell_length_b 16.473038
_cell_length_c 14.362011
_cell_angle_alpha 90.000000
_cell_angle_beta 148.055245
_cell_angle_gamma 90.000000
_cell_volume 2667.874019
_symmetry_space_group_name_H-M "C 2/M"
_symmetry_group_IT_number 12
_symmetry_cell_setting 'monoclinic'
loop_
_space_group_symop_operation_xyz
x,y,z
-x,y,-z
-x,-y,-z
x,-y,z
1/2+x,1/2+y,z
1/2-x,1/2+y,-z
1/2-x,1/2-y,-z
1/2+x,1/2-y,z
loop_
_atom_site_type_symbol
_atom_site_label
_atom_site_fract_x
_atom_site_fract_y
_atom_site_fract_z
Si Si1 0.866009 0.843627 0.172647
Si Si2 0.606694 0.593076 0.431566
Si Si3 0.639238 0.841467 0.772205
Si Si4 0.273949 0.407256 0.235248
Si Si5 0.790767 0.659329 0.531568
Si Si6 0.884480 0.403510 0.463016
Si Si7 0.485305 0.092007 0.091217
O O1 0.865217 0.753172 0.210844
O O2 0.863624 0.899104 0.262154
O O3 0.984684 0.858219 0.262747
O O4 0.756688 0.873079 0.971328
O O5 0.573794 0.500000 0.407264
O O6 0.670725 0.633008 0.602532
O O7 0.691840 0.600148 0.450098
O O8 0.522306 0.887264 0.662953
O O9 0.650025 0.858146 0.675750
O O10 0.249120 0.500000 0.230330
O O11 0.144290 0.370105 0.047054
O O12 0.750000 0.750000 0.500000
O O13 0.800338 0.636317 0.435082
O O14 0.918188 0.648564 0.739429
O O15 0.863712 0.500000 0.428069
O O16 0.501420 0.000000 0.149695
O O17 0.500000 0.093653 0.000000
#
# Coordination Sequence:
#
# PCOD8094470 Si02
#       7
#     8   8   8   8   8   8   8
#     4  11  23  39  63  93 133 165 206 261 324 381
#     4  11  23  39  60  93 132 167 202 251 320 395
#     4  10  24  42  65  95 122 164 219 269 316 366
#     4  10  21  35  61  95 124 164 207 256 319 377
#     4  12  25  40  63  94 131 171 209 262 326 377
#     4  11  24  44  70  93 123 171 224 270 311 372
#     4  10  19  37  64  90 121 161 212 266 309 364
#
# _framework density 20.990497999999999
#
# number of rings (size 3 to 8) (size 9 to 14) (size 15 to 20)
#    0.000    1.286    1.429    4.714    6.000    5.714 
#    0.000    0.714    0.000    1.714    0.000    0.000 
#    0.000    0.000    0.000    0.000    0.000    0.000 
#
# Total GULP energy -347218.474911 kJ/mol
# GULP energy per Si atom -12400.659818 kJ/mol
# Density = 2.094272 g / cm^3
# Si number density = 20.990498 Si / 1000 Ang^3
#
#
#
# Elastic Constant Matrix: (Units=GPa)
#
#
# Indices 1 2 3 4 5 6 
#
# 1 141.6777 22.3085 52.7257 0.0000 6.5368 0.0000
# 2 22.3085 78.2353 44.0632 0.0000 -6.9060 0.0000
# 3 52.7257 44.0632 119.5268 0.0000 5.1217 0.0000
# 4 0.0000 0.0000 0.0000 31.0580 0.0000 5.5750
# 5 6.5368 -6.9060 5.1217 0.0000 28.2380 0.0000
# 6 0.0000 0.0000 0.0000 5.5750 0.0000 30.4837
#
#
#
# Elastic Compliance Matrix: (Units=1/GPa)
#
#
# Indices 1 2 3 4 5 6 
#
# 1 0.008513 -0.000606 -0.003468 0.000000 -0.001490 0.000000
# 2 -0.000606 0.016926 -0.006204 0.000000 0.005405 0.000000
# 3 -0.003468 -0.006204 0.012310 0.000000 -0.002947 0.000000
# 4 0.000000 0.000000 0.000000 0.033291 0.000000 -0.006088
# 5 -0.001490 0.005405 -0.002947 0.000000 0.037615 0.000000
# 6 0.000000 0.000000 0.000000 -0.006088 0.000000 0.033918
#
#
# Mechanical properties :
#
#
# Convention : Reuss Voigt Hill
#
# Bulk Modulus (GPa) = 58.16408 64.18164 61.17286
# Shear Modulus (GPa) = 29.61055 32.64543 31.12799
#
# Velocity S-wave (km/s) = 3.75996 3.94794 3.85509
# Velocity P-wave (km/s) = 6.82785 7.17109 7.00158
#
# Compressibility (1/GPa) = 0.01719274
#
# Stress axis : x y z
#
# Youngs Moduli (GPa) = 117.46651 59.08056 81.23705
#
# Poissons Ratio (x) = 0.03578 0.28174
# Poissons Ratio (y) = 0.07114 0.50401
# Poissons Ratio (z) = 0.40740 0.36655
#
# Static dielectric constant tensor:
#      x y z
#    x 3.903520 0.000000 0.073400 
#    y 0.000000 3.611020 0.000000 
#    z 0.073400 0.000000 3.980760 
# 
# 
# High freq. dielectric constant tensor:
#      x y z
#    x 1.831830 0.000000 0.006310 
#    y 0.000000 1.811250 0.000000 
#    z 0.006310 0.000000 1.823390 
# 
# From -- ./inp_files/234745.got.cif
#   From: 2010.06.25/outbox.cif.g09.slc.cpg/sg12_118_cif.got.tgz:234745.got - 2010.06.28 00:19:55.
