data_PCOD8094944
_publ_section_title
;
Structure prediction by ZEFSAII (Michael W. Deem and Ramdas Pophale) SiO2 
 PCOD8094944
Probable space group: C 2/M
;
_chemical_formula_sum "Si O2"
_cell_formula_units_Z 56
_cell_length_a 19.032868
_cell_length_b 9.292674
_cell_length_c 20.409097
_cell_angle_alpha 90.000000
_cell_angle_beta 62.435225
_cell_angle_gamma 90.000000
_cell_volume 3199.939056
_symmetry_space_group_name_H-M "C 2/M"
_symmetry_group_IT_number 12
_symmetry_cell_setting 'monoclinic'
loop_
_space_group_symop_operation_xyz
x,y,z
-x,y,-z
-x,-y,-z
x,-y,z
1/2+x,1/2+y,z
1/2-x,1/2+y,-z
1/2-x,1/2-y,-z
1/2+x,1/2-y,z
loop_
_atom_site_type_symbol
_atom_site_label
_atom_site_fract_x
_atom_site_fract_y
_atom_site_fract_z
Si Si1 0.809889 0.669060 0.216871
Si Si2 0.725834 0.166561 0.914791
Si Si3 0.501299 0.172184 0.341470
Si Si4 0.363357 0.831487 0.917812
Si Si5 0.082944 0.343188 0.500236
Si Si6 0.027385 0.329201 0.791335
Si Si7 0.161483 0.327811 0.339999
O O1 0.798528 0.500000 0.234588
O O2 0.810787 0.704838 0.139520
O O3 0.892633 0.727971 0.209854
O O4 0.741142 0.753776 0.282718
O O5 0.805734 0.255825 0.890758
O O6 0.748691 0.000000 0.910459
O O7 0.660402 0.208497 0.997627
O O8 0.436253 0.236326 0.422020
O O9 0.480331 0.233375 0.278949
O O10 0.590380 0.220041 0.322139
O O11 0.496710 0.000000 0.346228
O O12 0.452661 0.776707 0.866809
O O13 0.356121 0.000000 0.907119
O O14 0.118852 0.500000 0.500827
O O15 0.142824 0.268570 0.422322
O O16 0.000000 0.363727 0.500000
O O17 0.028683 0.500000 0.788072
O O18 0.170916 0.500000 0.335880
#
# Coordination Sequence:
#
# PCOD8094944 Si02
#       7
#     8   8   8   8   8   8   8
#     4  10  20  31  42  62  94 124 145 171 215 265
#     4   9  18  31  47  68  92 115 140 177 224 263
#     4   8  13  24  45  69  87 107 144 190 223 249
#     4   9  17  31  51  70  86 110 148 186 214 250
#     4   7  11  21  40  66  88 105 136 185 228 253
#     4   9  17  28  43  64  89 118 150 179 210 255
#     4   9  16  28  48  69  86 110 148 188 220 253
#
# _framework density 17.500333999999999
#
# number of rings (size 3 to 8) (size 9 to 14) (size 15 to 20)
#    0.000    3.286    0.000    2.571    0.000    2.286 
#    0.000    4.286    0.000    4.714    0.000    5.000 
#    0.000    0.000    0.000    0.000    0.000    0.000 
#
# Total GULP energy -346924.152731 kJ/mol
# GULP energy per Si atom -12390.148312 kJ/mol
# Density = 1.746050 g / cm^3
# Si number density = 17.500334 Si / 1000 Ang^3
#
#
#
# Elastic Constant Matrix: (Units=GPa)
#
#
# Indices 1 2 3 4 5 6 
#
# 1 136.2889 28.0706 95.7086 0.0000 -6.8864 0.0000
# 2 28.0706 19.6016 30.8736 0.0001 -4.2195 0.0000
# 3 95.7086 30.8736 158.8096 0.0000 -4.5895 0.0000
# 4 0.0000 0.0001 0.0000 17.6162 0.0000 -4.9246
# 5 -6.8864 -4.2195 -4.5895 0.0000 9.5182 0.0001
# 6 0.0000 0.0000 0.0000 -4.9246 0.0001 19.1598
#
#
#
# Elastic Compliance Matrix: (Units=1/GPa)
#
#
# Indices 1 2 3 4 5 6 
#
# 1 0.013958 -0.008995 -0.006579 0.000000 0.002939 0.000000
# 2 -0.008995 0.086311 -0.010589 0.000000 0.026649 0.000000
# 3 -0.006579 -0.010589 0.012217 0.000000 -0.003563 0.000000
# 4 0.000000 0.000000 0.000000 0.061160 -0.000001 0.015720
# 5 0.002939 0.026649 -0.003563 -0.000001 0.117285 0.000000
# 6 0.000000 0.000000 0.000000 0.015720 0.000000 0.056233
#
#
# Mechanical properties :
#
#
# Convention : Reuss Voigt Hill
#
# Bulk Modulus (GPa) = 16.62159 69.33398 42.97779
# Shear Modulus (GPa) = 11.91777 19.92866 15.92321
#
# Velocity S-wave (km/s) = 2.61243 3.37821 3.01969
# Velocity P-wave (km/s) = 4.31488 7.41088 6.06380
#
# Compressibility (1/GPa) = 0.06016272
#
# Stress axis : x y z
#
# Youngs Moduli (GPa) = 71.64252 11.58603 81.85318
#
# Poissons Ratio (x) = 0.10421 0.53847
# Poissons Ratio (y) = 0.64440 0.86670
# Poissons Ratio (z) = 0.47130 0.12268
#
# Static dielectric constant tensor:
#      x y z
#    x 3.215730 0.000000 0.086510 
#    y 0.000000 2.777610 0.000000 
#    z 0.086510 0.000000 3.744250 
# 
# 
# High freq. dielectric constant tensor:
#      x y z
#    x 1.655860 0.000000 0.002270 
#    y 0.000000 1.621410 0.000000 
#    z 0.002270 0.000000 1.701460 
# 
# From -- ./inp_files/313668.got.cif
#   From: 2010.06.25/outbox.cif.g09.slc.cpg/sg12_157_cif.got.tgz:313668.got - 2010.06.28 00:19:55.
