data_PCOD8094174
_publ_section_title
;
Structure prediction by ZEFSAII (Michael W. Deem and Ramdas Pophale) SiO2 
 PCOD8094174
Probable space group: C 2/M
;
_chemical_formula_sum "Si O2"
_cell_formula_units_Z 48
_cell_length_a 12.569435
_cell_length_b 26.447431
_cell_length_c 7.478003
_cell_angle_alpha 90.000000
_cell_angle_beta 68.606994
_cell_angle_gamma 90.000000
_cell_volume 2314.628912
_symmetry_space_group_name_H-M "C 2/M"
_symmetry_group_IT_number 12
_symmetry_cell_setting 'monoclinic'
loop_
_space_group_symop_operation_xyz
x,y,z
-x,y,-z
-x,-y,-z
x,-y,z
1/2+x,1/2+y,z
1/2-x,1/2+y,-z
1/2-x,1/2-y,-z
1/2+x,1/2-y,z
loop_
_atom_site_type_symbol
_atom_site_label
_atom_site_fract_x
_atom_site_fract_y
_atom_site_fract_z
Si Si1 0.798871 0.679014 0.347982
Si Si2 0.865951 0.500000 0.030488
Si Si3 0.743214 0.601578 0.092631
Si Si4 0.926407 0.231173 0.388122
Si Si5 0.253672 0.898500 0.658511
Si Si6 0.994827 0.872746 0.208787
Si Si7 0.367398 0.000000 0.614499
O O1 0.803490 0.647438 0.161179
O O2 0.893980 0.723166 0.274581
O O3 0.679425 0.706460 0.445465
O O4 0.823089 0.644802 0.510100
O O5 0.845293 0.500000 0.835130
O O6 0.801478 0.550648 0.135741
O O7 0.000000 0.500000 0.000000
O O8 0.607573 0.601569 0.226913
O O9 0.760864 0.610368 0.868680
O O10 0.995635 0.187401 0.242434
O O11 0.000000 0.255824 0.500000
O O12 0.124443 0.898173 0.656322
O O13 0.309136 0.951131 0.563818
O O14 0.000000 0.884104 0.000000
O O15 0.500000 0.000000 0.500000
#
# Coordination Sequence:
#
# PCOD8094174 Si02
#       7
#     8   4   8   8   8   8   4
#     4  10  21  36  60  83 118 159 193 239 294 344
#     4  10  24  41  59  90 118 153 203 238 294 362
#     4  10  20  40  63  86 120 155 192 248 297 349
#     4  10  19  37  55  85 120 153 196 241 289 349
#     4   9  21  37  58  91 114 151 202 237 297 358
#     4   9  18  37  62  86 118 149 190 249 299 347
#     4  10  22  39  61  80 122 159 189 250 291 347
#
# _framework density 20.737665
#
# number of rings (size 3 to 8) (size 9 to 14) (size 15 to 20)
#    0.000    2.333    1.667    0.000    2.333    1.333 
#    6.000    6.667    0.000    3.000    0.000    0.000 
#    0.000    0.000    0.000    0.000    0.000    0.000 
#
# Total GULP energy -297381.392082 kJ/mol
# GULP energy per Si atom -12390.891337 kJ/mol
# Density = 2.069047 g / cm^3
# Si number density = 20.737665 Si / 1000 Ang^3
#
#
#
# Elastic Constant Matrix: (Units=GPa)
#
#
# Indices 1 2 3 4 5 6 
#
# 1 121.2625 91.8468 21.7904 0.0000 -0.9051 0.0000
# 2 91.8468 156.8478 33.8189 0.0000 -7.7361 0.0000
# 3 21.7904 33.8189 41.9952 0.0000 6.1517 0.0000
# 4 0.0000 0.0000 0.0000 28.7364 0.0000 0.5898
# 5 -0.9051 -7.7361 6.1517 0.0000 28.9672 0.0000
# 6 0.0000 0.0000 0.0000 0.5898 0.0000 41.9384
#
#
#
# Elastic Compliance Matrix: (Units=1/GPa)
#
#
# Indices 1 2 3 4 5 6 
#
# 1 0.014928 -0.008730 -0.000456 0.000000 -0.001768 0.000000
# 2 -0.008730 0.013178 -0.006769 0.000000 0.004684 0.000000
# 3 -0.000456 -0.006769 0.030723 0.000000 -0.008346 0.000000
# 4 0.000000 0.000000 0.000000 0.034809 0.000000 -0.000490
# 5 -0.001768 0.004684 -0.008346 0.000000 0.037490 0.000000
# 6 0.000000 0.000000 0.000000 -0.000490 0.000000 0.023851
#
#
# Mechanical properties :
#
#
# Convention : Reuss Voigt Hill
#
# Bulk Modulus (GPa) = 37.14954 68.33532 52.74243
# Shear Modulus (GPa) = 25.52809 31.43836 28.48323
#
# Velocity S-wave (km/s) = 3.51237 3.89781 3.71010
# Velocity P-wave (km/s) = 5.86531 7.29939 6.62129
#
# Compressibility (1/GPa) = 0.02691823
#
# Stress axis : x y z
#
# Youngs Moduli (GPa) = 66.98884 75.88181 32.54934
#
# Poissons Ratio (x) = 0.66247 0.01485
# Poissons Ratio (y) = 0.58483 0.22032
# Poissons Ratio (z) = 0.03056 0.51363
#
# Static dielectric constant tensor:
#      x y z
#    x 4.039960 0.000000 -0.033460 
#    y 0.000000 4.075200 0.000000 
#    z -0.033460 0.000000 3.551890 
# 
# 
# High freq. dielectric constant tensor:
#      x y z
#    x 1.816290 0.000000 0.008170 
#    y 0.000000 1.810090 0.000000 
#    z 0.008170 0.000000 1.795830 
# 
# From -- ./inp_files/51376.got.cif
#   From: 2010.06.25/outbox.cif.g09.slc.cpg/sg12_26_cif.got.tgz:51376.got - 2010.06.28 00:19:55.
