data_PCOD8094755
_publ_section_title
;
Structure prediction by ZEFSAII (Michael W. Deem and Ramdas Pophale) SiO2 
 PCOD8094755
Probable space group: C 2/M
;
_chemical_formula_sum "Si O2"
_cell_formula_units_Z 48
_cell_length_a 21.139946
_cell_length_b 16.359721
_cell_length_c 9.422751
_cell_angle_alpha 90.000000
_cell_angle_beta 130.348885
_cell_angle_gamma 90.000000
_cell_volume 2483.583006
_symmetry_space_group_name_H-M "C 2/M"
_symmetry_group_IT_number 12
_symmetry_cell_setting 'monoclinic'
loop_
_space_group_symop_operation_xyz
x,y,z
-x,y,-z
-x,-y,-z
x,-y,z
1/2+x,1/2+y,z
1/2-x,1/2+y,-z
1/2-x,1/2-y,-z
1/2+x,1/2-y,z
loop_
_atom_site_type_symbol
_atom_site_label
_atom_site_fract_x
_atom_site_fract_y
_atom_site_fract_z
Si Si1 0.253007 0.095049 0.113157
Si Si2 0.182748 0.807283 0.232025
Si Si3 0.420413 0.172998 0.801988
Si Si4 0.299739 0.678130 0.249547
Si Si5 0.084707 0.682694 0.542620
Si Si6 0.254667 0.090865 0.580406
O O1 0.178435 0.115147 0.118088
O O2 0.343167 0.118260 0.309002
O O3 0.251067 0.000000 0.071337
O O4 0.234152 0.150487 0.950419
O O5 0.098293 0.764154 0.160318
O O6 0.236818 0.741928 0.226717
O O7 0.229948 0.836981 0.439567
O O8 0.432431 0.177534 0.650338
O O9 0.351835 0.106434 0.747842
O O10 0.500000 0.140125 0.000000
O O11 0.388417 0.724853 0.371628
O O12 0.299974 0.599908 0.355068
O O13 0.000000 0.659531 0.500000
O O14 0.240160 0.000000 0.498239
#
# Coordination Sequence:
#
# PCOD8094755 Si02
#       6
#     8   8   8   8   8   8
#     4  11  23  38  61  91 119 150 193 242 294 345
#     4  10  19  39  62  81 112 156 204 240 277 335
#     4  11  23  37  59  89 118 152 199 237 284 349
#     4  10  20  39  59  85 114 157 202 236 274 345
#     4  11  23  38  59  86 120 158 191 235 291 346
#     4  11  20  37  63  87 116 150 194 248 294 334
#
# _framework density 19.326916000000001
#
# number of rings (size 3 to 8) (size 9 to 14) (size 15 to 20)
#    0.000    1.333    5.000    4.000    7.000    0.667 
#    0.000    0.000    0.000    6.000    0.000    0.000 
#    0.000    0.000    0.000    0.000    0.000    0.000 
#
# Total GULP energy -297359.173088 kJ/mol
# GULP energy per Si atom -12389.965545 kJ/mol
# Density = 1.928293 g / cm^3
# Si number density = 19.326916 Si / 1000 Ang^3
#
#
#
# Elastic Constant Matrix: (Units=GPa)
#
#
# Indices 1 2 3 4 5 6 
#
# 1 54.8248 7.9570 3.6981 0.0000 -20.6656 0.0000
# 2 7.9570 82.7278 14.6267 0.0000 -2.4971 0.0000
# 3 3.6981 14.6267 89.1475 0.0000 -27.4887 0.0000
# 4 0.0000 0.0000 0.0000 22.6122 0.0000 -7.4635
# 5 -20.6656 -2.4971 -27.4887 0.0000 24.8320 0.0000
# 6 0.0000 0.0000 0.0000 -7.4635 0.0000 20.5233
#
#
#
# Elastic Compliance Matrix: (Units=1/GPa)
#
#
# Indices 1 2 3 4 5 6 
#
# 1 0.033141 -0.004036 0.011640 0.000000 0.040059 0.000000
# 2 -0.004036 0.012979 -0.003940 0.000000 -0.006416 0.000000
# 3 0.011640 -0.003940 0.021628 0.000000 0.033233 0.000000
# 4 0.000000 0.000000 0.000000 0.050256 0.000000 0.018276
# 5 0.040059 -0.006416 0.033233 0.000000 0.109752 0.000000
# 6 0.000000 0.000000 0.000000 0.018276 0.000000 0.055371
#
#
# Mechanical properties :
#
#
# Convention : Reuss Voigt Hill
#
# Bulk Modulus (GPa) = 13.32016 31.02928 22.17472
# Shear Modulus (GPa) = 16.62087 26.95472 21.78779
#
# Velocity S-wave (km/s) = 2.93573 3.73858 3.36121
# Velocity P-wave (km/s) = 4.28933 5.89286 5.15384
#
# Compressibility (1/GPa) = 0.07507419
#
# Stress axis : x y z
#
# Youngs Moduli (GPa) = 30.17447 77.04695 46.23541
#
# Poissons Ratio (x) = 0.31099 -0.53817
# Poissons Ratio (y) = 0.12180 0.18219
# Poissons Ratio (z) = -0.35123 0.30360
#
# Static dielectric constant tensor:
#      x y z
#    x 3.844400 0.000000 -0.330340 
#    y 0.000000 3.722650 0.000000 
#    z -0.330340 0.000000 3.511780 
# 
# 
# High freq. dielectric constant tensor:
#      x y z
#    x 1.743260 0.000000 -0.032370 
#    y 0.000000 1.745850 0.000000 
#    z -0.032370 0.000000 1.747650 
# 
# From -- ./inp_files/88136.got.cif
#   From: 2010.06.25/outbox.cif.g09.slc.cpg/sg12_45_cif.got.tgz:88136.got - 2010.06.28 00:19:55.
