data_PCOD8094105
_publ_section_title
;
Structure prediction by ZEFSAII (Michael W. Deem and Ramdas Pophale) SiO2 
 PCOD8094105
Probable space group: C 2/M
;
_chemical_formula_sum "Si O2"
_cell_formula_units_Z 64
_cell_length_a 17.541796
_cell_length_b 27.829918
_cell_length_c 11.298381
_cell_angle_alpha 90.000000
_cell_angle_beta 142.693597
_cell_angle_gamma 90.000000
_cell_volume 3342.952549
_symmetry_space_group_name_H-M "C 2/M"
_symmetry_group_IT_number 12
_symmetry_cell_setting 'monoclinic'
loop_
_space_group_symop_operation_xyz
x,y,z
-x,y,-z
-x,-y,-z
x,-y,z
1/2+x,1/2+y,z
1/2-x,1/2+y,-z
1/2-x,1/2-y,-z
1/2+x,1/2-y,z
loop_
_atom_site_type_symbol
_atom_site_label
_atom_site_fract_x
_atom_site_fract_y
_atom_site_fract_z
Si Si1 0.144409 0.630986 0.720817
Si Si2 0.253628 0.140067 0.576343
Si Si3 0.679767 0.054181 0.946822
Si Si4 0.639872 0.379741 0.686406
Si Si5 0.360668 0.225759 0.834013
Si Si6 0.062377 0.554197 0.199954
Si Si7 0.349970 0.668757 0.792862
Si Si8 0.272413 0.802034 0.975153
O O1 0.179878 0.579357 0.819442
O O2 0.254588 0.639432 0.760606
O O3 0.000000 0.631495 0.500000
O O4 0.145963 0.669977 0.827917
O O5 0.175210 0.133867 0.597623
O O6 0.337268 0.187833 0.700065
O O7 0.330973 0.092515 0.638717
O O8 0.161650 0.149766 0.354366
O O9 0.538597 0.056517 0.820930
O O10 0.726132 0.000000 0.986008
O O11 0.772142 0.078284 0.156037
O O12 0.500000 0.399331 0.500000
O O13 0.647753 0.333205 0.785341
O O14 0.291542 0.277057 0.732689
O O15 0.345590 0.201293 0.942775
O O16 0.500000 0.244288 0.000000
O O17 0.118745 0.500000 0.259709
O O18 0.000000 0.569788 0.000000
O O19 0.500000 0.662038 0.000000
O O20 0.250000 0.750000 0.000000
#
# Coordination Sequence:
#
# PCOD8094105 Si02
#       8
#     8   8   8   8   8   8   8   8
#     4  11  24  41  64  92 121 165 212 253 308 366
#     4  11  22  37  62  89 121 159 205 249 304 369
#     4  10  22  41  66  92 121 154 199 260 317 366
#     4  10  23  36  60  91 119 159 202 252 308 363
#     4  10  22  37  60  90 121 161 206 258 308 357
#     4  10  19  36  63  95 121 145 190 258 320 359
#     4  11  25  42  58  86 129 170 203 249 303 370
#     4  10  21  40  58  83 123 162 206 258 301 361
#
# _framework density 19.144752
#
# number of rings (size 3 to 8) (size 9 to 14) (size 15 to 20)
#    0.000    1.625    2.500    1.500    8.750    1.000 
#    0.000    0.625    0.000    0.750    0.000    0.000 
#    0.000    0.000    0.000    0.000    0.000    0.000 
#
# Total GULP energy -396531.115841 kJ/mol
# GULP energy per Si atom -12391.597370 kJ/mol
# Density = 1.910118 g / cm^3
# Si number density = 19.144752 Si / 1000 Ang^3
#
#
#
# Elastic Constant Matrix: (Units=GPa)
#
#
# Indices 1 2 3 4 5 6 
#
# 1 82.3949 43.3854 51.0045 0.0000 -10.2336 0.0000
# 2 43.3854 124.1758 49.9041 0.0000 -17.3097 0.0000
# 3 51.0045 49.9041 120.3397 0.0000 -17.3198 0.0000
# 4 0.0000 0.0000 0.0000 13.1533 0.0000 1.6315
# 5 -10.2336 -17.3097 -17.3198 0.0000 31.6675 0.0000
# 6 0.0000 0.0000 0.0000 1.6315 0.0000 27.0911
#
#
#
# Elastic Compliance Matrix: (Units=1/GPa)
#
#
# Indices 1 2 3 4 5 6 
#
# 1 0.017863 -0.003794 -0.005932 0.000000 0.000454 0.000000
# 2 -0.003794 0.010809 -0.002389 0.000000 0.003376 0.000000
# 3 -0.005932 -0.002389 0.012321 0.000000 0.003516 0.000000
# 4 0.000000 0.000000 0.000000 0.076599 0.000000 -0.004613
# 5 0.000454 0.003376 0.003516 0.000000 0.035493 0.000000
# 6 0.000000 0.000000 0.000000 -0.004613 0.000000 0.037190
#
#
# Mechanical properties :
#
#
# Convention : Reuss Voigt Hill
#
# Bulk Modulus (GPa) = 59.65387 68.38871 64.02129
# Shear Modulus (GPa) = 22.71771 26.55680 24.63726
#
# Velocity S-wave (km/s) = 3.44848 3.72850 3.59122
# Velocity P-wave (km/s) = 6.86171 7.37123 7.12103
#
# Compressibility (1/GPa) = 0.01676337
#
# Stress axis : x y z
#
# Youngs Moduli (GPa) = 55.98175 92.51454 81.16364
#
# Poissons Ratio (x) = 0.35096 0.48150
# Poissons Ratio (y) = 0.21237 0.19388
# Poissons Ratio (z) = 0.33211 0.22099
#
# Static dielectric constant tensor:
#      x y z
#    x 3.377800 0.000000 -0.072570 
#    y 0.000000 3.771100 0.000000 
#    z -0.072570 0.000000 3.400200 
# 
# 
# High freq. dielectric constant tensor:
#      x y z
#    x 1.745300 0.000000 -0.013420 
#    y 0.000000 1.753420 0.000000 
#    z -0.013420 0.000000 1.734970 
# 
# From -- ./inp_files/161250.got.cif
#   From: 2010.06.25/outbox.cif.g09.slc.cpg/sg12_81_cif.got.tgz:161250.got - 2010.06.28 00:19:55.
