data_PCOD8094111
_publ_section_title
;
Structure prediction by ZEFSAII (Michael W. Deem and Ramdas Pophale) SiO2 
 PCOD8094111
Probable space group: C 2/M
;
_chemical_formula_sum "Si O2"
_cell_formula_units_Z 48
_cell_length_a 15.976495
_cell_length_b 25.888789
_cell_length_c 9.047694
_cell_angle_alpha 90.000000
_cell_angle_beta 35.600841
_cell_angle_gamma 90.000000
_cell_volume 2178.486075
_symmetry_space_group_name_H-M "C 2/M"
_symmetry_group_IT_number 12
_symmetry_cell_setting 'monoclinic'
loop_
_space_group_symop_operation_xyz
x,y,z
-x,y,-z
-x,-y,-z
x,-y,z
1/2+x,1/2+y,z
1/2-x,1/2+y,-z
1/2-x,1/2-y,-z
1/2+x,1/2-y,z
loop_
_atom_site_type_symbol
_atom_site_label
_atom_site_fract_x
_atom_site_fract_y
_atom_site_fract_z
Si Si1 0.468090 0.317730 0.810533
Si Si2 0.716245 0.343237 0.647881
Si Si3 0.318706 0.059310 0.626095
Si Si4 0.075085 0.557619 0.035487
Si Si5 0.512044 0.798172 0.312242
Si Si6 0.758411 0.619953 0.009026
O O1 0.632031 0.332197 0.616532
O O2 0.464190 0.262007 0.743895
O O3 0.366554 0.315535 0.099388
O O4 0.404084 0.360729 0.788933
O O5 0.715435 0.405610 0.670598
O O6 0.876227 0.319488 0.413485
O O7 0.474571 0.059604 0.325394
O O8 0.324027 0.088234 0.775572
O O9 0.262475 0.000000 0.721691
O O10 0.114211 0.500000 0.930305
O O11 0.226162 0.583758 0.867686
O O12 0.000000 0.584699 0.000000
O O13 0.500000 0.810686 0.500000
O O14 0.652384 0.829876 0.066015
#
# Coordination Sequence:
#
# PCOD8094111 Si02
#       6
#     8   8   8   8   8   8
#     4  10  23  37  56  81 120 152 194 245 291 341
#     4  10  21  41  57  84 120 150 197 250 287 349
#     4  10  19  36  64  88 113 153 195 240 297 346
#     4  10  20  35  56  88 122 149 188 245 295 346
#     4  12  20  37  58  81 115 159 195 244 289 343
#     4  11  20  38  59  89 115 149 198 246 285 348
#
# _framework density 22.033650000000002
#
# number of rings (size 3 to 8) (size 9 to 14) (size 15 to 20)
#    0.000    1.500    5.000    2.000    0.000    1.333 
#    6.000    7.500    0.000    0.000    0.000    3.500 
#    0.000    0.000    0.000    0.000    0.000    0.000 
#
# Total GULP energy -297360.168688 kJ/mol
# GULP energy per Si atom -12390.007029 kJ/mol
# Density = 2.198350 g / cm^3
# Si number density = 22.033650 Si / 1000 Ang^3
#
#
#
# Elastic Constant Matrix: (Units=GPa)
#
#
# Indices 1 2 3 4 5 6 
#
# 1 172.7863 66.3870 16.6870 0.0000 -25.7833 0.0000
# 2 66.3870 138.2469 12.2681 0.0000 -0.9588 0.0000
# 3 16.6870 12.2681 19.1887 0.0000 -11.5411 0.0000
# 4 0.0000 0.0000 0.0000 18.3631 0.0000 8.5104
# 5 -25.7833 -0.9588 -11.5411 0.0000 21.1907 0.0000
# 6 0.0000 0.0000 0.0000 8.5104 0.0000 31.5691
#
#
#
# Elastic Compliance Matrix: (Units=1/GPa)
#
#
# Indices 1 2 3 4 5 6 
#
# 1 0.009097 -0.004481 0.002215 0.000000 0.012072 0.000000
# 2 -0.004481 0.010050 -0.008230 0.000000 -0.009480 0.000000
# 3 0.002215 -0.008230 0.084539 0.000000 0.048365 0.000000
# 4 0.000000 0.000000 0.000000 0.062232 0.000000 -0.016777
# 5 0.012072 -0.009480 0.048365 0.000000 0.087791 0.000000
# 6 0.000000 0.000000 0.000000 -0.016777 0.000000 0.036199
#
#
# Mechanical properties :
#
#
# Convention : Reuss Voigt Hill
#
# Bulk Modulus (GPa) = 12.09292 57.87845 34.98568
# Shear Modulus (GPa) = 14.77255 29.88322 22.32788
#
# Velocity S-wave (km/s) = 2.59212 3.68673 3.18678
# Velocity P-wave (km/s) = 3.80251 6.66692 5.42711
#
# Compressibility (1/GPa) = 0.08269302
#
# Stress axis : x y z
#
# Youngs Moduli (GPa) = 109.93080 99.50367 11.82879
#
# Poissons Ratio (x) = 0.44588 -0.02620
# Poissons Ratio (y) = 0.49261 0.09735
# Poissons Ratio (z) = -0.24348 0.81894
#
# Static dielectric constant tensor:
#      x y z
#    x 4.423210 0.000000 -0.100010 
#    y 0.000000 4.191250 0.000000 
#    z -0.100010 0.000000 3.511460 
# 
# 
# High freq. dielectric constant tensor:
#      x y z
#    x 1.882390 0.000000 -0.001820 
#    y 0.000000 1.875560 0.000000 
#    z -0.001820 0.000000 1.812930 
# 
# From -- ./inp_files/67304.got.cif
#   From: 2010.06.25/outbox.cif.g09.slc.cpg/sg12_34_cif.got.tgz:67304.got - 2010.06.28 00:19:55.
