data_PCOD8094733
_publ_section_title
;
Structure prediction by ZEFSAII (Michael W. Deem and Ramdas Pophale) SiO2 
 PCOD8094733
Probable space group: C 2/M
;
_chemical_formula_sum "Si O2"
_cell_formula_units_Z 64
_cell_length_a 15.164906
_cell_length_b 24.370130
_cell_length_c 10.092936
_cell_angle_alpha 90.000000
_cell_angle_beta 118.932625
_cell_angle_gamma 90.000000
_cell_volume 3264.502732
_symmetry_space_group_name_H-M "C 2/M"
_symmetry_group_IT_number 12
_symmetry_cell_setting 'monoclinic'
loop_
_space_group_symop_operation_xyz
x,y,z
-x,y,-z
-x,-y,-z
x,-y,z
1/2+x,1/2+y,z
1/2-x,1/2+y,-z
1/2-x,1/2-y,-z
1/2+x,1/2-y,z
loop_
_atom_site_type_symbol
_atom_site_label
_atom_site_fract_x
_atom_site_fract_y
_atom_site_fract_z
Si Si1 0.076360 0.265153 0.937001
Si Si2 0.297846 0.129799 0.581460
Si Si3 0.056525 0.280495 0.412079
Si Si4 0.612335 0.064241 0.576904
Si Si5 0.756419 0.565017 0.079000
Si Si6 0.295820 0.863968 0.877873
Si Si7 0.606637 0.647006 0.876687
Si Si8 0.930174 0.154374 0.568524
O O1 0.123594 0.204418 0.964646
O O2 0.022559 0.282905 0.763471
O O3 0.162207 0.308676 0.028366
O O4 0.000000 0.266760 0.000000
O O5 0.342937 0.184667 0.547100
O O6 0.337267 0.078334 0.526870
O O7 0.337356 0.124396 0.761410
O O8 0.177250 0.125630 0.495201
O O9 0.092035 0.218731 0.465915
O O10 0.000000 0.304633 0.500000
O O11 0.500000 0.090150 0.500000
O O12 0.680647 0.085490 0.748126
O O13 0.604150 0.000000 0.583779
O O14 0.737385 0.500000 0.062595
O O15 0.818692 0.584204 0.992401
O O16 0.647939 0.597224 0.000259
O O17 0.174546 0.853155 0.790437
O O18 0.490224 0.641162 0.749223
O O19 0.000000 0.131554 0.500000
#
# Coordination Sequence:
#
# PCOD8094733 Si02
#       8
#     8   8   8   8   8   8   8   8
#     4  11  21  37  58  90 128 160 209 251 309 379
#     4  12  22  37  62  91 121 161 212 252 301 372
#     4  10  23  36  57  86 127 166 204 250 306 370
#     4  10  24  45  65  90 124 157 200 261 315 361
#     4   9  21  42  66  89 118 160 209 256 309 368
#     4  10  22  37  60  88 123 161 202 251 308 371
#     4   9  21  38  62  85 123 169 200 254 313 360
#     4  10  19  39  56  86 127 164 202 253 304 357
#
# _framework density 19.604824000000001
#
# number of rings (size 3 to 8) (size 9 to 14) (size 15 to 20)
#    0.750    1.125    2.500    1.125    3.500    2.500 
#    2.250    0.625    0.000    6.000    0.000    0.000 
#    0.000    0.000    0.000    0.000    0.000    0.000 
#
# Total GULP energy -396568.613612 kJ/mol
# GULP energy per Si atom -12392.769175 kJ/mol
# Density = 1.956020 g / cm^3
# Si number density = 19.604824 Si / 1000 Ang^3
#
#
#
# Elastic Constant Matrix: (Units=GPa)
#
#
# Indices 1 2 3 4 5 6 
#
# 1 112.2221 18.0442 48.6863 0.0000 -12.1740 0.0000
# 2 18.0442 64.3325 38.2184 0.0000 8.4119 0.0000
# 3 48.6863 38.2184 123.7694 0.0000 -13.6970 0.0000
# 4 0.0000 0.0000 0.0000 31.3034 0.0000 -0.9827
# 5 -12.1740 8.4119 -13.6970 0.0000 42.5495 0.0000
# 6 0.0000 0.0000 0.0000 -0.9827 0.0000 20.1185
#
#
#
# Elastic Compliance Matrix: (Units=1/GPa)
#
#
# Indices 1 2 3 4 5 6 
#
# 1 0.010939 -0.001147 -0.003710 0.000000 0.002163 0.000000
# 2 -0.001147 0.020681 -0.006661 0.000000 -0.006561 0.000000
# 3 -0.003710 -0.006661 0.012053 0.000000 0.004135 0.000000
# 4 0.000000 0.000000 0.000000 0.031994 0.000000 0.001563
# 5 0.002163 -0.006561 0.004135 0.000000 0.026749 0.000000
# 6 0.000000 0.000000 0.000000 0.001563 0.000000 0.049782
#
#
# Mechanical properties :
#
#
# Convention : Reuss Voigt Hill
#
# Bulk Modulus (GPa) = 48.45391 56.69131 52.57261
# Shear Modulus (GPa) = 27.45543 31.81930 29.63736
#
# Velocity S-wave (km/s) = 3.74631 4.03306 3.89233
# Velocity P-wave (km/s) = 6.59409 7.11809 6.86110
#
# Compressibility (1/GPa) = 0.02063817
#
# Stress axis : x y z
#
# Youngs Moduli (GPa) = 91.41343 48.35372 82.96588
#
# Poissons Ratio (x) = 0.05548 0.30776
# Poissons Ratio (y) = 0.10488 0.55262
# Poissons Ratio (z) = 0.33910 0.32207
#
# Static dielectric constant tensor:
#      x y z
#    x 3.498950 0.000000 -0.034540 
#    y 0.000000 3.337780 0.000000 
#    z -0.034540 0.000000 3.626600 
# 
# 
# High freq. dielectric constant tensor:
#      x y z
#    x 1.759090 0.000000 0.000410 
#    y 0.000000 1.743670 0.000000 
#    z 0.000410 0.000000 1.772460 
# 
# From -- ./inp_files/67021.got.cif
#   From: 2010.06.25/outbox.cif.g09.slc.cpg/sg12_34_cif.got.tgz:67021.got - 2010.06.28 00:19:55.
