data_PCOD8094020
_publ_section_title
;
Structure prediction by ZEFSAII (Michael W. Deem and Ramdas Pophale) SiO2 
 PCOD8094020
Probable space group: C 2/M
;
_chemical_formula_sum "Si O2"
_cell_formula_units_Z 52
_cell_length_a 12.358884
_cell_length_b 29.135269
_cell_length_c 11.705496
_cell_angle_alpha 90.000000
_cell_angle_beta 34.543775
_cell_angle_gamma 90.000000
_cell_volume 2390.003439
_symmetry_space_group_name_H-M "C 2/M"
_symmetry_group_IT_number 12
_symmetry_cell_setting 'monoclinic'
loop_
_space_group_symop_operation_xyz
x,y,z
-x,y,-z
-x,-y,-z
x,-y,z
1/2+x,1/2+y,z
1/2-x,1/2+y,-z
1/2-x,1/2-y,-z
1/2+x,1/2-y,z
loop_
_atom_site_type_symbol
_atom_site_label
_atom_site_fract_x
_atom_site_fract_y
_atom_site_fract_z
Si Si1 0.494225 0.858277 0.635099
Si Si2 0.211446 0.414484 0.768771
Si Si3 0.559927 0.949874 0.674631
Si Si4 0.000000 0.836176 0.500000
Si Si5 0.639208 0.450119 0.140238
Si Si6 0.433125 0.637344 0.932086
Si Si7 0.674005 0.698800 0.568110
O O1 0.500000 0.839764 0.500000
O O2 0.563679 0.911480 0.572500
O O3 0.636269 0.831995 0.596302
O O4 0.290004 0.851010 0.871212
O O5 0.209993 0.437913 0.645213
O O6 0.307451 0.364880 0.682584
O O7 0.342280 0.444864 0.739252
O O8 0.000000 0.407708 0.000000
O O9 0.613289 0.000000 0.577662
O O10 0.349832 0.950359 0.907430
O O11 0.036610 0.805034 0.578440
O O12 0.541609 0.500000 0.199296
O O13 0.522529 0.407441 0.186321
O O14 0.547284 0.682034 0.787229
O O15 0.500000 0.624190 0.000000
O O16 0.750000 0.750000 0.500000
#
# Coordination Sequence:
#
# PCOD8094020 Si02
#       7
#     8   8   8   4   8   8   8
#     4  11  23  43  69  95 136 180 224 279 337 399
#     4  10  19  36  61  91 133 177 220 273 327 387
#     4   9  18  34  60  95 134 181 224 269 330 391
#     4  12  24  42  71  98 130 170 225 280 340 408
#     4   9  18  34  60  96 137 180 223 269 326 396
#     4  11  23  43  71  97 134 184 225 274 342 403
#     4  12  28  47  70 101 132 169 225 292 348 412
#
# _framework density 21.757292
#
# number of rings (size 3 to 8) (size 9 to 14) (size 15 to 20)
#    0.000    1.538    4.615    0.462    1.077    3.077 
#    0.000    4.615    0.000    0.000    0.000    0.000 
#    0.000    0.000    0.000    0.000    0.000    0.000 
#
# Total GULP energy -322263.946454 kJ/mol
# GULP energy per Si atom -12394.767171 kJ/mol
# Density = 2.170777 g / cm^3
# Si number density = 21.757292 Si / 1000 Ang^3
#
#
#
# Elastic Constant Matrix: (Units=GPa)
#
#
# Indices 1 2 3 4 5 6 
#
# 1 117.7638 41.8624 23.7875 0.0000 0.3024 0.0000
# 2 41.8624 152.0303 33.1910 0.0000 -3.8070 0.0000
# 3 23.7875 33.1910 57.4842 0.0000 -11.4636 0.0000
# 4 0.0000 0.0000 0.0000 23.5300 0.0000 -1.0298
# 5 0.3024 -3.8070 -11.4636 0.0000 32.6323 0.0000
# 6 0.0000 0.0000 0.0000 -1.0298 0.0000 25.6432
#
#
#
# Elastic Compliance Matrix: (Units=1/GPa)
#
#
# Indices 1 2 3 4 5 6 
#
# 1 0.009871 -0.002059 -0.003185 0.000000 -0.001451 0.000000
# 2 -0.002059 0.007971 -0.003829 0.000000 -0.000396 0.000000
# 3 -0.003185 -0.003829 0.022412 0.000000 0.007456 0.000000
# 4 0.000000 0.000000 0.000000 0.042574 0.000000 0.001710
# 5 -0.001451 -0.000396 0.007456 0.000000 0.033231 0.000000
# 6 0.000000 0.000000 0.000000 0.001710 0.000000 0.039065
#
#
# Mechanical properties :
#
#
# Convention : Reuss Voigt Hill
#
# Bulk Modulus (GPa) = 45.23477 58.32889 51.78183
# Shear Modulus (GPa) = 27.67960 31.59026 29.63493
#
# Velocity S-wave (km/s) = 3.57066 3.81457 3.69463
# Velocity P-wave (km/s) = 6.15104 6.80208 6.48473
#
# Compressibility (1/GPa) = 0.02210689
#
# Stress axis : x y z
#
# Youngs Moduli (GPa) = 101.31164 125.46068 44.61907
#
# Poissons Ratio (x) = 0.25831 0.14211
# Poissons Ratio (y) = 0.20859 0.17086
# Poissons Ratio (z) = 0.32268 0.48042
#
# Static dielectric constant tensor:
#      x y z
#    x 4.250010 0.000000 -0.088930 
#    y 0.000000 4.048300 0.000000 
#    z -0.088930 0.000000 3.842840 
# 
# 
# High freq. dielectric constant tensor:
#      x y z
#    x 1.864910 0.000000 -0.012080 
#    y 0.000000 1.836290 0.000000 
#    z -0.012080 0.000000 1.850240 
# 
# From -- ./inp_files/137562.got.cif
#   From: 2010.06.25/outbox.cif.g09.slc.cpg/sg12_69_cif.got.tgz:137562.got - 2010.06.28 00:19:55.
