data_PCOD8094721
_publ_section_title
;
Structure prediction by ZEFSAII (Michael W. Deem and Ramdas Pophale) SiO2 
 PCOD8094721
Probable space group: C 2/M
;
_chemical_formula_sum "Si O2"
_cell_formula_units_Z 56
_cell_length_a 11.467727
_cell_length_b 14.642818
_cell_length_c 17.182489
_cell_angle_alpha 90.000000
_cell_angle_beta 74.898673
_cell_angle_gamma 90.000000
_cell_volume 2785.642228
_symmetry_space_group_name_H-M "C 2/M"
_symmetry_group_IT_number 12
_symmetry_cell_setting 'monoclinic'
loop_
_space_group_symop_operation_xyz
x,y,z
-x,y,-z
-x,-y,-z
x,-y,z
1/2+x,1/2+y,z
1/2-x,1/2+y,-z
1/2-x,1/2-y,-z
1/2+x,1/2-y,z
loop_
_atom_site_type_symbol
_atom_site_label
_atom_site_fract_x
_atom_site_fract_y
_atom_site_fract_z
Si Si1 0.804911 0.725333 0.730534
Si Si2 0.185716 0.603270 0.819571
Si Si3 0.518916 0.736152 0.586092
Si Si4 0.087071 0.600884 0.159532
Si Si5 0.863748 0.312358 0.007100
Si Si6 0.869794 0.598292 0.482778
Si Si7 0.167159 0.103121 0.647663
O O1 0.769997 0.829139 0.755411
O O2 0.851305 0.679363 0.801132
O O3 0.694123 0.663486 0.719349
O O4 0.899860 0.721427 0.644152
O O5 0.238108 0.500000 0.806762
O O6 0.180492 0.634871 0.909427
O O7 0.055538 0.607183 0.802090
O O8 0.500000 0.707440 0.500000
O O9 0.627597 0.813359 0.574880
O O10 0.549140 0.645147 0.628226
O O11 0.132849 0.500000 0.176758
O O12 0.117274 0.613942 0.063794
O O13 0.750000 0.250000 0.000000
O O14 0.000000 0.266363 0.000000
O O15 0.854672 0.500000 0.441502
O O16 0.770881 0.607426 0.565595
O O17 0.000000 0.602838 0.500000
O O18 0.140692 0.000000 0.679116
#
# Coordination Sequence:
#
# PCOD8094721 Si02
#       7
#     8   8   8   8   8   8   8
#     4  12  22  38  62  85 122 157 195 255 306 360
#     4  10  22  40  62  92 126 162 205 250 300 361
#     4  11  23  39  60  81 116 154 203 249 305 365
#     4  10  21  38  63  94 121 158 205 248 299 364
#     4  10  19  38  68  95 127 167 209 254 304 368
#     4   9  17  34  59  83 103 136 191 248 296 345
#     4  11  23  39  59  83 112 151 197 251 311 363
#
# _framework density 20.103083000000002
#
# number of rings (size 3 to 8) (size 9 to 14) (size 15 to 20)
#    0.000    1.571    4.286    2.143    0.000    3.143 
#    0.000    0.714    0.000    3.429    0.000    0.000 
#    0.000    0.000    0.000    0.000    0.000    0.000 
#
# Total GULP energy -346935.042128 kJ/mol
# GULP energy per Si atom -12390.537219 kJ/mol
# Density = 2.005733 g / cm^3
# Si number density = 20.103083 Si / 1000 Ang^3
#
#
#
# Elastic Constant Matrix: (Units=GPa)
#
#
# Indices 1 2 3 4 5 6 
#
# 1 71.2344 45.5536 13.0215 0.0000 13.7621 0.0000
# 2 45.5536 159.7023 32.7460 0.0000 10.9441 0.0000
# 3 13.0215 32.7460 70.1410 0.0000 12.2610 0.0000
# 4 0.0000 0.0000 0.0000 27.4260 0.0000 -1.0041
# 5 13.7621 10.9441 12.2610 0.0000 24.8914 0.0000
# 6 0.0000 0.0000 0.0000 -1.0041 0.0000 34.9547
#
#
#
# Elastic Compliance Matrix: (Units=1/GPa)
#
#
# Indices 1 2 3 4 5 6 
#
# 1 0.018677 -0.004804 0.000231 0.000000 -0.008328 0.000000
# 2 -0.004804 0.008218 -0.003039 0.000000 0.000540 0.000000
# 3 0.000231 -0.003039 0.016875 0.000000 -0.007104 0.000000
# 4 0.000000 0.000000 0.000000 0.036500 0.000000 0.001048
# 5 -0.008328 0.000540 -0.007104 0.000000 0.048041 0.000000
# 6 0.000000 0.000000 0.000000 0.001048 0.000000 0.028639
#
#
# Mechanical properties :
#
#
# Convention : Reuss Voigt Hill
#
# Bulk Modulus (GPa) = 35.03152 53.74665 44.38909
# Shear Modulus (GPa) = 27.51958 31.43819 29.47888
#
# Velocity S-wave (km/s) = 3.70391 3.95884 3.83350
# Velocity P-wave (km/s) = 5.97961 6.90581 6.45933
#
# Compressibility (1/GPa) = 0.02854572
#
# Stress axis : x y z
#
# Youngs Moduli (GPa) = 53.54178 121.68157 59.26017
#
# Poissons Ratio (x) = 0.58458 -0.01371
# Poissons Ratio (y) = 0.25722 0.18011
# Poissons Ratio (z) = -0.01238 0.36982
#
# Static dielectric constant tensor:
#      x y z
#    x 4.067810 0.000000 -0.274780 
#    y 0.000000 4.087690 0.000000 
#    z -0.274780 0.000000 3.646670 
# 
# 
# High freq. dielectric constant tensor:
#      x y z
#    x 1.770710 0.000000 0.001910 
#    y 0.000000 1.791240 0.000000 
#    z 0.001910 0.000000 1.779700 
# 
# From -- ./inp_files/262828.got.cif
#   From: 2010.06.25/outbox.cif.g09.slc.cpg/sg12_132_cif.got.tgz:262828.got - 2010.06.28 00:19:55.
