data_PCOD8094904
_publ_section_title
;
Structure prediction by ZEFSAII (Michael W. Deem and Ramdas Pophale) SiO2 
 PCOD8094904
Probable space group: C 2/M
;
_chemical_formula_sum "Si O2"
_cell_formula_units_Z 56
_cell_length_a 28.297121
_cell_length_b 13.933708
_cell_length_c 7.998010
_cell_angle_alpha 90.000000
_cell_angle_beta 79.058333
_cell_angle_gamma 90.000000
_cell_volume 3096.158528
_symmetry_space_group_name_H-M "C 2/M"
_symmetry_group_IT_number 12
_symmetry_cell_setting 'monoclinic'
loop_
_space_group_symop_operation_xyz
x,y,z
-x,y,-z
-x,-y,-z
x,-y,z
1/2+x,1/2+y,z
1/2-x,1/2+y,-z
1/2-x,1/2-y,-z
1/2+x,1/2-y,z
loop_
_atom_site_type_symbol
_atom_site_label
_atom_site_fract_x
_atom_site_fract_y
_atom_site_fract_z
Si Si1 0.417663 0.771397 0.677394
Si Si2 0.809729 0.706855 0.806594
Si Si3 0.417864 0.889175 0.355587
Si Si4 0.986748 0.753221 0.185257
Si Si5 0.308329 0.889142 0.451967
Si Si6 0.246174 0.613249 0.854561
Si Si7 0.947727 0.104255 0.458743
O O1 0.367173 0.797134 0.797443
O O2 0.431622 0.847957 0.527007
O O3 0.462904 0.775760 0.767132
O O4 0.412728 0.663994 0.604132
O O5 0.795285 0.670095 0.629396
O O6 0.792348 0.817082 0.839383
O O7 0.788687 0.638610 0.966300
O O8 0.452329 0.839882 0.195319
O O9 0.362287 0.866329 0.355533
O O10 0.429544 0.000000 0.343999
O O11 0.954711 0.837246 0.285134
O O12 0.000000 0.795867 0.000000
O O13 0.276270 0.862789 0.312444
O O14 0.302406 0.000000 0.505316
O O15 0.259981 0.500000 0.857029
O O16 0.000000 0.091593 0.500000
O O17 0.924135 0.000000 0.440694
#
# Coordination Sequence:
#
# PCOD8094904 Si02
#       7
#     8   8   8   8   8   8   8
#     4   9  19  33  50  73  96 133 175 206 250 299
#     4  10  20  35  55  78 104 141 170 215 266 309
#     4   9  18  33  50  71 101 136 171 206 244 295
#     4  10  20  30  46  74 104 133 166 210 249 301
#     4   9  18  34  56  79 105 137 174 213 257 312
#     4  10  21  35  54  80 106 134 174 217 261 316
#     4   8  15  31  51  68  90 125 166 205 247 295
#
# _framework density 18.086929999999999
#
# number of rings (size 3 to 8) (size 9 to 14) (size 15 to 20)
#    0.000    2.714    0.000    2.143    2.000    2.857 
#    0.000    0.000    0.000    0.000    0.000    0.000 
#    0.000    0.000    0.000    0.000    0.000    0.000 
#
# Total GULP energy -346952.155239 kJ/mol
# GULP energy per Si atom -12391.148401 kJ/mol
# Density = 1.804576 g / cm^3
# Si number density = 18.086930 Si / 1000 Ang^3
#
#
#
# Elastic Constant Matrix: (Units=GPa)
#
#
# Indices 1 2 3 4 5 6 
#
# 1 28.1350 7.5991 4.8069 0.0000 -8.8962 0.0000
# 2 7.5991 100.6540 24.1744 0.0000 -8.4752 0.0000
# 3 4.8069 24.1744 75.2614 0.0000 -11.0517 0.0000
# 4 0.0000 0.0000 0.0000 17.7841 0.0000 -0.7964
# 5 -8.8962 -8.4752 -11.0517 0.0000 22.8077 0.0000
# 6 0.0000 0.0000 0.0000 -0.7964 0.0000 22.7836
#
#
#
# Elastic Compliance Matrix: (Units=1/GPa)
#
#
# Indices 1 2 3 4 5 6 
#
# 1 0.040860 -0.001849 0.000241 0.000000 0.015367 0.000000
# 2 -0.001849 0.010984 -0.003140 0.000000 0.001839 0.000000
# 3 0.000241 -0.003140 0.015205 0.000000 0.006295 0.000000
# 4 0.000000 0.000000 0.000000 0.056318 0.000000 0.001969
# 5 0.015367 0.001839 0.006295 0.000000 0.053572 0.000000
# 6 0.000000 0.000000 0.000000 0.001969 0.000000 0.043960
#
#
# Mechanical properties :
#
#
# Convention : Reuss Voigt Hill
#
# Bulk Modulus (GPa) = 17.37543 30.80124 24.08833
# Shear Modulus (GPa) = 20.03376 23.83975 21.93675
#
# Velocity S-wave (km/s) = 3.33173 3.63445 3.48638
# Velocity P-wave (km/s) = 4.94247 5.88888 5.43631
#
# Compressibility (1/GPa) = 0.05755253
#
# Stress axis : x y z
#
# Youngs Moduli (GPa) = 24.47370 91.04530 65.76982
#
# Poissons Ratio (x) = 0.16831 -0.01583
# Poissons Ratio (y) = 0.04524 0.20651
# Poissons Ratio (z) = -0.00589 0.28587
#
# Static dielectric constant tensor:
#      x y z
#    x 3.043830 0.000000 -0.098320 
#    y 0.000000 3.644300 0.000000 
#    z -0.098320 0.000000 3.347370 
# 
# 
# High freq. dielectric constant tensor:
#      x y z
#    x 1.684740 0.000000 -0.006990 
#    y 0.000000 1.705340 0.000000 
#    z -0.006990 0.000000 1.698460 
# 
# From -- ./inp_files/96254.got.cif
#   From: 2010.06.25/outbox.cif.g09.slc.cpg/sg12_49_cif.got.tgz:96254.got - 2010.06.28 00:19:55.
