data_PCOD8094292
_publ_section_title
;
Structure prediction by ZEFSAII (Michael W. Deem and Ramdas Pophale) SiO2 
 PCOD8094292
Probable space group: C 2/M
;
_chemical_formula_sum "Si O2"
_cell_formula_units_Z 48
_cell_length_a 28.148783
_cell_length_b 18.912769
_cell_length_c 9.509844
_cell_angle_alpha 90.000000
_cell_angle_beta 28.102651
_cell_angle_gamma 90.000000
_cell_volume 2384.831104
_symmetry_space_group_name_H-M "C 2/M"
_symmetry_group_IT_number 12
_symmetry_cell_setting 'monoclinic'
loop_
_space_group_symop_operation_xyz
x,y,z
-x,y,-z
-x,-y,-z
x,-y,z
1/2+x,1/2+y,z
1/2-x,1/2+y,-z
1/2-x,1/2-y,-z
1/2+x,1/2-y,z
loop_
_atom_site_type_symbol
_atom_site_label
_atom_site_fract_x
_atom_site_fract_y
_atom_site_fract_z
Si Si1 0.107016 0.919266 0.788270
Si Si2 0.345134 0.151908 0.761659
Si Si3 0.561564 0.690179 0.124689
Si Si4 0.640709 0.688477 0.214577
Si Si5 0.677745 0.917748 0.885843
Si Si6 0.524610 0.842677 0.099199
O O1 0.201270 0.905935 0.438155
O O2 0.106154 0.000000 0.842672
O O3 0.121993 0.868499 0.880989
O O4 0.000000 0.898410 0.000000
O O5 0.346965 0.236099 0.744382
O O6 0.431698 0.124253 0.431130
O O7 0.232061 0.133132 0.003457
O O8 0.365170 0.121377 0.864233
O O9 0.632196 0.707072 0.072470
O O10 0.458632 0.655404 0.454005
O O11 0.543372 0.759944 0.079443
O O12 0.651510 0.000000 0.966123
O O13 0.624033 0.885832 0.887392
O O14 0.500000 0.854515 0.000000
#
# Coordination Sequence:
#
# PCOD8094292 Si02
#       6
#     8   8   8   8   8   8
#     4  10  22  39  60  86 121 158 199 248 302 364
#     4  10  20  39  59  85 123 158 196 247 297 357
#     4  10  19  37  60  90 123 155 196 251 303 357
#     4   9  19  34  61  90 117 154 199 246 298 356
#     4  11  24  42  63  87 120 166 208 244 301 365
#     4  11  24  38  60  93 123 158 206 252 301 353
#
# _framework density 20.127210999999999
#
# number of rings (size 3 to 8) (size 9 to 14) (size 15 to 20)
#    0.000    1.833    1.667    2.000    2.333    5.000 
#    0.000    2.500    0.000    0.000    0.000    0.000 
#    0.000    0.000    0.000    0.000    0.000    0.000 
#
# Total GULP energy -297524.208232 kJ/mol
# GULP energy per Si atom -12396.842010 kJ/mol
# Density = 2.008140 g / cm^3
# Si number density = 20.127211 Si / 1000 Ang^3
#
#
#
# Elastic Constant Matrix: (Units=GPa)
#
#
# Indices 1 2 3 4 5 6 
#
# 1 119.0695 16.7555 44.9471 0.0000 3.2335 0.0000
# 2 16.7555 56.9198 32.5230 0.0000 6.8385 0.0000
# 3 44.9471 32.5230 99.8226 0.0000 4.2972 0.0000
# 4 0.0000 0.0000 0.0000 27.7718 0.0000 0.2511
# 5 3.2335 6.8385 4.2972 0.0000 37.9326 0.0000
# 6 0.0000 0.0000 0.0000 0.2511 0.0000 19.4957
#
#
#
# Elastic Compliance Matrix: (Units=1/GPa)
#
#
# Indices 1 2 3 4 5 6 
#
# 1 0.010131 -0.000428 -0.004410 0.000000 -0.000287 0.000000
# 2 -0.000428 0.021977 -0.006832 0.000000 -0.003152 0.000000
# 3 -0.004410 -0.006832 0.014229 0.000000 -0.000004 0.000000
# 4 0.000000 0.000000 0.000000 0.036012 0.000000 -0.000464
# 5 -0.000287 -0.003152 -0.000004 0.000000 0.026956 0.000000
# 6 0.000000 0.000000 0.000000 -0.000464 0.000000 0.051299
#
#
# Mechanical properties :
#
#
# Convention : Reuss Voigt Hill
#
# Bulk Modulus (GPa) = 43.48243 51.58481 47.53362
# Shear Modulus (GPa) = 26.09464 29.14574 27.62019
#
# Velocity S-wave (km/s) = 3.60458 3.80949 3.70845
# Velocity P-wave (km/s) = 6.24297 6.71078 6.48110
#
# Compressibility (1/GPa) = 0.02299780
#
# Stress axis : x y z
#
# Youngs Moduli (GPa) = 98.70511 45.50254 70.27659
#
# Poissons Ratio (x) = 0.01948 0.30992
# Poissons Ratio (y) = 0.04225 0.48012
# Poissons Ratio (z) = 0.43528 0.31086
#
# Static dielectric constant tensor:
#      x y z
#    x 3.627840 0.000000 -0.255970 
#    y 0.000000 3.323890 0.000000 
#    z -0.255970 0.000000 3.956620 
# 
# 
# High freq. dielectric constant tensor:
#      x y z
#    x 1.785130 0.000000 -0.009500 
#    y 0.000000 1.756550 0.000000 
#    z -0.009500 0.000000 1.797850 
# 
# From -- ./inp_files/77271.got.cif
#   From: 2010.06.25/outbox.cif.g09.slc.cpg/sg12_39_cif.got.tgz:77271.got - 2010.06.28 00:19:55.
