data_PCOD8094072
_publ_section_title
;
Structure prediction by ZEFSAII (Michael W. Deem and Ramdas Pophale) SiO2 
 PCOD8094072
Probable space group: C 2/M
;
_chemical_formula_sum "Si O2"
_cell_formula_units_Z 36
_cell_length_a 9.771563
_cell_length_b 17.602072
_cell_length_c 10.534781
_cell_angle_alpha 90.000000
_cell_angle_beta 75.813244
_cell_angle_gamma 90.000000
_cell_volume 1756.718047
_symmetry_space_group_name_H-M "C 2/M"
_symmetry_group_IT_number 12
_symmetry_cell_setting 'monoclinic'
loop_
_space_group_symop_operation_xyz
x,y,z
-x,y,-z
-x,-y,-z
x,-y,z
1/2+x,1/2+y,z
1/2-x,1/2+y,-z
1/2-x,1/2-y,-z
1/2+x,1/2-y,z
loop_
_atom_site_type_symbol
_atom_site_label
_atom_site_fract_x
_atom_site_fract_y
_atom_site_fract_z
Si Si1 0.435349 0.267695 0.301309
Si Si2 0.261099 0.708629 0.864169
Si Si3 0.500000 0.160730 0.500000
Si Si4 0.758553 0.087563 0.310673
Si Si5 0.344316 0.586244 0.012849
O O1 0.603343 0.268843 0.248799
O O2 0.372983 0.227191 0.190803
O O3 0.406298 0.214402 0.429406
O O4 0.373683 0.352591 0.338880
O O5 0.250000 0.750000 0.000000
O O6 0.270082 0.620764 0.904682
O O7 0.604589 0.105713 0.399530
O O8 0.750701 0.098478 0.160105
O O9 0.801474 0.000000 0.333999
O O10 0.366505 0.500000 0.970908
O O11 0.500000 0.623667 0.000000
#
# Coordination Sequence:
#
# PCOD8094072 Si02
#       5
#     8   8   4   8   8
#     4  12  24  40  69  93 130 170 224 266 318 386
#     4  12  21  38  64 100 127 165 212 269 328 390
#     4  12  25  46  63  92 130 180 224 266 315 392
#     4  11  23  41  66  94 128 175 212 264 330 381
#     4  10  19  36  62  93 128 160 204 267 332 383
#
# _framework density 20.492759
#
# number of rings (size 3 to 8) (size 9 to 14) (size 15 to 20)
#    0.000    0.667    6.667    1.667    0.000    0.000 
#    0.000    2.778    0.000    4.000    0.000    0.000 
#    0.000    0.000    0.000    0.000    0.000    0.000 
#
# Total GULP energy -223173.958834 kJ/mol
# GULP energy per Si atom -12398.553269 kJ/mol
# Density = 2.044612 g / cm^3
# Si number density = 20.492759 Si / 1000 Ang^3
#
#
#
# Elastic Constant Matrix: (Units=GPa)
#
#
# Indices 1 2 3 4 5 6 
#
# 1 43.4872 23.0091 34.1911 0.0000 -2.1056 0.0000
# 2 23.0091 111.3318 44.5546 0.0000 5.8131 0.0000
# 3 34.1911 44.5546 102.2840 0.0000 -4.2470 0.0000
# 4 0.0000 0.0000 0.0000 35.3830 0.0000 -1.4236
# 5 -2.1056 5.8131 -4.2470 0.0000 45.5959 0.0000
# 6 0.0000 0.0000 0.0000 -1.4236 0.0000 27.3945
#
#
#
# Elastic Compliance Matrix: (Units=1/GPa)
#
#
# Indices 1 2 3 4 5 6 
#
# 1 0.031949 -0.002902 -0.009375 0.000000 0.000972 0.000000
# 2 -0.002902 0.011297 -0.004032 0.000000 -0.001950 0.000000
# 3 -0.009375 -0.004032 0.014727 0.000000 0.001453 0.000000
# 4 0.000000 0.000000 0.000000 0.028321 0.000000 0.001472
# 5 0.000972 -0.001950 0.001453 0.000000 0.022361 0.000000
# 6 0.000000 0.000000 0.000000 0.001472 0.000000 0.036580
#
#
# Mechanical properties :
#
#
# Convention : Reuss Voigt Hill
#
# Bulk Modulus (GPa) = 39.43961 51.17917 45.30939
# Shear Modulus (GPa) = 26.83760 32.03124 29.43442
#
# Velocity S-wave (km/s) = 3.62278 3.95783 3.79401
# Velocity P-wave (km/s) = 6.06522 6.77602 6.43045
#
# Compressibility (1/GPa) = 0.02535522
#
# Stress axis : x y z
#
# Youngs Moduli (GPa) = 31.29997 88.51697 67.90084
#
# Poissons Ratio (x) = 0.25685 0.63660
# Poissons Ratio (y) = 0.09082 0.27378
# Poissons Ratio (z) = 0.29345 0.35691
#
# Static dielectric constant tensor:
#      x y z
#    x 4.032870 0.000000 0.177480 
#    y 0.000000 4.267150 0.000000 
#    z 0.177480 0.000000 3.987310 
# 
# 
# High freq. dielectric constant tensor:
#      x y z
#    x 1.775790 0.000000 -0.021240 
#    y 0.000000 1.811360 0.000000 
#    z -0.021240 0.000000 1.813020 
# 
# From -- ./inp_files/118607.got.cif
#   From: 2010.06.25/outbox.cif.g09.slc.cpg/sg12_60_cif.got.tgz:118607.got - 2010.06.28 00:19:55.
