data_PCOD8094136
_publ_section_title
;
Structure prediction by ZEFSAII (Michael W. Deem and Ramdas Pophale) SiO2 
 PCOD8094136
Probable space group: C 2/M
;
_chemical_formula_sum "Si O2"
_cell_formula_units_Z 64
_cell_length_a 31.103692
_cell_length_b 17.617699
_cell_length_c 9.537243
_cell_angle_alpha 90.000000
_cell_angle_beta 142.759851
_cell_angle_gamma 90.000000
_cell_volume 3162.657223
_symmetry_space_group_name_H-M "C 2/M"
_symmetry_group_IT_number 12
_symmetry_cell_setting 'monoclinic'
loop_
_space_group_symop_operation_xyz
x,y,z
-x,y,-z
-x,-y,-z
x,-y,z
1/2+x,1/2+y,z
1/2-x,1/2+y,-z
1/2-x,1/2-y,-z
1/2+x,1/2-y,z
loop_
_atom_site_type_symbol
_atom_site_label
_atom_site_fract_x
_atom_site_fract_y
_atom_site_fract_z
Si Si1 0.379899 0.587888 0.945012
Si Si2 0.752600 0.088091 0.410335
Si Si3 0.015920 0.331500 0.373838
Si Si4 0.153769 0.909425 0.593516
Si Si5 0.103446 0.409827 0.121815
Si Si6 0.512401 0.683032 0.189264
Si Si7 0.632801 0.089822 0.512855
Si Si8 0.708347 0.410056 0.030846
O O1 0.402353 0.500000 0.998813
O O2 0.309405 0.604398 0.676044
O O3 0.444708 0.634945 0.056659
O O4 0.356116 0.616087 0.036549
O O5 0.784348 0.120079 0.348768
O O6 0.677594 0.125262 0.257184
O O7 0.737085 0.000000 0.354518
O O8 0.089907 0.373649 0.531246
O O9 0.000000 0.333416 0.500000
O O10 0.022912 0.246484 0.334466
O O11 0.955997 0.373285 0.128612
O O12 0.182569 0.880163 0.815262
O O13 0.079768 0.871865 0.360931
O O14 0.142935 0.000000 0.556307
O O15 0.098083 0.500000 0.092621
O O16 0.097151 0.387974 0.270543
O O17 0.500000 0.716296 0.000000
O O18 0.631965 0.000000 0.531944
O O19 0.713605 0.121973 0.727285
O O20 0.714541 0.500000 0.053321
#
# Coordination Sequence:
#
# PCOD8094136 Si02
#       8
#     8   8   8   8   8   8   8   8
#     4  10  19  36  64  95 122 154 200 248 295 354
#     4   9  17  33  61  97 124 145 193 252 298 352
#     4  12  29  44  57  86 123 160 204 251 299 356
#     4  10  21  36  61  96 126 157 198 248 301 350
#     4  10  20  40  70  95 119 154 194 244 302 362
#     4  12  25  42  61  82 122 171 206 246 294 351
#     4  10  20  41  70  94 119 154 195 243 301 366
#     4   9  19  35  61  96 127 152 188 246 307 356
#
# _framework density 20.236149000000001
#
# number of rings (size 3 to 8) (size 9 to 14) (size 15 to 20)
#    0.000    1.750    2.500    1.875    3.500    2.500 
#    0.000    4.375    0.000    0.000    0.000    0.000 
#    0.000    0.000    0.000    0.000    0.000    0.000 
#
# Total GULP energy -396637.385322 kJ/mol
# GULP energy per Si atom -12394.918291 kJ/mol
# Density = 2.019009 g / cm^3
# Si number density = 20.236149 Si / 1000 Ang^3
#
#
#
# Elastic Constant Matrix: (Units=GPa)
#
#
# Indices 1 2 3 4 5 6 
#
# 1 127.4575 24.5961 43.9429 0.0000 -4.7656 0.0000
# 2 24.5961 43.8791 21.2717 0.0000 0.9807 0.0000
# 3 43.9429 21.2717 80.7420 0.0000 -10.4985 0.0000
# 4 0.0000 0.0000 0.0000 -20.9608 0.0000 -29.5716
# 5 -4.7656 0.9807 -10.4985 0.0000 46.7854 0.0000
# 6 0.0000 0.0000 0.0000 -29.5716 0.0000 7.3305
#
#
#
# Elastic Compliance Matrix: (Units=1/GPa)
#
#
# Indices 1 2 3 4 5 6 
#
# 1 0.010090 -0.003439 -0.004576 0.000000 0.000073 0.000000
# 2 -0.003439 0.027512 -0.005662 0.000000 -0.002198 0.000000
# 3 -0.004576 -0.005662 0.016812 0.000000 0.003425 0.000000
# 4 0.000000 0.000000 0.000000 -0.007130 0.000000 -0.028762
# 5 0.000073 -0.002198 0.003425 0.000000 0.022196 0.000000
# 6 0.000000 0.000000 0.000000 -0.028762 0.000000 0.020387
#
#
# Mechanical properties :
#
#
# Convention : Reuss Voigt Hill
#
# Bulk Modulus (GPa) = 36.95479 47.96666 42.46072
# Shear Modulus (GPa) = 39.60675 17.44887 28.52781
#
# Velocity S-wave (km/s) = 4.42886 2.93962 3.75873
# Velocity P-wave (km/s) = 6.66742 5.93942 6.31392
#
# Compressibility (1/GPa) = 0.02706010
#
# Stress axis : x y z
#
# Youngs Moduli (GPa) = 99.11127 36.34826 59.47984
#
# Poissons Ratio (x) = 0.12501 0.27216
# Poissons Ratio (y) = 0.34086 0.33678
# Poissons Ratio (z) = 0.45350 0.20581
#
# Static dielectric constant tensor:
#      x y z
#    x 4.239350 0.000000 -0.017870 
#    y 0.000000 3.355980 0.000000 
#    z -0.017870 0.000000 3.748210 
# 
# 
# High freq. dielectric constant tensor:
#      x y z
#    x 1.816140 0.000000 0.003430 
#    y 0.000000 1.752120 0.000000 
#    z 0.003430 0.000000 1.795480 
# 
# From -- ./inp_files/112869.got.cif
#   From: 2010.06.25/outbox.cif.g09.slc.cpg/sg12_57_cif.got.tgz:112869.got - 2010.06.28 00:19:55.
