data_PCOD8094598
_publ_section_title
;
Structure prediction by ZEFSAII (Michael W. Deem and Ramdas Pophale) SiO2 
 PCOD8094598
Probable space group: C 2/M
;
_chemical_formula_sum "Si O2"
_cell_formula_units_Z 48
_cell_length_a 8.797591
_cell_length_b 26.583543
_cell_length_c 9.736616
_cell_angle_alpha 90.000000
_cell_angle_beta 86.214557
_cell_angle_gamma 90.000000
_cell_volume 2272.145433
_symmetry_space_group_name_H-M "C 2/M"
_symmetry_group_IT_number 12
_symmetry_cell_setting 'monoclinic'
loop_
_space_group_symop_operation_xyz
x,y,z
-x,y,-z
-x,-y,-z
x,-y,z
1/2+x,1/2+y,z
1/2-x,1/2+y,-z
1/2-x,1/2-y,-z
1/2+x,1/2-y,z
loop_
_atom_site_type_symbol
_atom_site_label
_atom_site_fract_x
_atom_site_fract_y
_atom_site_fract_z
Si Si1 0.846656 0.888620 0.771555
Si Si2 0.824227 0.557819 0.985700
Si Si3 0.642490 0.816826 0.418398
Si Si4 0.161155 0.555732 0.553952
Si Si5 0.808692 0.089901 0.288183
Si Si6 0.376350 0.291432 0.618917
O O1 0.780076 0.903102 0.923540
O O2 0.723479 0.907195 0.666883
O O3 0.872248 0.828618 0.751318
O O4 0.012119 0.913771 0.750378
O O5 0.789649 0.500000 0.030218
O O6 0.787061 0.565940 0.829173
O O7 0.000000 0.570937 0.000000
O O8 0.500000 0.845019 0.500000
O O9 0.745141 0.853627 0.320463
O O10 0.597035 0.766553 0.333018
O O11 0.718066 0.795280 0.551156
O O12 0.148530 0.500000 0.618847
O O13 0.282207 0.555966 0.423281
O O14 0.000000 0.573217 0.500000
O O15 0.500000 0.310454 0.500000
#
# Coordination Sequence:
#
# PCOD8094598 Si02
#       6
#     8   8   8   8   8   8
#     4  12  23  40  64  92 125 160 207 259 313 369
#     4  11  27  47  64  85 122 169 213 259 316 380
#     4  10  21  35  64  96 130 166 203 248 309 371
#     4  11  23  38  60  90 122 156 204 259 310 371
#     4  12  23  40  62  94 124 161 210 257 312 368
#     4  10  19  38  61  97 132 162 200 252 312 371
#
# _framework density 21.125406999999999
#
# number of rings (size 3 to 8) (size 9 to 14) (size 15 to 20)
#    0.000    1.000    3.333    3.500    2.333    6.667 
#    0.000    0.833    0.000    0.000    0.000    0.000 
#    0.000    0.000    0.000    0.000    0.000    0.000 
#
# Total GULP energy -297410.922848 kJ/mol
# GULP energy per Si atom -12392.121785 kJ/mol
# Density = 2.107732 g / cm^3
# Si number density = 21.125407 Si / 1000 Ang^3
#
#
#
# Elastic Constant Matrix: (Units=GPa)
#
#
# Indices 1 2 3 4 5 6 
#
# 1 100.5525 9.4302 -2.3953 0.0000 -3.6006 0.0000
# 2 9.4302 120.0686 9.1223 0.0000 -11.5866 0.0000
# 3 -2.3953 9.1223 58.5440 0.0000 -5.0334 0.0000
# 4 0.0000 0.0000 0.0000 22.0957 0.0000 -0.9365
# 5 -3.6006 -11.5866 -5.0334 0.0000 38.9603 0.0000
# 6 0.0000 0.0000 0.0000 -0.9365 0.0000 22.0761
#
#
#
# Elastic Compliance Matrix: (Units=1/GPa)
#
#
# Indices 1 2 3 4 5 6 
#
# 1 0.010059 -0.000760 0.000597 0.000000 0.000781 0.000000
# 2 -0.000760 0.008707 -0.001184 0.000000 0.002366 0.000000
# 3 0.000597 -0.001184 0.017459 0.000000 0.001959 0.000000
# 4 0.000000 0.000000 0.000000 0.045339 0.000000 0.001923
# 5 0.000781 0.002366 0.001959 0.000000 0.026696 0.000000
# 6 0.000000 0.000000 0.000000 0.001923 0.000000 0.045379
#
#
# Mechanical properties :
#
#
# Convention : Reuss Voigt Hill
#
# Bulk Modulus (GPa) = 29.82485 34.60884 32.21684
# Shear Modulus (GPa) = 29.84913 34.16029 32.00471
#
# Velocity S-wave (km/s) = 3.76300 4.02559 3.89651
# Velocity P-wave (km/s) = 5.74708 6.16646 5.96046
#
# Compressibility (1/GPa) = 0.03352908
#
# Stress axis : x y z
#
# Youngs Moduli (GPa) = 99.41826 114.85585 57.27861
#
# Poissons Ratio (x) = 0.08729 -0.03420
# Poissons Ratio (y) = 0.07556 0.06784
# Poissons Ratio (z) = -0.05936 0.13603
#
# Static dielectric constant tensor:
#      x y z
#    x 4.060940 0.000000 0.030440 
#    y 0.000000 4.122010 0.000000 
#    z 0.030440 0.000000 3.522480 
# 
# 
# High freq. dielectric constant tensor:
#      x y z
#    x 1.850120 0.000000 -0.000960 
#    y 0.000000 1.840760 0.000000 
#    z -0.000960 0.000000 1.786260 
# 
# From -- ./inp_files/42137.got.cif
#   From: 2010.06.25/outbox.cif.g09.slc.cpg/sg12_22_cif.got.tgz:42137.got - 2010.06.28 00:19:55.
