data_PCOD8094421
_publ_section_title
;
Structure prediction by ZEFSAII (Michael W. Deem and Ramdas Pophale) SiO2 
 PCOD8094421
Probable space group: C 2/M
;
_chemical_formula_sum "Si O2"
_cell_formula_units_Z 56
_cell_length_a 21.044937
_cell_length_b 22.386325
_cell_length_c 11.342058
_cell_angle_alpha 90.000000
_cell_angle_beta 34.380275
_cell_angle_gamma 90.000000
_cell_volume 3017.358712
_symmetry_space_group_name_H-M "C 2/M"
_symmetry_group_IT_number 12
_symmetry_cell_setting 'monoclinic'
loop_
_space_group_symop_operation_xyz
x,y,z
-x,y,-z
-x,-y,-z
x,-y,z
1/2+x,1/2+y,z
1/2-x,1/2+y,-z
1/2-x,1/2-y,-z
1/2+x,1/2-y,z
loop_
_atom_site_type_symbol
_atom_site_label
_atom_site_fract_x
_atom_site_fract_y
_atom_site_fract_z
Si Si1 0.129789 0.068622 0.301242
Si Si2 0.666421 0.335716 0.064456
Si Si3 0.333922 0.742303 0.500302
Si Si4 0.972561 0.860419 0.178593
Si Si5 0.125571 0.325047 0.754851
Si Si6 0.620292 0.767886 0.315523
Si Si7 0.216506 0.068256 0.428252
O O1 0.190458 0.080544 0.331499
O O2 0.000000 0.089525 0.500000
O O3 0.138678 0.000000 0.248915
O O4 0.192190 0.108659 0.109438
O O5 0.786076 0.318714 0.826178
O O6 0.585177 0.355732 0.083742
O O7 0.622571 0.278055 0.203090
O O8 0.395568 0.696401 0.319688
O O9 0.200309 0.727131 0.702401
O O10 0.367673 0.807870 0.395863
O O11 0.371588 0.731088 0.575625
O O12 0.899195 0.918702 0.324711
O O13 0.000000 0.864532 0.000000
O O14 0.178965 0.390502 0.692419
O O15 0.000000 0.323636 0.000000
O O16 0.500000 0.800869 0.500000
O O17 0.251910 0.000000 0.396983
#
# Coordination Sequence:
#
# PCOD8094421 Si02
#       7
#     8   8   8   8   8   8   8
#     4  10  19  37  63  86 111 143 189 244 287 331
#     4  11  22  35  58  87 115 150 193 228 288 341
#     4  10  22  37  57  83 116 156 193 226 288 340
#     4  11  22  36  59  85 119 150 189 237 283 343
#     4  10  22  36  57  83 117 154 192 236 280 348
#     4  11  23  37  55  84 121 153 182 239 277 340
#     4  10  22  39  60  87 113 147 195 244 290 333
#
# _framework density 18.559279
#
# number of rings (size 3 to 8) (size 9 to 14) (size 15 to 20)
#    0.000    1.571    2.857    2.571    8.000    1.714 
#    0.000    0.000    0.000    0.429    0.000    0.000 
#    0.000    0.000    0.000    0.000    0.000    0.000 
#
# Total GULP energy -347088.490141 kJ/mol
# GULP energy per Si atom -12396.017505 kJ/mol
# Density = 1.851704 g / cm^3
# Si number density = 18.559279 Si / 1000 Ang^3
#
#
#
# Elastic Constant Matrix: (Units=GPa)
#
#
# Indices 1 2 3 4 5 6 
#
# 1 86.6334 31.8824 57.2983 0.0000 10.7406 0.0000
# 2 31.8824 95.7258 50.5881 0.0000 0.0983 0.0000
# 3 57.2983 50.5881 133.0445 -0.0004 -13.7196 0.0001
# 4 0.0000 0.0000 -0.0004 24.0351 0.0002 0.8925
# 5 10.7406 0.0983 -13.7196 0.0002 31.2142 -0.0001
# 6 0.0000 0.0000 0.0001 0.8925 -0.0001 24.6525
#
#
#
# Elastic Compliance Matrix: (Units=1/GPa)
#
#
# Indices 1 2 3 4 5 6 
#
# 1 0.019237 -0.001815 -0.008670 0.000000 -0.010424 0.000000
# 2 -0.001815 0.013409 -0.004459 0.000000 -0.001378 0.000000
# 3 -0.008670 -0.004459 0.013884 0.000000 0.009100 0.000000
# 4 0.000000 0.000000 0.000000 0.041662 0.000000 -0.001508
# 5 -0.010424 -0.001378 0.009100 0.000000 0.039628 0.000000
# 6 0.000000 0.000000 0.000000 -0.001508 0.000000 0.040618
#
#
# Mechanical properties :
#
#
# Convention : Reuss Voigt Hill
#
# Bulk Modulus (GPa) = 60.08582 66.10459 63.09521
# Shear Modulus (GPa) = 24.52512 27.68936 26.10724
#
# Velocity S-wave (km/s) = 3.63912 3.86676 3.75466
# Velocity P-wave (km/s) = 7.07834 7.45863 7.27097
#
# Compressibility (1/GPa) = 0.01664286
#
# Stress axis : x y z
#
# Youngs Moduli (GPa) = 51.98240 74.57808 72.02536
#
# Poissons Ratio (x) = 0.13534 0.62445
# Poissons Ratio (y) = 0.09433 0.32116
# Poissons Ratio (z) = 0.45068 0.33255
#
# Static dielectric constant tensor:
#      x y z
#    x 3.501500 0.000000 -0.028400 
#    y 0.000000 3.326130 0.000000 
#    z -0.028400 0.000000 3.464080 
# 
# 
# High freq. dielectric constant tensor:
#      x y z
#    x 1.729730 0.000000 -0.001500 
#    y 0.000000 1.700930 0.000000 
#    z -0.001500 0.000000 1.715630 
# 
# From -- ./inp_files/170292.got.cif
#   From: 2010.06.25/outbox.cif.g09.slc.cpg/sg12_86_cif.got.tgz:170292.got - 2010.06.28 00:19:55.
