data_PCOD8094564
_publ_section_title
;
Structure prediction by ZEFSAII (Michael W. Deem and Ramdas Pophale) SiO2 
 PCOD8094564
Probable space group: C 2/M
;
_chemical_formula_sum "Si O2"
_cell_formula_units_Z 56
_cell_length_a 11.306666
_cell_length_b 32.847240
_cell_length_c 9.262162
_cell_angle_alpha 90.000000
_cell_angle_beta 55.651375
_cell_angle_gamma 90.000000
_cell_volume 2840.049397
_symmetry_space_group_name_H-M "C 2/M"
_symmetry_group_IT_number 12
_symmetry_cell_setting 'monoclinic'
loop_
_space_group_symop_operation_xyz
x,y,z
-x,y,-z
-x,-y,-z
x,-y,z
1/2+x,1/2+y,z
1/2-x,1/2+y,-z
1/2-x,1/2-y,-z
1/2+x,1/2-y,z
loop_
_atom_site_type_symbol
_atom_site_label
_atom_site_fract_x
_atom_site_fract_y
_atom_site_fract_z
Si Si1 0.156256 0.587534 0.847464
Si Si2 0.579199 0.759747 0.601945
Si Si3 0.637767 0.546367 0.498354
Si Si4 0.737237 0.126822 0.066093
Si Si5 0.322650 0.382491 0.314568
Si Si6 0.079660 0.649217 0.672316
Si Si7 0.037037 0.187686 0.136895
O O1 0.224783 0.553415 0.698347
O O2 0.152018 0.631176 0.767598
O O3 0.250628 0.594763 0.925945
O O4 0.000000 0.571712 0.000000
O O5 0.500000 0.762662 0.500000
O O6 0.750000 0.750000 0.500000
O O7 0.565606 0.802510 0.692104
O O8 0.482532 0.726951 0.750939
O O9 0.500000 0.557337 0.500000
O O10 0.637847 0.500000 0.552714
O O11 0.640264 0.575060 0.635708
O O12 0.826166 0.109426 0.140408
O O13 0.576346 0.130213 0.231481
O O14 0.800005 0.170854 0.973887
O O15 0.169772 0.364606 0.470527
O O16 0.439957 0.348381 0.270051
O O17 0.000000 0.200393 0.000000
#
# Coordination Sequence:
#
# PCOD8094564 Si02
#       7
#     8   8   8   8   8   8   8
#     4   9  20  37  60  86 114 152 194 237 296 349
#     4  12  26  41  60  87 124 165 210 256 306 360
#     4  10  21  37  60  87 116 150 189 234 289 361
#     4  10  20  35  59  87 110 154 195 250 291 348
#     4  10  19  38  60  80 114 152 194 239 292 357
#     4  10  21  38  59  80 117 156 202 242 295 353
#     4  10  23  37  57  84 117 152 202 247 304 345
#
# _framework density 19.717967999999999
#
# number of rings (size 3 to 8) (size 9 to 14) (size 15 to 20)
#    0.000    1.857    1.429    2.143    4.000    3.143 
#    0.000    0.714    0.000   16.714    0.000    0.000 
#    0.000    0.000    0.000    0.000    0.000    0.000 
#
# Total GULP energy -347063.591290 kJ/mol
# GULP energy per Si atom -12395.128260 kJ/mol
# Density = 1.967309 g / cm^3
# Si number density = 19.717968 Si / 1000 Ang^3
#
#
#
# Elastic Constant Matrix: (Units=GPa)
#
#
# Indices 1 2 3 4 5 6 
#
# 1 81.9558 32.9579 30.6621 0.0000 6.0879 0.0000
# 2 32.9579 108.7718 36.4311 0.0000 13.1743 0.0000
# 3 30.6621 36.4311 84.0414 0.0000 2.5285 0.0000
# 4 0.0000 0.0000 0.0000 24.9906 0.0000 -1.0950
# 5 6.0879 13.1743 2.5285 0.0000 22.4791 0.0000
# 6 0.0000 0.0000 0.0000 -1.0950 0.0000 17.1642
#
#
#
# Elastic Compliance Matrix: (Units=1/GPa)
#
#
# Indices 1 2 3 4 5 6 
#
# 1 0.015087 -0.002945 -0.004171 0.000000 -0.001891 0.000000
# 2 -0.002945 0.012140 -0.004011 0.000000 -0.005866 0.000000
# 3 -0.004171 -0.004011 0.015106 0.000000 0.001781 0.000000
# 4 0.000000 0.000000 0.000000 0.040127 0.000000 0.002560
# 5 -0.001891 -0.005866 0.001781 0.000000 0.048235 0.000000
# 6 0.000000 0.000000 0.000000 0.002560 0.000000 0.058424
#
#
# Mechanical properties :
#
#
# Convention : Reuss Voigt Hill
#
# Bulk Modulus (GPa) = 49.80658 52.76347 51.28503
# Shear Modulus (GPa) = 22.92866 24.57463 23.75164
#
# Velocity S-wave (km/s) = 3.41373 3.53414 3.47445
# Velocity P-wave (km/s) = 6.39159 6.59323 6.49319
#
# Compressibility (1/GPa) = 0.02007767
#
# Stress axis : x y z
#
# Youngs Moduli (GPa) = 66.28214 82.37173 66.19931
#
# Poissons Ratio (x) = 0.24262 0.27610
# Poissons Ratio (y) = 0.19523 0.26556
# Poissons Ratio (z) = 0.27644 0.33043
#
# Static dielectric constant tensor:
#      x y z
#    x 3.723470 0.000000 -0.086250 
#    y 0.000000 3.327720 0.000000 
#    z -0.086250 0.000000 3.795600 
# 
# 
# High freq. dielectric constant tensor:
#      x y z
#    x 1.773760 0.000000 -0.006580 
#    y 0.000000 1.743210 0.000000 
#    z -0.006580 0.000000 1.783370 
# 
# From -- ./inp_files/54596.got.cif
#   From: 2010.06.25/outbox.cif.g09.slc.cpg/sg12_28_cif.got.tgz:54596.got - 2010.06.28 00:19:55.
