data_PCOD8094271
_publ_section_title
;
Structure prediction by ZEFSAII (Michael W. Deem and Ramdas Pophale) SiO2 
 PCOD8094271
Probable space group: C 2/M
;
_chemical_formula_sum "Si O2"
_cell_formula_units_Z 64
_cell_length_a 18.880843
_cell_length_b 17.457071
_cell_length_c 12.254943
_cell_angle_alpha 90.000000
_cell_angle_beta 122.813392
_cell_angle_gamma 90.000000
_cell_volume 3394.773088
_symmetry_space_group_name_H-M "C 2/M"
_symmetry_group_IT_number 12
_symmetry_cell_setting 'monoclinic'
loop_
_space_group_symop_operation_xyz
x,y,z
-x,y,-z
-x,-y,-z
x,-y,z
1/2+x,1/2+y,z
1/2-x,1/2+y,-z
1/2-x,1/2-y,-z
1/2+x,1/2-y,z
loop_
_atom_site_type_symbol
_atom_site_label
_atom_site_fract_x
_atom_site_fract_y
_atom_site_fract_z
Si Si1 0.525147 0.185759 0.137817
Si Si2 0.809574 0.698924 0.826330
Si Si3 0.182283 0.414728 0.751794
Si Si4 0.632843 0.241875 0.618662
Si Si5 0.633519 0.365642 0.091911
Si Si6 0.485099 0.589033 0.817538
Si Si7 0.990066 0.214637 0.665125
Si Si8 0.372347 0.912014 0.050221
O O1 0.625739 0.170273 0.215185
O O2 0.499675 0.241720 0.212713
O O3 0.470062 0.108607 0.105795
O O4 0.500000 0.224927 0.000000
O O5 0.718491 0.709594 0.696724
O O6 0.840094 0.778084 0.906355
O O7 0.808062 0.636831 0.921959
O O8 0.150604 0.500000 0.689903
O O9 0.147030 0.349719 0.640446
O O10 0.282992 0.417099 0.836391
O O11 0.147158 0.393432 0.841128
O O12 0.592815 0.256875 0.467131
O O13 0.572488 0.273237 0.662275
O O14 0.587178 0.372130 0.169442
O O15 0.576464 0.397736 0.946909
O O16 0.466013 0.500000 0.789889
O O17 0.481984 0.625661 0.693433
O O18 0.357347 0.000000 0.009243
#
# Coordination Sequence:
#
# PCOD8094271 Si02
#       8
#     8   8   8   8   8   8   8   8
#     4  10  19  37  60  84 114 150 189 239 291 342
#     4  10  21  36  58  88 113 156 191 236 290 347
#     4  10  20  37  59  88 119 148 193 250 296 340
#     4  10  24  40  59  83 115 165 197 236 279 352
#     4  10  20  34  58  90 118 143 188 241 303 351
#     4  11  21  35  58  86 116 149 186 241 301 344
#     4  11  22  41  58  83 117 154 203 235 282 354
#     4  10  21  35  58  90 122 153 191 246 298 339
#
# _framework density 18.852511
#
# number of rings (size 3 to 8) (size 9 to 14) (size 15 to 20)
#    0.000    1.750    2.500    3.000    3.500    3.750 
#    0.000    3.750    0.000    0.000    0.000    0.000 
#    0.000    0.000    0.000    0.000    0.000    0.000 
#
# Total GULP energy -396760.510351 kJ/mol
# GULP energy per Si atom -12398.765948 kJ/mol
# Density = 1.880960 g / cm^3
# Si number density = 18.852511 Si / 1000 Ang^3
#
#
#
# Elastic Constant Matrix: (Units=GPa)
#
#
# Indices 1 2 3 4 5 6 
#
# 1 89.1535 19.7033 51.5624 0.0000 14.9235 0.0000
# 2 19.7033 106.8705 47.4178 0.0000 0.4489 0.0000
# 3 51.5624 47.4178 93.4095 0.0000 3.0663 0.0000
# 4 0.0000 0.0000 0.0000 18.1528 0.0000 -0.2118
# 5 14.9235 0.4489 3.0663 0.0000 31.0139 0.0000
# 6 0.0000 0.0000 0.0000 -0.2118 0.0000 21.5168
#
#
#
# Elastic Compliance Matrix: (Units=1/GPa)
#
#
# Indices 1 2 3 4 5 6 
#
# 1 0.018317 0.001327 -0.010529 0.000000 -0.007792 0.000000
# 2 0.001327 0.012179 -0.006911 0.000000 -0.000132 0.000000
# 3 -0.010529 -0.006911 0.019921 0.000000 0.003197 0.000000
# 4 0.000000 0.000000 0.000000 0.055094 0.000000 0.000542
# 5 -0.007792 -0.000132 0.003197 0.000000 0.035679 0.000000
# 6 0.000000 0.000000 0.000000 0.000542 0.000000 0.046481
#
#
# Mechanical properties :
#
#
# Convention : Reuss Voigt Hill
#
# Bulk Modulus (GPa) = 54.96958 58.53340 56.75149
# Shear Modulus (GPa) = 22.12772 25.52004 23.82388
#
# Velocity S-wave (km/s) = 3.42969 3.68321 3.55871
# Velocity P-wave (km/s) = 6.70109 7.01452 6.85960
#
# Compressibility (1/GPa) = 0.01819188
#
# Stress axis : x y z
#
# Youngs Moduli (GPa) = 54.59346 82.10623 50.19818
#
# Poissons Ratio (x) = -0.10899 0.52855
# Poissons Ratio (y) = -0.07247 0.34692
# Poissons Ratio (z) = 0.57483 0.56744
#
# Static dielectric constant tensor:
#      x y z
#    x 3.812750 0.000000 0.046560 
#    y 0.000000 3.491270 0.000000 
#    z 0.046560 0.000000 3.298980 
# 
# 
# High freq. dielectric constant tensor:
#      x y z
#    x 1.746980 0.000000 0.003870 
#    y 0.000000 1.731580 0.000000 
#    z 0.003870 0.000000 1.704270 
# 
# From -- ./inp_files/168798.got.cif
#   From: 2010.06.25/outbox.cif.g09.slc.cpg/sg12_85_cif.got.tgz:168798.got - 2010.06.28 00:19:55.
