data_PCOD8094989
_publ_section_title
;
Structure prediction by ZEFSAII (Michael W. Deem and Ramdas Pophale) SiO2 
 PCOD8094989
Probable space group: C 2/M
;
_chemical_formula_sum "Si O2"
_cell_formula_units_Z 64
_cell_length_a 24.330926
_cell_length_b 9.264982
_cell_length_c 22.521240
_cell_angle_alpha 90.000000
_cell_angle_beta 47.273833
_cell_angle_gamma 90.000000
_cell_volume 3729.488565
_symmetry_space_group_name_H-M "C 2/M"
_symmetry_group_IT_number 12
_symmetry_cell_setting 'monoclinic'
loop_
_space_group_symop_operation_xyz
x,y,z
-x,y,-z
-x,-y,-z
x,-y,z
1/2+x,1/2+y,z
1/2-x,1/2+y,-z
1/2-x,1/2-y,-z
1/2+x,1/2-y,z
loop_
_atom_site_type_symbol
_atom_site_label
_atom_site_fract_x
_atom_site_fract_y
_atom_site_fract_z
Si Si1 0.727450 0.336178 0.657389
Si Si2 0.416126 0.335743 0.062889
Si Si3 0.711541 0.667032 0.150543
Si Si4 0.835524 0.835344 0.998361
Si Si5 0.573707 0.668064 0.178865
Si Si6 0.090269 0.829501 0.672289
Si Si7 0.788056 0.670483 0.214131
Si Si8 0.817148 0.666494 0.480485
O O1 0.717918 0.500000 0.686948
O O2 0.652387 0.290894 0.676395
O O3 0.742117 0.232605 0.702085
O O4 0.802330 0.322830 0.562014
O O5 0.413148 0.500000 0.089043
O O6 0.369618 0.236067 0.141760
O O7 0.500000 0.276189 0.000000
O O8 0.386408 0.324519 0.018602
O O9 0.731829 0.500000 0.128878
O O10 0.623945 0.696480 0.201077
O O11 0.731308 0.718560 0.202838
O O12 0.759443 0.747773 0.064960
O O13 0.883304 0.765261 0.909509
O O14 0.813134 0.000000 0.000174
O O15 0.563636 0.500000 0.173637
O O16 0.490445 0.731850 0.247773
O O17 0.107874 0.746210 0.597355
O O18 0.089251 0.000000 0.659735
O O19 0.794491 0.500000 0.214716
O O20 0.817883 0.500000 0.459501
O O21 0.750000 0.750000 0.500000
#
# Coordination Sequence:
#
# PCOD8094989 Si02
#       8
#     8   8   8   8   8   8   8   8
#     4   9  18  31  50  72  95 123 155 188 225 281
#     4   9  18  30  46  65  91 126 158 192 231 278
#     4   9  18  33  48  65  93 126 159 198 239 274
#     4   9  17  29  47  69  89 120 164 199 231 275
#     4   9  17  30  50  71  93 122 158 198 236 280
#     4   9  18  31  50  75  99 123 152 192 239 284
#     4  10  20  31  46  68  94 124 158 195 233 274
#     4   9  17  31  50  72  99 127 153 187 232 283
#
# _framework density 17.160530000000001
#
# number of rings (size 3 to 8) (size 9 to 14) (size 15 to 20)
#    0.000    2.875    0.000    1.875    1.750    3.250 
#    0.000    1.250    0.000    0.750    0.000    5.250 
#    0.000    0.000    0.000    0.000    0.000    0.000 
#
# Total GULP energy -396641.009728 kJ/mol
# GULP energy per Si atom -12395.031554 kJ/mol
# Density = 1.712147 g / cm^3
# Si number density = 17.160530 Si / 1000 Ang^3
#
#
#
# Elastic Constant Matrix: (Units=GPa)
#
#
# Indices 1 2 3 4 5 6 
#
# 1 50.9411 21.0887 46.9921 -0.0001 -3.6292 0.0000
# 2 21.0887 59.6854 45.9181 -0.0002 5.3911 0.0006
# 3 46.9921 45.9181 122.2346 0.0001 3.1760 -0.0002
# 4 -0.0001 -0.0002 0.0001 30.9140 0.0000 0.2621
# 5 -3.6292 5.3911 3.1760 0.0000 21.6094 0.0000
# 6 0.0000 0.0006 -0.0002 0.2621 0.0000 17.3299
#
#
#
# Elastic Compliance Matrix: (Units=1/GPa)
#
#
# Indices 1 2 3 4 5 6 
#
# 1 0.031927 -0.003362 -0.011215 0.000000 0.007849 0.000000
# 2 -0.003362 0.024382 -0.007724 0.000000 -0.005512 -0.000001
# 3 -0.011215 -0.007724 0.015452 0.000000 -0.002228 0.000000
# 4 0.000000 0.000000 0.000000 0.032352 0.000000 -0.000489
# 5 0.007849 -0.005512 -0.002228 0.000000 0.049297 0.000000
# 6 0.000000 -0.000001 0.000000 -0.000489 0.000000 0.057711
#
#
# Mechanical properties :
#
#
# Convention : Reuss Voigt Hill
#
# Bulk Modulus (GPa) = 36.81851 51.20656 44.01254
# Shear Modulus (GPa) = 18.88385 21.89480 20.38932
#
# Velocity S-wave (km/s) = 3.32086 3.57582 3.45070
# Velocity P-wave (km/s) = 6.01715 6.85224 6.44823
#
# Compressibility (1/GPa) = 0.02716025
#
# Stress axis : x y z
#
# Youngs Moduli (GPa) = 31.32121 41.01329 64.71648
#
# Poissons Ratio (x) = 0.13787 0.72582
# Poissons Ratio (y) = 0.10529 0.49986
# Poissons Ratio (z) = 0.35128 0.31678
#
# Static dielectric constant tensor:
#      x y z
#    x 3.128990 0.000000 -0.046050 
#    y 0.000000 3.195780 0.000000 
#    z -0.046050 0.000000 3.644450 
# 
# 
# High freq. dielectric constant tensor:
#      x y z
#    x 1.643240 0.000000 0.003920 
#    y 0.000000 1.650240 0.000000 
#    z 0.003920 0.000000 1.661660 
# 
# From -- ./inp_files/324134.got.cif
#   From: 2010.06.25/outbox.cif.g09.slc.cpg/sg12_163_cif.got.tgz:324134.got - 2010.06.28 00:19:55.
