data_PCOD8094131
_publ_section_title
;
Structure prediction by ZEFSAII (Michael W. Deem and Ramdas Pophale) SiO2 
 PCOD8094131
Probable space group: C 2/M
;
_chemical_formula_sum "Si O2"
_cell_formula_units_Z 64
_cell_length_a 14.187915
_cell_length_b 18.561540
_cell_length_c 24.093012
_cell_angle_alpha 90.000000
_cell_angle_beta 149.479624
_cell_angle_gamma 90.000000
_cell_volume 3222.215987
_symmetry_space_group_name_H-M "C 2/M"
_symmetry_group_IT_number 12
_symmetry_cell_setting 'monoclinic'
loop_
_space_group_symop_operation_xyz
x,y,z
-x,y,-z
-x,-y,-z
x,-y,z
1/2+x,1/2+y,z
1/2-x,1/2+y,-z
1/2-x,1/2-y,-z
1/2+x,1/2-y,z
loop_
_atom_site_type_symbol
_atom_site_label
_atom_site_fract_x
_atom_site_fract_y
_atom_site_fract_z
Si Si1 0.863926 0.812742 0.382790
Si Si2 0.364517 0.727980 0.979151
Si Si3 0.329803 0.919677 0.646397
Si Si4 0.574238 0.917514 0.479477
Si Si5 0.302692 0.581572 0.772785
Si Si6 0.254672 0.580490 0.876330
Si Si7 0.512691 0.718367 0.173501
Si Si8 0.690572 0.330680 0.475711
O O1 0.795822 0.891468 0.367038
O O2 0.693569 0.759140 0.287566
O O3 0.000000 0.780227 0.500000
O O4 0.972397 0.828583 0.380254
O O5 0.341404 0.641149 0.960300
O O6 0.162102 0.767333 0.874014
O O7 0.500000 0.759045 0.000000
O O8 0.459558 0.747350 0.085632
O O9 0.536903 0.918141 0.773416
O O10 0.309527 0.867390 0.584306
O O11 0.268178 0.000000 0.598055
O O12 0.500000 0.886781 0.500000
O O13 0.412763 0.907439 0.352277
O O14 0.758617 0.873162 0.555046
O O15 0.636163 0.000000 0.517475
O O16 0.364121 0.500000 0.790285
O O17 0.315501 0.599065 0.844439
O O18 0.436764 0.633719 0.805326
O O19 0.327335 0.500000 0.929819
O O20 0.750000 0.250000 0.500000
#
# Coordination Sequence:
#
# PCOD8094131 Si02
#       8
#     8   8   8   8   8   8   8   8
#     4  10  23  39  60  91 126 167 205 246 312 375
#     4  11  23  40  63  90 122 165 201 253 321 375
#     4  10  20  38  61  88 124 161 204 257 310 364
#     4  10  21  38  56  80 118 166 215 253 295 354
#     4  10  20  36  61  86 115 158 205 262 313 362
#     4  10  19  36  64  93 121 152 200 264 323 368
#     4  11  23  40  61  89 129 157 205 254 310 384
#     4  11  22  33  54  87 122 162 207 247 302 366
#
# _framework density 19.862107999999999
#
# number of rings (size 3 to 8) (size 9 to 14) (size 15 to 20)
#    0.000    1.625    3.750    1.125    0.000    7.500 
#    2.250    0.000    0.000    0.375    0.000    0.000 
#    0.000    0.000    0.000    0.000    0.000    0.000 
#
# Total GULP energy -396664.223679 kJ/mol
# GULP energy per Si atom -12395.756990 kJ/mol
# Density = 1.981690 g / cm^3
# Si number density = 19.862108 Si / 1000 Ang^3
#
#
#
# Elastic Constant Matrix: (Units=GPa)
#
#
# Indices 1 2 3 4 5 6 
#
# 1 157.3827 66.1423 34.5871 -0.0001 29.4955 -0.0001
# 2 66.1423 120.1983 36.1147 0.0010 12.5361 0.0001
# 3 34.5871 36.1147 87.2301 -0.0007 18.9676 -0.0010
# 4 -0.0001 0.0010 -0.0007 20.8769 -0.0008 -3.3516
# 5 29.4955 12.5361 18.9676 -0.0008 31.0509 -0.0004
# 6 -0.0001 0.0001 -0.0010 -3.3516 -0.0004 30.9293
#
#
#
# Elastic Compliance Matrix: (Units=1/GPa)
#
#
# Indices 1 2 3 4 5 6 
#
# 1 0.009646 -0.004434 -0.000445 0.000000 -0.007101 0.000000
# 2 -0.004434 0.011613 -0.003398 -0.000001 0.001598 0.000000
# 3 -0.000445 -0.003398 0.014596 0.000000 -0.007121 0.000000
# 4 0.000000 -0.000001 0.000000 0.048748 0.000001 0.005282
# 5 -0.007101 0.001598 -0.007121 0.000001 0.042655 0.000000
# 6 0.000000 0.000000 0.000000 0.005282 0.000000 0.032904
#
#
# Mechanical properties :
#
#
# Convention : Reuss Voigt Hill
#
# Bulk Modulus (GPa) = 51.80771 70.94438 61.37605
# Shear Modulus (GPa) = 27.30021 31.76922 29.53471
#
# Velocity S-wave (km/s) = 3.71143 4.00370 3.86033
# Velocity P-wave (km/s) = 6.67133 7.56101 7.13006
#
# Compressibility (1/GPa) = 0.01930214
#
# Stress axis : x y z
#
# Youngs Moduli (GPa) = 103.67219 86.10687 68.51384
#
# Poissons Ratio (x) = 0.38176 0.03049
# Poissons Ratio (y) = 0.45964 0.23280
# Poissons Ratio (z) = 0.04613 0.29257
#
# Static dielectric constant tensor:
#      x y z
#    x 3.960580 0.000000 0.181170 
#    y 0.000000 3.741670 0.000000 
#    z 0.181170 0.000000 3.608920 
# 
# 
# High freq. dielectric constant tensor:
#      x y z
#    x 1.774970 0.000000 0.014260 
#    y 0.000000 1.771840 0.000000 
#    z 0.014260 0.000000 1.766930 
# 
# From -- ./inp_files/340874.got.cif
#   From: 2010.06.25/outbox.cif.g09.slc.cpg/sg12_171_cif.got.tgz:340874.got - 2010.06.28 00:19:55.
