data_PCOD8094475
_publ_section_title
;
Structure prediction by ZEFSAII (Michael W. Deem and Ramdas Pophale) SiO2 
 PCOD8094475
Probable space group: C 2/M
;
_chemical_formula_sum "Si O2"
_cell_formula_units_Z 56
_cell_length_a 14.489721
_cell_length_b 22.624243
_cell_length_c 15.265048
_cell_angle_alpha 90.000000
_cell_angle_beta 33.593330
_cell_angle_gamma 90.000000
_cell_volume 2768.781420
_symmetry_space_group_name_H-M "C 2/M"
_symmetry_group_IT_number 12
_symmetry_cell_setting 'monoclinic'
loop_
_space_group_symop_operation_xyz
x,y,z
-x,y,-z
-x,-y,-z
x,-y,z
1/2+x,1/2+y,z
1/2-x,1/2+y,-z
1/2-x,1/2-y,-z
1/2+x,1/2-y,z
loop_
_atom_site_type_symbol
_atom_site_label
_atom_site_fract_x
_atom_site_fract_y
_atom_site_fract_z
Si Si1 0.068106 0.737061 0.180067
Si Si2 0.205777 0.433516 0.621496
Si Si3 0.382152 0.358642 0.350963
Si Si4 0.521983 0.826757 0.574544
Si Si5 0.395292 0.063315 0.735760
Si Si6 0.016188 0.637017 0.088706
Si Si7 0.315400 0.568317 0.934537
O O1 0.981361 0.695667 0.175372
O O2 0.976034 0.796841 0.277773
O O3 0.066474 0.704373 0.274141
O O4 0.250000 0.750000 0.000000
O O5 0.278844 0.500000 0.577331
O O6 0.344769 0.386969 0.476682
O O7 0.057964 0.434811 0.668435
O O8 0.129675 0.410023 0.773223
O O9 0.213595 0.343620 0.433993
O O10 0.495713 0.407804 0.214202
O O11 0.500000 0.791243 0.500000
O O12 0.412558 0.886776 0.648647
O O13 0.378977 0.000000 0.701348
O O14 0.237731 0.074543 0.922755
O O15 0.197710 0.608524 0.964966
O O16 0.000000 0.654531 0.000000
O O17 0.307251 0.500000 0.909617
#
# Coordination Sequence:
#
# PCOD8094475 Si02
#       7
#     8   8   8   8   8   8   8
#     4  12  23  44  64  86 128 168 208 259 314 376
#     4   9  18  35  61  88 121 159 200 252 318 373
#     4  11  21  39  64  88 128 162 203 259 318 371
#     4  11  23  39  63  92 119 157 209 257 312 366
#     4   8  15  33  57  82 118 158 193 237 296 362
#     4  11  22  39  65  94 124 170 217 257 308 378
#     4  10  19  37  64  92 124 165 207 253 313 376
#
# _framework density 20.225504999999998
#
# number of rings (size 3 to 8) (size 9 to 14) (size 15 to 20)
#    0.000    1.714    5.714    2.143    0.000    3.143 
#    0.000    2.857    0.000    3.429    0.000    0.000 
#    0.000    0.000    0.000    0.000    0.000    0.000 
#
# Total GULP energy -346884.237360 kJ/mol
# GULP energy per Si atom -12388.722763 kJ/mol
# Density = 2.017947 g / cm^3
# Si number density = 20.225505 Si / 1000 Ang^3
#
#
#
# Elastic Constant Matrix: (Units=GPa)
#
#
# Indices 1 2 3 4 5 6 
#
# 1 59.7592 35.4791 44.0011 0.0054 23.5032 0.0003
# 2 35.4791 128.0443 68.4802 -0.0025 11.1369 0.0001
# 3 44.0011 68.4802 142.9793 -0.0375 3.2756 0.0067
# 4 0.0054 -0.0025 -0.0375 44.6930 0.0019 -3.4177
# 5 23.5032 11.1369 3.2756 0.0019 32.4699 0.0043
# 6 0.0003 0.0001 0.0067 -3.4177 0.0043 5.5522
#
#
#
# Elastic Compliance Matrix: (Units=1/GPa)
#
#
# Indices 1 2 3 4 5 6 
#
# 1 0.033394 -0.002804 -0.008421 -0.000009 -0.022360 0.000020
# 2 -0.002804 0.011056 -0.004402 -0.000002 -0.001318 0.000005
# 3 -0.008421 -0.004402 0.011546 0.000009 0.006441 -0.000013
# 4 -0.000009 -0.000002 0.000009 0.023480 0.000003 0.014453
# 5 -0.022360 -0.001318 0.006441 0.000003 0.046786 -0.000040
# 6 0.000020 0.000005 -0.000013 0.014453 -0.000040 0.189005
#
#
# Mechanical properties :
#
#
# Convention : Reuss Voigt Hill
#
# Bulk Modulus (GPa) = 40.41909 69.63372 55.02640
# Shear Modulus (GPa) = 14.09369 28.73118 21.41243
#
# Velocity S-wave (km/s) = 2.64261 3.77310 3.25727
# Velocity P-wave (km/s) = 5.41653 7.31335 6.43521
#
# Compressibility (1/GPa) = 0.02474079
#
# Stress axis : x y z
#
# Youngs Moduli (GPa) = 29.94579 90.45123 86.60680
#
# Poissons Ratio (x) = 0.25364 0.72935
# Poissons Ratio (y) = 0.08397 0.38124
# Poissons Ratio (z) = 0.25219 0.39816
#
# Static dielectric constant tensor:
#      x y z
#    x 3.002060 -0.000040 0.433850 
#    y -0.000040 4.273770 0.000230 
#    z 0.433850 0.000230 2.128430 
# 
# 
# High freq. dielectric constant tensor:
#      x y z
#    x 1.728350 0.000000 0.007860 
#    y 0.000000 1.809250 0.000010 
#    z 0.007860 0.000010 1.809640 
# 
# From -- ./inp_files/218669.got.cif
#   From: 2010.06.25/outbox.cif.g09.slc.cpg/sg12_110_cif.got.tgz:218669.got - 2010.06.28 00:19:55.
