data_PCOD8094103
_publ_section_title
;
Structure prediction by ZEFSAII (Michael W. Deem and Ramdas Pophale) SiO2 
 PCOD8094103
Probable space group: C 2/M
;
_chemical_formula_sum "Si O2"
_cell_formula_units_Z 40
_cell_length_a 10.629115
_cell_length_b 19.019259
_cell_length_c 9.234778
_cell_angle_alpha 90.000000
_cell_angle_beta 94.390389
_cell_angle_gamma 90.000000
_cell_volume 1861.405077
_symmetry_space_group_name_H-M "C 2/M"
_symmetry_group_IT_number 12
_symmetry_cell_setting 'monoclinic'
loop_
_space_group_symop_operation_xyz
x,y,z
-x,y,-z
-x,-y,-z
x,-y,z
1/2+x,1/2+y,z
1/2-x,1/2+y,-z
1/2-x,1/2-y,-z
1/2+x,1/2-y,z
loop_
_atom_site_type_symbol
_atom_site_label
_atom_site_fract_x
_atom_site_fract_y
_atom_site_fract_z
Si Si1 0.363537 0.079736 0.919886
Si Si2 0.260801 0.079983 0.213318
Si Si3 0.867756 0.685066 0.412134
Si Si4 0.769151 0.830149 0.312623
Si Si5 0.502531 0.579918 0.328795
O O1 0.343352 0.142738 0.802017
O O2 0.352266 0.000000 0.852319
O O3 0.500000 0.090142 0.000000
O O4 0.262111 0.088358 0.040688
O O5 0.377897 0.121800 0.297889
O O6 0.129154 0.109958 0.265758
O O7 0.279639 0.000000 0.263362
O O8 0.808117 0.748399 0.311722
O O9 0.771571 0.656694 0.525675
O O10 0.000000 0.706359 0.500000
O O11 0.885628 0.875254 0.262991
O O12 0.500000 0.587617 0.500000
O O13 0.482404 0.500000 0.277005
#
# Coordination Sequence:
#
# PCOD8094103 Si02
#       5
#     8   8   8   8   8
#     4  10  22  42  65  93 130 167 209 259 314 378
#     4  10  22  40  64  95 127 164 213 263 311 373
#     4  11  24  39  62  92 125 164 212 261 307 376
#     4  11  23  38  62  89 125 169 210 250 320 369
#     4  10  19  36  63  93 125 160 210 264 312 368
#
# _framework density 21.489145000000001
#
# number of rings (size 3 to 8) (size 9 to 14) (size 15 to 20)
#    0.000    1.600    2.000    2.400    2.800    2.800 
#    0.000    3.000    0.000    0.000    0.000    0.000 
#    0.000    0.000    0.000    0.000    0.000    0.000 
#
# Total GULP energy -247873.328863 kJ/mol
# GULP energy per Si atom -12393.666443 kJ/mol
# Density = 2.144023 g / cm^3
# Si number density = 21.489145 Si / 1000 Ang^3
#
#
#
# Elastic Constant Matrix: (Units=GPa)
#
#
# Indices 1 2 3 4 5 6 
#
# 1 89.3581 39.6022 30.6218 0.0000 -1.5811 0.0000
# 2 39.6022 104.2110 62.6972 0.0000 19.7556 0.0000
# 3 30.6218 62.6972 74.1910 0.0000 8.5578 0.0000
# 4 0.0000 0.0000 0.0000 34.2187 0.0000 11.9678
# 5 -1.5811 19.7556 8.5578 0.0000 35.2664 0.0000
# 6 0.0000 0.0000 0.0000 11.9678 0.0000 30.6224
#
#
#
# Elastic Compliance Matrix: (Units=1/GPa)
#
#
# Indices 1 2 3 4 5 6 
#
# 1 0.014135 -0.004724 -0.002284 0.000000 0.003835 0.000000
# 2 -0.004724 0.023015 -0.016448 0.000000 -0.009113 0.000000
# 3 -0.002284 -0.016448 0.028056 0.000000 0.002303 0.000000
# 4 0.000000 0.000000 0.000000 0.033851 0.000000 -0.013229
# 5 0.003835 -0.009113 0.002303 0.000000 0.033073 0.000000
# 6 0.000000 0.000000 0.000000 -0.013229 0.000000 0.037826
#
#
# Mechanical properties :
#
#
# Convention : Reuss Voigt Hill
#
# Bulk Modulus (GPa) = 54.66709 59.28915 56.97812
# Shear Modulus (GPa) = 22.42492 29.01075 25.71784
#
# Velocity S-wave (km/s) = 3.23390 3.67825 3.46321
# Velocity P-wave (km/s) = 6.28003 6.75940 6.52412
#
# Compressibility (1/GPa) = 0.01829254
#
# Stress axis : x y z
#
# Youngs Moduli (GPa) = 70.74494 43.45068 35.64357
#
# Poissons Ratio (x) = 0.20528 0.08141
# Poissons Ratio (y) = 0.33423 0.58626
# Poissons Ratio (z) = 0.16158 0.71468
#
# Static dielectric constant tensor:
#      x y z
#    x 4.005160 0.000000 -0.179210 
#    y 0.000000 3.859960 0.000000 
#    z -0.179210 0.000000 3.746720 
# 
# 
# High freq. dielectric constant tensor:
#      x y z
#    x 1.850310 0.000000 -0.010700 
#    y 0.000000 1.837970 0.000000 
#    z -0.010700 0.000000 1.828310 
# 
# From -- ./inp_files/46965.got.cif
#   From: 2010.06.25/outbox.cif.g09.slc.cpg/sg12_24_cif.got.tgz:46965.got - 2010.06.28 00:19:55.
