data_PCOD8094151
_publ_section_title
;
Structure prediction by ZEFSAII (Michael W. Deem and Ramdas Pophale) SiO2 
 PCOD8094151
Probable space group: C 2/M
;
_chemical_formula_sum "Si O2"
_cell_formula_units_Z 52
_cell_length_a 26.447209
_cell_length_b 12.026820
_cell_length_c 18.960747
_cell_angle_alpha 90.000000
_cell_angle_beta 152.431394
_cell_angle_gamma 90.000000
_cell_volume 2791.188719
_symmetry_space_group_name_H-M "C 2/M"
_symmetry_group_IT_number 12
_symmetry_cell_setting 'monoclinic'
loop_
_space_group_symop_operation_xyz
x,y,z
-x,y,-z
-x,-y,-z
x,-y,z
1/2+x,1/2+y,z
1/2-x,1/2+y,-z
1/2-x,1/2-y,-z
1/2+x,1/2-y,z
loop_
_atom_site_type_symbol
_atom_site_label
_atom_site_fract_x
_atom_site_fract_y
_atom_site_fract_z
Si Si1 0.543137 0.701129 0.328712
Si Si2 0.077953 0.125772 0.218499
Si Si3 0.266427 0.500000 0.149998
Si Si4 0.990719 0.000000 0.357690
Si Si5 0.263788 0.500000 0.305844
Si Si6 0.818202 0.724135 0.015926
Si Si7 0.675392 0.629127 0.108857
Si Si8 0.257359 0.757755 0.672153
O O1 0.594513 0.647350 0.321906
O O2 0.480447 0.607171 0.295558
O O3 0.447866 0.787111 0.191204
O O4 0.637866 0.761659 0.490401
O O5 0.150710 0.211909 0.265716
O O6 0.116114 0.000000 0.248899
O O7 0.954008 0.142556 0.039654
O O8 0.397308 0.500000 0.301645
O O9 0.223803 0.500000 0.176869
O O10 0.215318 0.605502 0.051472
O O11 0.105827 0.000000 0.539015
O O12 0.220966 0.390026 0.292787
O O13 0.750000 0.750000 0.000000
O O14 0.791408 0.819200 0.925133
O O15 0.710120 0.500000 0.152874
O O16 0.739689 0.694697 0.249545
#
# Coordination Sequence:
#
# PCOD8094151 Si02
#       8
#     8   8   4   4   4   8   8   8
#     4  10  21  38  58  90 118 152 195 247 290 342
#     4  10  20  37  64  87 111 153 206 242 284 340
#     4  12  21  40  63  86 119 155 196 239 303 355
#     4  10  19  36  66  85 113 150 202 253 285 335
#     4  10  23  38  56  92 119 150 198 243 297 355
#     4  11  23  38  62  89 116 152 194 243 298 350
#     4  10  22  40  64  86 112 151 204 245 284 347
#     4  11  21  39  59  85 122 155 194 242 290 344
#
# _framework density 18.630054999999999
#
# number of rings (size 3 to 8) (size 9 to 14) (size 15 to 20)
#    0.000    1.538    3.846    1.615    2.154    1.231 
#    2.769    5.385    0.000    0.923    0.000    0.000 
#    0.000    0.000    0.000    0.000    0.000    0.000 
#
# Total GULP energy -322445.065584 kJ/mol
# GULP energy per Si atom -12401.733292 kJ/mol
# Density = 1.858765 g / cm^3
# Si number density = 18.630055 Si / 1000 Ang^3
#
#
#
# Elastic Constant Matrix: (Units=GPa)
#
#
# Indices 1 2 3 4 5 6 
#
# 1 104.9562 54.6292 38.0251 0.0000 -3.7091 0.0000
# 2 54.6292 142.6063 60.1763 0.0000 3.6265 0.0000
# 3 38.0251 60.1763 110.8899 0.0000 -12.9437 0.0000
# 4 0.0000 0.0000 0.0000 30.0402 0.0000 -1.8867
# 5 -3.7091 3.6265 -12.9437 0.0000 26.7227 0.0000
# 6 0.0000 0.0000 0.0000 -1.8867 0.0000 42.2857
#
#
#
# Elastic Compliance Matrix: (Units=1/GPa)
#
#
# Indices 1 2 3 4 5 6 
#
# 1 0.012325 -0.003937 -0.001937 0.000000 0.001307 0.000000
# 2 -0.003937 0.010741 -0.004995 0.000000 -0.004423 0.000000
# 3 -0.001937 -0.004995 0.013186 0.000000 0.006796 0.000000
# 4 0.000000 0.000000 0.000000 0.033382 0.000000 0.001489
# 5 0.001307 -0.004423 0.006796 0.000000 0.041495 0.000000
# 6 0.000000 0.000000 0.000000 0.001489 0.000000 0.023715
#
#
# Mechanical properties :
#
#
# Convention : Reuss Voigt Hill
#
# Bulk Modulus (GPa) = 68.90273 73.79042 71.34657
# Shear Modulus (GPa) = 30.97497 33.51784 32.24641
#
# Velocity S-wave (km/s) = 4.08196 4.24621 4.16490
# Velocity P-wave (km/s) = 7.69945 7.98340 7.84271
#
# Compressibility (1/GPa) = 0.01451321
#
# Stress axis : x y z
#
# Youngs Moduli (GPa) = 81.13502 93.10307 75.83754
#
# Poissons Ratio (x) = 0.36657 0.14692
# Poissons Ratio (y) = 0.31945 0.37880
# Poissons Ratio (z) = 0.15718 0.46504
#
# Static dielectric constant tensor:
#      x y z
#    x 3.449680 0.000000 -0.188070 
#    y 0.000000 3.440770 0.000000 
#    z -0.188070 0.000000 3.526920 
# 
# 
# High freq. dielectric constant tensor:
#      x y z
#    x 1.725250 0.000000 -0.016550 
#    y 0.000000 1.723880 0.000000 
#    z -0.016550 0.000000 1.726670 
# 
# From -- ./inp_files/293195.got.cif
#   From: 2010.06.25/outbox.cif.g09.slc.cpg/sg12_147_cif.got.tgz:293195.got - 2010.06.28 00:19:55.
