data_PCOD8094096
_publ_section_title
;
Structure prediction by ZEFSAII (Michael W. Deem and Ramdas Pophale) SiO2 
 PCOD8094096
Probable space group: C 2/M
;
_chemical_formula_sum "Si O2"
_cell_formula_units_Z 56
_cell_length_a 27.966319
_cell_length_b 11.114124
_cell_length_c 9.910334
_cell_angle_alpha 90.000000
_cell_angle_beta 116.746126
_cell_angle_gamma 90.000000
_cell_volume 2750.773643
_symmetry_space_group_name_H-M "C 2/M"
_symmetry_group_IT_number 12
_symmetry_cell_setting 'monoclinic'
loop_
_space_group_symop_operation_xyz
x,y,z
-x,y,-z
-x,-y,-z
x,-y,z
1/2+x,1/2+y,z
1/2-x,1/2+y,-z
1/2-x,1/2-y,-z
1/2+x,1/2-y,z
loop_
_atom_site_type_symbol
_atom_site_label
_atom_site_fract_x
_atom_site_fract_y
_atom_site_fract_z
Si Si1 0.805291 0.703556 0.628299
Si Si2 0.167506 0.248376 0.814257
Si Si3 0.604032 0.635320 0.150920
Si Si4 0.726710 0.868717 0.127952
Si Si5 0.569601 0.359751 0.824768
Si Si6 0.549390 0.359893 0.353871
Si Si7 0.621626 0.132860 0.515855
O O1 0.750000 0.750000 0.500000
O O2 0.840924 0.814984 0.720383
O O3 0.794474 0.623674 0.746408
O O4 0.836879 0.628707 0.555514
O O5 0.211432 0.170501 0.791156
O O6 0.113800 0.171743 0.769837
O O7 0.153351 0.359676 0.698256
O O8 0.190337 0.284011 0.989101
O O9 0.618537 0.500000 0.131975
O O10 0.557381 0.643987 0.202920
O O11 0.583629 0.701417 0.987997
O O12 0.723332 0.000000 0.058731
O O13 0.566037 0.500000 0.844138
O O14 0.511657 0.319809 0.694709
O O15 0.561704 0.500000 0.420304
O O16 0.584659 0.252919 0.464626
O O17 0.592553 0.000000 0.476836
#
# Coordination Sequence:
#
# PCOD8094096 Si02
#       7
#     8   8   8   8   8   8   8
#     4  11  21  40  60  91 119 159 204 249 297 359
#     4  11  23  40  58  88 123 159 205 245 303 365
#     4   9  18  34  60  90 120 153 199 252 302 356
#     4  11  23  40  60  84 120 162 203 248 299 359
#     4  10  19  36  63  91 119 158 206 256 305 360
#     4   9  20  38  64  93 122 156 204 259 307 358
#     4  11  24  42  63  90 127 164 202 251 309 366
#
# _framework density 20.35791
#
# number of rings (size 3 to 8) (size 9 to 14) (size 15 to 20)
#    0.000    1.714    2.857    1.714    0.000    4.571 
#    0.000    3.571    0.000    1.714    0.000    0.000 
#    0.000    0.000    0.000    0.000    0.000    0.000 
#
# Total GULP energy -346957.741050 kJ/mol
# GULP energy per Si atom -12391.347895 kJ/mol
# Density = 2.031157 g / cm^3
# Si number density = 20.357910 Si / 1000 Ang^3
#
#
#
# Elastic Constant Matrix: (Units=GPa)
#
#
# Indices 1 2 3 4 5 6 
#
# 1 124.5996 34.0859 34.4653 0.0000 16.7380 0.0000
# 2 34.0859 82.3944 20.7018 0.0000 18.6543 0.0000
# 3 34.4653 20.7018 91.2048 0.0000 -0.8135 0.0000
# 4 0.0000 0.0000 0.0000 19.2855 0.0000 2.9220
# 5 16.7380 18.6543 -0.8135 0.0000 22.6810 0.0000
# 6 0.0000 0.0000 0.0000 2.9220 0.0000 20.7734
#
#
#
# Elastic Compliance Matrix: (Units=1/GPa)
#
#
# Indices 1 2 3 4 5 6 
#
# 1 0.010373 -0.002023 -0.003515 0.000000 -0.006117 0.000000
# 2 -0.002023 0.016513 -0.003092 0.000000 -0.012199 0.000000
# 3 -0.003515 -0.003092 0.013045 0.000000 0.005605 0.000000
# 4 0.000000 0.000000 0.000000 0.052982 0.000000 -0.007452
# 5 -0.006117 -0.012199 0.005605 0.000000 0.058838 0.000000
# 6 0.000000 0.000000 0.000000 -0.007452 0.000000 0.049187
#
#
# Mechanical properties :
#
#
# Convention : Reuss Voigt Hill
#
# Bulk Modulus (GPa) = 44.11328 52.96720 48.54024
# Shear Modulus (GPa) = 22.14790 26.47770 24.31280
#
# Velocity S-wave (km/s) = 3.30195 3.61031 3.45957
# Velocity P-wave (km/s) = 6.02105 6.59193 6.31295
#
# Compressibility (1/GPa) = 0.02266891
#
# Stress axis : x y z
#
# Youngs Moduli (GPa) = 96.40137 60.56012 76.65990
#
# Poissons Ratio (x) = 0.12252 0.26948
# Poissons Ratio (y) = 0.19503 0.23706
# Poissons Ratio (z) = 0.33888 0.18727
#
# Static dielectric constant tensor:
#      x y z
#    x 3.807140 0.000000 -0.060820 
#    y 0.000000 3.503640 0.000000 
#    z -0.060820 0.000000 3.791940 
# 
# 
# High freq. dielectric constant tensor:
#      x y z
#    x 1.798250 0.000000 -0.008590 
#    y 0.000000 1.772020 0.000000 
#    z -0.008590 0.000000 1.806980 
# 
# From -- ./inp_files/103154.got.cif
#   From: 2010.06.25/outbox.cif.g09.slc.cpg/sg12_52_cif.got.tgz:103154.got - 2010.06.28 00:19:55.
