data_PCOD8094506
_publ_section_title
;
Structure prediction by ZEFSAII (Michael W. Deem and Ramdas Pophale) SiO2 
 PCOD8094506
Probable space group: C 2/M
;
_chemical_formula_sum "Si O2"
_cell_formula_units_Z 44
_cell_length_a 11.654494
_cell_length_b 22.106562
_cell_length_c 8.000071
_cell_angle_alpha 90.000000
_cell_angle_beta 79.293725
_cell_angle_gamma 90.000000
_cell_volume 2025.265181
_symmetry_space_group_name_H-M "C 2/M"
_symmetry_group_IT_number 12
_symmetry_cell_setting 'monoclinic'
loop_
_space_group_symop_operation_xyz
x,y,z
-x,y,-z
-x,-y,-z
x,-y,z
1/2+x,1/2+y,z
1/2-x,1/2+y,-z
1/2-x,1/2-y,-z
1/2+x,1/2-y,z
loop_
_atom_site_type_symbol
_atom_site_label
_atom_site_fract_x
_atom_site_fract_y
_atom_site_fract_z
Si Si1 0.454699 0.932110 0.699849
Si Si2 0.723827 0.568988 0.602744
Si Si3 0.303568 0.654706 0.676725
Si Si4 0.944382 0.316069 0.185022
Si Si5 0.500000 0.741070 0.500000
Si Si6 0.974658 0.931265 0.814582
O O1 0.500000 0.923103 0.500000
O O2 0.313912 0.920765 0.731376
O O3 0.512282 0.885382 0.812197
O O4 0.482247 0.000000 0.756572
O O5 0.732252 0.500000 0.539273
O O6 0.759621 0.610973 0.438954
O O7 0.592179 0.585880 0.686036
O O8 0.196153 0.688195 0.797397
O O9 0.384420 0.701526 0.556149
O O10 0.375252 0.615413 0.790191
O O11 0.986182 0.280405 0.337145
O O12 0.000000 0.288096 0.000000
O O13 0.935785 0.000000 0.783543
O O14 0.000000 0.923180 0.000000
#
# Coordination Sequence:
#
# PCOD8094506 Si02
#       6
#     8   8   8   8   4   8
#     4  10  20  39  67  97 134 171 205 259 325 394
#     4  10  19  37  66  97 132 173 213 263 329 390
#     4  12  23  43  70  94 126 174 225 271 324 398
#     4  12  28  46  68  99 133 172 220 274 331 394
#     4  12  26  50  68  94 128 172 230 286 326 372
#     4  10  22  38  61 101 140 168 211 274 332 389
#
# _framework density 21.725549000000001
#
# number of rings (size 3 to 8) (size 9 to 14) (size 15 to 20)
#    0.000    1.091    4.545    1.091    2.545    4.000 
#    0.000    0.000    0.000    0.000    0.000    0.000 
#    0.000    0.000    0.000    0.000    0.000    0.000 
#
# Total GULP energy -272831.140246 kJ/mol
# GULP energy per Si atom -12401.415466 kJ/mol
# Density = 2.167610 g / cm^3
# Si number density = 21.725549 Si / 1000 Ang^3
#
#
#
# Elastic Constant Matrix: (Units=GPa)
#
#
# Indices 1 2 3 4 5 6 
#
# 1 119.9201 39.4604 38.9506 0.0000 -11.4874 0.0000
# 2 39.4604 76.6173 36.3983 0.0000 -5.4217 0.0000
# 3 38.9506 36.3983 104.7428 0.0000 -12.3492 0.0000
# 4 0.0000 0.0000 0.0000 19.2071 0.0000 -4.9589
# 5 -11.4874 -5.4217 -12.3492 0.0000 23.5280 0.0000
# 6 0.0000 0.0000 0.0000 -4.9589 0.0000 -0.9427
#
#
#
# Elastic Compliance Matrix: (Units=1/GPa)
#
#
# Indices 1 2 3 4 5 6 
#
# 1 0.010747 -0.004300 -0.002132 0.000000 0.003137 0.000000
# 2 -0.004300 0.017367 -0.004490 0.000000 -0.000454 0.000000
# 3 -0.002132 -0.004490 0.012424 0.000000 0.004446 0.000000
# 4 0.000000 0.000000 0.000000 0.022079 0.000000 -0.116139
# 5 0.003137 -0.000454 0.004446 0.000000 0.046263 0.000000
# 6 0.000000 0.000000 0.000000 -0.116139 0.000000 -0.449838
#
#
# Mechanical properties :
#
#
# Convention : Reuss Voigt Hill
#
# Bulk Modulus (GPa) = 53.49116 58.98873 56.23994
# Shear Modulus (GPa) = -15.98047 20.78988 2.40471
#
# Velocity S-wave (km/s) = -2.71507 3.09679 1.05321
# Velocity P-wave (km/s) = 3.85305 6.32436 5.23658
#
# Compressibility (1/GPa) = 0.01869468
#
# Stress axis : x y z
#
# Youngs Moduli (GPa) = 93.04987 57.57956 80.48663
#
# Poissons Ratio (x) = 0.24759 0.17162
# Poissons Ratio (y) = 0.40012 0.36135
# Poissons Ratio (z) = 0.19841 0.25851
#
# Static dielectric constant tensor:
#      x y z
#    x 2.590110 0.000000 0.765780 
#    y 0.000000 3.978260 0.000000 
#    z 0.765780 0.000000 3.136990 
# 
# 
# High freq. dielectric constant tensor:
#      x y z
#    x 1.870330 0.000000 -0.006380 
#    y 0.000000 1.850540 0.000000 
#    z -0.006380 0.000000 1.835380 
# 
# From -- ./inp_files/49299.got.cif
#   From: 2010.06.25/outbox.cif.g09.slc.cpg/sg12_25_cif.got.tgz:49299.got - 2010.06.28 00:19:55.
