data_PCOD8094751
_publ_section_title
;
Structure prediction by ZEFSAII (Michael W. Deem and Ramdas Pophale) SiO2 
 PCOD8094751
Probable space group: C 2/M
;
_chemical_formula_sum "Si O2"
_cell_formula_units_Z 48
_cell_length_a 23.214650
_cell_length_b 13.470022
_cell_length_c 12.621497
_cell_angle_alpha 90.000000
_cell_angle_beta 145.111395
_cell_angle_gamma 90.000000
_cell_volume 2257.481736
_symmetry_space_group_name_H-M "C 2/M"
_symmetry_group_IT_number 12
_symmetry_cell_setting 'monoclinic'
loop_
_space_group_symop_operation_xyz
x,y,z
-x,y,-z
-x,-y,-z
x,-y,z
1/2+x,1/2+y,z
1/2-x,1/2+y,-z
1/2-x,1/2-y,-z
1/2+x,1/2-y,z
loop_
_atom_site_type_symbol
_atom_site_label
_atom_site_fract_x
_atom_site_fract_y
_atom_site_fract_z
Si Si1 0.062555 0.254114 0.334188
Si Si2 0.740109 0.638113 0.959354
Si Si3 0.746420 0.208999 0.244406
Si Si4 0.541922 0.107121 0.671271
Si Si5 0.388158 0.388232 0.045518
Si Si6 0.890107 0.612565 0.786560
O O1 0.144173 0.234040 0.546510
O O2 0.117572 0.309527 0.320846
O O3 0.977756 0.325552 0.256243
O O4 0.002053 0.155116 0.207161
O O5 0.733559 0.631864 0.822150
O O6 0.643014 0.598123 0.877070
O O7 0.750000 0.750000 0.000000
O O8 0.839237 0.585386 0.154669
O O9 0.687218 0.146509 0.241540
O O10 0.689217 0.312412 0.129410
O O11 0.500000 0.157621 0.500000
O O12 0.487363 0.000000 0.602270
O O13 0.386847 0.500000 0.992646
O O14 0.864055 0.500000 0.710149
O O15 0.000000 0.616694 0.000000
#
# Coordination Sequence:
#
# PCOD8094751 Si02
#       6
#     8   8   8   8   8   8
#     4  12  24  41  66  95 136 169 218 269 336 386
#     4  10  19  39  61  91 130 172 212 264 323 380
#     4  11  24  43  68  94 131 174 221 273 327 391
#     4  11  21  35  63  97 127 166 219 267 321 388
#     4  11  24  43  65  96 138 177 219 267 331 399
#     4  11  23  44  70  95 125 166 218 274 330 389
#
# _framework density 21.262629
#
# number of rings (size 3 to 8) (size 9 to 14) (size 15 to 20)
#    0.000    1.000    5.000    3.500    0.000    6.000 
#    0.000    2.500    0.000    0.000    0.000    0.000 
#    0.000    0.000    0.000    0.000    0.000    0.000 
#
# Total GULP energy -297433.739799 kJ/mol
# GULP energy per Si atom -12393.072492 kJ/mol
# Density = 2.121423 g / cm^3
# Si number density = 21.262629 Si / 1000 Ang^3
#
#
#
# Elastic Constant Matrix: (Units=GPa)
#
#
# Indices 1 2 3 4 5 6 
#
# 1 108.5855 20.0377 21.4067 0.0000 -3.4566 0.0000
# 2 20.0377 110.2410 29.4035 0.0000 6.2347 0.0000
# 3 21.4067 29.4035 115.4814 0.0000 1.7395 0.0000
# 4 0.0000 0.0000 0.0000 74.3791 0.0000 17.5244
# 5 -3.4566 6.2347 1.7395 0.0000 27.8973 0.0000
# 6 0.0000 0.0000 0.0000 17.5244 0.0000 21.6329
#
#
#
# Elastic Compliance Matrix: (Units=1/GPa)
#
#
# Indices 1 2 3 4 5 6 
#
# 1 0.009825 -0.001487 -0.001467 0.000000 0.001641 0.000000
# 2 -0.001487 0.010072 -0.002254 0.000000 -0.002295 0.000000
# 3 -0.001467 -0.002254 0.009509 0.000000 -0.000271 0.000000
# 4 0.000000 0.000000 0.000000 0.016616 0.000000 -0.013460
# 5 0.001641 -0.002295 -0.000271 0.000000 0.036579 0.000000
# 6 0.000000 0.000000 0.000000 -0.013460 0.000000 0.057130
#
#
# Mechanical properties :
#
#
# Convention : Reuss Voigt Hill
#
# Bulk Modulus (GPa) = 52.66146 52.88929 52.77538
# Shear Modulus (GPa) = 31.95307 42.34589 37.14948
#
# Velocity S-wave (km/s) = 3.88078 4.46754 4.18445
# Velocity P-wave (km/s) = 6.70086 7.17915 6.94412
#
# Compressibility (1/GPa) = 0.01898922
#
# Stress axis : x y z
#
# Youngs Moduli (GPa) = 101.77796 99.28082 105.15827
#
# Poissons Ratio (x) = 0.14766 0.15430
# Poissons Ratio (y) = 0.15138 0.23706
# Poissons Ratio (z) = 0.14934 0.22381
#
# Static dielectric constant tensor:
#      x y z
#    x 5.106760 0.000000 -0.370940 
#    y 0.000000 2.843350 0.000000 
#    z -0.370940 0.000000 3.492020 
# 
# 
# High freq. dielectric constant tensor:
#      x y z
#    x 1.833050 0.000000 0.001810 
#    y 0.000000 1.839300 0.000000 
#    z 0.001810 0.000000 1.820970 
# 
# From -- ./inp_files/167651.got.cif
#   From: 2010.06.25/outbox.cif.g09.slc.cpg/sg12_84_cif.got.tgz:167651.got - 2010.06.28 00:19:55.
