data_PCOD8094476
_publ_section_title
;
Structure prediction by ZEFSAII (Michael W. Deem and Ramdas Pophale) SiO2 
 PCOD8094476
Probable space group: C 2/M
;
_chemical_formula_sum "Si O2"
_cell_formula_units_Z 48
_cell_length_a 16.957772
_cell_length_b 27.774305
_cell_length_c 9.832649
_cell_angle_alpha 90.000000
_cell_angle_beta 149.517316
_cell_angle_gamma 90.000000
_cell_volume 2349.246035
_symmetry_space_group_name_H-M "C 2/M"
_symmetry_group_IT_number 12
_symmetry_cell_setting 'monoclinic'
loop_
_space_group_symop_operation_xyz
x,y,z
-x,y,-z
-x,-y,-z
x,-y,z
1/2+x,1/2+y,z
1/2-x,1/2+y,-z
1/2-x,1/2-y,-z
1/2+x,1/2-y,z
loop_
_atom_site_type_symbol
_atom_site_label
_atom_site_fract_x
_atom_site_fract_y
_atom_site_fract_z
Si Si1 0.645530 0.054118 0.121028
Si Si2 0.885701 0.303576 0.087876
Si Si3 0.445040 0.054479 0.568289
Si Si4 0.877818 0.809022 0.086347
Si Si5 0.701312 0.352230 0.585243
Si Si6 0.289933 0.852679 0.410067
O O1 0.784521 0.090932 0.359842
O O2 0.704432 0.000000 0.239163
O O3 0.500000 0.067541 0.000000
O O4 0.593970 0.059898 0.888088
O O5 0.912946 0.246975 0.119759
O O6 0.045105 0.327707 0.371448
O O7 0.759360 0.318238 0.011836
O O8 0.832283 0.322992 0.862194
O O9 0.500000 0.068440 0.500000
O O10 0.307625 0.089983 0.411614
O O11 0.379188 0.000000 0.477069
O O12 0.030697 0.834575 0.373748
O O13 0.836800 0.831732 0.880570
O O14 0.728539 0.341463 0.468129
#
# Coordination Sequence:
#
# PCOD8094476 Si02
#       6
#     8   8   8   8   8   8
#     4  10  19  37  64  93 125 166 211 251 306 384
#     4  11  23  44  64  85 117 172 215 246 305 382
#     4  10  20  36  62  93 121 159 212 256 294 366
#     4  11  26  41  61  88 128 162 202 262 318 365
#     4  12  23  39  62  96 125 157 205 264 315 359
#     4  12  23  39  63  92 122 161 208 252 310 374
#
# _framework density 20.432086999999999
#
# number of rings (size 3 to 8) (size 9 to 14) (size 15 to 20)
#    0.000    1.000    3.333    4.000    0.000    6.667 
#    0.000    0.833    0.000    5.000    0.000    0.000 
#    0.000    0.000    0.000    0.000    0.000    0.000 
#
# Total GULP energy -297755.723807 kJ/mol
# GULP energy per Si atom -12406.488492 kJ/mol
# Density = 2.038558 g / cm^3
# Si number density = 20.432087 Si / 1000 Ang^3
#
#
#
# Elastic Constant Matrix: (Units=GPa)
#
#
# Indices 1 2 3 4 5 6 
#
# 1 67.5377 35.0448 10.1831 0.0000 -15.3103 0.0000
# 2 35.0448 125.1133 42.5584 0.0000 8.8786 0.0000
# 3 10.1831 42.5584 80.8500 0.0000 -1.3678 0.0000
# 4 0.0000 0.0000 0.0000 13.2979 0.0000 -20.4016
# 5 -15.3103 8.8786 -1.3678 0.0000 39.0394 0.0000
# 6 0.0000 0.0000 0.0000 -20.4016 0.0000 -1.2973
#
#
#
# Elastic Compliance Matrix: (Units=1/GPa)
#
#
# Indices 1 2 3 4 5 6 
#
# 1 0.020301 -0.006759 0.001162 0.000000 0.009539 0.000000
# 2 -0.006759 0.012215 -0.005674 0.000000 -0.005627 0.000000
# 3 0.001162 -0.005674 0.015247 0.000000 0.002280 0.000000
# 4 0.000000 0.000000 0.000000 0.002993 0.000000 -0.047065
# 5 0.009539 -0.005627 0.002280 0.000000 0.030716 0.000000
# 6 0.000000 0.000000 0.000000 -0.047065 0.000000 -0.030677
#
#
# Mechanical properties :
#
#
# Convention : Reuss Voigt Hill
#
# Bulk Modulus (GPa) = 39.64676 49.89708 44.77192
# Shear Modulus (GPa) = 61.16721 22.58898 41.87809
#
# Velocity S-wave (km/s) = 5.47739 3.32861 4.53219
# Velocity P-wave (km/s) = 7.71030 6.26473 7.02480
#
# Compressibility (1/GPa) = 0.02522274
#
# Stress axis : x y z
#
# Youngs Moduli (GPa) = 49.25913 81.86493 65.58469
#
# Poissons Ratio (x) = 0.55329 -0.07622
# Poissons Ratio (y) = 0.33292 0.37212
# Poissons Ratio (z) = -0.05724 0.46449
#
# Static dielectric constant tensor:
#      x y z
#    x 3.680540 0.000000 -0.196840 
#    y 0.000000 3.961320 0.000000 
#    z -0.196840 0.000000 3.708680 
# 
# 
# High freq. dielectric constant tensor:
#      x y z
#    x 1.798240 0.000000 -0.026480 
#    y 0.000000 1.814210 0.000000 
#    z -0.026480 0.000000 1.789620 
# 
# From -- ./inp_files/67416.got.cif
#   From: 2010.06.25/outbox.cif.g09.slc.cpg/sg12_34_cif.got.tgz:67416.got - 2010.06.28 00:19:55.
