data_PCOD8094496
_publ_section_title
;
Structure prediction by ZEFSAII (Michael W. Deem and Ramdas Pophale) SiO2 
 PCOD8094496
Probable space group: C 2/M
;
_chemical_formula_sum "Si O2"
_cell_formula_units_Z 40
_cell_length_a 13.457227
_cell_length_b 27.219716
_cell_length_c 13.499480
_cell_angle_alpha 90.000000
_cell_angle_beta 158.264988
_cell_angle_gamma 90.000000
_cell_volume 1831.162456
_symmetry_space_group_name_H-M "C 2/M"
_symmetry_group_IT_number 12
_symmetry_cell_setting 'monoclinic'
loop_
_space_group_symop_operation_xyz
x,y,z
-x,y,-z
-x,-y,-z
x,-y,z
1/2+x,1/2+y,z
1/2-x,1/2+y,-z
1/2-x,1/2-y,-z
1/2+x,1/2-y,z
loop_
_atom_site_type_symbol
_atom_site_label
_atom_site_fract_x
_atom_site_fract_y
_atom_site_fract_z
Si Si1 0.831544 0.554886 0.040013
Si Si2 0.687868 0.306191 0.463290
Si Si3 0.866427 0.344656 0.980097
Si Si4 0.248514 0.054171 0.402756
Si Si5 0.274336 0.349248 0.714723
O O1 0.894809 0.500000 0.055374
O O2 0.831737 0.596060 0.953951
O O3 0.047921 0.570247 0.322610
O O4 0.545420 0.555000 0.825037
O O5 0.750000 0.250000 0.500000
O O6 0.642821 0.332323 0.317038
O O7 0.944289 0.327786 0.755769
O O8 0.417623 0.316061 0.276155
O O9 0.000000 0.330263 0.000000
O O10 0.262610 0.091706 0.323919
O O11 0.320334 0.000000 0.428616
O O12 0.000000 0.324686 0.500000
O O13 0.500000 0.332907 0.000000
#
# Coordination Sequence:
#
# PCOD8094496 Si02
#       5
#     8   8   8   8   8
#     4  10  19  37  65  96 134 176 213 261 325 394
#     4  12  27  48  68  95 134 172 221 285 337 384
#     4  12  24  44  73 101 132 173 222 271 336 400
#     4  10  20  37  62  91 133 178 216 261 321 387
#     4  12  24  40  67  95 129 172 220 268 328 393
#
# _framework density 21.844048000000001
#
# number of rings (size 3 to 8) (size 9 to 14) (size 15 to 20)
#    0.000    0.800    4.000    3.600    0.000    3.600 
#    0.000    0.000    0.000    6.000    0.000    0.000 
#    0.000    0.000    0.000    0.000    0.000    0.000 
#
# Total GULP energy -248022.956086 kJ/mol
# GULP energy per Si atom -12401.147804 kJ/mol
# Density = 2.179433 g / cm^3
# Si number density = 21.844048 Si / 1000 Ang^3
#
#
#
# Elastic Constant Matrix: (Units=GPa)
#
#
# Indices 1 2 3 4 5 6 
#
# 1 79.9409 21.0086 15.3721 -0.0115 9.7327 -0.0025
# 2 21.0086 118.5657 24.6804 -0.0018 -1.2501 -0.0006
# 3 15.3721 24.6804 132.7981 -0.0226 10.5546 -0.0043
# 4 -0.0115 -0.0018 -0.0226 25.9392 -0.0086 7.6359
# 5 9.7327 -1.2501 10.5546 -0.0086 37.5085 -0.0015
# 6 -0.0025 -0.0006 -0.0043 7.6359 -0.0015 12.2310
#
#
#
# Elastic Compliance Matrix: (Units=1/GPa)
#
#
# Indices 1 2 3 4 5 6 
#
# 1 0.013690 -0.002275 -0.000893 0.000004 -0.003377 -0.000001
# 2 -0.002275 0.009173 -0.001547 -0.000001 0.001332 0.000000
# 3 -0.000893 -0.001547 0.008088 0.000006 -0.002096 -0.000002
# 4 0.000004 -0.000001 0.000006 0.047232 0.000007 -0.029487
# 5 -0.003377 0.001332 -0.002096 0.000007 0.028171 -0.000002
# 6 -0.000001 0.000000 -0.000002 -0.029487 -0.000002 0.100169
#
#
# Mechanical properties :
#
#
# Convention : Reuss Voigt Hill
#
# Bulk Modulus (GPa) = 46.47044 50.38077 48.42560
# Shear Modulus (GPa) = 22.40860 33.15196 27.78028
#
# Velocity S-wave (km/s) = 3.20636 3.89995 3.57004
# Velocity P-wave (km/s) = 5.91841 6.58737 6.26183
#
# Compressibility (1/GPa) = 0.02151906
#
# Stress axis : x y z
#
# Youngs Moduli (GPa) = 73.04528 109.01028 123.64340
#
# Poissons Ratio (x) = 0.24804 0.11047
# Poissons Ratio (y) = 0.16621 0.19132
# Poissons Ratio (z) = 0.06526 0.16867
#
# Static dielectric constant tensor:
#      x y z
#    x 4.008590 0.000090 0.013600 
#    y 0.000090 4.776430 -0.000030 
#    z 0.013600 -0.000030 4.081340 
# 
# 
# High freq. dielectric constant tensor:
#      x y z
#    x 1.837640 0.000000 0.012260 
#    y 0.000000 1.867580 0.000000 
#    z 0.012260 0.000000 1.878930 
# 
# From -- ./inp_files/7570.got.cif
#   From: 2010.06.25/outbox.cif.g09.slc.cpg/sg12_4_cif.got.tgz:7570.got - 2010.06.28 00:19:55.
