data_PCOD8094028
_publ_section_title
;
Structure prediction by ZEFSAII (Michael W. Deem and Ramdas Pophale) SiO2 
 PCOD8094028
Probable space group: C 2/M
;
_chemical_formula_sum "Si O2"
_cell_formula_units_Z 40
_cell_length_a 24.328140
_cell_length_b 8.810371
_cell_length_c 13.791031
_cell_angle_alpha 90.000000
_cell_angle_beta 137.144253
_cell_angle_gamma 90.000000
_cell_volume 2010.516563
_symmetry_space_group_name_H-M "C 2/M"
_symmetry_group_IT_number 12
_symmetry_cell_setting 'monoclinic'
loop_
_space_group_symop_operation_xyz
x,y,z
-x,y,-z
-x,-y,-z
x,-y,z
1/2+x,1/2+y,z
1/2-x,1/2+y,-z
1/2-x,1/2-y,-z
1/2+x,1/2-y,z
loop_
_atom_site_type_symbol
_atom_site_label
_atom_site_fract_x
_atom_site_fract_y
_atom_site_fract_z
Si Si1 0.484906 0.824427 0.376398
Si Si2 0.879020 0.318793 0.589249
Si Si3 0.302176 0.824570 0.149708
Si Si4 0.915648 0.321445 0.850777
Si Si5 0.253860 0.678604 0.288449
O O1 0.500000 0.744763 0.500000
O O2 0.544114 0.755955 0.372124
O O3 0.392572 0.800985 0.227372
O O4 0.508213 0.000000 0.416276
O O5 0.870658 0.500000 0.576771
O O6 0.892979 0.255898 0.715685
O O7 0.797979 0.247914 0.439394
O O8 0.289779 0.748144 0.237323
O O9 0.279979 0.000000 0.132383
O O10 0.250000 0.750000 0.000000
O O11 0.927903 0.500000 0.855736
O O12 0.841830 0.283500 0.828149
O O13 0.000000 0.250047 0.000000
O O14 0.268509 0.500000 0.306169
#
# Coordination Sequence:
#
# PCOD8094028 Si02
#       5
#     8   8   8   8   8
#     4   9  17  33  58  85 108 143 194 234 272 337
#     4  10  19  36  62  84 110 151 196 242 283 333
#     4  11  23  39  60  87 118 152 190 234 285 342
#     4   9  20  36  58  85 111 149 201 243 279 336
#     4  11  22  37  58  86 117 150 191 240 290 341
#
# _framework density 19.895385000000001
#
# number of rings (size 3 to 8) (size 9 to 14) (size 15 to 20)
#    0.000    2.000    2.000    1.800    2.800    0.000 
#    0.000    4.000    0.000    3.000    0.000    0.000 
#    0.000    0.000    0.000    0.000    0.000    0.000 
#
# Total GULP energy -247962.140837 kJ/mol
# GULP energy per Si atom -12398.107042 kJ/mol
# Density = 1.985010 g / cm^3
# Si number density = 19.895385 Si / 1000 Ang^3
#
#
#
# Elastic Constant Matrix: (Units=GPa)
#
#
# Indices 1 2 3 4 5 6 
#
# 1 83.0014 27.2776 26.9601 0.0000 6.9752 0.0000
# 2 27.2776 56.6684 36.3954 0.0000 3.9848 0.0000
# 3 26.9601 36.3954 129.4626 0.0000 -1.2066 0.0000
# 4 0.0000 0.0000 0.0000 30.2616 0.0000 0.8853
# 5 6.9752 3.9848 -1.2066 0.0000 35.6281 0.0000
# 6 0.0000 0.0000 0.0000 0.8853 0.0000 16.2333
#
#
#
# Elastic Compliance Matrix: (Units=1/GPa)
#
#
# Indices 1 2 3 4 5 6 
#
# 1 0.014662 -0.006010 -0.001384 0.000000 -0.002245 0.000000
# 2 -0.006010 0.024245 -0.005580 0.000000 -0.001724 0.000000
# 3 -0.001384 -0.005580 0.009593 0.000000 0.001220 0.000000
# 4 0.000000 0.000000 0.000000 0.033098 0.000000 -0.001805
# 5 -0.002245 -0.001724 0.001220 0.000000 0.028741 0.000000
# 6 0.000000 0.000000 0.000000 -0.001805 0.000000 0.061700
#
#
# Mechanical properties :
#
#
# Convention : Reuss Voigt Hill
#
# Bulk Modulus (GPa) = 44.34821 50.04428 47.19625
# Shear Modulus (GPa) = 24.33029 28.32455 26.32742
#
# Velocity S-wave (km/s) = 3.50081 3.77725 3.64166
# Velocity P-wave (km/s) = 6.21932 6.65070 6.43863
#
# Compressibility (1/GPa) = 0.02254882
#
# Stress axis : x y z
#
# Youngs Moduli (GPa) = 68.20531 41.24596 104.24606
#
# Poissons Ratio (x) = 0.24790 0.14433
# Poissons Ratio (y) = 0.40994 0.58172
# Poissons Ratio (z) = 0.09443 0.23016
#
# Static dielectric constant tensor:
#      x y z
#    x 4.045990 0.000000 -0.068830 
#    y 0.000000 3.264730 0.000000 
#    z -0.068830 0.000000 3.801250 
# 
# 
# High freq. dielectric constant tensor:
#      x y z
#    x 1.791580 0.000000 0.004010 
#    y 0.000000 1.733550 0.000000 
#    z 0.004010 0.000000 1.787550 
# 
# From -- ./inp_files/220566.got.cif
#   From: 2010.06.25/outbox.cif.g09.slc.cpg/sg12_111_cif.got.tgz:220566.got - 2010.06.28 00:19:55.
