data_PCOD8094563
_publ_section_title
;
Structure prediction by ZEFSAII (Michael W. Deem and Ramdas Pophale) SiO2 
 PCOD8094563
Probable space group: C 2/M
;
_chemical_formula_sum "Si O2"
_cell_formula_units_Z 64
_cell_length_a 15.162306
_cell_length_b 8.758188
_cell_length_c 28.559217
_cell_angle_alpha 90.000000
_cell_angle_beta 122.173225
_cell_angle_gamma 90.000000
_cell_volume 3210.133319
_symmetry_space_group_name_H-M "C 2/M"
_symmetry_group_IT_number 12
_symmetry_cell_setting 'monoclinic'
loop_
_space_group_symop_operation_xyz
x,y,z
-x,y,-z
-x,-y,-z
x,-y,z
1/2+x,1/2+y,z
1/2-x,1/2+y,-z
1/2-x,1/2-y,-z
1/2+x,1/2-y,z
loop_
_atom_site_type_symbol
_atom_site_label
_atom_site_fract_x
_atom_site_fract_y
_atom_site_fract_z
Si Si1 0.710757 0.319346 0.705923
Si Si2 0.059803 0.322884 0.220758
Si Si3 0.917483 0.818609 0.417701
Si Si4 0.849206 0.819307 0.500142
Si Si5 0.133638 0.675710 0.777231
Si Si6 0.494752 0.170448 0.893394
Si Si7 0.211610 0.329610 0.112986
Si Si8 0.657049 0.679284 0.002411
O O1 0.713866 0.500000 0.701573
O O2 0.827371 0.248205 0.737397
O O3 0.644832 0.249747 0.644205
O O4 0.656739 0.278262 0.739248
O O5 0.077097 0.500000 0.213899
O O6 0.002054 0.256770 0.157970
O O7 0.988405 0.299981 0.246088
O O8 0.856165 0.765856 0.447544
O O9 0.038407 0.764278 0.447463
O O10 0.918949 0.000000 0.418321
O O11 0.750000 0.750000 0.500000
O O12 0.836568 0.000000 0.500379
O O13 0.160347 0.500000 0.774219
O O14 0.194566 0.728162 0.840920
O O15 0.373202 0.159888 0.870415
O O16 0.550773 0.282364 0.945491
O O17 0.545659 0.000000 0.910410
O O18 0.251527 0.500000 0.111190
O O19 0.156874 0.252443 0.053328
O O20 0.669478 0.500000 0.010899
O O21 0.750000 0.750000 0.000000
#
# Coordination Sequence:
#
# PCOD8094563 Si02
#       8
#     8   8   8   8   8   8   8   8
#     4  10  19  38  60  79 108 155 200 236 280 340
#     4   9  19  36  57  79 107 146 188 228 283 344
#     4   8  17  33  56  80 112 154 198 235 278 344
#     4   9  17  33  55  85 116 152 194 237 285 337
#     4  11  22  36  57  86 117 148 186 240 292 343
#     4  10  20  38  60  81 107 144 186 231 285 354
#     4  11  22  39  62  84 108 146 190 232 286 355
#     4  12  25  39  56  82 113 145 185 235 290 350
#
# _framework density 19.936865999999998
#
# number of rings (size 3 to 8) (size 9 to 14) (size 15 to 20)
#    0.000    2.000    1.250    3.750    0.000    4.500 
#    0.000    5.625    0.000    0.000    0.000    0.000 
#    0.000    0.000    0.000    0.000    0.000    0.000 
#
# Total GULP energy -396662.564556 kJ/mol
# GULP energy per Si atom -12395.705142 kJ/mol
# Density = 1.989149 g / cm^3
# Si number density = 19.936866 Si / 1000 Ang^3
#
#
#
# Elastic Constant Matrix: (Units=GPa)
#
#
# Indices 1 2 3 4 5 6 
#
# 1 129.9098 17.2446 52.1127 0.0000 1.1617 0.0000
# 2 17.2446 47.0315 12.7391 0.0000 2.0110 0.0000
# 3 52.1127 12.7391 146.2905 0.0000 4.6132 0.0000
# 4 0.0000 0.0000 0.0000 16.9643 0.0000 -2.1102
# 5 1.1617 2.0110 4.6132 0.0000 16.7746 0.0000
# 6 0.0000 0.0000 0.0000 -2.1102 0.0000 30.0310
#
#
#
# Elastic Compliance Matrix: (Units=1/GPa)
#
#
# Indices 1 2 3 4 5 6 
#
# 1 0.009278 -0.002585 -0.003096 0.000000 0.000519 0.000000
# 2 -0.002585 0.022571 -0.000973 0.000000 -0.002259 0.000000
# 3 -0.003096 -0.000973 0.008083 0.000000 -0.001892 0.000000
# 4 0.000000 0.000000 0.000000 0.059467 0.000000 0.004179
# 5 0.000519 -0.002259 -0.001892 0.000000 0.060369 0.000000
# 6 0.000000 0.000000 0.000000 0.004179 0.000000 0.033593
#
#
# Mechanical properties :
#
#
# Convention : Reuss Voigt Hill
#
# Bulk Modulus (GPa) = 37.56316 54.15827 45.86072
# Shear Modulus (GPa) = 23.19704 28.82968 26.01336
#
# Velocity S-wave (km/s) = 3.41475 3.80682 3.61610
# Velocity P-wave (km/s) = 5.86765 6.82249 6.36301
#
# Compressibility (1/GPa) = 0.02662183
#
# Stress axis : x y z
#
# Youngs Moduli (GPa) = 107.77807 44.30551 123.71421
#
# Poissons Ratio (x) = 0.11455 0.38307
# Poissons Ratio (y) = 0.27866 0.12040
# Poissons Ratio (z) = 0.33373 0.04312
#
# Static dielectric constant tensor:
#      x y z
#    x 3.678530 0.000000 0.095430 
#    y 0.000000 3.372760 0.000000 
#    z 0.095430 0.000000 4.266170 
# 
# 
# High freq. dielectric constant tensor:
#      x y z
#    x 1.787820 0.000000 -0.000550 
#    y 0.000000 1.746850 0.000000 
#    z -0.000550 0.000000 1.779120 
# 
# From -- ./inp_files/375070.got.cif
#   From: 2010.06.25/outbox.cif.g09.slc.cpg/sg12_188_cif.got.tgz:375070.got - 2010.06.28 00:19:55.
