data_PCOD8094664
_publ_section_title
;
Structure prediction by ZEFSAII (Michael W. Deem and Ramdas Pophale) SiO2 
 PCOD8094664
Probable space group: C 2/M
;
_chemical_formula_sum "Si O2"
_cell_formula_units_Z 64
_cell_length_a 26.235183
_cell_length_b 14.535339
_cell_length_c 8.645799
_cell_angle_alpha 90.000000
_cell_angle_beta 105.729927
_cell_angle_gamma 90.000000
_cell_volume 3173.495008
_symmetry_space_group_name_H-M "C 2/M"
_symmetry_group_IT_number 12
_symmetry_cell_setting 'monoclinic'
loop_
_space_group_symop_operation_xyz
x,y,z
-x,y,-z
-x,-y,-z
x,-y,z
1/2+x,1/2+y,z
1/2-x,1/2+y,-z
1/2-x,1/2-y,-z
1/2+x,1/2-y,z
loop_
_atom_site_type_symbol
_atom_site_label
_atom_site_fract_x
_atom_site_fract_y
_atom_site_fract_z
Si Si1 0.893513 0.395993 0.731176
Si Si2 0.405357 0.186621 0.050443
Si Si3 0.312578 0.762041 0.546047
Si Si4 0.491444 0.785206 0.673168
Si Si5 0.976799 0.900631 0.818746
Si Si6 0.719993 0.603258 0.022850
Si Si7 0.188723 0.727740 0.801558
Si Si8 0.870075 0.142976 0.830103
O O1 0.897540 0.500000 0.673575
O O2 0.835113 0.356077 0.641290
O O3 0.937974 0.334306 0.684150
O O4 0.900703 0.396617 0.923572
O O5 0.459549 0.174939 0.188986
O O6 0.356508 0.186544 0.127527
O O7 0.403053 0.277539 0.944340
O O8 0.250000 0.750000 0.500000
O O9 0.333712 0.758749 0.388098
O O10 0.335109 0.677277 0.659388
O O11 0.500000 0.804775 0.500000
O O12 0.487718 0.675295 0.696645
O O13 0.914442 0.921096 0.791673
O O14 0.001921 0.000000 0.790496
O O15 0.000000 0.865371 0.000000
O O16 0.736710 0.500000 0.981321
O O17 0.764816 0.651677 0.164105
O O18 0.666985 0.590343 0.079620
O O19 0.709810 0.671725 0.870929
#
# Coordination Sequence:
#
# PCOD8094664 Si02
#       8
#     8   8   8   8   8   8   8   8
#     4  11  25  44  68  94 125 167 216 260 312 385
#     4  10  21  39  65  91 124 167 207 253 316 373
#     4  11  21  41  66  88 127 169 207 259 319 367
#     4  12  23  41  67  94 131 169 203 262 327 379
#     4  11  21  38  65  93 122 164 216 260 309 378
#     4  10  21  38  60  88 124 166 211 257 308 370
#     4  10  22  39  61  91 125 162 208 263 312 368
#     4  10  19  38  64  87 120 167 209 250 313 374
#
# _framework density 20.167038999999999
#
# number of rings (size 3 to 8) (size 9 to 14) (size 15 to 20)
#    0.000    1.375    5.000    1.500    1.750    2.500 
#    0.000    2.500    0.000    0.000    0.000    0.000 
#    0.000    0.000    0.000    0.000    0.000    0.000 
#
# Total GULP energy -396654.705493 kJ/mol
# GULP energy per Si atom -12395.459547 kJ/mol
# Density = 2.012114 g / cm^3
# Si number density = 20.167039 Si / 1000 Ang^3
#
#
#
# Elastic Constant Matrix: (Units=GPa)
#
#
# Indices 1 2 3 4 5 6 
#
# 1 95.4668 25.0148 41.4372 0.0000 10.2527 0.0000
# 2 25.0148 114.9697 34.6190 0.0000 5.1712 0.0000
# 3 41.4372 34.6190 135.9787 0.0000 4.0213 0.0000
# 4 0.0000 0.0000 0.0000 9.0282 0.0000 -2.5795
# 5 10.2527 5.1712 4.0213 0.0000 38.5073 0.0000
# 6 0.0000 0.0000 0.0000 -2.5795 0.0000 10.2049
#
#
#
# Elastic Compliance Matrix: (Units=1/GPa)
#
#
# Indices 1 2 3 4 5 6 
#
# 1 0.012659 -0.001615 -0.003363 0.000000 -0.002802 0.000000
# 2 -0.001615 0.009666 -0.001949 0.000000 -0.000664 0.000000
# 3 -0.003363 -0.001949 0.008868 0.000000 0.000231 0.000000
# 4 0.000000 0.000000 0.000000 0.119387 0.000000 0.030178
# 5 -0.002802 -0.000664 0.000231 0.000000 0.026780 0.000000
# 6 0.000000 0.000000 0.000000 0.030178 0.000000 0.105620
#
#
# Mechanical properties :
#
#
# Convention : Reuss Voigt Hill
#
# Bulk Modulus (GPa) = 57.67763 60.95081 59.31422
# Shear Modulus (GPa) = 16.52259 27.90436 22.21348
#
# Velocity S-wave (km/s) = 2.86542 3.72380 3.32245
# Velocity P-wave (km/s) = 6.29361 6.98409 6.64782
#
# Compressibility (1/GPa) = 0.01733774
#
# Stress axis : x y z
#
# Youngs Moduli (GPa) = 78.99519 103.45340 112.75984
#
# Poissons Ratio (x) = 0.16713 0.37926
# Poissons Ratio (y) = 0.12762 0.21977
# Poissons Ratio (z) = 0.26570 0.20163
#
# Static dielectric constant tensor:
#      x y z
#    x 3.809010 0.000000 0.114840 
#    y 0.000000 3.509340 0.000000 
#    z 0.114840 0.000000 3.812130 
# 
# 
# High freq. dielectric constant tensor:
#      x y z
#    x 1.796340 0.000000 0.008040 
#    y 0.000000 1.772820 0.000000 
#    z 0.008040 0.000000 1.784530 
# 
# From -- ./inp_files/104660.got.cif
#   From: 2010.06.25/outbox.cif.g09.slc.cpg/sg12_53_cif.got.tgz:104660.got - 2010.06.28 00:19:55.
