data_PCOD8094051
_publ_section_title
;
Structure prediction by ZEFSAII (Michael W. Deem and Ramdas Pophale) SiO2 
 PCOD8094051
Probable space group: C 2/M
;
_chemical_formula_sum "Si O2"
_cell_formula_units_Z 56
_cell_length_a 25.764500
_cell_length_b 19.496588
_cell_length_c 8.625152
_cell_angle_alpha 90.000000
_cell_angle_beta 140.264161
_cell_angle_gamma 90.000000
_cell_volume 2769.600440
_symmetry_space_group_name_H-M "C 2/M"
_symmetry_group_IT_number 12
_symmetry_cell_setting 'monoclinic'
loop_
_space_group_symop_operation_xyz
x,y,z
-x,y,-z
-x,-y,-z
x,-y,z
1/2+x,1/2+y,z
1/2-x,1/2+y,-z
1/2-x,1/2-y,-z
1/2+x,1/2-y,z
loop_
_atom_site_type_symbol
_atom_site_label
_atom_site_fract_x
_atom_site_fract_y
_atom_site_fract_z
Si Si1 0.162203 0.924279 0.854426
Si Si2 0.250124 0.327865 0.446397
Si Si3 0.951541 0.836498 0.235959
Si Si4 0.694972 0.922628 0.590976
Si Si5 0.114353 0.826959 0.475548
Si Si6 0.603641 0.807150 0.894924
Si Si7 0.918628 0.675771 0.510469
O O1 0.095649 0.906417 0.835267
O O2 0.160016 0.867685 0.716472
O O3 0.141053 0.000000 0.741010
O O4 0.250421 0.923963 0.130542
O O5 0.250000 0.250000 0.500000
O O6 0.241385 0.381231 0.564655
O O7 0.338271 0.344502 0.573449
O O8 0.176529 0.342069 0.156931
O O9 0.887825 0.775275 0.057267
O O10 0.000000 0.809021 0.500000
O O11 0.018437 0.848529 0.253169
O O12 0.612343 0.885851 0.452610
O O13 0.676285 0.000000 0.490780
O O14 0.121014 0.745804 0.518048
O O15 0.609909 0.832191 0.732482
O O16 0.515235 0.827435 0.756537
#
# Coordination Sequence:
#
# PCOD8094051 Si02
#       7
#     8   8   8   8   8   8   8
#     4  10  20  36  61  87 117 157 192 236 292 346
#     4  12  24  36  57  88 118 159 193 234 292 348
#     4   9  16  33  55  89 121 140 184 245 289 333
#     4  11  25  42  56  82 122 157 194 237 295 354
#     4  10  20  35  59  90 114 150 196 240 282 342
#     4  10  19  36  62  89 114 143 199 251 284 338
#     4  10  19  40  63  87 112 148 196 248 294 330
#
# _framework density 20.219522000000001
#
# number of rings (size 3 to 8) (size 9 to 14) (size 15 to 20)
#    0.000    1.714    5.714    1.714    0.000    4.857 
#    0.000    5.714    0.000    1.714    0.000    0.000 
#    0.000    0.000    0.000    0.000    0.000    0.000 
#
# Total GULP energy -347102.261971 kJ/mol
# GULP energy per Si atom -12396.509356 kJ/mol
# Density = 2.017350 g / cm^3
# Si number density = 20.219522 Si / 1000 Ang^3
#
#
#
# Elastic Constant Matrix: (Units=GPa)
#
#
# Indices 1 2 3 4 5 6 
#
# 1 141.7132 49.8160 -0.1872 0.0000 9.1573 0.0000
# 2 49.8160 119.2575 4.3274 0.0000 1.9797 0.0000
# 3 -0.1872 4.3274 26.8835 0.0000 3.3353 0.0000
# 4 0.0000 0.0000 0.0000 21.3972 0.0000 2.0312
# 5 9.1573 1.9797 3.3353 0.0000 19.7579 0.0000
# 6 0.0000 0.0000 0.0000 2.0312 0.0000 27.5611
#
#
#
# Elastic Compliance Matrix: (Units=1/GPa)
#
#
# Indices 1 2 3 4 5 6 
#
# 1 0.008551 -0.003549 0.001101 0.000000 -0.003793 0.000000
# 2 -0.003549 0.009915 -0.001738 0.000000 0.000945 0.000000
# 3 0.001101 -0.001738 0.038329 0.000000 -0.006807 0.000000
# 4 0.000000 0.000000 0.000000 0.047064 0.000000 -0.003469
# 5 -0.003793 0.000945 -0.006807 0.000000 0.053425 0.000000
# 6 0.000000 0.000000 0.000000 -0.003469 0.000000 0.036539
#
#
# Mechanical properties :
#
#
# Convention : Reuss Voigt Hill
#
# Bulk Modulus (GPa) = 20.65071 43.97408 32.31240
# Shear Modulus (GPa) = 22.90058 29.33643 26.11850
#
# Velocity S-wave (km/s) = 3.36906 3.81320 3.59799
# Velocity P-wave (km/s) = 5.03682 6.41738 5.76855
#
# Compressibility (1/GPa) = 0.04842448
#
# Stress axis : x y z
#
# Youngs Moduli (GPa) = 116.95160 100.85762 26.08961
#
# Poissons Ratio (x) = 0.35792 -0.02874
# Poissons Ratio (y) = 0.41503 0.04534
# Poissons Ratio (z) = -0.12881 0.17528
#
# Static dielectric constant tensor:
#      x y z
#    x 3.855920 0.000000 0.155310 
#    y 0.000000 3.564680 0.000000 
#    z 0.155310 0.000000 3.501230 
# 
# 
# High freq. dielectric constant tensor:
#      x y z
#    x 1.796320 0.000000 0.014100 
#    y 0.000000 1.768190 0.000000 
#    z 0.014100 0.000000 1.774070 
# 
# From -- ./inp_files/106061.got.cif
#   From: 2010.06.25/outbox.cif.g09.slc.cpg/sg12_54_cif.got.tgz:106061.got - 2010.06.28 00:19:55.
