data_PCOD8094247
_publ_section_title
;
Structure prediction by ZEFSAII (Michael W. Deem and Ramdas Pophale) SiO2 
 PCOD8094247
Probable space group: C 2/M
;
_chemical_formula_sum "Si O2"
_cell_formula_units_Z 64
_cell_length_a 31.314899
_cell_length_b 8.737745
_cell_length_c 17.517676
_cell_angle_alpha 90.000000
_cell_angle_beta 43.005359
_cell_angle_gamma 90.000000
_cell_volume 3269.292345
_symmetry_space_group_name_H-M "C 2/M"
_symmetry_group_IT_number 12
_symmetry_cell_setting 'monoclinic'
loop_
_space_group_symop_operation_xyz
x,y,z
-x,y,-z
-x,-y,-z
x,-y,z
1/2+x,1/2+y,z
1/2-x,1/2+y,-z
1/2-x,1/2-y,-z
1/2+x,1/2-y,z
loop_
_atom_site_type_symbol
_atom_site_label
_atom_site_fract_x
_atom_site_fract_y
_atom_site_fract_z
Si Si1 0.003659 0.820119 0.584227
Si Si2 0.682257 0.681385 0.573700
Si Si3 0.378256 0.820292 0.786984
Si Si4 0.441119 0.181293 0.984033
Si Si5 0.637087 0.681531 0.469281
Si Si6 0.080558 0.681119 0.816442
Si Si7 0.661822 0.182089 0.995556
Si Si8 0.294468 0.318567 0.767926
O O1 0.068569 0.759096 0.534817
O O2 0.000000 0.779233 0.500000
O O3 0.950481 0.727263 0.698239
O O4 0.994194 0.000000 0.609915
O O5 0.687903 0.500000 0.564539
O O6 0.750000 0.750000 0.500000
O O7 0.656835 0.745972 0.525950
O O8 0.634659 0.730591 0.701626
O O9 0.344934 0.765593 0.908368
O O10 0.346982 0.735010 0.757680
O O11 0.371771 0.000000 0.783765
O O12 0.512361 0.234901 0.874602
O O13 0.395244 0.250867 0.979825
O O14 0.441223 0.000000 0.982243
O O15 0.415953 0.232236 0.099770
O O16 0.635906 0.500000 0.471869
O O17 0.687332 0.738728 0.340591
O O18 0.090696 0.500000 0.793463
O O19 0.660901 0.000000 0.990141
O O20 0.726854 0.249855 0.878295
O O21 0.293213 0.500000 0.773071
#
# Coordination Sequence:
#
# PCOD8094247 Si02
#       8
#     8   8   8   8   8   8   8   8
#     4  10  19  37  61  81 105 145 196 232 264 329
#     4  11  24  40  59  86 118 149 188 234 286 339
#     4  11  22  34  51  84 120 144 174 228 290 331
#     4   8  16  33  57  85 109 142 189 229 271 334
#     4   9  20  37  59  84 106 142 194 236 269 325
#     4   9  18  35  61  85 110 144 185 230 278 332
#     4   9  19  32  54  82 110 144 187 229 269 325
#     4  10  19  37  60  77 102 150 197 228 263 322
#
# _framework density 19.576101999999999
#
# number of rings (size 3 to 8) (size 9 to 14) (size 15 to 20)
#    0.000    2.375    1.250    1.875    3.500    0.250 
#    0.000    3.750    0.000    2.250    0.000    0.000 
#    0.000    0.000    0.000    0.000    0.000    0.000 
#
# Total GULP energy -396778.537484 kJ/mol
# GULP energy per Si atom -12399.329296 kJ/mol
# Density = 1.953155 g / cm^3
# Si number density = 19.576102 Si / 1000 Ang^3
#
#
#
# Elastic Constant Matrix: (Units=GPa)
#
#
# Indices 1 2 3 4 5 6 
#
# 1 122.6262 15.1071 52.5705 0.0017 -6.3816 0.0029
# 2 15.1071 18.5812 21.1155 0.0539 0.5583 -0.0101
# 3 52.5705 21.1155 153.2764 0.0171 -8.9711 -0.0022
# 4 0.0017 0.0539 0.0171 28.7018 -0.0040 -0.7322
# 5 -6.3816 0.5583 -8.9711 -0.0040 31.6958 -0.0004
# 6 0.0029 -0.0101 -0.0022 -0.7322 -0.0004 18.3437
#
#
#
# Elastic Compliance Matrix: (Units=1/GPa)
#
#
# Indices 1 2 3 4 5 6 
#
# 1 0.009992 -0.005170 -0.002636 0.000011 0.001357 -0.000004
# 2 -0.005170 0.066905 -0.007701 -0.000121 -0.004399 0.000032
# 3 -0.002636 -0.007701 0.008609 0.000010 0.002042 -0.000002
# 4 0.000011 -0.000121 0.000010 0.034877 0.000011 0.001392
# 5 0.001357 -0.004399 0.002042 0.000011 0.032478 -0.000001
# 6 -0.000004 0.000032 -0.000002 0.001392 -0.000001 0.054570
#
#
# Mechanical properties :
#
#
# Convention : Reuss Voigt Hill
#
# Bulk Modulus (GPa) = 18.35100 52.45222 35.40161
# Shear Modulus (GPa) = 19.48489 29.46098 24.47293
#
# Velocity S-wave (km/s) = 3.15832 3.88357 3.53957
# Velocity P-wave (km/s) = 4.76388 6.85286 5.90154
#
# Compressibility (1/GPa) = 0.05449295
#
# Stress axis : x y z
#
# Youngs Moduli (GPa) = 100.07764 14.94646 116.16417
#
# Poissons Ratio (x) = 0.07727 0.30615
# Poissons Ratio (y) = 0.51739 0.89461
# Poissons Ratio (z) = 0.26375 0.11511
#
# Static dielectric constant tensor:
#      x y z
#    x 3.892020 0.000000 -0.052410 
#    y 0.000000 3.094390 0.000000 
#    z -0.052410 0.000000 3.816920 
# 
# 
# High freq. dielectric constant tensor:
#      x y z
#    x 1.772000 0.000000 -0.003090 
#    y 0.000000 1.717680 0.000000 
#    z -0.003090 0.000000 1.778610 
# 
# From -- ./inp_files/295448.got.cif
#   From: 2010.06.25/outbox.cif.g09.slc.cpg/sg12_148_cif.got.tgz:295448.got - 2010.06.28 00:19:55.
