data_PCOD8094074
_publ_section_title
;
Structure prediction by ZEFSAII (Michael W. Deem and Ramdas Pophale) SiO2 
 PCOD8094074
Probable space group: C 2/M
;
_chemical_formula_sum "Si O2"
_cell_formula_units_Z 52
_cell_length_a 25.480512
_cell_length_b 21.164421
_cell_length_c 5.231970
_cell_angle_alpha 90.000000
_cell_angle_beta 116.908901
_cell_angle_gamma 90.000000
_cell_volume 2516.006838
_symmetry_space_group_name_H-M "C 2/M"
_symmetry_group_IT_number 12
_symmetry_cell_setting 'monoclinic'
loop_
_space_group_symop_operation_xyz
x,y,z
-x,y,-z
-x,-y,-z
x,-y,z
1/2+x,1/2+y,z
1/2-x,1/2+y,-z
1/2-x,1/2-y,-z
1/2+x,1/2-y,z
loop_
_atom_site_type_symbol
_atom_site_label
_atom_site_fract_x
_atom_site_fract_y
_atom_site_fract_z
Si Si1 0.440238 0.197405 0.129814
Si Si2 0.191595 0.076140 0.114464
Si Si3 0.677240 0.072380 0.531014
Si Si4 0.624447 0.613078 0.475559
Si Si5 0.893959 0.572447 0.136761
Si Si6 0.461783 0.500000 0.665136
Si Si7 0.928252 0.249860 0.602892
O O1 0.447204 0.121318 0.187477
O O2 0.501802 0.234452 0.253373
O O3 0.401258 0.225748 0.276750
O O4 0.403231 0.210609 0.789384
O O5 0.257660 0.101676 0.307463
O O6 0.152743 0.101862 0.261846
O O7 0.186082 0.000000 0.086687
O O8 0.172441 0.108867 0.806865
O O9 0.633347 0.097156 0.655828
O O10 0.685181 0.000000 0.620161
O O11 0.653868 0.081004 0.192678
O O12 0.576803 0.561491 0.431661
O O13 0.587714 0.677544 0.392700
O O14 0.917736 0.500000 0.199746
O O15 0.500000 0.500000 0.500000
O O16 0.500000 0.500000 0.000000
#
# Coordination Sequence:
#
# PCOD8094074 Si02
#       7
#     8   8   8   8   8   4   8
#     4  10  21  40  59  82 116 153 203 233 289 351
#     4  11  20  38  59  90 121 152 192 249 301 345
#     4   9  19  33  60  92 122 147 184 236 307 359
#     4  12  23  39  58  83 121 159 203 238 297 342
#     4  10  19  36  62  94 117 148 185 244 298 350
#     4  12  26  36  56  86 120 152 196 266 292 330
#     4  10  23  38  58  80 111 165 200 234 275 356
#
# _framework density 20.667669
#
# number of rings (size 3 to 8) (size 9 to 14) (size 15 to 20)
#    0.000    1.538    1.538    3.692    4.308    2.462 
#    0.000    3.077    0.000   18.462    0.000    0.000 
#    0.000    0.000    0.000    0.000    0.000    0.000 
#
# Total GULP energy -322139.195940 kJ/mol
# GULP energy per Si atom -12389.969075 kJ/mol
# Density = 2.062063 g / cm^3
# Si number density = 20.667669 Si / 1000 Ang^3
#
#
#
# Elastic Constant Matrix: (Units=GPa)
#
#
# Indices 1 2 3 4 5 6 
#
# 1 63.7678 37.5382 19.2395 0.0000 -20.3486 0.0000
# 2 37.5382 119.5631 -1.8856 0.0000 -10.8374 0.0000
# 3 19.2395 -1.8856 88.4132 0.0000 -37.6324 0.0000
# 4 0.0000 0.0000 0.0000 9.3761 0.0000 -17.7995
# 5 -20.3486 -10.8374 -37.6324 0.0000 43.7996 0.0000
# 6 0.0000 0.0000 0.0000 -17.7995 0.0000 21.2363
#
#
#
# Elastic Compliance Matrix: (Units=1/GPa)
#
#
# Indices 1 2 3 4 5 6 
#
# 1 0.022299 -0.006390 -0.001974 0.000000 0.007083 0.000000
# 2 -0.006390 0.010554 0.002307 0.000000 0.001625 0.000000
# 3 -0.001974 0.002307 0.018354 0.000000 0.015424 0.000000
# 4 0.000000 0.000000 0.000000 -0.180410 0.000000 -0.151214
# 5 0.007083 0.001625 0.015424 0.000000 0.039776 0.000000
# 6 0.000000 0.000000 0.000000 -0.151214 0.000000 -0.079653
#
#
# Mechanical properties :
#
#
# Convention : Reuss Voigt Hill
#
# Bulk Modulus (GPa) = 25.57998 42.39205 33.98602
# Shear Modulus (GPa) = -34.73798 29.33918 -2.69940
#
# Velocity S-wave (km/s) = -4.10419 3.77180 -1.14409
# Velocity P-wave (km/s) = 3.17104 6.28685 3.83855
#
# Compressibility (1/GPa) = 0.03909307
#
# Stress axis : x y z
#
# Youngs Moduli (GPa) = 44.84426 94.75292 54.48314
#
# Poissons Ratio (x) = 0.60550 0.10756
# Poissons Ratio (y) = 0.28657 -0.12571
# Poissons Ratio (z) = 0.08853 -0.21862
#
# Static dielectric constant tensor:
#      x y z
#    x 4.117050 0.000000 -0.840140 
#    y 0.000000 3.714770 0.000000 
#    z -0.840140 0.000000 4.842920 
# 
# 
# High freq. dielectric constant tensor:
#      x y z
#    x 1.796420 0.000000 -0.032400 
#    y 0.000000 1.799200 0.000000 
#    z -0.032400 0.000000 1.828040 
# 
# From -- ./inp_files/25715.got.cif
#   From: 2010.06.25/outbox.cif.g09.slc.cpg/sg12_13_cif.got.tgz:25715.got - 2010.06.28 00:19:55.
