data_PCOD8094394
_publ_section_title
;
Structure prediction by ZEFSAII (Michael W. Deem and Ramdas Pophale) SiO2 
 PCOD8094394
Probable space group: C 2/M
;
_chemical_formula_sum "Si O2"
_cell_formula_units_Z 64
_cell_length_a 20.780980
_cell_length_b 8.692531
_cell_length_c 23.347174
_cell_angle_alpha 90.000000
_cell_angle_beta 49.281040
_cell_angle_gamma 90.000000
_cell_volume 3196.458747
_symmetry_space_group_name_H-M "C 2/M"
_symmetry_group_IT_number 12
_symmetry_cell_setting 'monoclinic'
loop_
_space_group_symop_operation_xyz
x,y,z
-x,y,-z
-x,-y,-z
x,-y,z
1/2+x,1/2+y,z
1/2-x,1/2+y,-z
1/2-x,1/2-y,-z
1/2+x,1/2-y,z
loop_
_atom_site_type_symbol
_atom_site_label
_atom_site_fract_x
_atom_site_fract_y
_atom_site_fract_z
Si Si1 0.119976 0.172093 0.691917
Si Si2 0.049763 0.173321 0.139575
Si Si3 0.580677 0.668369 0.490718
Si Si4 0.032482 0.680726 0.918887
Si Si5 0.982679 0.815597 0.351158
Si Si6 0.773170 0.681969 0.192043
Si Si7 0.862367 0.682094 0.805162
Si Si8 0.220825 0.681073 0.337321
O O1 0.090477 0.247040 0.649326
O O2 0.199640 0.256223 0.674513
O O3 0.042666 0.175644 0.779990
O O4 0.150500 0.000000 0.661125
O O5 0.115667 0.260369 0.143251
O O6 0.036178 0.249897 0.085565
O O7 0.083712 0.000000 0.112054
O O8 0.500000 0.638258 0.500000
O O9 0.624646 0.500000 0.475068
O O10 0.548286 0.741092 0.569111
O O11 0.639846 0.788225 0.423704
O O12 0.031481 0.500000 0.909736
O O13 0.129748 0.741691 0.856205
O O14 0.000000 0.728699 0.000000
O O15 0.071477 0.741522 0.281107
O O16 0.993954 0.000000 0.340571
O O17 0.770785 0.500000 0.185910
O O18 0.730421 0.756424 0.160136
O O19 0.716313 0.731943 0.279505
O O20 0.862482 0.500000 0.805880
O O21 0.229981 0.500000 0.319786
#
# Coordination Sequence:
#
# PCOD8094394 Si02
#       8
#     8   8   8   8   8   8   8   8
#     4   8  16  31  52  78 107 142 182 231 282 333
#     4  10  19  37  62  87 120 157 195 232 283 349
#     4  10  21  35  50  71 104 147 193 240 293 348
#     4  10  22  40  63  92 123 152 188 239 290 340
#     4   9  18  35  55  76 110 153 195 236 289 347
#     4  11  22  38  60  86 117 152 193 235 289 351
#     4  11  22  36  59  89 119 152 197 245 288 335
#     4  11  21  34  54  80 110 143 189 242 291 338
#
# _framework density 20.022157
#
# number of rings (size 3 to 8) (size 9 to 14) (size 15 to 20)
#    0.000    2.000    1.250    3.750    0.000    3.000 
#    0.000    1.250    0.000    0.000    0.000    0.000 
#    0.000    0.000    0.000    0.000    0.000    0.000 
#
# Total GULP energy -396650.070607 kJ/mol
# GULP energy per Si atom -12395.314706 kJ/mol
# Density = 1.997659 g / cm^3
# Si number density = 20.022157 Si / 1000 Ang^3
#
#
#
# Elastic Constant Matrix: (Units=GPa)
#
#
# Indices 1 2 3 4 5 6 
#
# 1 128.7040 39.9667 34.3508 0.0007 20.6977 -0.0005
# 2 39.9667 82.9197 27.4971 0.0008 7.1958 -0.0005
# 3 34.3508 27.4971 73.5900 0.0003 24.6882 -0.0002
# 4 0.0007 0.0008 0.0003 25.4556 -0.0003 2.3063
# 5 20.6977 7.1958 24.6882 -0.0003 30.3958 0.0004
# 6 -0.0005 -0.0005 -0.0002 2.3063 0.0004 30.2205
#
#
#
# Elastic Compliance Matrix: (Units=1/GPa)
#
#
# Indices 1 2 3 4 5 6 
#
# 1 0.010197 -0.003937 -0.001749 0.000000 -0.004592 0.000000
# 2 -0.003937 0.015321 -0.004906 0.000000 0.003039 0.000000
# 3 -0.001749 -0.004906 0.021236 0.000000 -0.014896 0.000000
# 4 0.000000 0.000000 0.000000 0.039558 0.000001 -0.003019
# 5 -0.004592 0.003039 -0.014896 0.000001 0.047405 -0.000001
# 6 0.000000 0.000000 0.000000 -0.003019 -0.000001 0.033320
#
#
# Mechanical properties :
#
#
# Convention : Reuss Voigt Hill
#
# Bulk Modulus (GPa) = 39.10837 54.31587 46.71212
# Shear Modulus (GPa) = 25.41374 29.44099 27.42737
#
# Velocity S-wave (km/s) = 3.56656 3.83877 3.70516
# Velocity P-wave (km/s) = 6.04445 6.84361 6.45641
#
# Compressibility (1/GPa) = 0.02556998
#
# Stress axis : x y z
#
# Youngs Moduli (GPa) = 98.06479 65.27137 47.09058
#
# Poissons Ratio (x) = 0.25696 0.08234
# Poissons Ratio (y) = 0.38605 0.23105
# Poissons Ratio (z) = 0.17148 0.32025
#
# Static dielectric constant tensor:
#      x y z
#    x 3.991800 0.000000 0.163640 
#    y 0.000000 3.509310 0.000000 
#    z 0.163640 0.000000 3.545960 
# 
# 
# High freq. dielectric constant tensor:
#      x y z
#    x 1.800010 0.000000 0.012790 
#    y 0.000000 1.765670 0.000000 
#    z 0.012790 0.000000 1.759040 
# 
# From -- ./inp_files/346011.got.cif
#   From: 2010.06.25/outbox.cif.g09.slc.cpg/sg12_174_cif.got.tgz:346011.got - 2010.06.28 00:19:55.
