data_PCOD8094057
_publ_section_title
;
Structure prediction by ZEFSAII (Michael W. Deem and Ramdas Pophale) SiO2 
 PCOD8094057
Probable space group: C 2/M
;
_chemical_formula_sum "Si O2"
_cell_formula_units_Z 60
_cell_length_a 10.565680
_cell_length_b 22.959256
_cell_length_c 19.213575
_cell_angle_alpha 90.000000
_cell_angle_beta 36.464600
_cell_angle_gamma 90.000000
_cell_volume 2770.053666
_symmetry_space_group_name_H-M "C 2/M"
_symmetry_group_IT_number 12
_symmetry_cell_setting 'monoclinic'
loop_
_space_group_symop_operation_xyz
x,y,z
-x,y,-z
-x,-y,-z
x,-y,z
1/2+x,1/2+y,z
1/2-x,1/2+y,-z
1/2-x,1/2-y,-z
1/2+x,1/2-y,z
loop_
_atom_site_type_symbol
_atom_site_label
_atom_site_fract_x
_atom_site_fract_y
_atom_site_fract_z
Si Si1 0.199944 0.877987 0.538048
Si Si2 0.388386 0.842820 0.113690
Si Si3 0.130644 0.564143 0.087119
Si Si4 0.025417 0.611097 0.710100
Si Si5 0.964455 0.064597 0.759308
Si Si6 0.604018 0.434612 0.853038
Si Si7 0.500000 0.798718 0.500000
Si Si8 0.299261 0.302860 0.669641
O O1 0.335957 0.909841 0.417221
O O2 0.122507 0.928533 0.623780
O O3 0.344871 0.834885 0.519363
O O4 0.006823 0.843871 0.585213
O O5 0.567265 0.887073 0.060978
O O6 0.311899 0.796735 0.205410
O O7 0.197039 0.882430 0.172160
O O8 0.500000 0.808598 0.000000
O O9 0.105534 0.500000 0.064765
O O10 0.976464 0.567265 0.223006
O O11 0.380717 0.575556 0.992456
O O12 0.776409 0.614457 0.798415
O O13 0.124819 0.671932 0.692588
O O14 0.085540 0.070294 0.778213
O O15 0.859716 0.000000 0.799590
O O16 0.688175 0.500000 0.834735
O O17 0.640132 0.760124 0.385321
#
# Coordination Sequence:
#
# PCOD8094057 Si02
#       8
#     8   8   8   8   8   8   4   8
#     4  11  23  40  64  92 119 158 201 250 309 367
#     4  10  19  36  62  89 127 164 204 250 304 359
#     4  10  20  33  55  87 122 168 215 246 290 359
#     4  11  21  36  54  84 120 156 197 252 309 352
#     4  10  21  36  57  93 130 163 204 248 294 359
#     4  10  20  34  54  83 122 167 212 247 286 353
#     4  12  22  44  71  90 111 156 206 258 316 368
#     4  10  23  39  62  91 118 147 202 261 304 364
#
# _framework density 21.660229999999999
#
# number of rings (size 3 to 8) (size 9 to 14) (size 15 to 20)
#    0.000    1.600    2.667    2.400    0.000    2.667 
#    0.000    2.333    0.000   13.600    0.000    0.000 
#    0.000    0.000    0.000    0.000    0.000    0.000 
#
# Total GULP energy -371721.539577 kJ/mol
# GULP energy per Si atom -12390.717986 kJ/mol
# Density = 2.161093 g / cm^3
# Si number density = 21.660230 Si / 1000 Ang^3
#
#
#
# Elastic Constant Matrix: (Units=GPa)
#
#
# Indices 1 2 3 4 5 6 
#
# 1 90.5219 29.0127 33.2616 0.0022 -8.3552 0.0035
# 2 29.0127 38.0431 24.2765 -0.0005 1.3665 0.0039
# 3 33.2616 24.2765 160.5456 -0.0077 30.6769 -0.0033
# 4 0.0022 -0.0005 -0.0077 21.0174 0.0002 1.3655
# 5 -8.3552 1.3665 30.6769 0.0002 45.6198 -0.0108
# 6 0.0035 0.0039 -0.0033 1.3655 -0.0108 -2.6835
#
#
#
# Elastic Compliance Matrix: (Units=1/GPa)
#
#
# Indices 1 2 3 4 5 6 
#
# 1 0.015878 -0.010602 -0.002642 -0.000002 0.005002 -0.000013
# 2 -0.010602 0.036403 -0.003131 -0.000002 -0.000927 0.000046
# 3 -0.002642 -0.003131 0.008404 0.000003 -0.006041 0.000007
# 4 -0.000002 -0.000002 0.000003 0.046057 0.000003 0.023436
# 5 0.005002 -0.000927 -0.006041 0.000003 0.026927 -0.000094
# 6 -0.000013 0.000046 0.000007 0.023436 -0.000094 -0.360727
#
#
# Mechanical properties :
#
#
# Convention : Reuss Voigt Hill
#
# Bulk Modulus (GPa) = 35.79909 51.35691 43.57800
# Shear Modulus (GPa) = -27.02746 26.29474 -0.36636
#
# Velocity S-wave (km/s) = -3.53624 3.48798 -0.41171
# Velocity P-wave (km/s) = 0.33150 6.32321 4.46504
#
# Compressibility (1/GPa) = 0.02793367
#
# Stress axis : x y z
#
# Youngs Moduli (GPa) = 62.98127 27.47039 118.99161
#
# Poissons Ratio (x) = 0.29125 0.31439
# Poissons Ratio (y) = 0.66776 0.37254
# Poissons Ratio (z) = 0.16641 0.08601
#
# Static dielectric constant tensor:
#      x y z
#    x 4.186960 0.000010 0.201680 
#    y 0.000010 3.500240 0.000010 
#    z 0.201680 0.000010 4.307060 
# 
# 
# High freq. dielectric constant tensor:
#      x y z
#    x 1.869490 0.000000 0.014480 
#    y 0.000000 1.799450 0.000000 
#    z 0.014480 0.000000 1.870140 
# 
# From -- ./inp_files/307301.got.cif
#   From: 2010.06.25/outbox.cif.g09.slc.cpg/sg12_154_cif.got.tgz:307301.got - 2010.06.28 00:19:55.
