data_PCOD8094817
_publ_section_title
;
Structure prediction by ZEFSAII (Michael W. Deem and Ramdas Pophale) SiO2 
 PCOD8094817
Probable space group: C 2/M
;
_chemical_formula_sum "Si O2"
_cell_formula_units_Z 40
_cell_length_a 13.846623
_cell_length_b 24.027265
_cell_length_c 11.106770
_cell_angle_alpha 90.000000
_cell_angle_beta 31.474999
_cell_angle_gamma 90.000000
_cell_volume 1929.352989
_symmetry_space_group_name_H-M "C 2/M"
_symmetry_group_IT_number 12
_symmetry_cell_setting 'monoclinic'
loop_
_space_group_symop_operation_xyz
x,y,z
-x,y,-z
-x,-y,-z
x,-y,z
1/2+x,1/2+y,z
1/2-x,1/2+y,-z
1/2-x,1/2-y,-z
1/2+x,1/2-y,z
loop_
_atom_site_type_symbol
_atom_site_label
_atom_site_fract_x
_atom_site_fract_y
_atom_site_fract_z
Si Si1 0.207658 0.765464 0.763384
Si Si2 0.213300 0.937705 0.804299
Si Si3 0.314368 0.136553 0.489211
Si Si4 0.057972 0.160312 0.563073
Si Si5 0.718881 0.839831 0.092914
O O1 0.195979 0.814030 0.676220
O O2 0.341300 0.717530 0.576721
O O3 0.289820 0.791296 0.798620
O O4 0.000000 0.742485 0.000000
O O5 0.327419 0.915263 0.567297
O O6 0.242098 0.899817 0.890115
O O7 0.282883 0.000000 0.758835
O O8 0.000000 0.936887 0.000000
O O9 0.199009 0.121752 0.490582
O O10 0.519993 0.157292 0.238644
O O11 0.000000 0.129441 0.500000
O O12 0.870177 0.174683 0.832818
#
# Coordination Sequence:
#
# PCOD8094817 Si02
#       5
#     8   8   8   8   8
#     4  11  22  38  60  84 118 160 202 247 295 342
#     4  10  19  39  71  97 117 146 188 248 312 351
#     4  11  22  40  60  88 121 153 194 250 298 347
#     4  12  26  39  55  83 122 166 208 233 287 351
#     4  11  23  41  60  87 125 151 196 255 293 344
#
# _framework density 20.732340000000001
#
# number of rings (size 3 to 8) (size 9 to 14) (size 15 to 20)
#    0.000    1.000    4.000    5.400    2.800    3.200 
#    0.000    0.000    0.000    2.400    0.000    2.800 
#    0.000    0.000    0.000    0.000    0.000    0.000 
#
# Total GULP energy -248035.058000 kJ/mol
# GULP energy per Si atom -12401.752900 kJ/mol
# Density = 2.068515 g / cm^3
# Si number density = 20.732340 Si / 1000 Ang^3
#
#
#
# Elastic Constant Matrix: (Units=GPa)
#
#
# Indices 1 2 3 4 5 6 
#
# 1 113.5738 8.6199 48.1114 -0.0020 5.9642 0.0007
# 2 8.6199 77.0403 42.1968 -0.0021 14.4148 0.0011
# 3 48.1114 42.1968 152.8339 -0.0026 -10.8075 0.0018
# 4 -0.0020 -0.0021 -0.0026 19.9643 0.0012 -4.8712
# 5 5.9642 14.4148 -10.8075 0.0012 34.4888 -0.0006
# 6 0.0007 0.0011 0.0018 -4.8712 -0.0006 9.5317
#
#
#
# Elastic Compliance Matrix: (Units=1/GPa)
#
#
# Indices 1 2 3 4 5 6 
#
# 1 0.010612 0.001786 -0.004108 0.000001 -0.003869 0.000000
# 2 0.001786 0.018027 -0.006232 0.000002 -0.009796 -0.000001
# 3 -0.004108 -0.006232 0.010013 0.000000 0.006453 -0.000001
# 4 0.000001 0.000002 0.000000 0.057225 -0.000003 0.029245
# 5 -0.003869 -0.009796 0.006453 -0.000003 0.035780 0.000001
# 6 0.000000 -0.000001 -0.000001 0.029245 0.000001 0.119859
#
#
# Mechanical properties :
#
#
# Convention : Reuss Voigt Hill
#
# Bulk Modulus (GPa) = 46.41340 60.14490 53.27915
# Shear Modulus (GPa) = 18.12873 29.09829 23.61351
#
# Velocity S-wave (km/s) = 2.96026 3.75042 3.37852
# Velocity P-wave (km/s) = 5.84121 6.91574 6.40106
#
# Compressibility (1/GPa) = 0.02154550
#
# Stress axis : x y z
#
# Youngs Moduli (GPa) = 94.22895 55.47291 99.86946
#
# Poissons Ratio (x) = -0.09909 0.41022
# Poissons Ratio (y) = -0.16832 0.62241
# Poissons Ratio (z) = 0.38705 0.34572
#
# Static dielectric constant tensor:
#      x y z
#    x 4.098410 0.000000 -0.048060 
#    y 0.000000 3.579610 0.000000 
#    z -0.048060 0.000000 3.944090 
# 
# 
# High freq. dielectric constant tensor:
#      x y z
#    x 1.817180 0.000000 -0.020070 
#    y 0.000000 1.765880 0.000000 
#    z -0.020070 0.000000 1.827290 
# 
# From -- ./inp_files/148789.got.cif
#   From: 2010.06.25/outbox.cif.g09.slc.cpg/sg12_75_cif.got.tgz:148789.got - 2010.06.28 00:19:55.
