data_PCOD8094258
_publ_section_title
;
Structure prediction by ZEFSAII (Michael W. Deem and Ramdas Pophale) SiO2 
 PCOD8094258
Probable space group: C 2/M
;
_chemical_formula_sum "Si O2"
_cell_formula_units_Z 52
_cell_length_a 17.341763
_cell_length_b 15.321014
_cell_length_c 10.894379
_cell_angle_alpha 90.000000
_cell_angle_beta 71.925137
_cell_angle_gamma 90.000000
_cell_volume 2751.723388
_symmetry_space_group_name_H-M "C 2/M"
_symmetry_group_IT_number 12
_symmetry_cell_setting 'monoclinic'
loop_
_space_group_symop_operation_xyz
x,y,z
-x,y,-z
-x,-y,-z
x,-y,z
1/2+x,1/2+y,z
1/2-x,1/2+y,-z
1/2-x,1/2-y,-z
1/2+x,1/2-y,z
loop_
_atom_site_type_symbol
_atom_site_label
_atom_site_fract_x
_atom_site_fract_y
_atom_site_fract_z
Si Si1 0.784721 0.293682 0.360574
Si Si2 0.446595 0.759475 0.873816
Si Si3 0.392912 0.315508 0.148734
Si Si4 0.550444 0.103736 0.709848
Si Si5 0.967811 0.000000 0.655768
Si Si6 0.500000 0.796048 0.500000
Si Si7 0.877423 0.178214 0.681043
Si Si8 0.065075 0.000000 0.860728
O O1 0.750000 0.250000 0.500000
O O2 0.817443 0.213471 0.265717
O O3 0.855829 0.365391 0.338397
O O4 0.713442 0.339290 0.318996
O O5 0.520792 0.690284 0.822018
O O6 0.492850 0.854028 0.844720
O O7 0.382019 0.740981 0.798377
O O8 0.399769 0.745403 0.024467
O O9 0.377810 0.417639 0.136414
O O10 0.509750 0.138960 0.607261
O O11 0.546865 0.000000 0.722120
O O12 0.913502 0.085267 0.698608
O O13 0.000000 0.000000 0.500000
O O14 0.034398 0.000000 0.733203
O O15 0.423816 0.730476 0.550081
O O16 0.000000 0.000000 0.000000
#
# Coordination Sequence:
#
# PCOD8094258 Si02
#       8
#     8   8   8   8   4   4   8   4
#     4  11  24  39  55  84 127 162 188 233 313 363
#     4   9  19  38  64  84 111 152 201 245 298 345
#     4  10  20  39  61  91 114 157 198 243 298 360
#     4  10  21  38  61  87 112 152 205 250 291 348
#     4  12  24  32  60  98 120 153 206 259 299 352
#     4  10  19  37  60  80 114 158 198 245 293 350
#     4  11  21  37  56  85 122 157 193 243 299 363
#     4  12  20  38  68  94 122 150 210 258 294 364
#
# _framework density 18.897248000000001
#
# number of rings (size 3 to 8) (size 9 to 14) (size 15 to 20)
#    0.000    1.538    5.385    0.231    3.231    0.615 
#    1.385    6.154    1.692    0.000    0.000    0.000 
#    0.000    0.000    0.000    0.000    0.000    0.000 
#
# Total GULP energy -322135.846068 kJ/mol
# GULP energy per Si atom -12389.840233 kJ/mol
# Density = 1.885424 g / cm^3
# Si number density = 18.897248 Si / 1000 Ang^3
#
#
#
# Elastic Constant Matrix: (Units=GPa)
#
#
# Indices 1 2 3 4 5 6 
#
# 1 79.7088 27.5836 33.5062 0.0000 1.6835 0.0000
# 2 27.5836 153.8476 46.2887 0.0000 -12.4735 0.0000
# 3 33.5062 46.2887 123.7238 0.0000 -11.1479 0.0000
# 4 0.0000 0.0000 0.0000 22.6367 0.0000 2.4027
# 5 1.6835 -12.4735 -11.1479 0.0000 27.6809 0.0000
# 6 0.0000 0.0000 0.0000 2.4027 0.0000 22.0607
#
#
#
# Elastic Compliance Matrix: (Units=1/GPa)
#
#
# Indices 1 2 3 4 5 6 
#
# 1 0.014756 -0.001819 -0.003601 0.000000 -0.003167 0.000000
# 2 -0.001819 0.007690 -0.002140 0.000000 0.002714 0.000000
# 3 -0.003601 -0.002140 0.010160 0.000000 0.003346 0.000000
# 4 0.000000 0.000000 0.000000 0.044693 0.000000 -0.004868
# 5 -0.003167 0.002714 0.003346 0.000000 0.038889 0.000000
# 6 0.000000 0.000000 0.000000 -0.004868 0.000000 0.045860
#
#
# Mechanical properties :
#
#
# Convention : Reuss Voigt Hill
#
# Bulk Modulus (GPa) = 57.18875 63.55966 60.37421
# Shear Modulus (GPa) = 27.32315 31.13580 29.22948
#
# Velocity S-wave (km/s) = 3.80660 4.06351 3.93715
# Velocity P-wave (km/s) = 7.04620 7.46482 7.25853
#
# Compressibility (1/GPa) = 0.01748596
#
# Stress axis : x y z
#
# Youngs Moduli (GPa) = 67.77050 130.04000 98.42703
#
# Poissons Ratio (x) = 0.23653 0.35443
# Poissons Ratio (y) = 0.12327 0.21062
# Poissons Ratio (z) = 0.24404 0.27827
#
# Static dielectric constant tensor:
#      x y z
#    x 3.331460 0.000000 0.086310 
#    y 0.000000 3.729900 0.000000 
#    z 0.086310 0.000000 3.575680 
# 
# 
# High freq. dielectric constant tensor:
#      x y z
#    x 1.713920 0.000000 0.009230 
#    y 0.000000 1.731640 0.000000 
#    z 0.009230 0.000000 1.742870 
# 
# From -- ./inp_files/155350.got.cif
#   From: 2010.06.25/outbox.cif.g09.slc.cpg/sg12_78_cif.got.tgz:155350.got - 2010.06.28 00:19:55.
