data_PCOD8094652
_publ_section_title
;
Structure prediction by ZEFSAII (Michael W. Deem and Ramdas Pophale) SiO2 
 PCOD8094652
Probable space group: C 2/M
;
_chemical_formula_sum "Si O2"
_cell_formula_units_Z 48
_cell_length_a 11.703183
_cell_length_b 23.091923
_cell_length_c 11.765221
_cell_angle_alpha 90.000000
_cell_angle_beta 49.602803
_cell_angle_gamma 90.000000
_cell_volume 2421.441726
_symmetry_space_group_name_H-M "C 2/M"
_symmetry_group_IT_number 12
_symmetry_cell_setting 'monoclinic'
loop_
_space_group_symop_operation_xyz
x,y,z
-x,y,-z
-x,-y,-z
x,-y,z
1/2+x,1/2+y,z
1/2-x,1/2+y,-z
1/2-x,1/2-y,-z
1/2+x,1/2-y,z
loop_
_atom_site_type_symbol
_atom_site_label
_atom_site_fract_x
_atom_site_fract_y
_atom_site_fract_z
Si Si1 0.187802 0.065055 0.650481
Si Si2 0.648433 0.145718 0.830603
Si Si3 0.420025 0.358038 0.827353
Si Si4 0.935289 0.568609 0.311747
Si Si5 0.395055 0.270495 0.172984
Si Si6 0.753060 0.622521 0.834361
O O1 0.339796 0.081159 0.486082
O O2 0.213101 0.073600 0.768381
O O3 0.045763 0.099941 0.695646
O O4 0.144878 0.000000 0.652500
O O5 0.787913 0.144792 0.824513
O O6 0.656920 0.092059 0.737662
O O7 0.663471 0.206970 0.752618
O O8 0.500000 0.138437 0.000000
O O9 0.502317 0.296110 0.791769
O O10 0.364317 0.380512 0.986467
O O11 0.972127 0.500000 0.273568
O O12 0.082206 0.609075 0.224487
O O13 0.262296 0.315054 0.220223
O O14 0.500000 0.256796 0.000000
#
# Coordination Sequence:
#
# PCOD8094652 Si02
#       6
#     8   8   8   8   8   8
#     4  10  22  40  60  83 118 161 199 240 293 349
#     4  11  22  38  61  89 120 158 194 244 295 355
#     4  10  21  38  60  92 117 150 198 243 296 347
#     4  11  24  39  59  87 123 163 196 238 299 356
#     4   8  19  34  62  90 116 151 194 244 297 348
#     4  10  19  38  63  92 115 147 200 252 289 343
#
# _framework density 19.822901999999999
#
# number of rings (size 3 to 8) (size 9 to 14) (size 15 to 20)
#    0.000    2.000    1.667    2.500    2.333    7.000 
#    0.000    5.000    7.333    0.000    0.000    0.000 
#    0.000    0.000    0.000    0.000    0.000    0.000 
#
# Total GULP energy -297477.530284 kJ/mol
# GULP energy per Si atom -12394.897095 kJ/mol
# Density = 1.977778 g / cm^3
# Si number density = 19.822902 Si / 1000 Ang^3
#
#
#
# Elastic Constant Matrix: (Units=GPa)
#
#
# Indices 1 2 3 4 5 6 
#
# 1 125.4581 34.6623 13.6794 0.0000 4.7143 0.0000
# 2 34.6623 87.4533 35.3739 0.0000 -4.4847 0.0000
# 3 13.6794 35.3739 47.4959 0.0000 -2.2634 0.0000
# 4 0.0000 0.0000 0.0000 12.8636 0.0000 -4.0927
# 5 4.7143 -4.4847 -2.2634 0.0000 22.8022 0.0000
# 6 0.0000 0.0000 0.0000 -4.0927 0.0000 13.7311
#
#
#
# Elastic Compliance Matrix: (Units=1/GPa)
#
#
# Indices 1 2 3 4 5 6 
#
# 1 0.009103 -0.003766 0.000058 0.000000 -0.002617 0.000000
# 2 -0.003766 0.018015 -0.012185 0.000000 0.003112 0.000000
# 3 0.000058 -0.012185 0.030140 0.000000 0.000583 0.000000
# 4 0.000000 0.000000 0.000000 0.085883 0.000000 0.025598
# 5 -0.002617 0.003112 0.000583 0.000000 0.045066 0.000000
# 6 0.000000 0.000000 0.000000 0.025598 0.000000 0.080457
#
#
# Mechanical properties :
#
#
# Convention : Reuss Voigt Hill
#
# Bulk Modulus (GPa) = 39.25497 47.53759 43.39628
# Shear Modulus (GPa) = 16.18428 21.65882 18.92155
#
# Velocity S-wave (km/s) = 2.86045 3.30906 3.09290
# Velocity P-wave (km/s) = 5.54575 6.21555 5.89018
#
# Compressibility (1/GPa) = 0.02547448
#
# Stress axis : x y z
#
# Youngs Moduli (GPa) = 109.85120 55.50818 33.17817
#
# Poissons Ratio (x) = 0.20903 -0.00193
# Poissons Ratio (y) = 0.41368 0.40426
# Poissons Ratio (z) = -0.00638 0.67634
#
# Static dielectric constant tensor:
#      x y z
#    x 3.617750 0.000000 -0.070360 
#    y 0.000000 3.783730 0.000000 
#    z -0.070360 0.000000 3.558290 
# 
# 
# High freq. dielectric constant tensor:
#      x y z
#    x 1.776490 0.000000 -0.005690 
#    y 0.000000 1.776040 0.000000 
#    z -0.005690 0.000000 1.752510 
# 
# From -- ./inp_files/51354.got.cif
#   From: 2010.06.25/outbox.cif.g09.slc.cpg/sg12_26_cif.got.tgz:51354.got - 2010.06.28 00:19:55.
