data_PCOD8094712
_publ_section_title
;
Structure prediction by ZEFSAII (Michael W. Deem and Ramdas Pophale) SiO2 
 PCOD8094712
Probable space group: C 2/M
;
_chemical_formula_sum "Si O2"
_cell_formula_units_Z 36
_cell_length_a 10.858127
_cell_length_b 18.908512
_cell_length_c 9.698182
_cell_angle_alpha 90.000000
_cell_angle_beta 69.959716
_cell_angle_gamma 90.000000
_cell_volume 1870.583753
_symmetry_space_group_name_H-M "C 2/M"
_symmetry_group_IT_number 12
_symmetry_cell_setting 'monoclinic'
loop_
_space_group_symop_operation_xyz
x,y,z
-x,y,-z
-x,-y,-z
x,-y,z
1/2+x,1/2+y,z
1/2-x,1/2+y,-z
1/2-x,1/2-y,-z
1/2+x,1/2-y,z
loop_
_atom_site_type_symbol
_atom_site_label
_atom_site_fract_x
_atom_site_fract_y
_atom_site_fract_z
Si Si1 0.861761 0.580238 0.504856
Si Si2 0.000000 0.133797 0.500000
Si Si3 0.677172 0.300165 0.632959
Si Si4 0.656952 0.784781 0.918032
Si Si5 0.746367 0.078838 0.738666
O O1 0.839640 0.500000 0.562425
O O2 0.752026 0.625982 0.623083
O O3 0.863032 0.586904 0.338168
O O4 0.000000 0.610608 0.500000
O O5 0.962229 0.183129 0.384061
O O6 0.882544 0.086168 0.602806
O O7 0.750000 0.250000 0.500000
O O8 0.666590 0.265106 0.783514
O O9 0.718268 0.862575 0.865983
O O10 0.500000 0.791464 0.000000
O O11 0.750000 0.750000 0.000000
O O12 0.742099 0.000000 0.807184
#
# Coordination Sequence:
#
# PCOD8094712 Si02
#       5
#     8   4   8   8   8
#     4   9  19  34  61  94 120 149 204 263 305 356
#     4  10  19  38  66  98 117 154 216 274 309 364
#     4  11  22  37  66  87 119 162 211 257 310 364
#     4  12  27  43  61  94 134 171 212 261 318 385
#     4  10  21  39  63  91 123 166 207 256 319 377
#
# _framework density 19.245329000000002
#
# number of rings (size 3 to 8) (size 9 to 14) (size 15 to 20)
#    0.000    1.556    4.444    1.667    4.667    1.333 
#    0.000    1.111    0.000    2.667    0.000    0.000 
#    0.000    0.000    0.000    0.000    0.000    0.000 
#
# Total GULP energy -223058.887295 kJ/mol
# GULP energy per Si atom -12392.160405 kJ/mol
# Density = 1.920153 g / cm^3
# Si number density = 19.245329 Si / 1000 Ang^3
#
#
#
# Elastic Constant Matrix: (Units=GPa)
#
#
# Indices 1 2 3 4 5 6 
#
# 1 131.8459 50.0477 48.3648 0.0000 11.8114 0.0000
# 2 50.0477 138.8024 61.6446 0.0000 6.5446 0.0000
# 3 48.3648 61.6446 104.9692 0.0000 5.2209 0.0000
# 4 0.0000 0.0000 0.0000 34.3082 0.0000 3.1036
# 5 11.8114 6.5446 5.2209 0.0000 32.2854 0.0000
# 6 0.0000 0.0000 0.0000 3.1036 0.0000 14.4757
#
#
#
# Elastic Compliance Matrix: (Units=1/GPa)
#
#
# Indices 1 2 3 4 5 6 
#
# 1 0.009743 -0.001966 -0.003203 0.000000 -0.002648 0.000000
# 2 -0.001966 0.010179 -0.005046 0.000000 -0.000528 0.000000
# 3 -0.003203 -0.005046 0.013969 0.000000 -0.000064 0.000000
# 4 0.000000 0.000000 0.000000 0.029724 0.000000 -0.006373
# 5 -0.002648 -0.000528 -0.000064 0.000000 0.032060 0.000000
# 6 0.000000 0.000000 0.000000 -0.006373 0.000000 0.070448
#
#
# Mechanical properties :
#
#
# Convention : Reuss Voigt Hill
#
# Bulk Modulus (GPa) = 74.28406 77.30354 75.79380
# Shear Modulus (GPa) = 26.17267 30.58455 28.37861
#
# Velocity S-wave (km/s) = 3.69175 3.99079 3.84418
# Velocity P-wave (km/s) = 7.54018 7.84155 7.69234
#
# Compressibility (1/GPa) = 0.01346184
#
# Stress axis : x y z
#
# Youngs Moduli (GPa) = 102.63856 98.24052 71.58770
#
# Poissons Ratio (x) = 0.19310 0.22930
# Poissons Ratio (y) = 0.20175 0.36122
# Poissons Ratio (z) = 0.32876 0.49571
#
# Static dielectric constant tensor:
#      x y z
#    x 4.009320 0.000000 0.092770 
#    y 0.000000 3.716970 0.000000 
#    z 0.092770 0.000000 3.019230 
# 
# 
# High freq. dielectric constant tensor:
#      x y z
#    x 1.766620 0.000000 0.007750 
#    y 0.000000 1.764530 0.000000 
#    z 0.007750 0.000000 1.717840 
# 
# From -- ./inp_files/46812.got.cif
#   From: 2010.06.25/outbox.cif.g09.slc.cpg/sg12_24_cif.got.tgz:46812.got - 2010.06.28 00:19:55.
