data_PCOD8094711
_publ_section_title
;
Structure prediction by ZEFSAII (Michael W. Deem and Ramdas Pophale) SiO2 
 PCOD8094711
Probable space group: C 2/M
;
_chemical_formula_sum "Si O2"
_cell_formula_units_Z 40
_cell_length_a 13.514049
_cell_length_b 17.414367
_cell_length_c 12.902973
_cell_angle_alpha 90.000000
_cell_angle_beta 146.266510
_cell_angle_gamma 90.000000
_cell_volume 1686.299029
_symmetry_space_group_name_H-M "C 2/M"
_symmetry_group_IT_number 12
_symmetry_cell_setting 'monoclinic'
loop_
_space_group_symop_operation_xyz
x,y,z
-x,y,-z
-x,-y,-z
x,-y,z
1/2+x,1/2+y,z
1/2-x,1/2+y,-z
1/2-x,1/2-y,-z
1/2+x,1/2-y,z
loop_
_atom_site_type_symbol
_atom_site_label
_atom_site_fract_x
_atom_site_fract_y
_atom_site_fract_z
Si Si1 0.043928 0.000000 0.877764
Si Si2 0.393469 0.000000 0.061768
Si Si3 0.000000 0.627365 0.000000
Si Si4 0.238669 0.161397 0.611108
Si Si5 0.761172 0.000000 0.464228
Si Si6 0.108935 0.831355 0.996648
Si Si7 0.514002 0.234229 0.711820
O O1 0.848852 0.000000 0.654522
O O2 0.072749 0.077190 0.968867
O O3 0.192246 0.000000 0.919577
O O4 0.413026 0.077190 0.013629
O O5 0.543846 0.000000 0.283076
O O6 0.156513 0.677951 0.189296
O O7 0.175182 0.073095 0.548255
O O8 0.368556 0.173452 0.624968
O O9 0.068053 0.216966 0.455076
O O10 0.318326 0.811964 0.187435
O O11 0.048195 0.792901 0.836529
O O12 0.000000 0.796881 0.000000
#
# Coordination Sequence:
#
# PCOD8094711 Si02
#       7
#     4   4   4   8   4   8   8
#     4  12  22  43  73  94 138 188 232 294 338 404
#     4   9  20  37  63  99 140 173 218 286 353 403
#     4   9  18  36  66 100 136 173 222 282 342 427
#     4  10  20  41  68 100 141 181 225 282 349 419
#     4  10  19  38  66  95 130 184 225 271 348 412
#     4  11  24  44  71 101 135 184 240 283 342 417
#     4  10  23  43  69  99 143 184 221 290 358 404
#
# _framework density 23.720585
#
# number of rings (size 3 to 8) (size 9 to 14) (size 15 to 20)
#    0.000    1.800    2.000    3.300    1.400    0.000 
#    0.000   14.000    0.000    2.400    0.000    0.000 
#    0.000    0.000    0.000    0.000    0.000    0.000 
#
# Total GULP energy -247899.714677 kJ/mol
# GULP energy per Si atom -12394.985734 kJ/mol
# Density = 2.366660 g / cm^3
# Si number density = 23.720585 Si / 1000 Ang^3
#
#
#
# Elastic Constant Matrix: (Units=GPa)
#
#
# Indices 1 2 3 4 5 6 
#
# 1 83.4215 17.0599 49.3777 0.0000 8.6193 0.0000
# 2 17.0599 130.0378 61.9079 0.0000 -11.3670 0.0000
# 3 49.3777 61.9079 185.0102 0.0000 -16.4771 0.0000
# 4 0.0000 0.0000 0.0000 48.7572 0.0000 -3.0038
# 5 8.6193 -11.3670 -16.4771 0.0000 29.1715 0.0000
# 6 0.0000 0.0000 0.0000 -3.0038 0.0000 22.8497
#
#
#
# Elastic Compliance Matrix: (Units=1/GPa)
#
#
# Indices 1 2 3 4 5 6 
#
# 1 0.015618 -0.000475 -0.004672 0.000000 -0.007439 0.000000
# 2 -0.000475 0.009266 -0.002780 0.000000 0.002181 0.000000
# 3 -0.004672 -0.002780 0.008012 0.000000 0.004823 0.000000
# 4 0.000000 0.000000 0.000000 0.020677 0.000000 0.002718
# 5 -0.007439 0.002181 0.004823 0.000000 0.040052 0.000000
# 6 0.000000 0.000000 0.000000 0.002718 0.000000 0.044122
#
#
# Mechanical properties :
#
#
# Convention : Reuss Voigt Hill
#
# Bulk Modulus (GPa) = 58.67487 72.79563 65.73525
# Shear Modulus (GPa) = 31.39097 38.16394 34.77746
#
# Velocity S-wave (km/s) = 3.64175 4.01546 3.83316
# Velocity P-wave (km/s) = 6.51711 7.22869 6.88210
#
# Compressibility (1/GPa) = 0.01704307
#
# Stress axis : x y z
#
# Youngs Moduli (GPa) = 64.02697 107.91696 124.81821
#
# Poissons Ratio (x) = 0.05126 0.58315
# Poissons Ratio (y) = 0.03042 0.34695
# Poissons Ratio (z) = 0.29913 0.29997
#
# Static dielectric constant tensor:
#      x y z
#    x 3.849570 0.000000 0.007660 
#    y 0.000000 4.499440 0.000000 
#    z 0.007660 0.000000 4.541290 
# 
# 
# High freq. dielectric constant tensor:
#      x y z
#    x 1.901660 0.000000 0.002700 
#    y 0.000000 1.958090 0.000000 
#    z 0.002700 0.000000 1.949990 
# 
# From -- ./inp_files/216985.got.cif
#   From: 2010.06.25/outbox.cif.g09.slc.cpg/sg12_109_cif.got.tgz:216985.got - 2010.06.28 00:19:55.
