data_PCOD8094181
_publ_section_title
;
Structure prediction by ZEFSAII (Michael W. Deem and Ramdas Pophale) SiO2 
 PCOD8094181
Probable space group: C 2/M
;
_chemical_formula_sum "Si O2"
_cell_formula_units_Z 44
_cell_length_a 20.200299
_cell_length_b 16.908353
_cell_length_c 7.637897
_cell_angle_alpha 90.000000
_cell_angle_beta 122.348622
_cell_angle_gamma 90.000000
_cell_volume 2203.895282
_symmetry_space_group_name_H-M "C 2/M"
_symmetry_group_IT_number 12
_symmetry_cell_setting 'monoclinic'
loop_
_space_group_symop_operation_xyz
x,y,z
-x,y,-z
-x,-y,-z
x,-y,z
1/2+x,1/2+y,z
1/2-x,1/2+y,-z
1/2-x,1/2-y,-z
1/2+x,1/2-y,z
loop_
_atom_site_type_symbol
_atom_site_label
_atom_site_fract_x
_atom_site_fract_y
_atom_site_fract_z
Si Si1 0.374651 0.631663 0.282732
Si Si2 0.702295 0.089273 0.969478
Si Si3 0.311480 0.209827 0.354202
Si Si4 0.500000 0.286167 0.000000
Si Si5 0.484225 0.412320 0.727061
Si Si6 0.154240 0.703041 0.194448
O O1 0.295775 0.589025 0.115173
O O2 0.361657 0.718712 0.343755
O O3 0.433527 0.631418 0.202574
O O4 0.420611 0.576880 0.485633
O O5 0.667949 0.123799 0.102049
O O6 0.671593 0.000000 0.905560
O O7 0.675938 0.136791 0.759165
O O8 0.219614 0.232766 0.229676
O O9 0.341170 0.186048 0.590164
O O10 0.449401 0.347185 0.809135
O O11 0.432240 0.231149 0.984658
O O12 0.499688 0.500000 0.827642
#
# Coordination Sequence:
#
# PCOD8094181 Si02
#       6
#     8   8   8   4   8   8
#     4  10  19  37  56  82 116 152 187 224 281 352
#     4  11  22  38  61  85 113 151 195 248 293 325
#     4  10  20  40  60  85 111 154 199 236 276 348
#     4  12  21  38  55  84 116 158 190 230 283 346
#     4  11  21  32  54  88 123 150 179 226 284 349
#     4  10  22  38  61  84 115 151 200 233 281 345
#
# _framework density 19.964651
#
# number of rings (size 3 to 8) (size 9 to 14) (size 15 to 20)
#    0.000    1.455    1.818    6.818    0.000    0.727 
#    0.000    1.364    0.000    1.091    0.000    0.000 
#    0.000    0.000    0.000    0.000    0.000    0.000 
#
# Total GULP energy -272626.261519 kJ/mol
# GULP energy per Si atom -12392.102796 kJ/mol
# Density = 1.991921 g / cm^3
# Si number density = 19.964651 Si / 1000 Ang^3
#
#
#
# Elastic Constant Matrix: (Units=GPa)
#
#
# Indices 1 2 3 4 5 6 
#
# 1 57.0908 44.5942 25.6055 0.0000 2.0910 0.0000
# 2 44.5942 143.7308 51.4485 0.0000 -13.0621 0.0000
# 3 25.6055 51.4485 67.9222 0.0000 -8.4978 0.0000
# 4 0.0000 0.0000 0.0000 23.0702 0.0000 5.7863
# 5 2.0910 -13.0621 -8.4978 0.0000 35.2057 0.0000
# 6 0.0000 0.0000 0.0000 5.7863 0.0000 -4.7086
#
#
#
# Elastic Compliance Matrix: (Units=1/GPa)
#
#
# Indices 1 2 3 4 5 6 
#
# 1 0.025019 -0.006341 -0.005268 0.000000 -0.005110 0.000000
# 2 -0.006341 0.011271 -0.005750 0.000000 0.003171 0.000000
# 3 -0.005268 -0.005750 0.021485 0.000000 0.003365 0.000000
# 4 0.000000 0.000000 0.000000 0.033134 0.000000 0.040717
# 5 -0.005110 0.003171 0.003365 0.000000 0.030697 0.000000
# 6 0.000000 0.000000 0.000000 0.040717 0.000000 -0.162339
#
#
# Mechanical properties :
#
#
# Convention : Reuss Voigt Hill
#
# Bulk Modulus (GPa) = 43.37124 56.89335 50.13229
# Shear Modulus (GPa) = 2991.79258 20.51983 1506.15620
#
# Velocity S-wave (km/s) = 38.75304 3.20942 27.49635
# Velocity P-wave (km/s) = 44.99076 6.50329 32.14391
#
# Compressibility (1/GPa) = 0.02305675
#
# Stress axis : x y z
#
# Youngs Moduli (GPa) = 39.96969 88.72012 46.54321
#
# Poissons Ratio (x) = 0.56259 0.24518
# Poissons Ratio (y) = 0.25346 0.26764
# Poissons Ratio (z) = 0.21055 0.51018
#
# Static dielectric constant tensor:
#      x y z
#    x 3.695950 0.000000 -0.207060 
#    y 0.000000 3.509430 0.000000 
#    z -0.207060 0.000000 3.660380 
# 
# 
# High freq. dielectric constant tensor:
#      x y z
#    x 1.775970 0.000000 -0.011690 
#    y 0.000000 1.765790 0.000000 
#    z -0.011690 0.000000 1.778500 
# 
# From -- ./inp_files/86031.got.cif
#   From: 2010.06.25/outbox.cif.g09.slc.cpg/sg12_44_cif.got.tgz:86031.got - 2010.06.28 00:19:55.
