data_PCOD8094485
_publ_section_title
;
Structure prediction by ZEFSAII (Michael W. Deem and Ramdas Pophale) SiO2 
 PCOD8094485
Probable space group: C 2/M
;
_chemical_formula_sum "Si O2"
_cell_formula_units_Z 36
_cell_length_a 9.119337
_cell_length_b 23.682436
_cell_length_c 10.605237
_cell_angle_alpha 90.000000
_cell_angle_beta 44.225523
_cell_angle_gamma 90.000000
_cell_volume 1597.513392
_symmetry_space_group_name_H-M "C 2/M"
_symmetry_group_IT_number 12
_symmetry_cell_setting 'monoclinic'
loop_
_space_group_symop_operation_xyz
x,y,z
-x,y,-z
-x,-y,-z
x,-y,z
1/2+x,1/2+y,z
1/2-x,1/2+y,-z
1/2-x,1/2-y,-z
1/2+x,1/2-y,z
loop_
_atom_site_type_symbol
_atom_site_label
_atom_site_fract_x
_atom_site_fract_y
_atom_site_fract_z
Si Si1 0.761106 0.936725 0.694046
Si Si2 0.096105 0.856629 0.194211
Si Si3 0.377664 0.126648 0.447297
Si Si4 0.000000 0.175508 0.000000
Si Si5 0.602065 0.761048 0.308560
O O1 0.739975 0.895637 0.829591
O O2 0.598286 0.916321 0.685137
O O3 0.000000 0.934777 0.500000
O O4 0.696987 0.000000 0.773332
O O5 0.130931 0.790121 0.195792
O O6 0.865025 0.875109 0.372151
O O7 0.125726 0.863233 0.024183
O O8 0.500000 0.108311 0.500000
O O9 0.447249 0.188907 0.356725
O O10 0.834002 0.212178 0.184075
O O11 0.500000 0.736900 0.500000
#
# Coordination Sequence:
#
# PCOD8094485 Si02
#       5
#     8   8   8   4   8
#     4   9  20  38  64  94 122 167 216 257 309 367
#     4  11  22  39  61  90 133 167 204 262 309 370
#     4  10  19  37  65  89 126 165 202 257 316 372
#     4  12  24  38  59  98 125 170 210 250 314 376
#     4  11  22  39  62  93 131 162 205 253 318 375
#
# _framework density 22.535022000000001
#
# number of rings (size 3 to 8) (size 9 to 14) (size 15 to 20)
#    0.000    1.556    4.444    3.333    3.111    0.444 
#    0.000    0.556    0.000    2.667    0.000    0.000 
#    0.000    0.000    0.000    0.000    0.000    0.000 
#
# Total GULP energy -223046.633948 kJ/mol
# GULP energy per Si atom -12391.479664 kJ/mol
# Density = 2.248373 g / cm^3
# Si number density = 22.535022 Si / 1000 Ang^3
#
#
#
# Elastic Constant Matrix: (Units=GPa)
#
#
# Indices 1 2 3 4 5 6 
#
# 1 162.9952 94.0769 19.0301 0.0000 41.9551 0.0000
# 2 94.0769 131.5811 22.2237 0.0000 41.9408 0.0000
# 3 19.0301 22.2237 42.2172 0.0000 17.7449 0.0000
# 4 0.0000 0.0000 0.0000 8.0417 0.0000 3.0888
# 5 41.9551 41.9408 17.7449 0.0000 42.2095 0.0000
# 6 0.0000 0.0000 0.0000 3.0888 0.0000 29.8490
#
#
#
# Elastic Compliance Matrix: (Units=1/GPa)
#
#
# Indices 1 2 3 4 5 6 
#
# 1 0.011023 -0.006444 0.000410 0.000000 -0.004726 0.000000
# 2 -0.006444 0.014965 -0.001719 0.000000 -0.007742 0.000000
# 3 0.000410 -0.001719 0.028982 0.000000 -0.010883 0.000000
# 4 0.000000 0.000000 0.000000 0.129500 0.000000 -0.013401
# 5 -0.004726 -0.007742 -0.010883 0.000000 0.040657 0.000000
# 6 0.000000 0.000000 0.000000 -0.013401 0.000000 0.034889
#
#
# Mechanical properties :
#
#
# Convention : Reuss Voigt Hill
#
# Bulk Modulus (GPa) = 25.33971 67.49499 46.41735
# Shear Modulus (GPa) = 17.32040 29.45087 23.38564
#
# Velocity S-wave (km/s) = 2.77537 3.61902 3.22490
# Velocity P-wave (km/s) = 4.64104 6.89052 5.87446
#
# Compressibility (1/GPa) = 0.03946375
#
# Stress axis : x y z
#
# Youngs Moduli (GPa) = 90.71833 66.82102 34.50450
#
# Poissons Ratio (x) = 0.43060 -0.01414
# Poissons Ratio (y) = 0.58460 0.05931
# Poissons Ratio (z) = -0.03718 0.11486
#
# Static dielectric constant tensor:
#      x y z
#    x 4.864220 0.000000 0.407800 
#    y 0.000000 3.999960 0.000000 
#    z 0.407800 0.000000 4.005870 
# 
# 
# High freq. dielectric constant tensor:
#      x y z
#    x 1.900940 0.000000 0.007530 
#    y 0.000000 1.852390 0.000000 
#    z 0.007530 0.000000 1.875550 
# 
# From -- ./inp_files/121613.got.cif
#   From: 2010.06.25/outbox.cif.g09.slc.cpg/sg12_61_cif.got.tgz:121613.got - 2010.06.28 00:19:55.
