data_PCOD8094869
_publ_section_title
;
Structure prediction by ZEFSAII (Michael W. Deem and Ramdas Pophale) SiO2 
 PCOD8094869
Probable space group: C 2/M
;
_chemical_formula_sum "Si O2"
_cell_formula_units_Z 40
_cell_length_a 17.706089
_cell_length_b 14.325021
_cell_length_c 14.295514
_cell_angle_alpha 90.000000
_cell_angle_beta 148.545829
_cell_angle_gamma 90.000000
_cell_volume 1892.062197
_symmetry_space_group_name_H-M "C 2/M"
_symmetry_group_IT_number 12
_symmetry_cell_setting 'monoclinic'
loop_
_space_group_symop_operation_xyz
x,y,z
-x,y,-z
-x,-y,-z
x,-y,z
1/2+x,1/2+y,z
1/2-x,1/2+y,-z
1/2-x,1/2-y,-z
1/2+x,1/2-y,z
loop_
_atom_site_type_symbol
_atom_site_label
_atom_site_fract_x
_atom_site_fract_y
_atom_site_fract_z
Si Si1 0.553188 0.602765 0.723534
Si Si2 0.000000 0.823839 0.000000
Si Si3 0.666235 0.847134 0.909176
Si Si4 0.000000 0.756864 0.500000
Si Si5 0.206984 0.397271 0.744729
Si Si6 0.088198 0.760436 0.289402
O O1 0.486808 0.500000 0.630734
O O2 0.527916 0.677856 0.616744
O O3 0.478839 0.643995 0.738556
O O4 0.726803 0.586605 0.918240
O O5 0.120648 0.887998 0.078895
O O6 0.077581 0.764252 0.164767
O O7 0.649024 0.889437 0.788705
O O8 0.505985 0.831337 0.781814
O O9 0.750000 0.750000 0.000000
O O10 0.132348 0.688304 0.610325
O O11 0.162881 0.500000 0.659435
O O12 0.250000 0.750000 0.500000
#
# Coordination Sequence:
#
# PCOD8094869 Si02
#       6
#     8   4   8   4   8   8
#     4  11  22  41  67  92 128 176 229 276 331 409
#     4  12  23  38  66 100 135 180 221 274 350 408
#     4  10  19  42  64  86 128 177 222 268 326 398
#     4  12  22  42  64  96 130 166 230 278 344 394
#     4  12  24  40  65  98 132 173 224 276 340 409
#     4  11  23  42  65  98 140 181 221 285 345 401
#
# _framework density 21.140955000000002
#
# number of rings (size 3 to 8) (size 9 to 14) (size 15 to 20)
#    0.000    0.800    8.000    2.700    0.000    0.800 
#    0.000    2.000    0.000    0.000    0.000   10.500 
#    0.000    0.000    0.000    0.000    0.000    0.000 
#
# Total GULP energy -247771.641133 kJ/mol
# GULP energy per Si atom -12388.582057 kJ/mol
# Density = 2.109284 g / cm^3
# Si number density = 21.140955 Si / 1000 Ang^3
#
#
#
# Elastic Constant Matrix: (Units=GPa)
#
#
# Indices 1 2 3 4 5 6 
#
# 1 103.4562 36.2465 57.7239 -0.0001 -0.4894 0.0000
# 2 36.2465 129.5111 43.6273 -0.0001 8.6607 0.0000
# 3 57.7239 43.6273 151.7933 -0.0002 4.7491 -0.0001
# 4 -0.0001 -0.0001 -0.0002 -44.6108 -0.0002 35.4221
# 5 -0.4894 8.6607 4.7491 -0.0002 30.0637 0.0000
# 6 0.0000 0.0000 -0.0001 35.4221 0.0000 -8.5685
#
#
#
# Elastic Compliance Matrix: (Units=1/GPa)
#
#
# Indices 1 2 3 4 5 6 
#
# 1 0.012857 -0.002256 -0.004289 0.000000 0.001537 0.000000
# 2 -0.002256 0.009077 -0.001676 0.000000 -0.002387 0.000000
# 3 -0.004289 -0.001676 0.008731 0.000000 -0.000966 0.000000
# 4 0.000000 0.000000 0.000000 0.009821 0.000000 0.040599
# 5 0.001537 -0.002387 -0.000966 0.000000 0.034128 0.000000
# 6 0.000000 0.000000 0.000000 0.040599 0.000000 0.051131
#
#
# Mechanical properties :
#
#
# Convention : Reuss Voigt Hill
#
# Bulk Modulus (GPa) = 70.31275 73.32843 71.82059
# Shear Modulus (GPa) = 34.03039 11.85438 22.94238
#
# Velocity S-wave (km/s) = 4.01645 2.37054 3.29783
# Velocity P-wave (km/s) = 7.40543 6.50026 6.96756
#
# Compressibility (1/GPa) = 0.01422217
#
# Stress axis : x y z
#
# Youngs Moduli (GPa) = 77.78112 110.16780 114.53715
#
# Poissons Ratio (x) = 0.24857 0.49122
# Poissons Ratio (y) = 0.17550 0.19198
# Poissons Ratio (z) = 0.33358 0.18466
#
# Static dielectric constant tensor:
#      x y z
#    x 3.915930 0.000000 0.089320 
#    y 0.000000 4.088940 0.000000 
#    z 0.089320 0.000000 4.332520 
# 
# 
# High freq. dielectric constant tensor:
#      x y z
#    x 1.813230 0.000000 -0.001790 
#    y 0.000000 1.815050 0.000000 
#    z -0.001790 0.000000 1.844230 
# 
# From -- ./inp_files/225840.got.cif
#   From: 2010.06.25/outbox.cif.g09.slc.cpg/sg12_113_cif.got.tgz:225840.got - 2010.06.28 00:19:55.
