data_PCOD8094333
_publ_section_title
;
Structure prediction by ZEFSAII (Michael W. Deem and Ramdas Pophale) SiO2 
 PCOD8094333
Probable space group: C 2/M
;
_chemical_formula_sum "Si O2"
_cell_formula_units_Z 56
_cell_length_a 17.122481
_cell_length_b 13.118165
_cell_length_c 15.451217
_cell_angle_alpha 90.000000
_cell_angle_beta 53.679632
_cell_angle_gamma 90.000000
_cell_volume 2796.310671
_symmetry_space_group_name_H-M "C 2/M"
_symmetry_group_IT_number 12
_symmetry_cell_setting 'monoclinic'
loop_
_space_group_symop_operation_xyz
x,y,z
-x,y,-z
-x,-y,-z
x,-y,z
1/2+x,1/2+y,z
1/2-x,1/2+y,-z
1/2-x,1/2-y,-z
1/2+x,1/2-y,z
loop_
_atom_site_type_symbol
_atom_site_label
_atom_site_fract_x
_atom_site_fract_y
_atom_site_fract_z
Si Si1 0.277208 0.674923 0.558069
Si Si2 0.891622 0.384294 0.940242
Si Si3 0.607663 0.285231 0.916532
Si Si4 0.082176 0.296037 0.749810
Si Si5 0.197874 0.384134 0.176347
Si Si6 0.586510 0.749704 0.385513
Si Si7 0.960849 0.886812 0.353346
O O1 0.250000 0.750000 0.500000
O O2 0.170019 0.633960 0.654081
O O3 0.322718 0.728548 0.612543
O O4 0.356485 0.596413 0.469329
O O5 0.879463 0.500000 0.981054
O O6 0.814792 0.355817 0.916385
O O7 0.995958 0.372548 0.826736
O O8 0.877394 0.312407 0.031606
O O9 0.624387 0.252867 0.808259
O O10 0.688354 0.369291 0.881874
O O11 0.500000 0.332031 0.000000
O O12 0.046654 0.200646 0.714281
O O13 0.169807 0.500000 0.212380
O O14 0.124272 0.321789 0.284586
O O15 0.500000 0.800968 0.500000
O O16 0.541632 0.647814 0.370405
O O17 0.989133 0.000000 0.298369
#
# Coordination Sequence:
#
# PCOD8094333 Si02
#       7
#     8   8   8   8   8   8   8
#     4   9  19  35  57  86 121 162 194 242 302 345
#     4  10  22  40  63  88 117 158 203 246 299 360
#     4  10  22  39  64  87 121 155 195 259 302 348
#     4  10  19  37  61  86 124 158 196 253 300 350
#     4  11  22  40  65  89 119 160 202 242 300 367
#     4  10  20  38  63  87 125 157 201 248 291 352
#     4  10  21  37  59  88 124 163 203 246 298 362
#
# _framework density 20.026388000000001
#
# number of rings (size 3 to 8) (size 9 to 14) (size 15 to 20)
#    0.000    2.000    2.857    0.429    0.000    6.857 
#    0.000    2.857    0.000    0.000    0.000    0.000 
#    0.000    0.000    0.000    0.000    0.000    0.000 
#
# Total GULP energy -346871.210279 kJ/mol
# GULP energy per Si atom -12388.257510 kJ/mol
# Density = 1.998081 g / cm^3
# Si number density = 20.026388 Si / 1000 Ang^3
#
#
#
# Elastic Constant Matrix: (Units=GPa)
#
#
# Indices 1 2 3 4 5 6 
#
# 1 115.3000 31.8016 25.2228 0.0000 11.3621 0.0000
# 2 31.8016 51.2414 11.6835 0.0000 13.9397 0.0000
# 3 25.2228 11.6835 63.8138 0.0000 7.7540 0.0000
# 4 0.0000 0.0000 0.0000 19.9103 0.0000 -0.7396
# 5 11.3621 13.9397 7.7540 0.0000 38.6518 0.0000
# 6 0.0000 0.0000 0.0000 -0.7396 0.0000 15.3757
#
#
#
# Elastic Compliance Matrix: (Units=1/GPa)
#
#
# Indices 1 2 3 4 5 6 
#
# 1 0.011083 -0.006024 -0.003224 0.000000 -0.000439 0.000000
# 2 -0.006024 0.025523 -0.001423 0.000000 -0.007149 0.000000
# 3 -0.003224 -0.001423 0.017454 0.000000 -0.002040 0.000000
# 4 0.000000 0.000000 0.000000 0.050315 0.000000 0.002420
# 5 -0.000439 -0.007149 -0.002040 0.000000 0.028988 0.000000
# 6 0.000000 0.000000 0.000000 0.002420 0.000000 0.065154
#
#
# Mechanical properties :
#
#
# Convention : Reuss Voigt Hill
#
# Bulk Modulus (GPa) = 30.56565 40.86343 35.71454
# Shear Modulus (GPa) = 21.66692 25.56405 23.61548
#
# Velocity S-wave (km/s) = 3.29282 3.57672 3.43770
# Velocity P-wave (km/s) = 5.45461 6.12424 5.79909
#
# Compressibility (1/GPa) = 0.03271646
#
# Stress axis : x y z
#
# Youngs Moduli (GPa) = 90.22733 39.17993 57.29481
#
# Poissons Ratio (x) = 0.23602 0.18475
# Poissons Ratio (y) = 0.54352 0.08155
# Poissons Ratio (z) = 0.29093 0.05577
#
# Static dielectric constant tensor:
#      x y z
#    x 4.094520 0.000000 -0.082210 
#    y 0.000000 3.156920 0.000000 
#    z -0.082210 0.000000 3.883130 
# 
# 
# High freq. dielectric constant tensor:
#      x y z
#    x 1.807120 0.000000 0.004420 
#    y 0.000000 1.742190 0.000000 
#    z 0.004420 0.000000 1.791120 
# 
# From -- ./inp_files/223733.got.cif
#   From: 2010.06.25/outbox.cif.g09.slc.cpg/sg12_112_cif.got.tgz:223733.got - 2010.06.28 00:19:55.
