data_PCOD8094364
_publ_section_title
;
Structure prediction by ZEFSAII (Michael W. Deem and Ramdas Pophale) SiO2 
 PCOD8094364
Probable space group: C 2/M
;
_chemical_formula_sum "Si O2"
_cell_formula_units_Z 64
_cell_length_a 33.196789
_cell_length_b 9.057190
_cell_length_c 13.774851
_cell_angle_alpha 90.000000
_cell_angle_beta 126.880122
_cell_angle_gamma 90.000000
_cell_volume 3312.899933
_symmetry_space_group_name_H-M "C 2/M"
_symmetry_group_IT_number 12
_symmetry_cell_setting 'monoclinic'
loop_
_space_group_symop_operation_xyz
x,y,z
-x,y,-z
-x,-y,-z
x,-y,z
1/2+x,1/2+y,z
1/2-x,1/2+y,-z
1/2-x,1/2-y,-z
1/2+x,1/2-y,z
loop_
_atom_site_type_symbol
_atom_site_label
_atom_site_fract_x
_atom_site_fract_y
_atom_site_fract_z
Si Si1 0.778797 0.825260 0.263299
Si Si2 0.415871 0.830212 0.957410
Si Si3 0.826974 0.674032 0.973587
Si Si4 0.206589 0.174951 0.498264
Si Si5 0.144054 0.175398 0.787116
Si Si6 0.491957 0.829362 0.772412
Si Si7 0.459826 0.829528 0.358050
Si Si8 0.401765 0.673857 0.735849
O O1 0.724121 0.769145 0.150222
O O2 0.790367 0.764447 0.387338
O O3 0.821339 0.767651 0.251279
O O4 0.779017 0.000000 0.265586
O O5 0.372931 0.782646 0.970528
O O6 0.412622 0.729708 0.858988
O O7 0.408941 0.000000 0.915917
O O8 0.470020 0.804004 0.083735
O O9 0.826362 0.500000 0.994252
O O10 0.832874 0.759299 0.082020
O O11 0.250000 0.250000 0.500000
O O12 0.153459 0.224591 0.376921
O O13 0.213975 0.000000 0.504769
O O14 0.088288 0.232678 0.685452
O O15 0.143492 0.000000 0.794131
O O16 0.517113 0.772258 0.709657
O O17 0.441396 0.738702 0.716876
O O18 0.477197 0.000000 0.740873
O O19 0.500000 0.805987 0.500000
O O20 0.443235 0.000000 0.323817
O O21 0.407346 0.500000 0.742357
#
# Coordination Sequence:
#
# PCOD8094364 Si02
#       8
#     8   8   8   8   8   8   8   8
#     4   9  20  37  59  84 115 156 194 232 287 349
#     4  10  20  37  61  84 112 155 199 238 283 343
#     4  10  19  37  62  84 113 155 198 239 283 336
#     4  10  22  42  62  84 116 152 193 236 284 345
#     4  11  22  36  58  89 121 153 189 235 292 350
#     4  10  21  39  60  85 114 151 198 237 281 343
#     4  10  22  41  63  86 116 154 197 241 281 334
#     4  11  24  37  57  88 120 150 187 242 296 342
#
# _framework density 19.318421000000001
#
# number of rings (size 3 to 8) (size 9 to 14) (size 15 to 20)
#    0.000    1.875    1.250    2.250    1.750    5.250 
#    0.000    2.500    0.000    0.000    0.000    0.000 
#    0.000    0.000    0.000    0.000    0.000    0.000 
#
# Total GULP energy -396948.509986 kJ/mol
# GULP energy per Si atom -12404.640937 kJ/mol
# Density = 1.927445 g / cm^3
# Si number density = 19.318421 Si / 1000 Ang^3
#
#
#
# Elastic Constant Matrix: (Units=GPa)
#
#
# Indices 1 2 3 4 5 6 
#
# 1 137.9918 39.8804 45.3819 0.0000 13.3328 0.0000
# 2 39.8804 46.8614 28.7296 0.0000 6.8951 0.0000
# 3 45.3819 28.7296 99.3330 0.0000 5.4101 0.0000
# 4 0.0000 0.0000 0.0000 26.5441 0.0000 2.3276
# 5 13.3328 6.8951 5.4101 0.0000 33.2895 0.0000
# 6 0.0000 0.0000 0.0000 2.3276 0.0000 32.2261
#
#
#
# Elastic Compliance Matrix: (Units=1/GPa)
#
#
# Indices 1 2 3 4 5 6 
#
# 1 0.010299 -0.006831 -0.002605 0.000000 -0.002286 0.000000
# 2 -0.006831 0.031063 -0.005712 0.000000 -0.002770 0.000000
# 3 -0.002605 -0.005712 0.012902 0.000000 0.000130 0.000000
# 4 0.000000 0.000000 0.000000 0.037913 0.000000 -0.002738
# 5 -0.002286 -0.002770 0.000130 0.000000 0.031508 0.000000
# 6 0.000000 0.000000 0.000000 -0.002738 0.000000 0.031229
#
#
# Mechanical properties :
#
#
# Convention : Reuss Voigt Hill
#
# Bulk Modulus (GPa) = 41.72402 56.90777 49.31590
# Shear Modulus (GPa) = 25.88012 29.75823 27.81917
#
# Velocity S-wave (km/s) = 3.66411 3.92906 3.79889
# Velocity P-wave (km/s) = 6.28855 7.07849 6.69518
#
# Compressibility (1/GPa) = 0.02396701
#
# Stress axis : x y z
#
# Youngs Moduli (GPa) = 97.10059 32.19313 77.50550
#
# Poissons Ratio (x) = 0.21991 0.20189
# Poissons Ratio (y) = 0.66329 0.44274
# Poissons Ratio (z) = 0.25293 0.18390
#
# Static dielectric constant tensor:
#      x y z
#    x 3.764260 0.000000 0.004670 
#    y 0.000000 3.341900 0.000000 
#    z 0.004670 0.000000 3.700490 
# 
# 
# High freq. dielectric constant tensor:
#      x y z
#    x 1.769310 0.000000 0.000980 
#    y 0.000000 1.731940 0.000000 
#    z 0.000980 0.000000 1.765890 
# 
# From -- ./inp_files/249962.got.cif
#   From: 2010.06.25/outbox.cif.g09.slc.cpg/sg12_125_cif.got.tgz:249962.got - 2010.06.28 00:19:55.
