data_PCOD8094239
_publ_section_title
;
Structure prediction by ZEFSAII (Michael W. Deem and Ramdas Pophale) SiO2 
 PCOD8094239
Probable space group: C 2/M
;
_chemical_formula_sum "Si O2"
_cell_formula_units_Z 64
_cell_length_a 33.447378
_cell_length_b 14.213944
_cell_length_c 9.262491
_cell_angle_alpha 90.000000
_cell_angle_beta 43.694517
_cell_angle_gamma 90.000000
_cell_volume 3042.041392
_symmetry_space_group_name_H-M "C 2/M"
_symmetry_group_IT_number 12
_symmetry_cell_setting 'monoclinic'
loop_
_space_group_symop_operation_xyz
x,y,z
-x,y,-z
-x,-y,-z
x,-y,z
1/2+x,1/2+y,z
1/2-x,1/2+y,-z
1/2-x,1/2-y,-z
1/2+x,1/2-y,z
loop_
_atom_site_type_symbol
_atom_site_label
_atom_site_fract_x
_atom_site_fract_y
_atom_site_fract_z
Si Si1 0.460443 0.279433 0.222420
Si Si2 0.743609 0.599500 0.810268
Si Si3 0.784854 0.857489 0.802736
Si Si4 0.968685 0.892648 0.733227
Si Si5 0.852590 0.326657 0.633448
Si Si6 0.159887 0.608140 0.025651
Si Si7 0.647998 0.293760 0.906203
Si Si8 0.631242 0.603699 0.666845
O O1 0.498292 0.318474 0.253467
O O2 0.410802 0.208791 0.406666
O O3 0.433788 0.368114 0.205978
O O4 0.500000 0.225296 0.000000
O O5 0.730413 0.500000 0.766508
O O6 0.814159 0.609687 0.625358
O O7 0.709756 0.681631 0.816548
O O8 0.721353 0.586930 0.032656
O O9 0.803612 0.751995 0.797360
O O10 0.834313 0.899680 0.572299
O O11 0.727435 0.869348 0.858580
O O12 0.000000 0.888104 0.500000
O O13 0.969791 0.000000 0.789290
O O14 0.902442 0.857995 0.892091
O O15 0.869670 0.376465 0.739592
O O16 0.148289 0.500000 0.006031
O O17 0.134691 0.683019 0.973477
O O18 0.653997 0.317240 0.720261
O O19 0.631145 0.500000 0.738491
#
# Coordination Sequence:
#
# PCOD8094239 Si02
#       8
#     8   8   8   8   8   8   8   8
#     4  11  23  41  63  89 123 176 213 254 311 387
#     4  11  20  36  64  94 129 163 206 260 315 380
#     4  10  19  37  59  90 125 167 209 244 307 379
#     4  11  24  40  62  95 130 167 212 265 316 375
#     4  10  19  38  63  90 122 163 213 261 318 366
#     4  11  21  39  65  91 125 164 212 265 317 377
#     4  12  23  39  59  93 131 168 207 259 317 376
#     4  11  23  37  58  91 133 173 205 245 307 385
#
# _framework density 21.038505000000001
#
# number of rings (size 3 to 8) (size 9 to 14) (size 15 to 20)
#    0.000    1.125    3.750    5.250    1.750    1.000 
#    0.000    0.000    0.000    8.625    0.000    0.000 
#    0.000    0.000    0.000    0.000    0.000    0.000 
#
# Total GULP energy -396537.447466 kJ/mol
# GULP energy per Si atom -12391.795233 kJ/mol
# Density = 2.099062 g / cm^3
# Si number density = 21.038505 Si / 1000 Ang^3
#
#
#
# Elastic Constant Matrix: (Units=GPa)
#
#
# Indices 1 2 3 4 5 6 
#
# 1 76.0059 25.3714 17.1492 0.0000 3.7140 0.0000
# 2 25.3714 129.8478 20.4308 0.0000 4.8273 0.0000
# 3 17.1492 20.4308 92.3276 0.0000 -11.2093 0.0000
# 4 0.0000 0.0000 0.0000 4.4164 0.0000 2.9322
# 5 3.7140 4.8273 -11.2093 0.0000 24.5739 0.0000
# 6 0.0000 0.0000 0.0000 2.9322 0.0000 16.1661
#
#
#
# Elastic Compliance Matrix: (Units=1/GPa)
#
#
# Indices 1 2 3 4 5 6 
#
# 1 0.014662 -0.002354 -0.002557 0.000000 -0.002920 0.000000
# 2 -0.002354 0.008506 -0.001699 0.000000 -0.002090 0.000000
# 3 -0.002557 -0.001699 0.012459 0.000000 0.006403 0.000000
# 4 0.000000 0.000000 0.000000 0.257430 0.000000 -0.046692
# 5 -0.002920 -0.002090 0.006403 0.000000 0.044466 0.000000
# 6 0.000000 0.000000 0.000000 -0.046692 0.000000 0.070327
#
#
# Mechanical properties :
#
#
# Convention : Reuss Voigt Hill
#
# Bulk Modulus (GPa) = 44.62666 47.12046 45.87356
# Shear Modulus (GPa) = 11.66751 24.71327 18.19039
#
# Velocity S-wave (km/s) = 2.35750 3.43106 2.94364
# Velocity P-wave (km/s) = 5.35429 6.17593 5.77973
#
# Compressibility (1/GPa) = 0.02240813
#
# Stress axis : x y z
#
# Youngs Moduli (GPa) = 68.20222 117.56002 80.26135
#
# Poissons Ratio (x) = 0.27674 0.20523
# Poissons Ratio (y) = 0.16055 0.13635
# Poissons Ratio (z) = 0.17439 0.19972
#
# Static dielectric constant tensor:
#      x y z
#    x 3.686850 0.000000 -0.019460 
#    y 0.000000 3.836670 0.000000 
#    z -0.019460 0.000000 3.831290 
# 
# 
# High freq. dielectric constant tensor:
#      x y z
#    x 1.808850 0.000000 0.000540 
#    y 0.000000 1.815020 0.000000 
#    z 0.000540 0.000000 1.823330 
# 
# From -- ./inp_files/111956.got.cif
#   From: 2010.06.25/outbox.cif.g09.slc.cpg/sg12_56_cif.got.tgz:111956.got - 2010.06.28 00:19:55.
