data_PCOD8094641
_publ_section_title
;
Structure prediction by ZEFSAII (Michael W. Deem and Ramdas Pophale) SiO2 
 PCOD8094641
Probable space group: C 2/M
;
_chemical_formula_sum "Si O2"
_cell_formula_units_Z 64
_cell_length_a 21.362594
_cell_length_b 9.181749
_cell_length_c 15.902159
_cell_angle_alpha 90.000000
_cell_angle_beta 92.546218
_cell_angle_gamma 90.000000
_cell_volume 3116.065001
_symmetry_space_group_name_H-M "C 2/M"
_symmetry_group_IT_number 12
_symmetry_cell_setting 'monoclinic'
loop_
_space_group_symop_operation_xyz
x,y,z
-x,y,-z
-x,-y,-z
x,-y,z
1/2+x,1/2+y,z
1/2-x,1/2+y,-z
1/2-x,1/2-y,-z
1/2+x,1/2-y,z
loop_
_atom_site_type_symbol
_atom_site_label
_atom_site_fract_x
_atom_site_fract_y
_atom_site_fract_z
Si Si1 0.033060 0.162998 0.166287
Si Si2 0.609831 0.830311 0.292027
Si Si3 0.250830 0.668124 0.272719
Si Si4 0.083816 0.661759 0.857555
Si Si5 0.367722 0.162547 0.317477
Si Si6 0.496291 0.827951 0.405485
Si Si7 0.610962 0.336258 0.021218
Si Si8 0.722628 0.171826 0.081350
O O1 0.095148 0.219887 0.215743
O O2 0.044711 0.159267 0.066136
O O3 0.980748 0.280840 0.185626
O O4 0.014712 0.000000 0.195589
O O5 0.683646 0.802686 0.314532
O O6 0.561827 0.785216 0.364102
O O7 0.600340 0.000000 0.266135
O O8 0.267753 0.500000 0.277849
O O9 0.304207 0.747810 0.331834
O O10 0.252143 0.715304 0.173576
O O11 0.075250 0.500000 0.896400
O O12 0.131236 0.655995 0.783564
O O13 0.106660 0.777406 0.926834
O O14 0.432119 0.234060 0.358360
O O15 0.359460 0.000000 0.354215
O O16 0.500000 0.764981 0.500000
O O17 0.489618 0.000000 0.404757
O O18 0.639251 0.500000 0.016526
O O19 0.651919 0.228189 0.080287
O O20 0.724933 0.000000 0.067177
O O21 0.750000 0.250000 0.000000
#
# Coordination Sequence:
#
# PCOD8094641 Si02
#       8
#     8   8   8   8   8   8   8   8
#     4  11  22  35  54  81 114 152 194 247 303 349
#     4  10  19  38  63  87 117 153 200 241 288 361
#     4  10  22  37  57  83 116 159 197 241 293 345
#     4  11  22  36  55  80 112 155 203 248 295 348
#     4  10  21  37  59  87 117 151 194 242 290 348
#     4   9  18  37  67  96 118 146 190 242 293 354
#     4  11  23  36  50  76 113 151 198 251 302 347
#     4  11  22  36  53  74 106 154 207 252 297 343
#
# _framework density 20.538723000000001
#
# number of rings (size 3 to 8) (size 9 to 14) (size 15 to 20)
#    0.000    1.625    2.500    2.625    0.000    7.500 
#    0.000    0.625    0.000    1.500    0.000    0.000 
#    0.000    0.000    0.000    0.000    0.000    0.000 
#
# Total GULP energy -396457.351762 kJ/mol
# GULP energy per Si atom -12389.292243 kJ/mol
# Density = 2.049198 g / cm^3
# Si number density = 20.538723 Si / 1000 Ang^3
#
#
#
# Elastic Constant Matrix: (Units=GPa)
#
#
# Indices 1 2 3 4 5 6 
#
# 1 134.2550 40.6570 45.8137 0.0000 3.4499 0.0000
# 2 40.6570 72.9254 25.0694 0.0000 2.1454 0.0000
# 3 45.8137 25.0694 87.3055 0.0000 -1.6013 0.0000
# 4 0.0000 0.0000 0.0000 14.6922 0.0000 3.9809
# 5 3.4499 2.1454 -1.6013 0.0000 24.3821 0.0000
# 6 0.0000 0.0000 0.0000 3.9809 0.0000 34.5513
#
#
#
# Elastic Compliance Matrix: (Units=1/GPa)
#
#
# Indices 1 2 3 4 5 6 
#
# 1 0.010175 -0.004204 -0.004157 0.000000 -0.001343 0.000000
# 2 -0.004204 0.017016 -0.002700 0.000000 -0.001080 0.000000
# 3 -0.004157 -0.002700 0.014443 0.000000 0.001774 0.000000
# 4 0.000000 0.000000 0.000000 0.070256 0.000000 -0.008095
# 5 -0.001343 -0.001080 0.001774 0.000000 0.041415 0.000000
# 6 0.000000 0.000000 0.000000 -0.008095 0.000000 0.029875
#
#
# Mechanical properties :
#
#
# Convention : Reuss Voigt Hill
#
# Bulk Modulus (GPa) = 51.24819 57.50735 54.37777
# Shear Modulus (GPa) = 23.60650 26.92151 25.26401
#
# Velocity S-wave (km/s) = 3.39391 3.62438 3.51104
# Velocity P-wave (km/s) = 6.35329 6.75093 6.55513
#
# Compressibility (1/GPa) = 0.01951288
#
# Stress axis : x y z
#
# Youngs Moduli (GPa) = 98.28445 58.76695 69.23775
#
# Poissons Ratio (x) = 0.24706 0.28779
# Poissons Ratio (y) = 0.41320 0.18693
# Poissons Ratio (z) = 0.40852 0.15866
#
# Static dielectric constant tensor:
#      x y z
#    x 3.949260 0.000000 0.029210 
#    y 0.000000 3.652020 0.000000 
#    z 0.029210 0.000000 3.571590 
# 
# 
# High freq. dielectric constant tensor:
#      x y z
#    x 1.811450 0.000000 -0.004020 
#    y 0.000000 1.790220 0.000000 
#    z -0.004020 0.000000 1.772740 
# 
# From -- ./inp_files/281229.got.cif
#   From: 2010.06.25/outbox.cif.g09.slc.cpg/sg12_141_cif.got.tgz:281229.got - 2010.06.28 00:19:55.
