data_PCOD8094517
_publ_section_title
;
Structure prediction by ZEFSAII (Michael W. Deem and Ramdas Pophale) SiO2 
 PCOD8094517
Probable space group: C 2/M
;
_chemical_formula_sum "Si O2"
_cell_formula_units_Z 40
_cell_length_a 8.345426
_cell_length_b 21.929009
_cell_length_c 9.506804
_cell_angle_alpha 90.000000
_cell_angle_beta 102.653779
_cell_angle_gamma 90.000000
_cell_volume 1697.553675
_symmetry_space_group_name_H-M "C 2/M"
_symmetry_group_IT_number 12
_symmetry_cell_setting 'monoclinic'
loop_
_space_group_symop_operation_xyz
x,y,z
-x,y,-z
-x,-y,-z
x,-y,z
1/2+x,1/2+y,z
1/2-x,1/2+y,-z
1/2-x,1/2-y,-z
1/2+x,1/2-y,z
loop_
_atom_site_type_symbol
_atom_site_label
_atom_site_fract_x
_atom_site_fract_y
_atom_site_fract_z
Si Si1 0.379341 0.100556 0.277637
Si Si2 0.820301 0.931376 0.023954
Si Si3 0.679416 0.338409 0.731258
Si Si4 0.241142 0.568097 0.453908
Si Si5 0.507189 0.775045 0.332678
O O1 0.562212 0.077825 0.349005
O O2 0.258830 0.081583 0.380699
O O3 0.376828 0.173691 0.258171
O O4 0.314491 0.069172 0.124803
O O5 0.769542 0.879047 0.124806
O O6 0.817938 0.000000 0.089384
O O7 0.000000 0.915760 0.000000
O O8 0.632272 0.386297 0.598872
O O9 0.530991 0.292236 0.736807
O O10 0.818615 0.293219 0.698259
O O11 0.302649 0.500000 0.439125
O O12 0.500000 0.773969 0.500000
#
# Coordination Sequence:
#
# PCOD8094517 Si02
#       5
#     8   8   8   8   8
#     4  10  20  40  67  99 133 170 219 282 335 387
#     4  11  26  46  66  97 141 181 220 273 338 404
#     4  11  25  42  68  98 136 180 223 273 336 402
#     4  10  19  37  69 102 126 169 226 279 333 392
#     4  11  23  43  69 103 136 172 226 285 337 391
#
# _framework density 23.563320999999998
#
# number of rings (size 3 to 8) (size 9 to 14) (size 15 to 20)
#    0.000    1.400    4.000    3.600    2.800    4.000 
#    0.000    5.000    0.000    4.800    0.000    0.000 
#    0.000    0.000    0.000    0.000    0.000    0.000 
#
# Total GULP energy -247923.316028 kJ/mol
# GULP energy per Si atom -12396.165801 kJ/mol
# Density = 2.350969 g / cm^3
# Si number density = 23.563321 Si / 1000 Ang^3
#
#
#
# Elastic Constant Matrix: (Units=GPa)
#
#
# Indices 1 2 3 4 5 6 
#
# 1 34.2979 23.4870 17.8776 0.0000 -9.1423 0.0000
# 2 23.4870 196.9030 36.2487 0.0000 -10.2909 0.0000
# 3 17.8776 36.2487 105.3066 0.0000 -9.9592 0.0000
# 4 0.0000 0.0000 0.0000 28.7933 0.0000 0.1649
# 5 -9.1423 -10.2909 -9.9592 0.0000 22.4940 0.0000
# 6 0.0000 0.0000 0.0000 0.1649 0.0000 -3.9650
#
#
#
# Elastic Compliance Matrix: (Units=1/GPa)
#
#
# Indices 1 2 3 4 5 6 
#
# 1 0.036419 -0.002990 -0.004053 0.000000 0.011640 0.000000
# 2 -0.002990 0.005733 -0.001391 0.000000 0.000792 0.000000
# 3 -0.004053 -0.001391 0.010903 0.000000 0.002544 0.000000
# 4 0.000000 0.000000 0.000000 0.034722 0.000000 0.001444
# 5 0.011640 0.000792 0.002544 0.000000 0.050676 0.000000
# 6 0.000000 0.000000 0.000000 0.001444 0.000000 -0.252145
#
#
# Mechanical properties :
#
#
# Convention : Reuss Voigt Hill
#
# Bulk Modulus (GPa) = 27.63332 54.63711 41.13521
# Shear Modulus (GPa) = -58.98803 26.72407 -16.13198
#
# Velocity S-wave (km/s) = -5.00881 3.37135 -2.61937
# Velocity P-wave (km/s) = 4.65813 6.19616 2.88913
#
# Compressibility (1/GPa) = 0.03618819
#
# Stress axis : x y z
#
# Youngs Moduli (GPa) = 27.45844 174.43815 91.71383
#
# Poissons Ratio (x) = 0.52151 0.37170
# Poissons Ratio (y) = 0.08209 0.12756
# Poissons Ratio (z) = 0.11128 0.24262
#
# Static dielectric constant tensor:
#      x y z
#    x 4.034440 0.000000 -0.206470 
#    y 0.000000 4.835920 0.000000 
#    z -0.206470 0.000000 4.039950 
# 
# 
# High freq. dielectric constant tensor:
#      x y z
#    x 1.917910 0.000000 -0.009760 
#    y 0.000000 1.959130 0.000000 
#    z -0.009760 0.000000 1.915110 
# 
# From -- ./inp_files/39231.got.cif
#   From: 2010.06.25/outbox.cif.g09.slc.cpg/sg12_20_cif.got.tgz:39231.got - 2010.06.28 00:19:55.
