data_PCOD8094498
_publ_section_title
;
Structure prediction by ZEFSAII (Michael W. Deem and Ramdas Pophale) SiO2 
 PCOD8094498
Probable space group: C 2/M
;
_chemical_formula_sum "Si O2"
_cell_formula_units_Z 40
_cell_length_a 14.399517
_cell_length_b 18.768630
_cell_length_c 13.945526
_cell_angle_alpha 90.000000
_cell_angle_beta 31.059352
_cell_angle_gamma 90.000000
_cell_volume 1944.475980
_symmetry_space_group_name_H-M "C 2/M"
_symmetry_group_IT_number 12
_symmetry_cell_setting 'monoclinic'
loop_
_space_group_symop_operation_xyz
x,y,z
-x,y,-z
-x,-y,-z
x,-y,z
1/2+x,1/2+y,z
1/2-x,1/2+y,-z
1/2-x,1/2-y,-z
1/2+x,1/2-y,z
loop_
_atom_site_type_symbol
_atom_site_label
_atom_site_fract_x
_atom_site_fract_y
_atom_site_fract_z
Si Si1 0.994109 0.698755 0.618573
Si Si2 0.495728 0.349469 0.700033
Si Si3 0.086062 0.802796 0.022692
Si Si4 0.587840 0.862579 0.020936
Si Si5 0.850438 0.580434 0.396044
O O1 0.061508 0.774223 0.598881
O O2 0.000000 0.701656 0.500000
O O3 0.121474 0.635052 0.541025
O O4 0.797368 0.683968 0.833587
O O5 0.489248 0.346738 0.821390
O O6 0.648114 0.406332 0.534944
O O7 0.303511 0.373538 0.826841
O O8 0.040352 0.720056 0.080245
O O9 0.000000 0.830957 0.000000
O O10 0.499851 0.908618 0.182485
O O11 0.500000 0.889416 0.000000
O O12 0.866918 0.500000 0.419717
#
# Coordination Sequence:
#
# PCOD8094498 Si02
#       5
#     8   8   8   8   8
#     4  11  22  39  68  97 124 163 212 270 311 365
#     4  11  22  41  66  97 123 164 216 263 311 367
#     4  10  19  37  66 101 122 155 209 268 323 361
#     4  10  22  40  65  92 125 160 211 264 315 368
#     4  12  26  41  61  92 132 174 207 253 319 379
#
# _framework density 20.571096000000001
#
# number of rings (size 3 to 8) (size 9 to 14) (size 15 to 20)
#    0.000    1.200    4.000    3.000    8.400    1.600 
#    0.000    1.000    0.000    2.400    0.000    0.000 
#    0.000    0.000    0.000    0.000    0.000    0.000 
#
# Total GULP energy -248071.674598 kJ/mol
# GULP energy per Si atom -12403.583730 kJ/mol
# Density = 2.052428 g / cm^3
# Si number density = 20.571096 Si / 1000 Ang^3
#
#
#
# Elastic Constant Matrix: (Units=GPa)
#
#
# Indices 1 2 3 4 5 6 
#
# 1 118.5170 41.1266 24.9313 0.0001 2.9235 0.0055
# 2 41.1266 87.8795 49.5599 -0.0104 -5.0238 -0.0007
# 3 24.9313 49.5599 86.6041 0.0123 -3.6137 -0.0118
# 4 0.0001 -0.0104 0.0123 18.4175 -0.0022 -2.0097
# 5 2.9235 -5.0238 -3.6137 -0.0022 36.3747 0.0029
# 6 0.0055 -0.0007 -0.0118 -2.0097 0.0029 10.4138
#
#
#
# Elastic Compliance Matrix: (Units=1/GPa)
#
#
# Indices 1 2 3 4 5 6 
#
# 1 0.010158 -0.004658 -0.000321 -0.000003 -0.001492 -0.000006
# 2 -0.004658 0.019006 -0.009449 0.000017 0.002061 -0.000004
# 3 -0.000321 -0.009449 0.017064 -0.000015 0.000416 0.000016
# 4 -0.000003 0.000017 -0.000015 0.055464 0.000004 0.010704
# 5 -0.001492 0.002061 0.000416 0.000004 0.027937 -0.000006
# 6 -0.000006 -0.000004 0.000016 0.010704 -0.000006 0.098092
#
#
# Mechanical properties :
#
#
# Convention : Reuss Voigt Hill
#
# Bulk Modulus (GPa) = 57.56600 58.24845 57.90723
# Shear Modulus (GPa) = 19.05711 24.86673 21.96192
#
# Velocity S-wave (km/s) = 3.04699 3.48058 3.27098
# Velocity P-wave (km/s) = 6.35795 6.67306 6.51741
#
# Compressibility (1/GPa) = 0.01737136
#
# Stress axis : x y z
#
# Youngs Moduli (GPa) = 98.44088 52.61486 58.60294
#
# Poissons Ratio (x) = 0.24510 0.01880
# Poissons Ratio (y) = 0.45857 0.55376
# Poissons Ratio (z) = 0.03158 0.49718
#
# Static dielectric constant tensor:
#      x y z
#    x 3.936040 -0.000020 -0.030000 
#    y -0.000020 3.332880 0.000070 
#    z -0.030000 0.000070 4.154890 
# 
# 
# High freq. dielectric constant tensor:
#      x y z
#    x 1.813970 0.000000 -0.006510 
#    y 0.000000 1.759100 0.000010 
#    z -0.006510 0.000010 1.820070 
# 
# From -- ./inp_files/60853.got.cif
#   From: 2010.06.25/outbox.cif.g09.slc.cpg/sg12_31_cif.got.tgz:60853.got - 2010.06.28 00:19:55.
