data_PCOD8094536
_publ_section_title
;
Structure prediction by ZEFSAII (Michael W. Deem and Ramdas Pophale) SiO2 
 PCOD8094536
Probable space group: C 2/M
;
_chemical_formula_sum "Si O2"
_cell_formula_units_Z 40
_cell_length_a 14.688634
_cell_length_b 21.861791
_cell_length_c 8.788770
_cell_angle_alpha 90.000000
_cell_angle_beta 134.656153
_cell_angle_gamma 90.000000
_cell_volume 2007.571331
_symmetry_space_group_name_H-M "C 2/M"
_symmetry_group_IT_number 12
_symmetry_cell_setting 'monoclinic'
loop_
_space_group_symop_operation_xyz
x,y,z
-x,y,-z
-x,-y,-z
x,-y,z
1/2+x,1/2+y,z
1/2-x,1/2+y,-z
1/2-x,1/2-y,-z
1/2+x,1/2-y,z
loop_
_atom_site_type_symbol
_atom_site_label
_atom_site_fract_x
_atom_site_fract_y
_atom_site_fract_z
Si Si1 0.171110 0.068787 0.447681
Si Si2 0.000000 0.111711 0.000000
Si Si3 0.500000 0.367099 0.500000
Si Si4 0.084974 0.321700 0.748206
Si Si5 0.456327 0.929300 0.776678
Si Si6 0.875256 0.194922 0.093240
O O1 0.109778 0.070408 0.205554
O O2 0.312269 0.098604 0.600546
O O3 0.080406 0.094196 0.473168
O O4 0.195829 0.000000 0.526700
O O5 0.965407 0.155819 0.095244
O O6 0.605180 0.325772 0.708953
O O7 0.078449 0.265718 0.862346
O O8 0.000000 0.309652 0.500000
O O9 0.046750 0.386183 0.779709
O O10 0.232606 0.320026 0.869250
O O11 0.465665 0.000000 0.727978
O O12 0.500000 0.925691 0.000000
#
# Coordination Sequence:
#
# PCOD8094536 Si02
#       6
#     8   4   4   8   8   8
#     4  10  20  36  60  86 118 153 190 234 281 338
#     4  10  21  38  56  84 115 148 194 236 284 336
#     4  10  19  38  56  86 119 152 190 232 282 336
#     4  11  22  39  59  84 117 151 188 240 284 337
#     4  10  22  39  59  87 116 150 193 232 281 343
#     4  10  22  38  57  84 116 150 193 233 286 340
#
# _framework density 19.924572000000001
#
# number of rings (size 3 to 8) (size 9 to 14) (size 15 to 20)
#    0.000    1.800    1.000    3.000    1.400    0.400 
#    0.000    8.000    0.000    0.000    0.000    0.000 
#    0.000    0.000    0.000    0.000    0.000    0.000 
#
# Total GULP energy -247822.068869 kJ/mol
# GULP energy per Si atom -12391.103443 kJ/mol
# Density = 1.987922 g / cm^3
# Si number density = 19.924572 Si / 1000 Ang^3
#
#
#
# Elastic Constant Matrix: (Units=GPa)
#
#
# Indices 1 2 3 4 5 6 
#
# 1 56.7106 44.4365 34.3251 0.0000 -0.3447 0.0000
# 2 44.4365 97.1476 25.3271 0.0000 8.6297 0.0000
# 3 34.3251 25.3271 147.9260 0.0000 13.6525 0.0000
# 4 0.0000 0.0000 0.0000 20.8959 0.0000 10.0502
# 5 -0.3447 8.6297 13.6525 0.0000 27.0800 0.0000
# 6 0.0000 0.0000 0.0000 10.0502 0.0000 20.5839
#
#
#
# Elastic Compliance Matrix: (Units=1/GPa)
#
#
# Indices 1 2 3 4 5 6 
#
# 1 0.032003 -0.013819 -0.005773 0.000000 0.007721 0.000000
# 2 -0.013819 0.016923 0.000863 0.000000 -0.006004 0.000000
# 3 -0.005773 0.000863 0.008374 0.000000 -0.004570 0.000000
# 4 0.000000 0.000000 0.000000 0.062544 0.000000 -0.030537
# 5 0.007721 -0.006004 -0.004570 0.000000 0.041243 0.000000
# 6 0.000000 0.000000 0.000000 -0.030537 0.000000 0.063492
#
#
# Mechanical properties :
#
#
# Convention : Reuss Voigt Hill
#
# Bulk Modulus (GPa) = 50.39773 56.66239 53.53006
# Shear Modulus (GPa) = 18.61163 26.89164 22.75164
#
# Velocity S-wave (km/s) = 3.05963 3.67777 3.38285
# Velocity P-wave (km/s) = 6.15069 6.82165 6.49484
#
# Compressibility (1/GPa) = 0.01984216
#
# Stress axis : x y z
#
# Youngs Moduli (GPa) = 31.24740 59.09106 119.42317
#
# Poissons Ratio (x) = 0.81660 0.68937
# Poissons Ratio (y) = 0.43182 -0.10310
# Poissons Ratio (z) = 0.18038 -0.05102
#
# Static dielectric constant tensor:
#      x y z
#    x 3.386300 0.000000 -0.032530 
#    y 0.000000 3.736980 0.000000 
#    z -0.032530 0.000000 4.364350 
# 
# 
# High freq. dielectric constant tensor:
#      x y z
#    x 1.757220 0.000000 0.005380 
#    y 0.000000 1.780900 0.000000 
#    z 0.005380 0.000000 1.802040 
# 
# From -- ./inp_files/50460.got.cif
#   From: 2010.06.25/outbox.cif.g09.slc.cpg/sg12_26_cif.got.tgz:50460.got - 2010.06.28 00:19:55.
