data_PCOD8094178
_publ_section_title
;
Structure prediction by ZEFSAII (Michael W. Deem and Ramdas Pophale) SiO2 
 PCOD8094178
Probable space group: C 2/M
;
_chemical_formula_sum "Si O2"
_cell_formula_units_Z 48
_cell_length_a 8.799602
_cell_length_b 19.824585
_cell_length_c 15.289410
_cell_angle_alpha 90.000000
_cell_angle_beta 112.860166
_cell_angle_gamma 90.000000
_cell_volume 2457.719580
_symmetry_space_group_name_H-M "C 2/M"
_symmetry_group_IT_number 12
_symmetry_cell_setting 'monoclinic'
loop_
_space_group_symop_operation_xyz
x,y,z
-x,y,-z
-x,-y,-z
x,-y,z
1/2+x,1/2+y,z
1/2-x,1/2+y,-z
1/2-x,1/2-y,-z
1/2+x,1/2-y,z
loop_
_atom_site_type_symbol
_atom_site_label
_atom_site_fract_x
_atom_site_fract_y
_atom_site_fract_z
Si Si1 0.633606 0.423566 0.094045
Si Si2 0.644555 0.337800 0.794515
Si Si3 0.321020 0.077228 0.974039
Si Si4 0.146078 0.079392 0.292666
Si Si5 0.891848 0.723383 0.722080
Si Si6 0.402591 0.178941 0.390373
O O1 0.572291 0.500000 0.098349
O O2 0.660343 0.391697 0.195322
O O3 0.500000 0.387835 0.000000
O O4 0.800386 0.420481 0.074722
O O5 0.686721 0.377400 0.893461
O O6 0.523617 0.386799 0.709634
O O7 0.815042 0.323862 0.780942
O O8 0.540052 0.270081 0.793355
O O9 0.306508 0.000000 0.936310
O O10 0.500000 0.108181 0.000000
O O11 0.309884 0.106690 0.377015
O O12 0.141193 0.000000 0.303329
O O13 0.737968 0.764902 0.650252
O O14 0.968677 0.678681 0.661348
O O15 0.500000 0.193916 0.500000
#
# Coordination Sequence:
#
# PCOD8094178 Si02
#       6
#     8   8   8   8   8   8
#     4   9  16  30  51  76 106 143 180 210 251 319
#     4  10  19  37  56  76 111 144 182 228 265 318
#     4  10  20  32  53  82 110 142 183 223 265 319
#     4  10  20  34  57  84 112 144 176 222 279 326
#     4   9  21  37  58  80 104 141 189 221 269 319
#     4  10  20  37  61  82 107 139 179 229 271 326
#
# _framework density 19.5303
#
# number of rings (size 3 to 8) (size 9 to 14) (size 15 to 20)
#    0.000    2.333    1.667    1.000    2.333    0.333 
#    0.000    1.667    0.000    1.000    0.000    0.000 
#    0.000    0.000    0.000    0.000    0.000    0.000 
#
# Total GULP energy -297369.030325 kJ/mol
# GULP energy per Si atom -12390.376264 kJ/mol
# Density = 1.948585 g / cm^3
# Si number density = 19.530300 Si / 1000 Ang^3
#
#
#
# Elastic Constant Matrix: (Units=GPa)
#
#
# Indices 1 2 3 4 5 6 
#
# 1 111.2766 26.2474 10.0680 0.0000 -0.7561 0.0000
# 2 26.2474 71.2536 10.2415 0.0000 -4.7613 0.0000
# 3 10.0680 10.2415 52.0125 0.0000 7.6531 0.0000
# 4 0.0000 0.0000 0.0000 16.4206 0.0000 2.9407
# 5 -0.7561 -4.7613 7.6531 0.0000 24.6534 0.0000
# 6 0.0000 0.0000 0.0000 2.9407 0.0000 23.5755
#
#
#
# Elastic Compliance Matrix: (Units=1/GPa)
#
#
# Indices 1 2 3 4 5 6 
#
# 1 0.009918 -0.003474 -0.001238 0.000000 0.000018 0.000000
# 2 -0.003474 0.016017 -0.003061 0.000000 0.003937 0.000000
# 3 -0.001238 -0.003061 0.021126 0.000000 -0.007187 0.000000
# 4 0.000000 0.000000 0.000000 0.062291 0.000000 -0.007770
# 5 0.000018 0.003937 -0.007187 0.000000 0.043554 0.000000
# 6 0.000000 0.000000 0.000000 -0.007770 0.000000 0.043386
#
#
# Mechanical properties :
#
#
# Convention : Reuss Voigt Hill
#
# Bulk Modulus (GPa) = 31.73110 36.40629 34.06869
# Shear Modulus (GPa) = 22.48768 25.46230 23.97499
#
# Velocity S-wave (km/s) = 3.39695 3.61464 3.50748
# Velocity P-wave (km/s) = 5.62744 6.00851 5.82109
#
# Compressibility (1/GPa) = 0.03151483
#
# Stress axis : x y z
#
# Youngs Moduli (GPa) = 100.82368 62.43283 47.33504
#
# Poissons Ratio (x) = 0.21692 0.05862
# Poissons Ratio (y) = 0.35030 0.14487
# Poissons Ratio (z) = 0.12485 0.19108
#
# Static dielectric constant tensor:
#      x y z
#    x 3.886600 0.000000 0.020480 
#    y 0.000000 3.394300 0.000000 
#    z 0.020480 0.000000 3.352110 
# 
# 
# High freq. dielectric constant tensor:
#      x y z
#    x 1.782320 0.000000 0.006730 
#    y 0.000000 1.738490 0.000000 
#    z 0.006730 0.000000 1.730740 
# 
# From -- ./inp_files/197183.got.cif
#   From: 2010.06.25/outbox.cif.g09.slc.cpg/sg12_99_cif.got.tgz:197183.got - 2010.06.28 00:19:55.
