data_PCOD8094321
_publ_section_title
;
Structure prediction by ZEFSAII (Michael W. Deem and Ramdas Pophale) SiO2 
 PCOD8094321
Probable space group: C 2/M
;
_chemical_formula_sum "Si O2"
_cell_formula_units_Z 64
_cell_length_a 31.350188
_cell_length_b 8.511727
_cell_length_c 26.370936
_cell_angle_alpha 90.000000
_cell_angle_beta 152.939978
_cell_angle_gamma 90.000000
_cell_volume 3201.266998
_symmetry_space_group_name_H-M "C 2/M"
_symmetry_group_IT_number 12
_symmetry_cell_setting 'monoclinic'
loop_
_space_group_symop_operation_xyz
x,y,z
-x,y,-z
-x,-y,-z
x,-y,z
1/2+x,1/2+y,z
1/2-x,1/2+y,-z
1/2-x,1/2-y,-z
1/2+x,1/2-y,z
loop_
_atom_site_type_symbol
_atom_site_label
_atom_site_fract_x
_atom_site_fract_y
_atom_site_fract_z
Si Si1 0.463743 0.686017 0.222838
Si Si2 0.671944 0.314124 0.454665
Si Si3 0.309610 0.313466 0.410654
Si Si4 0.376233 0.682214 0.832115
Si Si5 0.847786 0.816151 0.003578
Si Si6 0.495468 0.314310 0.551962
Si Si7 0.356129 0.685615 0.208688
Si Si8 0.936624 0.681511 0.998998
O O1 0.467279 0.500000 0.227227
O O2 0.569698 0.752052 0.330179
O O3 0.418571 0.743280 0.227579
O O4 0.401159 0.746498 0.109981
O O5 0.672164 0.500000 0.452015
O O6 0.750000 0.250000 0.500000
O O7 0.693603 0.257754 0.534564
O O8 0.301495 0.500000 0.397669
O O9 0.226060 0.233238 0.292394
O O10 0.404926 0.249885 0.485913
O O11 0.391756 0.500000 0.837666
O O12 0.387721 0.715265 0.903860
O O13 0.453199 0.777465 0.881017
O O14 0.738378 0.784271 0.893583
O O15 0.887403 0.716112 0.999512
O O16 0.865919 0.000000 0.013748
O O17 0.500000 0.241755 0.500000
O O18 0.486403 0.500000 0.539061
O O19 0.589312 0.269092 0.681983
O O20 0.334580 0.500000 0.183291
O O21 0.923736 0.500000 0.971334
#
# Coordination Sequence:
#
# PCOD8094321 Si02
#       8
#     8   8   8   8   8   8   8   8
#     4   9  19  38  60  81 115 158 200 247 300 352
#     4  10  21  38  59  86 117 157 205 254 300 354
#     4  10  20  37  61  89 122 157 201 249 296 356
#     4  11  23  40  62  88 123 157 190 237 302 361
#     4  11  23  37  57  87 121 155 193 246 308 357
#     4   9  18  33  58  89 116 150 200 248 291 347
#     4  10  19  37  61  85 113 154 204 249 294 354
#     4  11  23  42  63  87 116 153 201 246 288 349
#
# _framework density 19.992083000000001
#
# number of rings (size 3 to 8) (size 9 to 14) (size 15 to 20)
#    0.000    1.875    1.250    3.750    3.500    0.500 
#    0.000    2.500    0.000    0.750    0.000    0.000 
#    0.000    0.000    0.000    0.000    0.000    0.000 
#
# Total GULP energy -396875.822144 kJ/mol
# GULP energy per Si atom -12402.369442 kJ/mol
# Density = 1.994658 g / cm^3
# Si number density = 19.992083 Si / 1000 Ang^3
#
#
#
# Elastic Constant Matrix: (Units=GPa)
#
#
# Indices 1 2 3 4 5 6 
#
# 1 146.7770 11.2347 53.4663 0.0000 -3.1715 0.0000
# 2 11.2347 35.5936 13.9763 0.0000 5.1726 0.0000
# 3 53.4663 13.9763 138.1067 0.0000 1.9863 0.0000
# 4 0.0000 0.0000 0.0000 26.2953 0.0000 3.1829
# 5 -3.1715 5.1726 1.9863 0.0000 20.2533 0.0000
# 6 0.0000 0.0000 0.0000 3.1829 0.0000 26.5676
#
#
#
# Elastic Compliance Matrix: (Units=1/GPa)
#
#
# Indices 1 2 3 4 5 6 
#
# 1 0.008070 -0.001663 -0.002985 0.000000 0.001981 0.000000
# 2 -0.001663 0.030685 -0.002348 0.000000 -0.007867 0.000000
# 3 -0.002985 -0.002348 0.008644 0.000000 -0.000715 0.000000
# 4 0.000000 0.000000 0.000000 0.038589 0.000000 -0.004623
# 5 0.001981 -0.007867 -0.000715 0.000000 0.051764 0.000000
# 6 0.000000 0.000000 0.000000 -0.004623 0.000000 0.038194
#
#
# Mechanical properties :
#
#
# Convention : Reuss Voigt Hill
#
# Bulk Modulus (GPa) = 29.93333 53.09244 41.51289
# Shear Modulus (GPa) = 24.86633 30.74323 27.80478
#
# Velocity S-wave (km/s) = 3.53059 3.92570 3.73337
# Velocity P-wave (km/s) = 5.62363 6.86750 6.27645
#
# Compressibility (1/GPa) = 0.03340758
#
# Stress axis : x y z
#
# Youngs Moduli (GPa) = 123.91041 32.58895 115.68556
#
# Poissons Ratio (x) = 0.05421 0.34526
# Poissons Ratio (y) = 0.20610 0.27166
# Poissons Ratio (z) = 0.36981 0.07653
#
# Static dielectric constant tensor:
#      x y z
#    x 3.386430 0.000000 -0.414060 
#    y 0.000000 3.321320 0.000000 
#    z -0.414060 0.000000 3.502090 
# 
# 
# High freq. dielectric constant tensor:
#      x y z
#    x 1.790610 0.000000 0.000890 
#    y 0.000000 1.751110 0.000000 
#    z 0.000890 0.000000 1.794360 
# 
# From -- ./inp_files/353480.got.cif
#   From: 2010.06.25/outbox.cif.g09.slc.cpg/sg12_177_cif.got.tgz:353480.got - 2010.06.28 00:19:55.
