data_PCOD8094291
_publ_section_title
;
Structure prediction by ZEFSAII (Michael W. Deem and Ramdas Pophale) SiO2 
 PCOD8094291
Probable space group: C 2/M
;
_chemical_formula_sum "Si O2"
_cell_formula_units_Z 40
_cell_length_a 17.444607
_cell_length_b 18.676931
_cell_length_c 8.672897
_cell_angle_alpha 90.000000
_cell_angle_beta 44.064001
_cell_angle_gamma 90.000000
_cell_volume 1965.187354
_symmetry_space_group_name_H-M "C 2/M"
_symmetry_group_IT_number 12
_symmetry_cell_setting 'monoclinic'
loop_
_space_group_symop_operation_xyz
x,y,z
-x,y,-z
-x,-y,-z
x,-y,z
1/2+x,1/2+y,z
1/2-x,1/2+y,-z
1/2-x,1/2-y,-z
1/2+x,1/2-y,z
loop_
_atom_site_type_symbol
_atom_site_label
_atom_site_fract_x
_atom_site_fract_y
_atom_site_fract_z
Si Si1 0.625520 0.353849 0.106283
Si Si2 0.000000 0.745489 0.500000
Si Si3 0.858685 0.621206 0.664172
Si Si4 0.151533 0.000000 0.236909
Si Si5 0.593008 0.000000 0.179150
Si Si6 0.135709 0.000000 0.610029
Si Si7 0.000000 0.890020 0.000000
Si Si8 0.856086 0.500000 0.434462
O O1 0.579073 0.292998 0.283018
O O2 0.606105 0.432426 0.207329
O O3 0.754866 0.343419 0.899807
O O4 0.567944 0.343170 0.023574
O O5 0.927387 0.689747 0.503197
O O6 0.924325 0.571765 0.694216
O O7 0.821106 0.570579 0.579857
O O8 0.099283 0.000000 0.483498
O O9 0.284356 0.000000 0.067617
O O10 0.489098 0.000000 0.207095
O O11 0.087772 0.932724 0.770052
O O12 0.271236 0.000000 0.413975
#
# Coordination Sequence:
#
# PCOD8094291 Si02
#       8
#     8   4   8   4   4   4   4   4
#     4  11  23  39  62  86 119 151 196 244 286 347
#     4  12  22  36  62  86 120 158 192 236 284 348
#     4  10  19  37  60  90 112 156 199 231 289 348
#     4  10  22  40  59  97 112 144 200 246 291 341
#     4   9  18  34  66  84 119 146 194 247 285 340
#     4  11  21  33  63  89 122 144 188 251 296 337
#     4  11  22  38  58  88 114 157 192 240 298 337
#     4  11  17  36  64  90 113 151 193 247 280 352
#
# _framework density 20.354293999999999
#
# number of rings (size 3 to 8) (size 9 to 14) (size 15 to 20)
#    0.000    1.400    4.000    4.200    0.000    1.600 
#    0.000    1.000    8.800    0.000    0.000    0.000 
#    0.000    0.000    0.000    0.000    0.000    0.000 
#
# Total GULP energy -247785.391630 kJ/mol
# GULP energy per Si atom -12389.269581 kJ/mol
# Density = 2.030797 g / cm^3
# Si number density = 20.354294 Si / 1000 Ang^3
#
#
#
# Elastic Constant Matrix: (Units=GPa)
#
#
# Indices 1 2 3 4 5 6 
#
# 1 79.1690 15.8984 18.6628 0.0000 -2.5810 0.0000
# 2 15.8984 123.8364 36.2473 0.0000 -8.6459 0.0000
# 3 18.6628 36.2473 74.6086 0.0000 -14.7175 0.0000
# 4 0.0000 0.0000 0.0000 24.5363 0.0000 -9.4053
# 5 -2.5810 -8.6459 -14.7175 0.0000 38.0344 0.0000
# 6 0.0000 0.0000 0.0000 -9.4053 0.0000 12.0921
#
#
#
# Elastic Compliance Matrix: (Units=1/GPa)
#
#
# Indices 1 2 3 4 5 6 
#
# 1 0.013510 -0.000875 -0.003045 0.000000 -0.000460 0.000000
# 2 -0.000875 0.009476 -0.004300 0.000000 0.000431 0.000000
# 3 -0.003045 -0.004300 0.017344 0.000000 0.005527 0.000000
# 4 0.000000 0.000000 0.000000 0.058069 0.000000 0.045167
# 5 -0.000460 0.000431 0.005527 0.000000 0.028498 0.000000
# 6 0.000000 0.000000 0.000000 0.045167 0.000000 0.117830
#
#
# Mechanical properties :
#
#
# Convention : Reuss Voigt Hill
#
# Bulk Modulus (GPa) = 41.85854 46.58122 44.21988
# Shear Modulus (GPa) = 18.57830 28.71959 23.64895
#
# Velocity S-wave (km/s) = 3.02445 3.76038 3.41231
# Velocity P-wave (km/s) = 5.72765 6.46443 6.10716
#
# Compressibility (1/GPa) = 0.02388999
#
# Stress axis : x y z
#
# Youngs Moduli (GPa) = 74.02057 105.52726 57.65573
#
# Poissons Ratio (x) = 0.09237 0.17556
# Poissons Ratio (y) = 0.06479 0.24791
# Poissons Ratio (z) = 0.22539 0.45376
#
# Static dielectric constant tensor:
#      x y z
#    x 3.626330 0.000000 -0.286600 
#    y 0.000000 3.518830 0.000000 
#    z -0.286600 0.000000 3.696520 
# 
# 
# High freq. dielectric constant tensor:
#      x y z
#    x 1.790920 0.000000 -0.037000 
#    y 0.000000 1.776060 0.000000 
#    z -0.037000 0.000000 1.798550 
# 
# From -- ./inp_files/75034.got.cif
#   From: 2010.06.25/outbox.cif.g09.slc.cpg/sg12_38_cif.got.tgz:75034.got - 2010.06.28 00:19:55.
