data_PCOD8094683
_publ_section_title
;
Structure prediction by ZEFSAII (Michael W. Deem and Ramdas Pophale) SiO2 
 PCOD8094683
Probable space group: C 2/M
;
_chemical_formula_sum "Si O2"
_cell_formula_units_Z 52
_cell_length_a 32.131690
_cell_length_b 7.650433
_cell_length_c 15.187349
_cell_angle_alpha 90.000000
_cell_angle_beta 134.189891
_cell_angle_gamma 90.000000
_cell_volume 2676.954966
_symmetry_space_group_name_H-M "C 2/M"
_symmetry_group_IT_number 12
_symmetry_cell_setting 'monoclinic'
loop_
_space_group_symop_operation_xyz
x,y,z
-x,y,-z
-x,-y,-z
x,-y,z
1/2+x,1/2+y,z
1/2-x,1/2+y,-z
1/2-x,1/2-y,-z
1/2+x,1/2-y,z
loop_
_atom_site_type_symbol
_atom_site_label
_atom_site_fract_x
_atom_site_fract_y
_atom_site_fract_z
Si Si1 0.591551 0.702126 0.660587
Si Si2 0.196984 0.200275 0.360786
Si Si3 0.606072 0.000000 0.027107
Si Si4 0.516627 0.295197 0.383286
Si Si5 0.803264 0.203680 0.840092
Si Si6 0.721482 0.194914 0.867444
Si Si7 0.013949 0.500000 0.241331
Si Si8 0.392857 0.000000 0.769597
O O1 0.603794 0.500000 0.689365
O O2 0.544729 0.761476 0.664175
O O3 0.567600 0.744111 0.528304
O O4 0.652302 0.794773 0.766874
O O5 0.250000 0.250000 0.500000
O O6 0.217705 0.230796 0.291020
O O7 0.143626 0.325803 0.305484
O O8 0.177488 0.000000 0.347745
O O9 0.640875 0.822357 0.058101
O O10 0.585566 0.000000 0.098124
O O11 0.552866 0.000000 0.882512
O O12 0.516358 0.500000 0.356671
O O13 0.528760 0.175431 0.317274
O O14 0.752026 0.282681 0.827289
O O15 0.819901 0.000000 0.880959
O O16 0.740439 0.000000 0.881632
O O17 0.750000 0.250000 0.000000
O O18 0.051092 0.500000 0.208158
#
# Coordination Sequence:
#
# PCOD8094683 Si02
#       8
#     8   8   4   8   8   8   4   4
#     4   9  20  40  59  80 122 161 195 246 299 355
#     4  10  19  38  65  89 121 160 194 240 304 362
#     4  10  23  42  65  79 122 160 199 244 308 359
#     4   9  22  41  60  86 118 161 202 244 305 354
#     4   9  22  40  57  86 120 158 198 242 303 364
#     4  11  24  36  56  88 123 155 201 248 294 356
#     4  12  25  37  66  92 114 154 211 254 293 354
#     4  10  23  42  57  93 124 153 199 249 300 359
#
# _framework density 19.425055
#
# number of rings (size 3 to 8) (size 9 to 14) (size 15 to 20)
#    0.000    2.154    0.769    1.615    6.462    3.077 
#    0.000    1.538    0.000    4.615    0.000    0.000 
#    0.000    0.000    0.000    0.000    0.000    0.000 
#
# Total GULP energy -322309.022033 kJ/mol
# GULP energy per Si atom -12396.500847 kJ/mol
# Density = 1.938084 g / cm^3
# Si number density = 19.425055 Si / 1000 Ang^3
#
#
#
# Elastic Constant Matrix: (Units=GPa)
#
#
# Indices 1 2 3 4 5 6 
#
# 1 111.7104 35.6288 45.1052 0.0000 2.1806 0.0000
# 2 35.6288 96.2570 39.4124 0.0000 -0.6709 -0.0001
# 3 45.1052 39.4124 114.6966 0.0000 5.2054 0.0000
# 4 0.0000 0.0000 0.0000 28.8297 0.0000 -3.3216
# 5 2.1806 -0.6709 5.2054 0.0000 21.6936 0.0000
# 6 0.0000 -0.0001 0.0000 -3.3216 0.0000 24.6719
#
#
#
# Elastic Compliance Matrix: (Units=1/GPa)
#
#
# Indices 1 2 3 4 5 6 
#
# 1 0.011230 -0.002744 -0.003456 0.000000 -0.000384 0.000000
# 2 -0.002744 0.012802 -0.003387 0.000000 0.001485 0.000000
# 3 -0.003456 -0.003387 0.011354 0.000000 -0.002482 0.000000
# 4 0.000000 0.000000 0.000000 0.035233 0.000000 0.004744
# 5 -0.000384 0.001485 -0.002482 0.000000 0.046777 0.000000
# 6 0.000000 0.000000 0.000000 0.004744 0.000000 0.041171
#
#
# Mechanical properties :
#
#
# Convention : Reuss Voigt Hill
#
# Bulk Modulus (GPa) = 61.68503 62.55075 62.11789
# Shear Modulus (GPa) = 27.30086 28.54021 27.92053
#
# Velocity S-wave (km/s) = 3.75299 3.83723 3.79535
# Velocity P-wave (km/s) = 7.11367 7.20441 7.15918
#
# Compressibility (1/GPa) = 0.01621139
#
# Stress axis : x y z
#
# Youngs Moduli (GPa) = 89.04858 78.11348 88.07331
#
# Poissons Ratio (x) = 0.21437 0.30436
# Poissons Ratio (y) = 0.24438 0.29832
# Poissons Ratio (z) = 0.30773 0.26458
#
# Static dielectric constant tensor:
#      x y z
#    x 3.579700 0.000000 -0.048110 
#    y 0.000000 3.685000 0.000000 
#    z -0.048110 0.000000 3.467080 
# 
# 
# High freq. dielectric constant tensor:
#      x y z
#    x 1.752330 0.000000 -0.007420 
#    y 0.000000 1.768270 0.000000 
#    z -0.007420 0.000000 1.754880 
# 
# From -- ./inp_files/250204.got.cif
#   From: 2010.06.25/outbox.cif.g09.slc.cpg/sg12_126_cif.got.tgz:250204.got - 2010.06.28 00:19:55.
