data_PCOD8094267
_publ_section_title
;
Structure prediction by ZEFSAII (Michael W. Deem and Ramdas Pophale) SiO2 
 PCOD8094267
Probable space group: C 2/M
;
_chemical_formula_sum "Si O2"
_cell_formula_units_Z 56
_cell_length_a 18.428196
_cell_length_b 11.788230
_cell_length_c 13.639537
_cell_angle_alpha 90.000000
_cell_angle_beta 71.892468
_cell_angle_gamma 90.000000
_cell_volume 2816.253188
_symmetry_space_group_name_H-M "C 2/M"
_symmetry_group_IT_number 12
_symmetry_cell_setting 'monoclinic'
loop_
_space_group_symop_operation_xyz
x,y,z
-x,y,-z
-x,-y,-z
x,-y,z
1/2+x,1/2+y,z
1/2-x,1/2+y,-z
1/2-x,1/2-y,-z
1/2+x,1/2-y,z
loop_
_atom_site_type_symbol
_atom_site_label
_atom_site_fract_x
_atom_site_fract_y
_atom_site_fract_z
Si Si1 0.800560 0.267868 0.721167
Si Si2 0.130773 0.629969 0.113035
Si Si3 0.056041 0.131338 0.394071
Si Si4 0.227513 0.132867 0.568560
Si Si5 0.029034 0.299983 0.885758
Si Si6 0.935424 0.125986 0.284619
Si Si7 0.681184 0.124685 0.887088
O O1 0.840548 0.322944 0.797128
O O2 0.862362 0.192051 0.637955
O O3 0.767642 0.359762 0.658515
O O4 0.731026 0.194470 0.790331
O O5 0.151782 0.500000 0.100909
O O6 0.039513 0.644310 0.146318
O O7 0.173619 0.683273 0.998904
O O8 0.000000 0.183473 0.500000
O O9 0.014518 0.149547 0.307781
O O10 0.071661 0.000000 0.410636
O O11 0.250000 0.250000 0.500000
O O12 0.136316 0.144020 0.613359
O O13 0.246418 0.000000 0.521609
O O14 0.070279 0.202508 0.807808
O O15 0.095261 0.390793 0.880845
O O16 0.000000 0.246338 0.000000
O O17 0.934826 0.000000 0.242978
O O18 0.718039 0.000000 0.879579
#
# Coordination Sequence:
#
# PCOD8094267 Si02
#       7
#     8   8   8   8   8   8   8
#     4  12  21  37  64  87 122 153 198 253 312 359
#     4  10  21  37  58  86 122 159 196 245 305 365
#     4  10  21  37  60  85 113 153 199 250 310 368
#     4  11  25  44  66  91 123 162 206 258 315 368
#     4  10  19  37  60  83 116 159 201 241 291 362
#     4  10  20  39  60  84 118 155 200 248 297 364
#     4  10  21  36  58  90 121 157 203 247 297 367
#
# _framework density 19.884575999999999
#
# number of rings (size 3 to 8) (size 9 to 14) (size 15 to 20)
#    0.000    1.571    2.857    2.571    0.000    4.286 
#    0.000    0.000    0.000    1.714    0.000    0.000 
#    0.000    0.000    0.000    0.000    0.000    0.000 
#
# Total GULP energy -346879.897257 kJ/mol
# GULP energy per Si atom -12388.567759 kJ/mol
# Density = 1.983932 g / cm^3
# Si number density = 19.884576 Si / 1000 Ang^3
#
#
#
# Elastic Constant Matrix: (Units=GPa)
#
#
# Indices 1 2 3 4 5 6 
#
# 1 83.3178 18.0416 15.8064 0.0000 -6.3536 0.0000
# 2 18.0416 90.4372 38.6406 0.0000 -4.4143 0.0000
# 3 15.8064 38.6406 81.7876 0.0000 -8.7225 0.0000
# 4 0.0000 0.0000 0.0000 33.0914 0.0000 5.7402
# 5 -6.3536 -4.4143 -8.7225 0.0000 32.6355 0.0000
# 6 0.0000 0.0000 0.0000 5.7402 0.0000 45.6334
#
#
#
# Elastic Compliance Matrix: (Units=1/GPa)
#
#
# Indices 1 2 3 4 5 6 
#
# 1 0.012814 -0.001870 -0.001394 0.000000 0.001869 0.000000
# 2 -0.001870 0.014127 -0.006329 0.000000 -0.000145 0.000000
# 3 -0.001394 -0.006329 0.015817 0.000000 0.003100 0.000000
# 4 0.000000 0.000000 0.000000 0.030893 0.000000 -0.003886
# 5 0.001869 -0.000145 0.003100 0.000000 0.031814 0.000000
# 6 0.000000 0.000000 0.000000 -0.003886 0.000000 0.022403
#
#
# Mechanical properties :
#
#
# Convention : Reuss Voigt Hill
#
# Bulk Modulus (GPa) = 42.41930 44.50218 43.46074
# Shear Modulus (GPa) = 32.27674 34.47566 33.37620
#
# Velocity S-wave (km/s) = 4.03327 4.16840 4.10139
# Velocity P-wave (km/s) = 6.56268 6.75250 6.65827
#
# Compressibility (1/GPa) = 0.02357417
#
# Stress axis : x y z
#
# Youngs Moduli (GPa) = 78.03944 70.78508 63.22427
#
# Poissons Ratio (x) = 0.13233 0.08813
# Poissons Ratio (y) = 0.14590 0.40012
# Poissons Ratio (z) = 0.10878 0.44797
#
# Static dielectric constant tensor:
#      x y z
#    x 3.774050 0.000000 0.111100 
#    y 0.000000 3.604580 0.000000 
#    z 0.111100 0.000000 3.948320 
# 
# 
# High freq. dielectric constant tensor:
#      x y z
#    x 1.788160 0.000000 0.003390 
#    y 0.000000 1.760560 0.000000 
#    z 0.003390 0.000000 1.776480 
# 
# From -- ./inp_files/165590.got.cif
#   From: 2010.06.25/outbox.cif.g09.slc.cpg/sg12_83_cif.got.tgz:165590.got - 2010.06.28 00:19:55.
