data_PCOD8094704
_publ_section_title
;
Structure prediction by ZEFSAII (Michael W. Deem and Ramdas Pophale) SiO2 
 PCOD8094704
Probable space group: C 2/M
;
_chemical_formula_sum "Si O2"
_cell_formula_units_Z 64
_cell_length_a 11.758211
_cell_length_b 15.417793
_cell_length_c 28.525115
_cell_angle_alpha 90.000000
_cell_angle_beta 32.543415
_cell_angle_gamma 90.000000
_cell_volume 2781.784663
_symmetry_space_group_name_H-M "C 2/M"
_symmetry_group_IT_number 12
_symmetry_cell_setting 'monoclinic'
loop_
_space_group_symop_operation_xyz
x,y,z
-x,y,-z
-x,-y,-z
x,-y,z
1/2+x,1/2+y,z
1/2-x,1/2+y,-z
1/2-x,1/2-y,-z
1/2+x,1/2-y,z
loop_
_atom_site_type_symbol
_atom_site_label
_atom_site_fract_x
_atom_site_fract_y
_atom_site_fract_z
Si Si1 0.743153 0.099198 0.909981
Si Si2 0.313528 0.599643 0.095272
Si Si3 0.417879 0.098525 0.667422
Si Si4 0.097031 0.823867 0.840340
Si Si5 0.177041 0.600753 0.402590
Si Si6 0.700824 0.603470 0.403620
Si Si7 0.647708 0.097945 0.747263
Si Si8 0.645123 0.348641 0.232165
O O1 0.814165 0.103979 0.830976
O O2 0.854346 0.169029 0.906809
O O3 0.788650 0.000000 0.910416
O O4 0.500000 0.122843 0.000000
O O5 0.301701 0.500000 0.083799
O O6 0.369182 0.606621 0.130472
O O7 0.082814 0.644131 0.165655
O O8 0.500000 0.645712 0.000000
O O9 0.208231 0.149743 0.753401
O O10 0.453196 0.108851 0.600252
O O11 0.606241 0.138688 0.632408
O O12 0.386022 0.000000 0.693474
O O13 0.202077 0.735041 0.821293
O O14 0.241848 0.500000 0.389694
O O15 0.389786 0.660519 0.328062
O O16 0.000000 0.634992 0.500000
O O17 0.500000 0.644306 0.500000
O O18 0.682268 0.500000 0.410498
O O19 0.726582 0.639350 0.341088
O O20 0.781980 0.097177 0.747839
O O21 0.598140 0.000000 0.749115
#
# Coordination Sequence:
#
# PCOD8094704 Si02
#       8
#     8   8   8   8   8   8   8   8
#     4  11  26  48  74 101 133 183 240 286 338 414
#     4  10  22  40  66  96 128 169 220 278 340 407
#     4  10  19  38  66  91 123 174 232 281 331 404
#     4  12  25  42  68  94 137 179 224 280 343 411
#     4  10  22  42  71 101 132 179 240 293 340 405
#     4   9  18  32  57  92 123 157 209 274 333 388
#     4  10  21  38  60  89 129 168 215 274 335 400
#     4  12  27  42  66  98 140 177 223 284 349 407
#
# _framework density 23.006813000000001
#
# number of rings (size 3 to 8) (size 9 to 14) (size 15 to 20)
#    0.000    1.500    2.500    2.250    5.250    1.000 
#    0.000    1.250    0.000    0.000    0.000    0.000 
#    0.000    0.000    0.000    0.000    0.000    0.000 
#
# Total GULP energy -396476.345505 kJ/mol
# GULP energy per Si atom -12389.885797 kJ/mol
# Density = 2.295445 g / cm^3
# Si number density = 23.006813 Si / 1000 Ang^3
#
#
#
# Elastic Constant Matrix: (Units=GPa)
#
#
# Indices 1 2 3 4 5 6 
#
# 1 124.6514 4.9981 36.6574 0.0433 -10.9079 0.0522
# 2 4.9981 43.4041 4.3182 0.0228 -10.8987 0.0215
# 3 36.6574 4.3182 148.2259 0.2173 -6.4433 0.2365
# 4 0.0433 0.0228 0.2173 -69.5349 -0.0712 -77.8560
# 5 -10.9079 -10.8987 -6.4433 -0.0712 39.3660 -0.0719
# 6 0.0522 0.0215 0.2365 -77.8560 -0.0719 -36.5063
#
#
#
# Elastic Compliance Matrix: (Units=1/GPa)
#
#
# Indices 1 2 3 4 5 6 
#
# 1 0.008825 -0.000301 -0.002086 -0.000002 0.002020 -0.000001
# 2 -0.000301 0.024798 -0.000356 -0.000001 0.006724 0.000001
# 3 -0.002086 -0.000356 0.007295 0.000020 0.000518 0.000001
# 4 -0.000002 -0.000001 0.000020 0.010362 -0.000019 -0.022099
# 5 0.002020 0.006724 0.000518 -0.000019 0.027909 -0.000004
# 6 -0.000001 0.000001 0.000001 -0.022099 -0.000004 0.019737
#
#
# Mechanical properties :
#
#
# Convention : Reuss Voigt Hill
#
# Bulk Modulus (GPa) = 28.22310 45.35874 36.79092
# Shear Modulus (GPa) = 43.02137 4.68546 23.85342
#
# Velocity S-wave (km/s) = 4.32897 1.42863 3.22343
# Velocity P-wave (km/s) = 6.10578 4.74125 5.46626
#
# Compressibility (1/GPa) = 0.03543197
#
# Stress axis : x y z
#
# Youngs Moduli (GPa) = 113.31899 40.32633 137.07780
#
# Poissons Ratio (x) = 0.01215 0.28592
# Poissons Ratio (y) = 0.03415 0.04875
# Poissons Ratio (z) = 0.23636 0.01434
#
# Static dielectric constant tensor:
#      x y z
#    x 4.146050 0.000000 -0.105970 
#    y 0.000000 3.717880 0.000020 
#    z -0.105970 0.000020 4.513650 
# 
# 
# High freq. dielectric constant tensor:
#      x y z
#    x 1.918590 0.000000 0.000890 
#    y 0.000000 1.871080 0.000000 
#    z 0.000890 0.000000 1.920220 
# 
# From -- ./inp_files/374414.got.cif
#   From: 2010.06.25/outbox.cif.g09.slc.cpg/sg12_188_cif.got.tgz:374414.got - 2010.06.28 00:19:55.
