data_PCOD8094717
_publ_section_title
;
Structure prediction by ZEFSAII (Michael W. Deem and Ramdas Pophale) SiO2 
 PCOD8094717
Probable space group: C 2/M
;
_chemical_formula_sum "Si O2"
_cell_formula_units_Z 40
_cell_length_a 12.806009
_cell_length_b 15.788981
_cell_length_c 19.288571
_cell_angle_alpha 90.000000
_cell_angle_beta 29.198751
_cell_angle_gamma 90.000000
_cell_volume 1902.593141
_symmetry_space_group_name_H-M "C 2/M"
_symmetry_group_IT_number 12
_symmetry_cell_setting 'monoclinic'
loop_
_space_group_symop_operation_xyz
x,y,z
-x,y,-z
-x,-y,-z
x,-y,z
1/2+x,1/2+y,z
1/2-x,1/2+y,-z
1/2-x,1/2-y,-z
1/2+x,1/2-y,z
loop_
_atom_site_type_symbol
_atom_site_label
_atom_site_fract_x
_atom_site_fract_y
_atom_site_fract_z
Si Si1 0.018482 0.097350 0.794619
Si Si2 0.866538 0.817536 0.137939
Si Si3 0.533510 0.864756 0.060919
Si Si4 0.458018 0.284785 0.344335
Si Si5 0.613814 0.405941 0.366967
O O1 0.149990 0.117390 0.788724
O O2 0.095363 0.171672 0.697933
O O3 0.072921 0.000000 0.740720
O O4 0.764930 0.106392 0.952628
O O5 0.634838 0.789813 0.241783
O O6 0.005773 0.736150 0.080724
O O7 0.000000 0.864019 0.000000
O O8 0.372478 0.905126 0.212030
O O9 0.500000 0.895725 0.000000
O O10 0.250000 0.250000 0.500000
O O11 0.547160 0.362103 0.335722
O O12 0.500000 0.361194 0.500000
O O13 0.521098 0.500000 0.418910
#
# Coordination Sequence:
#
# PCOD8094717 Si02
#       5
#     8   8   8   8   8
#     4  12  24  40  69  99 128 168 222 275 325 384
#     4  10  22  42  64  94 128 168 214 269 319 391
#     4  10  19  38  67  94 124 167 216 267 319 389
#     4  11  25  40  63  90 126 176 217 262 320 397
#     4  10  21  36  58  91 128 158 206 274 326 369
#
# _framework density 21.023937
#
# number of rings (size 3 to 8) (size 9 to 14) (size 15 to 20)
#    0.000    1.400    6.000    1.800    5.600    1.200 
#    0.000    3.000    0.000    0.000    0.000    0.000 
#    0.000    0.000    0.000    0.000    0.000    0.000 
#
# Total GULP energy -247816.441905 kJ/mol
# GULP energy per Si atom -12390.822095 kJ/mol
# Density = 2.097609 g / cm^3
# Si number density = 21.023937 Si / 1000 Ang^3
#
#
#
# Elastic Constant Matrix: (Units=GPa)
#
#
# Indices 1 2 3 4 5 6 
#
# 1 70.6920 22.0601 33.1223 0.0032 15.7318 0.0107
# 2 22.0601 59.8310 28.8356 0.0279 -4.8493 0.0006
# 3 33.1223 28.8356 163.1877 0.0545 17.2966 0.0053
# 4 0.0032 0.0279 0.0545 21.8800 -0.0092 10.5216
# 5 15.7318 -4.8493 17.2966 -0.0092 31.4257 -0.0085
# 6 0.0107 0.0006 0.0053 10.5216 -0.0085 13.3418
#
#
#
# Elastic Compliance Matrix: (Units=1/GPa)
#
#
# Indices 1 2 3 4 5 6 
#
# 1 0.019336 -0.007155 -0.001611 0.000026 -0.009897 -0.000042
# 2 -0.007155 0.021650 -0.003300 -0.000033 0.008739 0.000038
# 3 -0.001611 -0.003300 0.007441 -0.000022 -0.003798 0.000014
# 4 0.000026 -0.000033 -0.000022 0.073624 0.000000 -0.058061
# 5 -0.009897 0.008739 -0.003798 0.000000 0.040214 0.000035
# 6 -0.000042 0.000038 0.000014 -0.058061 0.000035 0.120740
#
#
# Mechanical properties :
#
#
# Convention : Reuss Voigt Hill
#
# Bulk Modulus (GPa) = 41.16051 51.30521 46.23286
# Shear Modulus (GPa) = 15.86117 27.30902 21.58509
#
# Velocity S-wave (km/s) = 2.74968 3.60800 3.20768
# Velocity P-wave (km/s) = 5.44990 6.46631 5.97974
#
# Compressibility (1/GPa) = 0.02429513
#
# Stress axis : x y z
#
# Youngs Moduli (GPa) = 51.71680 46.18863 134.39819
#
# Poissons Ratio (x) = 0.33047 0.21657
# Poissons Ratio (y) = 0.37003 0.44347
# Poissons Ratio (z) = 0.08334 0.15241
#
# Static dielectric constant tensor:
#      x y z
#    x 3.722540 0.000000 0.266290 
#    y 0.000000 3.612450 0.000040 
#    z 0.266290 0.000040 3.783330 
# 
# 
# High freq. dielectric constant tensor:
#      x y z
#    x 1.802890 0.000000 0.014800 
#    y 0.000000 1.805030 0.000000 
#    z 0.014800 0.000000 1.832240 
# 
# From -- ./inp_files/264394.got.cif
#   From: 2010.06.25/outbox.cif.g09.slc.cpg/sg12_133_cif.got.tgz:264394.got - 2010.06.28 00:19:55.
