data_PCOD8094651
_publ_section_title
;
Structure prediction by ZEFSAII (Michael W. Deem and Ramdas Pophale) SiO2 
 PCOD8094651
Probable space group: C 2/M
;
_chemical_formula_sum "Si O2"
_cell_formula_units_Z 32
_cell_length_a 11.018099
_cell_length_b 17.885785
_cell_length_c 9.099652
_cell_angle_alpha 90.000000
_cell_angle_beta 118.341583
_cell_angle_gamma 90.000000
_cell_volume 1578.293574
_symmetry_space_group_name_H-M "C 2/M"
_symmetry_group_IT_number 12
_symmetry_cell_setting 'monoclinic'
loop_
_space_group_symop_operation_xyz
x,y,z
-x,y,-z
-x,-y,-z
x,-y,z
1/2+x,1/2+y,z
1/2-x,1/2+y,-z
1/2-x,1/2-y,-z
1/2+x,1/2-y,z
loop_
_atom_site_type_symbol
_atom_site_label
_atom_site_fract_x
_atom_site_fract_y
_atom_site_fract_z
Si Si1 0.168750 0.327986 0.941046
Si Si2 0.645373 0.178330 0.251794
Si Si3 0.874644 0.086676 0.530966
Si Si4 0.631212 0.657980 0.173182
O O1 0.253787 0.377818 0.871040
O O2 0.013923 0.322137 0.789945
O O3 0.250000 0.250000 0.000000
O O4 0.165777 0.361615 0.104011
O O5 0.736537 0.132871 0.419291
O O6 0.691684 0.265146 0.276472
O O7 0.910797 0.100261 0.723082
O O8 0.000000 0.114758 0.500000
O O9 0.845780 0.000000 0.486476
O O10 0.500000 0.680477 0.000000
#
# Coordination Sequence:
#
# PCOD8094651 Si02
#       4
#     8   8   8   8
#     4   9  17  34  62  94 120 145 198 258 311 353
#     4  10  19  38  63  90 121 155 201 256 308 355
#     4  11  26  42  57  86 129 170 204 243 302 368
#     4  11  20  37  65  91 118 156 206 259 302 357
#
# _framework density 20.275061000000001
#
# number of rings (size 3 to 8) (size 9 to 14) (size 15 to 20)
#    0.000    1.750    5.000    2.250    3.500    1.500 
#    0.000    6.250    0.000    0.000    0.000    0.000 
#    0.000    0.000    0.000    0.000    0.000    0.000 
#
# Total GULP energy -198317.017754 kJ/mol
# GULP energy per Si atom -12394.813610 kJ/mol
# Density = 2.022891 g / cm^3
# Si number density = 20.275061 Si / 1000 Ang^3
#
#
#
# Elastic Constant Matrix: (Units=GPa)
#
#
# Indices 1 2 3 4 5 6 
#
# 1 161.7889 25.5212 46.5761 0.0000 -12.1262 0.0000
# 2 25.5212 52.3570 31.5623 0.0000 9.5998 0.0000
# 3 46.5761 31.5623 84.0635 0.0000 2.9918 0.0000
# 4 0.0000 0.0000 0.0000 14.0904 0.0000 -4.3840
# 5 -12.1262 9.5998 2.9918 0.0000 41.2766 0.0000
# 6 0.0000 0.0000 0.0000 -4.3840 0.0000 19.6721
#
#
#
# Elastic Compliance Matrix: (Units=1/GPa)
#
#
# Indices 1 2 3 4 5 6 
#
# 1 0.007793 -0.002186 -0.003606 0.000000 0.003059 0.000000
# 2 -0.002186 0.026412 -0.008486 0.000000 -0.006170 0.000000
# 3 -0.003606 -0.008486 0.017091 0.000000 -0.000325 0.000000
# 4 0.000000 0.000000 0.000000 0.076258 0.000000 0.016994
# 5 0.003059 -0.006170 -0.000325 0.000000 0.026584 0.000000
# 6 0.000000 0.000000 0.000000 0.016994 0.000000 0.054621
#
#
# Mechanical properties :
#
#
# Convention : Reuss Voigt Hill
#
# Bulk Modulus (GPa) = 43.97363 56.16982 50.07173
# Shear Modulus (GPa) = 20.41695 27.97781 24.19738
#
# Velocity S-wave (km/s) = 3.17677 3.71875 3.45839
# Velocity P-wave (km/s) = 5.93223 6.79727 6.37943
#
# Compressibility (1/GPa) = 0.02274090
#
# Stress axis : x y z
#
# Youngs Moduli (GPa) = 128.31880 37.86169 58.50903
#
# Poissons Ratio (x) = 0.08276 0.21099
# Poissons Ratio (y) = 0.28048 0.49650
# Poissons Ratio (z) = 0.46272 0.32129
#
# Static dielectric constant tensor:
#      x y z
#    x 4.286910 0.000000 -0.377460 
#    y 0.000000 3.107250 0.000000 
#    z -0.377460 0.000000 3.680230 
# 
# 
# High freq. dielectric constant tensor:
#      x y z
#    x 1.814300 0.000000 -0.008910 
#    y 0.000000 1.733030 0.000000 
#    z -0.008910 0.000000 1.790030 
# 
# From -- ./inp_files/46265.got.cif
#   From: 2010.06.25/outbox.cif.g09.slc.cpg/sg12_24_cif.got.tgz:46265.got - 2010.06.28 00:19:55.
