data_PCOD8094705
_publ_section_title
;
Structure prediction by ZEFSAII (Michael W. Deem and Ramdas Pophale) SiO2 
 PCOD8094705
Probable space group: C 2/M
;
_chemical_formula_sum "Si O2"
_cell_formula_units_Z 48
_cell_length_a 17.755004
_cell_length_b 30.558476
_cell_length_c 8.587659
_cell_angle_alpha 90.000000
_cell_angle_beta 147.689101
_cell_angle_gamma 90.000000
_cell_volume 2490.494767
_symmetry_space_group_name_H-M "C 2/M"
_symmetry_group_IT_number 12
_symmetry_cell_setting 'monoclinic'
loop_
_space_group_symop_operation_xyz
x,y,z
-x,y,-z
-x,-y,-z
x,-y,z
1/2+x,1/2+y,z
1/2-x,1/2+y,-z
1/2-x,1/2-y,-z
1/2+x,1/2-y,z
loop_
_atom_site_type_symbol
_atom_site_label
_atom_site_fract_x
_atom_site_fract_y
_atom_site_fract_z
Si Si1 0.175731 0.870828 0.962771
Si Si2 0.100466 0.395481 0.032453
Si Si3 0.102903 0.759166 0.317782
Si Si4 0.348661 0.049611 0.159510
Si Si5 0.433097 0.825309 0.546873
Si Si6 0.129500 0.848339 0.532242
O O1 0.171212 0.848370 0.786041
O O2 0.017962 0.873554 0.757167
O O3 0.237446 0.919773 0.055717
O O4 0.271295 0.840659 0.242109
O O5 0.142060 0.438787 0.008155
O O6 0.021380 0.364454 0.773600
O O7 0.244523 0.371991 0.344714
O O8 0.000000 0.408048 0.000000
O O9 0.250000 0.750000 0.500000
O O10 0.050234 0.715882 0.311918
O O11 0.113738 0.798074 0.459470
O O12 0.000000 0.772889 0.000000
O O13 0.500000 0.056372 0.500000
O O14 0.295065 0.000000 0.082140
O O15 0.500000 0.812365 0.500000
#
# Coordination Sequence:
#
# PCOD8094705 Si02
#       6
#     8   8   8   8   8   8
#     4  10  20  38  60  89 114 150 200 247 301 345
#     4  11  21  39  60  88 121 156 193 241 297 362
#     4  12  26  40  54  85 121 162 204 248 300 344
#     4  10  19  38  66  93 115 146 197 248 294 359
#     4  12  21  37  63  82 114 157 212 251 285 344
#     4  10  22  38  56  84 122 154 196 246 296 348
#
# _framework density 19.27328
#
# number of rings (size 3 to 8) (size 9 to 14) (size 15 to 20)
#    0.000    1.167    5.000    3.500    2.333    1.000 
#    0.000    6.667    0.000    0.000    0.000    2.333 
#    0.000    0.000    0.000    0.000    0.000    0.000 
#
# Total GULP energy -297640.496639 kJ/mol
# GULP energy per Si atom -12401.687360 kJ/mol
# Density = 1.922941 g / cm^3
# Si number density = 19.273280 Si / 1000 Ang^3
#
#
#
# Elastic Constant Matrix: (Units=GPa)
#
#
# Indices 1 2 3 4 5 6 
#
# 1 64.4861 19.5254 19.2427 0.0000 14.0073 0.0000
# 2 19.5254 115.9675 37.7410 0.0000 -2.3011 0.0000
# 3 19.2427 37.7410 112.6724 0.0000 18.6314 0.0000
# 4 0.0000 0.0000 0.0000 25.6711 0.0000 2.7883
# 5 14.0073 -2.3011 18.6314 0.0000 33.6681 0.0000
# 6 0.0000 0.0000 0.0000 2.7883 0.0000 7.9011
#
#
#
# Elastic Compliance Matrix: (Units=1/GPa)
#
#
# Indices 1 2 3 4 5 6 
#
# 1 0.018248 -0.002911 -0.000939 0.000000 -0.007271 0.000000
# 2 -0.002911 0.010371 -0.003626 0.000000 0.003927 0.000000
# 3 -0.000939 -0.003626 0.011257 0.000000 -0.006086 0.000000
# 4 0.000000 0.000000 0.000000 0.040507 0.000000 -0.014295
# 5 -0.007271 0.003927 -0.006086 0.000000 0.036363 0.000000
# 6 0.000000 0.000000 0.000000 -0.014295 0.000000 0.131609
#
#
# Mechanical properties :
#
#
# Convention : Reuss Voigt Hill
#
# Bulk Modulus (GPa) = 40.12233 49.57156 44.84694
# Shear Modulus (GPa) = 18.40830 27.88918 23.14874
#
# Velocity S-wave (km/s) = 3.09385 3.80812 3.46942
# Velocity P-wave (km/s) = 5.79874 6.71654 6.27444
#
# Compressibility (1/GPa) = 0.02492378
#
# Stress axis : x y z
#
# Youngs Moduli (GPa) = 54.79953 96.42028 88.83579
#
# Poissons Ratio (x) = 0.28069 0.08342
# Poissons Ratio (y) = 0.15953 0.32213
# Poissons Ratio (z) = 0.05146 0.34963
#
# Static dielectric constant tensor:
#      x y z
#    x 3.579480 0.000000 0.218520 
#    y 0.000000 3.794780 0.000000 
#    z 0.218520 0.000000 3.839840 
# 
# 
# High freq. dielectric constant tensor:
#      x y z
#    x 1.744170 0.000000 0.008970 
#    y 0.000000 1.735270 0.000000 
#    z 0.008970 0.000000 1.765170 
# 
# From -- ./inp_files/42237.got.cif
#   From: 2010.06.25/outbox.cif.g09.slc.cpg/sg12_22_cif.got.tgz:42237.got - 2010.06.28 00:19:55.
