data_PCOD8094434
_publ_section_title
;
Structure prediction by ZEFSAII (Michael W. Deem and Ramdas Pophale) SiO2 
 PCOD8094434
Probable space group: C 2/M
;
_chemical_formula_sum "Si O2"
_cell_formula_units_Z 64
_cell_length_a 30.438867
_cell_length_b 8.964537
_cell_length_c 11.877872
_cell_angle_alpha 90.000000
_cell_angle_beta 90.919239
_cell_angle_gamma 90.000000
_cell_volume 3240.701957
_symmetry_space_group_name_H-M "C 2/M"
_symmetry_group_IT_number 12
_symmetry_cell_setting 'monoclinic'
loop_
_space_group_symop_operation_xyz
x,y,z
-x,y,-z
-x,-y,-z
x,-y,z
1/2+x,1/2+y,z
1/2-x,1/2+y,-z
1/2-x,1/2-y,-z
1/2+x,1/2-y,z
loop_
_atom_site_type_symbol
_atom_site_label
_atom_site_fract_x
_atom_site_fract_y
_atom_site_fract_z
Si Si1 0.913000 0.834818 0.750242
Si Si2 0.413016 0.823786 0.177894
Si Si3 0.373801 0.666108 0.984749
Si Si4 0.162937 0.173289 0.678184
Si Si5 0.841846 0.826506 0.580536
Si Si6 0.763031 0.329595 0.691890
Si Si7 0.289306 0.170260 0.945528
Si Si8 0.499227 0.321192 0.132641
O O1 0.880205 0.840949 0.853033
O O2 0.883889 0.754852 0.650525
O O3 0.957796 0.758710 0.797712
O O4 0.925369 0.000000 0.707798
O O5 0.372123 0.761621 0.247836
O O6 0.460193 0.749973 0.206690
O O7 0.415383 0.000000 0.192660
O O8 0.408215 0.774068 0.047540
O O9 0.376935 0.500000 0.037706
O O10 0.327287 0.737312 0.005508
O O11 0.148091 0.198482 0.549529
O O12 0.213048 0.234713 0.695974
O O13 0.161240 0.000000 0.712813
O O14 0.794283 0.755791 0.605564
O O15 0.838153 0.000000 0.612627
O O16 0.759755 0.500000 0.650601
O O17 0.787174 0.315989 0.811798
O O18 0.293077 0.000000 0.984336
O O19 0.250000 0.250000 0.000000
O O20 0.497245 0.500000 0.136915
O O21 0.500000 0.272170 0.000000
#
# Coordination Sequence:
#
# PCOD8094434 Si02
#       8
#     8   8   8   8   8   8   8   8
#     4   9  18  34  59  89 114 143 189 238 289 346
#     4  12  25  39  58  88 121 152 194 243 296 356
#     4  11  20  36  59  82 115 153 190 238 294 352
#     4  10  22  40  60  83 116 159 203 243 288 343
#     4  10  20  37  62  89 115 151 202 249 286 339
#     4  10  21  36  55  83 117 154 196 241 292 346
#     4  11  22  34  50  79 117 159 201 242 292 349
#     4  10  19  37  63  88 115 153 192 233 294 361
#
# _framework density 19.748806999999999
#
# number of rings (size 3 to 8) (size 9 to 14) (size 15 to 20)
#    0.000    1.625    2.500    3.000    0.000    2.750 
#    0.000    1.250    0.000    3.750    0.000    0.000 
#    0.000    0.000    0.000    0.000    0.000    0.000 
#
# Total GULP energy -396489.572998 kJ/mol
# GULP energy per Si atom -12390.299156 kJ/mol
# Density = 1.970386 g / cm^3
# Si number density = 19.748807 Si / 1000 Ang^3
#
#
#
# Elastic Constant Matrix: (Units=GPa)
#
#
# Indices 1 2 3 4 5 6 
#
# 1 147.4793 43.0682 27.4011 0.0000 9.5722 0.0000
# 2 43.0682 57.0385 20.9406 0.0000 -5.4863 0.0000
# 3 27.4011 20.9406 56.1873 0.0000 5.0858 0.0000
# 4 0.0000 0.0000 0.0000 19.4457 0.0000 -2.6916
# 5 9.5722 -5.4863 5.0858 0.0000 28.8670 0.0000
# 6 0.0000 0.0000 0.0000 -2.6916 0.0000 30.4166
#
#
#
# Elastic Compliance Matrix: (Units=1/GPa)
#
#
# Indices 1 2 3 4 5 6 
#
# 1 0.009355 -0.006860 -0.001633 0.000000 -0.004118 0.000000
# 2 -0.006860 0.026165 -0.007177 0.000000 0.008512 0.000000
# 3 -0.001633 -0.007177 0.021689 0.000000 -0.004644 0.000000
# 4 0.000000 0.000000 0.000000 0.052063 0.000000 0.004607
# 5 -0.004118 0.008512 -0.004644 0.000000 0.038443 0.000000
# 6 0.000000 0.000000 0.000000 0.004607 0.000000 0.033285
#
#
# Mechanical properties :
#
#
# Convention : Reuss Voigt Hill
#
# Bulk Modulus (GPa) = 38.65453 49.28057 43.96755
# Shear Modulus (GPa) = 22.62840 27.03218 24.83029
#
# Velocity S-wave (km/s) = 3.38866 3.70374 3.54970
# Velocity P-wave (km/s) = 5.90984 6.58013 6.25397
#
# Compressibility (1/GPa) = 0.02587019
#
# Stress axis : x y z
#
# Youngs Moduli (GPa) = 106.89955 38.21839 46.10688
#
# Poissons Ratio (x) = 0.26218 0.07527
# Poissons Ratio (y) = 0.73335 0.33089
# Poissons Ratio (z) = 0.17451 0.27428
#
# Static dielectric constant tensor:
#      x y z
#    x 3.705250 0.000000 0.057960 
#    y 0.000000 3.105510 0.000000 
#    z 0.057960 0.000000 3.303300 
# 
# 
# High freq. dielectric constant tensor:
#      x y z
#    x 1.785960 0.000000 0.010170 
#    y 0.000000 1.744480 0.000000 
#    z 0.010170 0.000000 1.759170 
# 
# From -- ./inp_files/187610.got.cif
#   From: 2010.06.25/outbox.cif.g09.slc.cpg/sg12_94_cif.got.tgz:187610.got - 2010.06.28 00:19:55.
