data_PCOD8094800
_publ_section_title
;
Structure prediction by ZEFSAII (Michael W. Deem and Ramdas Pophale) SiO2 
 PCOD8094800
Probable space group: C 2/M
;
_chemical_formula_sum "Si O2"
_cell_formula_units_Z 52
_cell_length_a 24.714973
_cell_length_b 11.121271
_cell_length_c 12.228114
_cell_angle_alpha 90.000000
_cell_angle_beta 47.509358
_cell_angle_gamma 90.000000
_cell_volume 2478.391518
_symmetry_space_group_name_H-M "C 2/M"
_symmetry_group_IT_number 12
_symmetry_cell_setting 'monoclinic'
loop_
_space_group_symop_operation_xyz
x,y,z
-x,y,-z
-x,-y,-z
x,-y,z
1/2+x,1/2+y,z
1/2-x,1/2+y,-z
1/2-x,1/2-y,-z
1/2+x,1/2-y,z
loop_
_atom_site_type_symbol
_atom_site_label
_atom_site_fract_x
_atom_site_fract_y
_atom_site_fract_z
Si Si1 0.913048 0.140418 0.284420
Si Si2 0.846872 0.730873 0.567830
Si Si3 0.394129 0.000000 0.390942
Si Si4 0.817815 0.239284 0.218280
Si Si5 0.949775 0.500000 0.904105
Si Si6 0.580846 0.638290 0.344296
Si Si7 0.658220 0.000000 0.766608
Si Si8 0.571544 0.262971 0.117170
O O1 0.871408 0.159301 0.456214
O O2 0.862618 0.204496 0.264370
O O3 0.993173 0.200730 0.172630
O O4 0.921156 0.000000 0.249148
O O5 0.894869 0.615768 0.467629
O O6 0.763385 0.683737 0.672252
O O7 0.863377 0.773712 0.668360
O O8 0.463408 0.000000 0.216820
O O9 0.333370 0.000000 0.377392
O O10 0.802029 0.382180 0.240649
O O11 0.863818 0.192997 0.051684
O O12 0.921638 0.618988 0.878718
O O13 0.923556 0.500000 0.066688
O O14 0.500000 0.661598 0.500000
O O15 0.604282 0.500000 0.327628
O O16 0.583857 0.670344 0.213555
#
# Coordination Sequence:
#
# PCOD8094800 Si02
#       8
#     8   8   4   8   4   8   4   8
#     4  12  24  41  69  97 133 175 223 272 325 393
#     4  12  26  41  65  98 132 176 218 270 327 393
#     4  12  21  39  64  93 131 167 214 262 336 378
#     4  11  26  41  64  99 138 170 217 268 337 395
#     4  10  19  39  66  95 129 164 221 270 317 391
#     4  11  23  44  70  95 129 173 226 275 324 390
#     4  10  21  38  66  90 128 176 210 266 323 389
#     4  11  23  44  69  98 129 175 222 272 327 390
#
# _framework density 20.981349000000002
#
# number of rings (size 3 to 8) (size 9 to 14) (size 15 to 20)
#    0.000    0.769    4.615    2.077    3.231    5.538 
#    0.000    1.538    0.000    0.000    0.000    0.000 
#    0.000    0.000    0.000    0.000    0.000    0.000 
#
# Total GULP energy -322398.916660 kJ/mol
# GULP energy per Si atom -12399.958333 kJ/mol
# Density = 2.093359 g / cm^3
# Si number density = 20.981349 Si / 1000 Ang^3
#
#
#
# Elastic Constant Matrix: (Units=GPa)
#
#
# Indices 1 2 3 4 5 6 
#
# 1 89.6211 24.5697 38.1363 0.0000 8.2238 0.0000
# 2 24.5697 101.6739 29.8567 0.0000 5.7483 0.0000
# 3 38.1363 29.8567 79.2030 0.0000 -8.0515 0.0000
# 4 0.0000 0.0000 0.0000 0.1396 0.0000 3.1106
# 5 8.2238 5.7483 -8.0515 0.0000 34.3465 0.0000
# 6 0.0000 0.0000 0.0000 3.1106 0.0000 21.3479
#
#
#
# Elastic Compliance Matrix: (Units=1/GPa)
#
#
# Indices 1 2 3 4 5 6 
#
# 1 0.015076 -0.001202 -0.007327 0.000000 -0.005126 0.000000
# 2 -0.001202 0.011444 -0.003996 0.000000 -0.002564 0.000000
# 3 -0.007327 -0.003996 0.018344 0.000000 0.006723 0.000000
# 4 0.000000 0.000000 0.000000 -3.188253 0.000000 0.464554
# 5 -0.005126 -0.002564 0.006723 0.000000 0.032348 0.000000
# 6 0.000000 0.000000 0.000000 0.464554 0.000000 -0.020846
#
#
# Mechanical properties :
#
#
# Convention : Reuss Voigt Hill
#
# Bulk Modulus (GPa) = 50.46984 50.62481 50.54732
# Shear Modulus (GPa) = -1.61278 23.02915 10.70818
#
# Velocity S-wave (km/s) = -0.87769 3.31660 2.26158
# Velocity P-wave (km/s) = 4.80414 6.23276 5.56449
#
# Compressibility (1/GPa) = 0.01981382
#
# Stress axis : x y z
#
# Youngs Moduli (GPa) = 66.33130 87.38051 54.51464
#
# Poissons Ratio (x) = 0.10500 0.39944
# Poissons Ratio (y) = 0.07971 0.21785
# Poissons Ratio (z) = 0.48602 0.34918
#
# Static dielectric constant tensor:
#      x y z
#    x 3.514650 0.000000 -0.025980 
#    y 0.000000 3.865720 0.000000 
#    z -0.025980 0.000000 3.920480 
# 
# 
# High freq. dielectric constant tensor:
#      x y z
#    x 1.797190 0.000000 -0.000030 
#    y 0.000000 1.829820 0.000000 
#    z -0.000030 0.000000 1.831220 
# 
# From -- ./inp_files/175217.got.cif
#   From: 2010.06.25/outbox.cif.g09.slc.cpg/sg12_88_cif.got.tgz:175217.got - 2010.06.28 00:19:55.
