data_PCOD8094214
_publ_section_title
;
Structure prediction by ZEFSAII (Michael W. Deem and Ramdas Pophale) SiO2 
 PCOD8094214
Probable space group: C 2/M
;
_chemical_formula_sum "Si O2"
_cell_formula_units_Z 40
_cell_length_a 24.995065
_cell_length_b 17.127097
_cell_length_c 7.716429
_cell_angle_alpha 90.000000
_cell_angle_beta 37.161306
_cell_angle_gamma 90.000000
_cell_volume 1995.424158
_symmetry_space_group_name_H-M "C 2/M"
_symmetry_group_IT_number 12
_symmetry_cell_setting 'monoclinic'
loop_
_space_group_symop_operation_xyz
x,y,z
-x,y,-z
-x,-y,-z
x,-y,z
1/2+x,1/2+y,z
1/2-x,1/2+y,-z
1/2-x,1/2-y,-z
1/2+x,1/2-y,z
loop_
_atom_site_type_symbol
_atom_site_label
_atom_site_fract_x
_atom_site_fract_y
_atom_site_fract_z
Si Si1 0.790374 0.092223 0.298781
Si Si2 0.681207 0.846298 0.891379
Si Si3 0.993897 0.653583 0.821084
Si Si4 0.675972 0.090204 0.259314
Si Si5 0.929757 0.202113 0.832582
O O1 0.735095 0.114158 0.269776
O O2 0.789768 0.000000 0.340659
O O3 0.753817 0.142646 0.553686
O O4 0.891509 0.120397 0.003679
O O5 0.589809 0.887727 0.058601
O O6 0.721639 0.887038 0.958815
O O7 0.656694 0.755554 0.997605
O O8 0.083353 0.635212 0.490491
O O9 0.980923 0.747936 0.848617
O O10 0.000000 0.622066 0.000000
O O11 0.654992 0.000000 0.321814
O O12 0.000000 0.184547 0.500000
#
# Coordination Sequence:
#
# PCOD8094214 Si02
#       5
#     8   8   8   8   8
#     4  11  24  39  60  89 120 154 191 241 294 342
#     4  10  20  38  61  87 116 152 193 243 287 346
#     4  10  19  37  58  88 119 154 191 237 293 344
#     4  11  21  36  59  90 120 150 190 239 300 350
#     4  10  21  41  59  85 115 158 199 235 286 342
#
# _framework density 20.045864999999999
#
# number of rings (size 3 to 8) (size 9 to 14) (size 15 to 20)
#    1.200    0.400    4.000    1.800    0.000    4.000 
#    3.600    0.000    0.000    0.600    0.000    0.000 
#    0.000    0.000    0.000    0.000    0.000    0.000 
#
# Total GULP energy -247787.707261 kJ/mol
# GULP energy per Si atom -12389.385363 kJ/mol
# Density = 2.000024 g / cm^3
# Si number density = 20.045865 Si / 1000 Ang^3
#
#
#
# Elastic Constant Matrix: (Units=GPa)
#
#
# Indices 1 2 3 4 5 6 
#
# 1 35.4356 9.4943 36.0784 0.0000 20.8851 0.0000
# 2 9.4943 60.7204 44.2248 0.0000 -8.4934 0.0000
# 3 36.0784 44.2248 153.1127 0.0000 11.1545 0.0000
# 4 0.0000 0.0000 0.0000 25.1735 0.0000 -4.8999
# 5 20.8851 -8.4934 11.1545 0.0000 32.4805 0.0000
# 6 0.0000 0.0000 0.0000 -4.8999 0.0000 22.6110
#
#
#
# Elastic Compliance Matrix: (Units=1/GPa)
#
#
# Indices 1 2 3 4 5 6 
#
# 1 0.063977 -0.008549 -0.009689 0.000000 -0.040046 0.000000
# 2 -0.008549 0.024071 -0.005946 0.000000 0.013833 0.000000
# 3 -0.009689 -0.005946 0.010453 0.000000 0.001085 0.000000
# 4 0.000000 0.000000 0.000000 0.041474 0.000000 0.008988
# 5 -0.040046 0.013833 0.001085 0.000000 0.059782 0.000000
# 6 0.000000 0.000000 0.000000 0.008988 0.000000 0.046174
#
#
# Mechanical properties :
#
#
# Convention : Reuss Voigt Hill
#
# Bulk Modulus (GPa) = 19.94631 47.65154 33.79893
# Shear Modulus (GPa) = 16.07670 26.68442 21.38056
#
# Velocity S-wave (km/s) = 2.83503 3.65248 3.26940
# Velocity P-wave (km/s) = 4.54845 6.45060 5.58116
#
# Compressibility (1/GPa) = 0.05013458
#
# Stress axis : x y z
#
# Youngs Moduli (GPa) = 15.63052 41.54316 95.67075
#
# Poissons Ratio (x) = 0.35513 0.92692
# Poissons Ratio (y) = 0.13362 0.56888
# Poissons Ratio (z) = 0.15144 0.24702
#
# Static dielectric constant tensor:
#      x y z
#    x 3.453220 0.000000 0.122770 
#    y 0.000000 3.403990 0.000000 
#    z 0.122770 0.000000 3.573070 
# 
# 
# High freq. dielectric constant tensor:
#      x y z
#    x 1.760200 0.000000 0.015380 
#    y 0.000000 1.759420 0.000000 
#    z 0.015380 0.000000 1.787210 
# 
# From -- ./inp_files/103592.got.cif
#   From: 2010.06.25/outbox.cif.g09.slc.cpg/sg12_52_cif.got.tgz:103592.got - 2010.06.28 00:19:55.
