data_PCOD8094581
_publ_section_title
;
Structure prediction by ZEFSAII (Michael W. Deem and Ramdas Pophale) SiO2 
 PCOD8094581
Probable space group: C 2/M
;
_chemical_formula_sum "Si O2"
_cell_formula_units_Z 64
_cell_length_a 30.201364
_cell_length_b 8.701577
_cell_length_c 18.688230
_cell_angle_alpha 90.000000
_cell_angle_beta 39.433473
_cell_angle_gamma 90.000000
_cell_volume 3119.541541
_symmetry_space_group_name_H-M "C 2/M"
_symmetry_group_IT_number 12
_symmetry_cell_setting 'monoclinic'
loop_
_space_group_symop_operation_xyz
x,y,z
-x,y,-z
-x,-y,-z
x,-y,z
1/2+x,1/2+y,z
1/2-x,1/2+y,-z
1/2-x,1/2-y,-z
1/2+x,1/2-y,z
loop_
_atom_site_type_symbol
_atom_site_label
_atom_site_fract_x
_atom_site_fract_y
_atom_site_fract_z
Si Si1 0.186181 0.683671 0.124967
Si Si2 0.806017 0.681128 0.723640
Si Si3 0.836946 0.820882 0.164712
Si Si4 0.604979 0.181866 0.517737
Si Si5 0.949190 0.325081 0.932238
Si Si6 0.680648 0.679341 0.553611
Si Si7 0.041002 0.680562 0.243786
Si Si8 0.398192 0.825052 0.226779
O O1 0.190059 0.500000 0.116784
O O2 0.188677 0.748870 0.203015
O O3 0.113201 0.747761 0.184578
O O4 0.250000 0.750000 0.000000
O O5 0.800503 0.500000 0.737787
O O6 0.736408 0.742385 0.772367
O O7 0.872628 0.726613 0.591387
O O8 0.855074 0.723534 0.211636
O O9 0.834770 0.000000 0.187489
O O10 0.893339 0.792907 0.032574
O O11 0.662713 0.250807 0.498878
O O12 0.527250 0.248156 0.630074
O O13 0.606554 0.000000 0.527235
O O14 0.920448 0.500000 0.971726
O O15 0.965253 0.275978 0.831245
O O16 0.019517 0.310771 0.891107
O O17 0.691026 0.500000 0.531544
O O18 0.750000 0.750000 0.500000
O O19 0.618190 0.716662 0.685784
O O20 0.041333 0.500000 0.255492
O O21 0.378417 0.000000 0.271285
#
# Coordination Sequence:
#
# PCOD8094581 Si02
#       8
#     8   8   8   8   8   8   8   8
#     4  10  20  37  60  89 118 151 194 239 292 354
#     4   9  20  36  57  84 116 149 190 241 291 343
#     4  11  22  35  52  81 117 154 196 244 296 352
#     4  10  19  38  61  83 115 155 194 244 297 346
#     4  10  20  36  55  80 112 150 193 241 296 354
#     4  12  24  38  58  85 117 156 200 243 289 348
#     4   9  18  34  60  87 113 148 196 246 296 354
#     4  11  22  38  58  81 113 151 196 245 296 350
#
# _framework density 20.515834000000002
#
# number of rings (size 3 to 8) (size 9 to 14) (size 15 to 20)
#    0.000    1.750    1.250    3.750    0.000    4.000 
#    0.000    5.000    0.000    0.000    0.000    1.750 
#    0.000    0.000    0.000    0.000    0.000    0.000 
#
# Total GULP energy -396812.385386 kJ/mol
# GULP energy per Si atom -12400.387043 kJ/mol
# Density = 2.046914 g / cm^3
# Si number density = 20.515834 Si / 1000 Ang^3
#
#
#
# Elastic Constant Matrix: (Units=GPa)
#
#
# Indices 1 2 3 4 5 6 
#
# 1 131.9083 23.1474 41.5426 -0.0064 0.9271 0.0038
# 2 23.1474 45.3751 24.5494 0.0162 -2.7818 0.0087
# 3 41.5426 24.5494 102.6282 0.0050 7.7122 -0.0027
# 4 -0.0064 0.0162 0.0050 30.2083 -0.0008 1.4573
# 5 0.9271 -2.7818 7.7122 -0.0008 35.4978 -0.0048
# 6 0.0038 0.0087 -0.0027 1.4573 -0.0048 23.5858
#
#
#
# Elastic Compliance Matrix: (Units=1/GPa)
#
#
# Indices 1 2 3 4 5 6 
#
# 1 0.009036 -0.003002 -0.002953 0.000004 0.000170 -0.000001
# 2 -0.003002 0.026711 -0.005426 -0.000014 0.003351 -0.000008
# 3 -0.002953 -0.005426 0.012467 0.000000 -0.003057 0.000003
# 4 0.000004 -0.000014 0.000000 0.033203 -0.000001 -0.002052
# 5 0.000170 0.003351 -0.003057 -0.000001 0.029093 0.000004
# 6 -0.000001 -0.000008 0.000003 -0.002052 0.000004 0.042525
#
#
# Mechanical properties :
#
#
# Convention : Reuss Voigt Hill
#
# Bulk Modulus (GPa) = 39.28809 50.93228 45.11018
# Shear Modulus (GPa) = 27.13256 30.56984 28.85120
#
# Velocity S-wave (km/s) = 3.64059 3.86432 3.75412
# Velocity P-wave (km/s) = 6.07154 6.69256 6.38960
#
# Compressibility (1/GPa) = 0.02545301
#
# Stress axis : x y z
#
# Youngs Moduli (GPa) = 110.66254 37.43770 80.21350
#
# Poissons Ratio (x) = 0.11239 0.23683
# Poissons Ratio (y) = 0.33221 0.43525
# Poissons Ratio (z) = 0.32674 0.20314
#
# Static dielectric constant tensor:
#      x y z
#    x 3.932200 0.000000 -0.029970 
#    y 0.000000 3.423400 0.000040 
#    z -0.029970 0.000040 3.957430 
# 
# 
# High freq. dielectric constant tensor:
#      x y z
#    x 1.807680 0.000000 -0.001440 
#    y 0.000000 1.767090 0.000000 
#    z -0.001440 0.000000 1.816510 
# 
# From -- ./inp_files/295471.got.cif
#   From: 2010.06.25/outbox.cif.g09.slc.cpg/sg12_148_cif.got.tgz:295471.got - 2010.06.28 00:19:55.
