data_PCOD8094454
_publ_section_title
;
Structure prediction by ZEFSAII (Michael W. Deem and Ramdas Pophale) SiO2 
 PCOD8094454
Probable space group: C 2/M
;
_chemical_formula_sum "Si O2"
_cell_formula_units_Z 48
_cell_length_a 10.724792
_cell_length_b 19.234616
_cell_length_c 11.858254
_cell_angle_alpha 90.000000
_cell_angle_beta 59.572022
_cell_angle_gamma 90.000000
_cell_volume 2109.281986
_symmetry_space_group_name_H-M "C 2/M"
_symmetry_group_IT_number 12
_symmetry_cell_setting 'monoclinic'
loop_
_space_group_symop_operation_xyz
x,y,z
-x,y,-z
-x,-y,-z
x,-y,z
1/2+x,1/2+y,z
1/2-x,1/2+y,-z
1/2-x,1/2-y,-z
1/2+x,1/2-y,z
loop_
_atom_site_type_symbol
_atom_site_label
_atom_site_fract_x
_atom_site_fract_y
_atom_site_fract_z
Si Si1 0.958709 0.218628 0.230670
Si Si2 0.309910 0.699916 0.718385
Si Si3 0.329504 0.421993 0.304728
Si Si4 0.232290 0.420151 0.602560
Si Si5 0.874987 0.673366 0.986036
Si Si6 0.401179 0.078719 0.775751
O O1 0.794626 0.249235 0.304482
O O2 0.946630 0.135525 0.212842
O O3 0.030404 0.230692 0.324007
O O4 0.053543 0.254391 0.089673
O O5 0.324391 0.626864 0.646737
O O6 0.257648 0.688652 0.871688
O O7 0.392846 0.500000 0.257323
O O8 0.291161 0.408492 0.451419
O O9 0.181219 0.412985 0.303820
O O10 0.250271 0.500000 0.632016
O O11 0.065585 0.395816 0.684377
O O12 0.824137 0.626435 0.904872
O O13 0.000000 0.633205 0.000000
O O14 0.396690 0.000000 0.821196
#
# Coordination Sequence:
#
# PCOD8094454 Si02
#       6
#     8   8   8   8   8   8
#     4  11  23  40  63  89 127 162 209 257 307 373
#     4  11  24  41  64  96 123 168 207 257 319 368
#     4  10  23  41  63  90 125 169 210 256 311 367
#     4  10  21  40  64  92 127 164 208 255 308 375
#     4  10  20  39  62  94 122 165 209 255 317 366
#     4  10  19  37  63  93 127 162 207 258 309 370
#
# _framework density 22.756558999999999
#
# number of rings (size 3 to 8) (size 9 to 14) (size 15 to 20)
#    0.000    1.667    3.333    2.000    0.000    7.667 
#    0.000    1.667    0.000    6.500    0.000    0.000 
#    0.000    0.000    0.000    0.000    0.000    0.000 
#
# Total GULP energy -297504.072927 kJ/mol
# GULP energy per Si atom -12396.003039 kJ/mol
# Density = 2.270476 g / cm^3
# Si number density = 22.756559 Si / 1000 Ang^3
#
#
#
# Elastic Constant Matrix: (Units=GPa)
#
#
# Indices 1 2 3 4 5 6 
#
# 1 113.1214 44.0678 29.6014 0.0000 34.0071 0.0000
# 2 44.0678 125.7463 57.3389 0.0000 14.9455 0.0000
# 3 29.6014 57.3389 71.0318 0.0000 14.3167 0.0000
# 4 0.0000 0.0000 0.0000 29.2951 0.0000 8.4254
# 5 34.0071 14.9455 14.3167 0.0000 23.7712 0.0000
# 6 0.0000 0.0000 0.0000 8.4254 0.0000 40.6403
#
#
#
# Elastic Compliance Matrix: (Units=1/GPa)
#
#
# Indices 1 2 3 4 5 6 
#
# 1 0.016654 -0.003297 0.000120 0.000000 -0.021825 0.000000
# 2 -0.003297 0.013325 -0.009839 0.000000 0.002265 0.000000
# 3 0.000120 -0.009839 0.023626 0.000000 -0.008215 0.000000
# 4 0.000000 0.000000 0.000000 0.036300 0.000000 -0.007526
# 5 -0.021825 0.002265 -0.008215 0.000000 0.076814 0.000000
# 6 0.000000 0.000000 0.000000 -0.007526 0.000000 0.026166
#
#
# Mechanical properties :
#
#
# Convention : Reuss Voigt Hill
#
# Bulk Modulus (GPa) = 36.26671 63.54621 49.90646
# Shear Modulus (GPa) = 21.91932 30.66742 26.29337
#
# Velocity S-wave (km/s) = 3.10693 3.67499 3.40283
# Velocity P-wave (km/s) = 5.37048 6.78177 6.11696
#
# Compressibility (1/GPa) = 0.02757350
#
# Stress axis : x y z
#
# Youngs Moduli (GPa) = 60.04498 75.04510 42.32580
#
# Poissons Ratio (x) = 0.24744 -0.00508
# Poissons Ratio (y) = 0.19799 0.41644
# Poissons Ratio (z) = -0.00721 0.73837
#
# Static dielectric constant tensor:
#      x y z
#    x 4.307640 0.000000 0.242710 
#    y 0.000000 4.209590 0.000000 
#    z 0.242710 0.000000 3.806620 
# 
# 
# High freq. dielectric constant tensor:
#      x y z
#    x 1.908590 0.000000 0.023170 
#    y 0.000000 1.900500 0.000000 
#    z 0.023170 0.000000 1.872020 
# 
# From -- ./inp_files/131676.got.cif
#   From: 2010.06.25/outbox.cif.g09.slc.cpg/sg12_66_cif.got.tgz:131676.got - 2010.06.28 00:19:55.
