data_PCOD8094409
_publ_section_title
;
Structure prediction by ZEFSAII (Michael W. Deem and Ramdas Pophale) SiO2 
 PCOD8094409
Probable space group: C 2/M
;
_chemical_formula_sum "Si O2"
_cell_formula_units_Z 56
_cell_length_a 20.098794
_cell_length_b 8.543150
_cell_length_c 19.026211
_cell_angle_alpha 90.000000
_cell_angle_beta 120.052246
_cell_angle_gamma 90.000000
_cell_volume 2827.757021
_symmetry_space_group_name_H-M "C 2/M"
_symmetry_group_IT_number 12
_symmetry_cell_setting 'monoclinic'
loop_
_space_group_symop_operation_xyz
x,y,z
-x,y,-z
-x,-y,-z
x,-y,z
1/2+x,1/2+y,z
1/2-x,1/2+y,-z
1/2-x,1/2-y,-z
1/2+x,1/2-y,z
loop_
_atom_site_type_symbol
_atom_site_label
_atom_site_fract_x
_atom_site_fract_y
_atom_site_fract_z
Si Si1 0.082181 0.313598 0.568904
Si Si2 0.933887 0.683106 0.019613
Si Si3 0.359397 0.684883 0.737178
Si Si4 0.769175 0.685573 0.434514
Si Si5 0.030893 0.182881 0.812231
Si Si6 0.306827 0.313708 0.859641
Si Si7 0.134706 0.683492 0.747473
O O1 0.078609 0.500000 0.570180
O O2 0.147018 0.258442 0.547604
O O3 0.103129 0.245181 0.657249
O O4 0.000000 0.245410 0.500000
O O5 0.938950 0.500000 0.038980
O O6 0.850160 0.726641 0.945628
O O7 0.942843 0.779516 0.095463
O O8 0.000000 0.735905 0.000000
O O9 0.350818 0.500000 0.733734
O O10 0.294729 0.756083 0.651996
O O11 0.442961 0.736729 0.754754
O O12 0.346946 0.745667 0.809426
O O13 0.765104 0.500000 0.434017
O O14 0.750000 0.750000 0.500000
O O15 0.078525 0.279133 0.781139
O O16 0.041952 0.000000 0.803938
O O17 0.312696 0.500000 0.873208
O O18 0.219174 0.252584 0.811328
O O19 0.141707 0.500000 0.740429
#
# Coordination Sequence:
#
# PCOD8094409 Si02
#       7
#     8   8   8   8   8   8   8
#     4   9  18  34  57  83 113 151 189 228 280 337
#     4  11  23  38  58  88 119 144 182 242 292 330
#     4   9  18  35  58  81 110 150 194 230 273 337
#     4  10  20  36  57  85 116 148 190 235 280 334
#     4  11  23  38  59  84 114 153 191 232 284 346
#     4  10  19  37  63  83 107 153 196 230 278 341
#     4  10  21  38  60  85 115 150 193 239 280 331
#
# _framework density 19.803681999999998
#
# number of rings (size 3 to 8) (size 9 to 14) (size 15 to 20)
#    0.000    2.000    2.857    0.857    2.000    1.714 
#    0.000    2.143    0.000    0.857    0.000    0.000 
#    0.000    0.000    0.000    0.000    0.000    0.000 
#
# Total GULP energy -347219.399981 kJ/mol
# GULP energy per Si atom -12400.692856 kJ/mol
# Density = 1.975861 g / cm^3
# Si number density = 19.803682 Si / 1000 Ang^3
#
#
#
# Elastic Constant Matrix: (Units=GPa)
#
#
# Indices 1 2 3 4 5 6 
#
# 1 142.6373 6.9049 62.5157 0.0000 11.2224 0.0000
# 2 6.9049 10.0355 3.6948 0.0000 6.6023 0.0000
# 3 62.5157 3.6948 127.7413 0.0000 16.6426 0.0000
# 4 0.0000 0.0000 0.0000 17.3901 0.0000 -4.6977
# 5 11.2224 6.6023 16.6426 0.0000 43.8519 0.0000
# 6 0.0000 0.0000 0.0000 -4.6977 0.0000 24.9123
#
#
#
# Elastic Compliance Matrix: (Units=1/GPa)
#
#
# Indices 1 2 3 4 5 6 
#
# 1 0.009139 -0.004701 -0.004338 0.000000 0.000016 0.000000
# 2 -0.004701 0.113162 0.001147 0.000000 -0.016270 0.000000
# 3 -0.004338 0.001147 0.010306 0.000000 -0.002974 0.000000
# 4 0.000000 0.000000 0.000000 0.060590 0.000000 0.011426
# 5 0.000016 -0.016270 -0.002974 0.000000 0.026378 0.000000
# 6 0.000000 0.000000 0.000000 0.011426 0.000000 0.042295
#
#
# Mechanical properties :
#
#
# Convention : Reuss Voigt Hill
#
# Bulk Modulus (GPa) = 8.56001 47.40500 27.98251
# Shear Modulus (GPa) = 15.79303 31.05078 23.42190
#
# Velocity S-wave (km/s) = 2.82703 3.96400 3.44278
# Velocity P-wave (km/s) = 3.87143 6.70377 5.47396
#
# Compressibility (1/GPa) = 0.11682229
#
# Stress axis : x y z
#
# Youngs Moduli (GPa) = 109.42625 8.83688 97.03325
#
# Poissons Ratio (x) = 0.04154 0.42097
# Poissons Ratio (y) = 0.51438 -0.11130
# Poissons Ratio (z) = 0.47474 -0.01014
#
# Static dielectric constant tensor:
#      x y z
#    x 3.805560 0.000000 0.170460 
#    y 0.000000 3.180810 0.000000 
#    z 0.170460 0.000000 3.947760 
# 
# 
# High freq. dielectric constant tensor:
#      x y z
#    x 1.783080 0.000000 0.007400 
#    y 0.000000 1.733390 0.000000 
#    z 0.007400 0.000000 1.785320 
# 
# From -- ./inp_files/275661.got.cif
#   From: 2010.06.25/outbox.cif.g09.slc.cpg/sg12_138_cif.got.tgz:275661.got - 2010.06.28 00:19:55.
