data_PCOD8094298
_publ_section_title
;
Structure prediction by ZEFSAII (Michael W. Deem and Ramdas Pophale) SiO2 
 PCOD8094298
Probable space group: C 2/M
;
_chemical_formula_sum "Si O2"
_cell_formula_units_Z 64
_cell_length_a 19.559460
_cell_length_b 9.342842
_cell_length_c 30.492563
_cell_angle_alpha 90.000000
_cell_angle_beta 37.644134
_cell_angle_gamma 90.000000
_cell_volume 3403.274802
_symmetry_space_group_name_H-M "C 2/M"
_symmetry_group_IT_number 12
_symmetry_cell_setting 'monoclinic'
loop_
_space_group_symop_operation_xyz
x,y,z
-x,y,-z
-x,-y,-z
x,-y,z
1/2+x,1/2+y,z
1/2-x,1/2+y,-z
1/2-x,1/2-y,-z
1/2+x,1/2-y,z
loop_
_atom_site_type_symbol
_atom_site_label
_atom_site_fract_x
_atom_site_fract_y
_atom_site_fract_z
Si Si1 0.282018 0.164935 0.368640
Si Si2 0.191362 0.164940 0.729902
Si Si3 0.982319 0.665385 0.872182
Si Si4 0.477345 0.830615 0.724911
Si Si5 0.046775 0.164251 0.522607
Si Si6 0.416293 0.832633 0.003660
Si Si7 0.917105 0.664774 0.661134
Si Si8 0.186351 0.667155 0.116333
O O1 0.257502 0.259853 0.338672
O O2 0.395510 0.221044 0.333221
O O3 0.181184 0.183029 0.454396
O O4 0.292950 0.000000 0.347944
O O5 0.285636 0.181999 0.718989
O O6 0.078663 0.238423 0.803060
O O7 0.165357 0.000000 0.732753
O O8 0.016046 0.500000 0.848426
O O9 0.970296 0.704580 0.929276
O O10 0.866526 0.696943 0.904942
O O11 0.435189 0.768386 0.700122
O O12 0.400925 0.773040 0.803303
O O13 0.470272 0.000000 0.728146
O O14 0.000000 0.220633 0.500000
O O15 0.996430 0.254464 0.587273
O O16 0.010812 0.000000 0.547663
O O17 0.390020 0.000000 0.020917
O O18 0.500000 0.783114 0.000000
O O19 0.300738 0.749676 0.066027
O O20 0.954225 0.500000 0.640219
O O21 0.211437 0.500000 0.109955
#
# Coordination Sequence:
#
# PCOD8094298 Si02
#       8
#     8   8   8   8   8   8   8   8
#     4  10  19  37  61  80 109 150 189 229 276 334
#     4  11  22  34  55  86 113 141 186 237 280 324
#     4  10  21  39  61  82 110 153 191 223 276 336
#     4   9  19  37  58  81 111 148 187 226 277 334
#     4  10  20  34  56  83 109 145 191 233 276 334
#     4  10  23  40  57  85 122 151 180 227 285 331
#     4  10  22  37  54  80 115 149 181 231 288 331
#     4  10  20  37  63  85 107 149 195 228 267 330
#
# _framework density 18.805416000000001
#
# number of rings (size 3 to 8) (size 9 to 14) (size 15 to 20)
#    0.000    2.000    2.500    0.750    1.750    3.000 
#    0.000    1.250    0.000    0.000    0.000    0.000 
#    0.000    0.000    0.000    0.000    0.000    0.000 
#
# Total GULP energy -396846.000371 kJ/mol
# GULP energy per Si atom -12401.437512 kJ/mol
# Density = 1.876261 g / cm^3
# Si number density = 18.805416 Si / 1000 Ang^3
#
#
#
# Elastic Constant Matrix: (Units=GPa)
#
#
# Indices 1 2 3 4 5 6 
#
# 1 127.1990 37.7866 46.4545 -0.0001 6.3081 0.0055
# 2 37.7866 56.6274 41.0221 -0.0003 -3.8165 0.0108
# 3 46.4545 41.0221 96.4492 0.0001 -5.4708 -0.0021
# 4 -0.0001 -0.0003 0.0001 34.7862 -0.0007 -5.1754
# 5 6.3081 -3.8165 -5.4708 -0.0007 35.4054 -0.0006
# 6 0.0055 0.0108 -0.0021 -5.1754 -0.0006 18.9871
#
#
#
# Elastic Compliance Matrix: (Units=1/GPa)
#
#
# Indices 1 2 3 4 5 6 
#
# 1 0.010652 -0.005013 -0.003164 0.000000 -0.002927 -0.000001
# 2 -0.005013 0.027924 -0.009323 -0.000002 0.002463 -0.000016
# 3 -0.003164 -0.009323 0.015972 0.000001 0.002027 0.000008
# 4 0.000000 -0.000002 0.000001 0.029962 0.000001 0.008167
# 5 -0.002927 0.002463 0.002027 0.000001 0.029344 0.000001
# 6 -0.000001 -0.000016 0.000008 0.008167 0.000001 0.054893
#
#
# Mechanical properties :
#
#
# Convention : Reuss Voigt Hill
#
# Bulk Modulus (GPa) = 51.15492 58.97799 55.06646
# Shear Modulus (GPa) = 23.77978 28.16988 25.97483
#
# Velocity S-wave (km/s) = 3.55986 3.87456 3.72054
# Velocity P-wave (km/s) = 6.64516 7.17263 6.91392
#
# Compressibility (1/GPa) = 0.01954846
#
# Stress axis : x y z
#
# Youngs Moduli (GPa) = 93.88266 35.81206 62.60823
#
# Poissons Ratio (x) = 0.17951 0.19812
# Poissons Ratio (y) = 0.47059 0.58367
# Poissons Ratio (z) = 0.29708 0.33386
#
# Static dielectric constant tensor:
#      x y z
#    x 3.745520 -0.000010 0.066560 
#    y -0.000010 3.299810 0.000000 
#    z 0.066560 0.000000 3.450440 
# 
# 
# High freq. dielectric constant tensor:
#      x y z
#    x 1.739340 0.000000 -0.004240 
#    y 0.000000 1.712070 0.000000 
#    z -0.004240 0.000000 1.735560 
# 
# From -- ./inp_files/378039.got.cif
#   From: 2010.06.25/outbox.cif.g09.slc.cpg/sg12_190_cif.got.tgz:378039.got - 2010.06.28 00:19:55.
