data_PCOD8094100
_publ_section_title
;
Structure prediction by ZEFSAII (Michael W. Deem and Ramdas Pophale) SiO2 
 PCOD8094100
Probable space group: C 2/M
;
_chemical_formula_sum "Si O2"
_cell_formula_units_Z 48
_cell_length_a 14.182594
_cell_length_b 19.531227
_cell_length_c 13.405891
_cell_angle_alpha 90.000000
_cell_angle_beta 139.163433
_cell_angle_gamma 90.000000
_cell_volume 2428.256769
_symmetry_space_group_name_H-M "C 2/M"
_symmetry_group_IT_number 12
_symmetry_cell_setting 'monoclinic'
loop_
_space_group_symop_operation_xyz
x,y,z
-x,y,-z
-x,-y,-z
x,-y,z
1/2+x,1/2+y,z
1/2-x,1/2+y,-z
1/2-x,1/2-y,-z
1/2+x,1/2-y,z
loop_
_atom_site_type_symbol
_atom_site_label
_atom_site_fract_x
_atom_site_fract_y
_atom_site_fract_z
Si Si1 0.466093 0.922534 0.668668
Si Si2 0.735875 0.640189 0.137650
Si Si3 0.734187 0.795509 0.151583
Si Si4 0.790048 0.921967 0.675679
Si Si5 0.443060 0.195688 0.800180
Si Si6 0.527460 0.659353 0.792259
O O1 0.632576 0.910696 0.776961
O O2 0.373425 0.913490 0.493492
O O3 0.410011 0.868744 0.704443
O O4 0.447446 0.000000 0.694930
O O5 0.786807 0.718614 0.171423
O O6 0.677116 0.623982 0.200727
O O7 0.612127 0.631570 0.957023
O O8 0.694444 0.803031 0.235622
O O9 0.868114 0.842013 0.221355
O O10 0.594107 0.816211 0.976465
O O11 0.897638 0.894717 0.674625
O O12 0.825290 0.000000 0.729809
O O13 0.454923 0.266192 0.749091
#
# Coordination Sequence:
#
# PCOD8094100 Si02
#       6
#     8   8   8   8   8   8
#     4  11  23  40  58  83 124 163 193 236 291 350
#     4  11  19  38  63  88 115 151 196 240 298 348
#     4  10  19  36  63  92 114 144 195 253 289 335
#     4  11  25  39  55  88 127 156 190 240 298 353
#     4  10  19  38  63  86 118 153 196 241 289 349
#     4  11  20  38  63  89 117 151 193 248 295 337
#
# _framework density 19.767267
#
# number of rings (size 3 to 8) (size 9 to 14) (size 15 to 20)
#    0.000    1.333    5.000    2.500    0.000    4.000 
#    0.000    3.333    0.000    2.000    0.000    0.000 
#    0.000    0.000    0.000    0.000    0.000    0.000 
#
# Total GULP energy -297555.138905 kJ/mol
# GULP energy per Si atom -12398.130788 kJ/mol
# Density = 1.972228 g / cm^3
# Si number density = 19.767267 Si / 1000 Ang^3
#
#
#
# Elastic Constant Matrix: (Units=GPa)
#
#
# Indices 1 2 3 4 5 6 
#
# 1 97.6605 27.2367 31.2646 0.0000 -5.8809 0.0000
# 2 27.2367 80.9932 47.5975 0.0000 3.0123 0.0000
# 3 31.2646 47.5975 41.5516 0.0000 6.5832 0.0000
# 4 0.0000 0.0000 0.0000 31.0473 0.0000 0.9040
# 5 -5.8809 3.0123 6.5832 0.0000 20.2110 0.0000
# 6 0.0000 0.0000 0.0000 0.9040 0.0000 28.5774
#
#
#
# Elastic Compliance Matrix: (Units=1/GPa)
#
#
# Indices 1 2 3 4 5 6 
#
# 1 0.015841 0.006945 -0.021553 0.000000 0.010594 0.000000
# 2 0.006945 0.042415 -0.056022 0.000000 0.013947 0.000000
# 3 -0.021553 -0.056022 0.109794 0.000000 -0.033684 0.000000
# 4 0.000000 0.000000 0.000000 0.032239 0.000000 -0.001020
# 5 0.010594 0.013947 -0.033684 0.000000 0.061454 0.000000
# 6 0.000000 0.000000 0.000000 -0.001020 0.000000 0.035025
#
#
# Mechanical properties :
#
#
# Convention : Reuss Voigt Hill
#
# Bulk Modulus (GPa) = 37.32810 48.04478 42.68644
# Shear Modulus (GPa) = 11.18674 23.57422 17.38048
#
# Velocity S-wave (km/s) = 2.38149 3.45713 2.96844
# Velocity P-wave (km/s) = 5.14653 6.34773 5.77843
#
# Compressibility (1/GPa) = 0.02678947
#
# Stress axis : x y z
#
# Youngs Moduli (GPa) = 63.12925 23.57651 9.10794
#
# Poissons Ratio (x) = -0.16375 0.19631
# Poissons Ratio (y) = -0.43846 0.51025
# Poissons Ratio (z) = 1.36065 1.32081
#
# Static dielectric constant tensor:
#      x y z
#    x 3.695510 0.000000 0.008180 
#    y 0.000000 3.474300 0.000000 
#    z 0.008180 0.000000 3.370630 
# 
# 
# High freq. dielectric constant tensor:
#      x y z
#    x 1.779820 0.000000 0.010810 
#    y 0.000000 1.759750 0.000000 
#    z 0.010810 0.000000 1.746900 
# 
# From -- ./inp_files/63616.got.cif
#   From: 2010.06.25/outbox.cif.g09.slc.cpg/sg12_32_cif.got.tgz:63616.got - 2010.06.28 00:19:55.
