data_PCOD8094765
_publ_section_title
;
Structure prediction by ZEFSAII (Michael W. Deem and Ramdas Pophale) SiO2 
 PCOD8094765
Probable space group: C 2/M
;
_chemical_formula_sum "Si O2"
_cell_formula_units_Z 44
_cell_length_a 14.137944
_cell_length_b 23.944141
_cell_length_c 11.785116
_cell_angle_alpha 90.000000
_cell_angle_beta 149.148052
_cell_angle_gamma 90.000000
_cell_volume 2045.905432
_symmetry_space_group_name_H-M "C 2/M"
_symmetry_group_IT_number 12
_symmetry_cell_setting 'monoclinic'
loop_
_space_group_symop_operation_xyz
x,y,z
-x,y,-z
-x,-y,-z
x,-y,z
1/2+x,1/2+y,z
1/2-x,1/2+y,-z
1/2-x,1/2-y,-z
1/2+x,1/2-y,z
loop_
_atom_site_type_symbol
_atom_site_label
_atom_site_fract_x
_atom_site_fract_y
_atom_site_fract_z
Si Si1 0.715980 0.000000 0.710334
Si Si2 0.624170 0.500000 0.880946
Si Si3 0.000000 0.403214 0.000000
Si Si4 0.500000 0.322566 0.000000
Si Si5 0.885002 0.910451 0.721934
Si Si6 0.629251 0.165485 0.331539
Si Si7 0.776708 0.000000 0.255460
Si Si8 0.853548 0.257135 0.446087
O O1 0.500000 0.000000 0.500000
O O2 0.802919 0.054051 0.741640
O O3 0.769227 0.000000 0.894151
O O4 0.494439 0.445698 0.741360
O O5 0.765031 0.500000 0.922145
O O6 0.018002 0.361233 0.909080
O O7 0.820098 0.443290 0.797941
O O8 0.518549 0.361808 0.907837
O O9 0.318680 0.286004 0.794389
O O10 0.708717 0.887561 0.476831
O O11 0.788957 0.197686 0.427293
O O12 0.555448 0.207257 0.355331
O O13 0.000000 0.000000 0.500000
O O14 0.000000 0.245801 0.500000
#
# Coordination Sequence:
#
# PCOD8094765 Si02
#       8
#     4   4   4   4   8   8   4   8
#     4  11  23  35  62  97 131 158 208 265 311 384
#     4  11  21  38  60  95 121 166 213 249 317 374
#     4  11  25  46  65  90 135 174 217 255 322 378
#     4  10  19  39  63  90 129 165 205 264 322 380
#     4  10  20  39  61  89 133 164 201 261 323 368
#     4  10  23  42  66  93 127 171 211 269 316 384
#     4  11  26  43  64  95 130 174 220 261 303 387
#     4  10  23  43  67  96 128 162 219 271 326 376
#
# _framework density 21.506371000000001
#
# number of rings (size 3 to 8) (size 9 to 14) (size 15 to 20)
#    0.000    1.636    1.818    2.182    2.545    8.000 
#    0.000   12.727    0.000    0.000    0.000    0.000 
#    0.000    0.000    0.000    0.000    0.000    0.000 
#
# Total GULP energy -272577.257435 kJ/mol
# GULP energy per Si atom -12389.875338 kJ/mol
# Density = 2.145742 g / cm^3
# Si number density = 21.506371 Si / 1000 Ang^3
#
#
#
# Elastic Constant Matrix: (Units=GPa)
#
#
# Indices 1 2 3 4 5 6 
#
# 1 111.1302 18.2161 12.0424 0.0000 -4.4742 0.0000
# 2 18.2161 78.1890 23.0500 0.0000 -5.0113 0.0000
# 3 12.0424 23.0500 81.4484 0.0000 -11.0104 0.0000
# 4 0.0000 0.0000 0.0000 22.3689 0.0000 -0.0768
# 5 -4.4742 -5.0113 -11.0104 0.0000 38.7328 0.0000
# 6 0.0000 0.0000 0.0000 -0.0768 0.0000 8.8339
#
#
#
# Elastic Compliance Matrix: (Units=1/GPa)
#
#
# Indices 1 2 3 4 5 6 
#
# 1 0.009423 -0.001931 -0.000763 0.000000 0.000622 0.000000
# 2 -0.001931 0.014368 -0.003702 0.000000 0.000584 0.000000
# 3 -0.000763 -0.003702 0.013895 0.000000 0.003383 0.000000
# 4 0.000000 0.000000 0.000000 0.044706 0.000000 0.000389
# 5 0.000622 0.000584 0.003383 0.000000 0.026927 0.000000
# 6 0.000000 0.000000 0.000000 0.000389 0.000000 0.113204
#
#
# Mechanical properties :
#
#
# Convention : Reuss Voigt Hill
#
# Bulk Modulus (GPa) = 40.16739 41.93160 41.04949
# Shear Modulus (GPa) = 20.52444 28.48439 24.50442
#
# Velocity S-wave (km/s) = 3.09259 3.64327 3.37917
# Velocity P-wave (km/s) = 5.60979 6.10225 5.86119
#
# Compressibility (1/GPa) = 0.02489582
#
# Stress axis : x y z
#
# Youngs Moduli (GPa) = 106.12794 69.59920 71.96612
#
# Poissons Ratio (x) = 0.13436 0.05489
# Poissons Ratio (y) = 0.20488 0.26641
# Poissons Ratio (z) = 0.08095 0.25764
#
# Static dielectric constant tensor:
#      x y z
#    x 3.794570 0.000000 -0.340230 
#    y 0.000000 4.137730 0.000000 
#    z -0.340230 0.000000 3.892340 
# 
# 
# High freq. dielectric constant tensor:
#      x y z
#    x 1.828770 0.000000 -0.030600 
#    y 0.000000 1.860040 0.000000 
#    z -0.030600 0.000000 1.841950 
# 
# From -- ./inp_files/149589.got.cif
#   From: 2010.06.25/outbox.cif.g09.slc.cpg/sg12_75_cif.got.tgz:149589.got - 2010.06.28 00:19:55.
