data_PCOD8094623
_publ_section_title
;
Structure prediction by ZEFSAII (Michael W. Deem and Ramdas Pophale) SiO2 
 PCOD8094623
Probable space group: C 2/M
;
_chemical_formula_sum "Si O2"
_cell_formula_units_Z 64
_cell_length_a 19.601970
_cell_length_b 9.340117
_cell_length_c 30.885088
_cell_angle_alpha 90.000000
_cell_angle_beta 37.334102
_cell_angle_gamma 90.000000
_cell_volume 3429.290658
_symmetry_space_group_name_H-M "C 2/M"
_symmetry_group_IT_number 12
_symmetry_cell_setting 'monoclinic'
loop_
_space_group_symop_operation_xyz
x,y,z
-x,y,-z
-x,-y,-z
x,-y,z
1/2+x,1/2+y,z
1/2-x,1/2+y,-z
1/2-x,1/2-y,-z
1/2+x,1/2-y,z
loop_
_atom_site_type_symbol
_atom_site_label
_atom_site_fract_x
_atom_site_fract_y
_atom_site_fract_z
Si Si1 0.239767 0.664777 0.707353
Si Si2 0.869130 0.166668 0.066204
Si Si3 0.010542 0.669554 0.783843
Si Si4 0.469336 0.839067 0.708793
Si Si5 0.778716 0.330971 0.941767
Si Si6 0.640024 0.159914 0.548116
Si Si7 0.537834 0.168875 0.432437
Si Si8 0.739854 0.663480 0.204262
O O1 0.261384 0.500000 0.683012
O O2 0.346104 0.754612 0.637801
O O3 0.211214 0.675772 0.772421
O O4 0.128001 0.731890 0.742055
O O5 0.810917 0.211092 0.050333
O O6 0.817302 0.253497 0.131747
O O7 0.848030 0.000000 0.085865
O O8 0.000000 0.205333 0.000000
O O9 0.015836 0.500000 0.783472
O O10 0.902600 0.722952 0.865290
O O11 0.998108 0.723344 0.741195
O O12 0.580332 0.840606 0.624402
O O13 0.382156 0.733370 0.730728
O O14 0.418397 0.000000 0.738147
O O15 0.775862 0.500000 0.951872
O O16 0.750000 0.250000 0.000000
O O17 0.750000 0.250000 0.500000
O O18 0.559264 0.223790 0.551369
O O19 0.675610 0.000000 0.516504
O O20 0.500000 0.208162 0.500000
O O21 0.557066 0.000000 0.416542
O O22 0.730117 0.500000 0.193823
#
# Coordination Sequence:
#
# PCOD8094623 Si02
#       8
#     8   8   8   8   8   8   8   8
#     4  10  22  38  58  85 113 147 189 232 282 339
#     4  10  22  40  61  84 112 153 197 232 277 341
#     4   9  19  37  59  81 109 146 188 230 278 333
#     4  10  19  38  63  81 107 151 194 232 280 337
#     4  10  21  38  59  82 114 151 185 230 280 332
#     4  10  22  37  58  85 113 149 190 233 283 336
#     4  10  22  40  58  81 116 153 187 230 285 338
#     4  11  22  36  58  87 115 144 185 240 290 330
#
# _framework density 18.662752999999999
#
# number of rings (size 3 to 8) (size 9 to 14) (size 15 to 20)
#    0.000    2.000    2.500    0.375    3.500    2.500 
#    0.000    1.250    0.000    0.000    0.000    0.000 
#    0.000    0.000    0.000    0.000    0.000    0.000 
#
# Total GULP energy -396801.961358 kJ/mol
# GULP energy per Si atom -12400.061292 kJ/mol
# Density = 1.862028 g / cm^3
# Si number density = 18.662753 Si / 1000 Ang^3
#
#
#
# Elastic Constant Matrix: (Units=GPa)
#
#
# Indices 1 2 3 4 5 6 
#
# 1 117.5024 30.9132 62.8932 -0.0001 -10.9935 0.0150
# 2 30.9132 53.9895 44.1858 -0.0021 -4.2408 0.0060
# 3 62.8932 44.1858 121.1568 0.0001 -3.9318 0.0024
# 4 -0.0001 -0.0021 0.0001 35.8776 -0.0008 0.4665
# 5 -10.9935 -4.2408 -3.9318 -0.0008 41.7045 -0.0026
# 6 0.0150 0.0060 0.0024 0.4665 -0.0026 22.1926
#
#
#
# Elastic Compliance Matrix: (Units=1/GPa)
#
#
# Indices 1 2 3 4 5 6 
#
# 1 0.012272 -0.002401 -0.005415 0.000000 0.002480 -0.000007
# 2 -0.002401 0.027005 -0.008560 0.000002 0.001306 -0.000005
# 3 -0.005415 -0.008560 0.014155 -0.000001 -0.000963 0.000004
# 4 0.000000 0.000002 -0.000001 0.027880 0.000001 -0.000586
# 5 0.002480 0.001306 -0.000963 0.000001 0.024674 0.000001
# 6 -0.000007 -0.000005 0.000004 -0.000586 0.000001 0.045072
#
#
# Mechanical properties :
#
#
# Convention : Reuss Voigt Hill
#
# Bulk Modulus (GPa) = 48.35193 63.18144 55.76669
# Shear Modulus (GPa) = 26.21869 30.26538 28.24203
#
# Velocity S-wave (km/s) = 3.75222 4.03140 3.89431
# Velocity P-wave (km/s) = 6.68855 7.45637 7.08287
#
# Compressibility (1/GPa) = 0.02068170
#
# Stress axis : x y z
#
# Youngs Moduli (GPa) = 81.48450 37.03019 70.64566
#
# Poissons Ratio (x) = 0.08889 0.38252
# Poissons Ratio (y) = 0.19561 0.60474
# Poissons Ratio (z) = 0.44121 0.31698
#
# Static dielectric constant tensor:
#      x y z
#    x 3.818170 -0.000010 0.049010 
#    y -0.000010 3.318490 0.000010 
#    z 0.049010 0.000010 3.554710 
# 
# 
# High freq. dielectric constant tensor:
#      x y z
#    x 1.738690 0.000000 0.002530 
#    y 0.000000 1.705890 0.000000 
#    z 0.002530 0.000000 1.732320 
# 
# From -- ./inp_files/378146.got.cif
#   From: 2010.06.25/outbox.cif.g09.slc.cpg/sg12_190_cif.got.tgz:378146.got - 2010.06.28 00:19:55.
