data_PCOD8094661
_publ_section_title
;
Structure prediction by ZEFSAII (Michael W. Deem and Ramdas Pophale) SiO2 
 PCOD8094661
Probable space group: C 2/M
;
_chemical_formula_sum "Si O2"
_cell_formula_units_Z 64
_cell_length_a 24.398753
_cell_length_b 8.746643
_cell_length_c 28.660015
_cell_angle_alpha 90.000000
_cell_angle_beta 147.598824
_cell_angle_gamma 90.000000
_cell_volume 3277.358258
_symmetry_space_group_name_H-M "C 2/M"
_symmetry_group_IT_number 12
_symmetry_cell_setting 'monoclinic'
loop_
_space_group_symop_operation_xyz
x,y,z
-x,y,-z
-x,-y,-z
x,-y,z
1/2+x,1/2+y,z
1/2-x,1/2+y,-z
1/2-x,1/2-y,-z
1/2+x,1/2-y,z
loop_
_atom_site_type_symbol
_atom_site_label
_atom_site_fract_x
_atom_site_fract_y
_atom_site_fract_z
Si Si1 0.815078 0.318696 0.245652
Si Si2 0.775927 0.169818 0.653210
Si Si3 0.642770 0.318850 0.909950
Si Si4 0.471042 0.670494 0.855618
Si Si5 0.905422 0.321753 0.900419
Si Si6 0.670316 0.317659 0.407327
Si Si7 0.061842 0.181407 0.751812
Si Si8 0.106198 0.317488 0.598052
O O1 0.817328 0.500000 0.245408
O O2 0.697035 0.268000 0.159626
O O3 0.873245 0.253918 0.242964
O O4 0.872201 0.258254 0.333768
O O5 0.884062 0.159214 0.755032
O O6 0.793774 0.252182 0.616596
O O7 0.693540 0.253899 0.627098
O O8 0.732736 0.000000 0.612545
O O9 0.647573 0.500000 0.912019
O O10 0.568988 0.264732 0.898722
O O11 0.605428 0.258677 0.832657
O O12 0.750000 0.250000 0.000000
O O13 0.490175 0.500000 0.890459
O O14 0.438584 0.789224 0.871557
O O15 0.883302 0.500000 0.891293
O O16 0.000000 0.266165 0.000000
O O17 0.673421 0.500000 0.408764
O O18 0.750000 0.250000 0.500000
O O19 0.555634 0.263430 0.337214
O O20 0.070679 0.000000 0.754642
O O21 0.110992 0.500000 0.602411
O O22 0.000000 0.257586 0.500000
#
# Coordination Sequence:
#
# PCOD8094661 Si02
#       8
#     8   8   8   8   8   8   8   8
#     4  11  23  39  62  89 116 152 200 247 286 339
#     4   9  16  33  59  81 109 150 193 238 286 339
#     4  10  22  39  61  87 116 154 196 240 292 348
#     4  10  19  38  64  87 110 146 201 249 284 337
#     4  11  25  42  60  85 119 158 192 233 299 361
#     4  10  21  37  60  86 116 157 198 239 289 345
#     4  10  22  41  59  81 123 165 192 232 300 360
#     4   9  18  32  55  87 115 143 186 239 288 334
#
# _framework density 19.527923000000001
#
# number of rings (size 3 to 8) (size 9 to 14) (size 15 to 20)
#    0.000    2.000    2.500    0.750    3.500    2.500 
#    0.000    0.625    0.000    1.500    0.000    0.000 
#    0.000    0.000    0.000    0.000    0.000    0.000 
#
# Total GULP energy -396706.021487 kJ/mol
# GULP energy per Si atom -12397.063171 kJ/mol
# Density = 1.948348 g / cm^3
# Si number density = 19.527923 Si / 1000 Ang^3
#
#
#
# Elastic Constant Matrix: (Units=GPa)
#
#
# Indices 1 2 3 4 5 6 
#
# 1 158.8675 28.4275 63.1294 0.0001 9.8679 0.0000
# 2 28.4275 26.2556 25.0697 0.0009 -0.4897 -0.0006
# 3 63.1294 25.0697 140.5079 -0.0001 7.1925 0.0001
# 4 0.0001 0.0009 -0.0001 20.0115 0.0000 9.8419
# 5 9.8679 -0.4897 7.1925 0.0000 38.4518 0.0001
# 6 0.0000 -0.0006 0.0001 9.8419 0.0001 17.2615
#
#
#
# Elastic Compliance Matrix: (Units=1/GPa)
#
#
# Indices 1 2 3 4 5 6 
#
# 1 0.008675 -0.006985 -0.002557 0.000001 -0.001837 -0.000001
# 2 -0.006985 0.051707 -0.006273 -0.000004 0.003624 0.000004
# 3 -0.002557 -0.006273 0.009446 0.000001 -0.001191 -0.000001
# 4 0.000001 -0.000004 0.000001 0.069444 0.000000 -0.039595
# 5 -0.001837 0.003624 -0.001191 0.000000 0.026747 0.000000
# 6 -0.000001 0.000004 -0.000001 -0.039595 0.000000 0.080508
#
#
# Mechanical properties :
#
#
# Convention : Reuss Voigt Hill
#
# Bulk Modulus (GPa) = 26.17955 62.09825 44.13890
# Shear Modulus (GPa) = 17.18869 29.07859 23.13364
#
# Velocity S-wave (km/s) = 2.97005 3.86304 3.44560
# Velocity P-wave (km/s) = 5.01966 7.19488 6.20335
#
# Compressibility (1/GPa) = 0.03819775
#
# Stress axis : x y z
#
# Youngs Moduli (GPa) = 115.27838 19.33981 105.86318
#
# Poissons Ratio (x) = 0.13508 0.27071
# Poissons Ratio (y) = 0.80519 0.66407
# Poissons Ratio (z) = 0.29479 0.12132
#
# Static dielectric constant tensor:
#      x y z
#    x 3.199200 0.000000 0.380950 
#    y 0.000000 3.227020 0.000000 
#    z 0.380950 0.000000 3.437810 
# 
# 
# High freq. dielectric constant tensor:
#      x y z
#    x 1.780870 0.000000 0.003160 
#    y 0.000000 1.722630 0.000000 
#    z 0.003160 0.000000 1.771520 
# 
# From -- ./inp_files/382464.got.cif
#   From: 2010.06.25/outbox.cif.g09.slc.cpg/sg12_192_cif.got.tgz:382464.got - 2010.06.28 00:19:55.
