data_PCOD8094098
_publ_section_title
;
Structure prediction by ZEFSAII (Michael W. Deem and Ramdas Pophale) SiO2 
 PCOD8094098
Probable space group: C 2/M
;
_chemical_formula_sum "Si O2"
_cell_formula_units_Z 44
_cell_length_a 21.991986
_cell_length_b 15.410129
_cell_length_c 14.898428
_cell_angle_alpha 90.000000
_cell_angle_beta 26.047762
_cell_angle_gamma 90.000000
_cell_volume 2217.147667
_symmetry_space_group_name_H-M "C 2/M"
_symmetry_group_IT_number 12
_symmetry_cell_setting 'monoclinic'
loop_
_space_group_symop_operation_xyz
x,y,z
-x,y,-z
-x,-y,-z
x,-y,z
1/2+x,1/2+y,z
1/2-x,1/2+y,-z
1/2-x,1/2-y,-z
1/2+x,1/2-y,z
loop_
_atom_site_type_symbol
_atom_site_label
_atom_site_fract_x
_atom_site_fract_y
_atom_site_fract_z
Si Si1 0.966134 0.337079 0.396988
Si Si2 0.199282 0.500000 0.839950
Si Si3 0.715797 0.826869 0.193164
Si Si4 0.300752 0.500000 0.515675
Si Si5 0.477585 0.644784 0.750343
Si Si6 0.857356 0.145316 0.729126
Si Si7 0.933015 0.500000 0.312238
O O1 0.832513 0.338556 0.640086
O O2 0.976928 0.243790 0.332898
O O3 0.947602 0.412647 0.349493
O O4 0.102302 0.362825 0.273315
O O5 0.191485 0.500000 0.742828
O O6 0.290708 0.580617 0.748439
O O7 0.048379 0.500000 0.081855
O O8 0.744024 0.726673 0.128231
O O9 0.868665 0.866767 0.976940
O O10 0.390447 0.587609 0.400178
O O11 0.216930 0.500000 0.534588
O O12 0.394347 0.603462 0.775964
O O13 0.000000 0.185106 0.500000
#
# Coordination Sequence:
#
# PCOD8094098 Si02
#       7
#     8   4   8   4   8   8   4
#     4  10  21  40  59  89 121 151 194 241 291 360
#     4  12  21  38  60  87 119 152 191 248 304 344
#     4  10  19  36  63  91 120 152 182 240 308 357
#     4  12  26  41  57  84 117 158 210 248 272 342
#     4  11  21  37  62  92 122 150 189 244 303 347
#     4  11  17  34  63  95 122 142 179 242 310 360
#     4  12  27  41  58  79 117 170 207 236 279 335
#
# _framework density 19.845317999999999
#
# number of rings (size 3 to 8) (size 9 to 14) (size 15 to 20)
#    0.000    1.091    5.455    5.455    0.000    3.636 
#    0.000    1.818    0.000    0.000    0.000    0.000 
#    0.000    0.000    0.000    0.000    0.000    0.000 
#
# Total GULP energy -272691.040871 kJ/mol
# GULP energy per Si atom -12395.047312 kJ/mol
# Density = 1.980015 g / cm^3
# Si number density = 19.845318 Si / 1000 Ang^3
#
#
#
# Elastic Constant Matrix: (Units=GPa)
#
#
# Indices 1 2 3 4 5 6 
#
# 1 84.5165 51.8631 45.5633 0.0000 2.0486 0.0000
# 2 51.8631 97.1742 39.6318 0.0001 -2.3846 -0.0001
# 3 45.5633 39.6318 145.3865 0.0004 23.8179 -0.0003
# 4 0.0000 0.0001 0.0004 21.9109 -0.0002 4.1903
# 5 2.0486 -2.3846 23.8179 -0.0002 23.5436 0.0001
# 6 0.0000 -0.0001 -0.0003 4.1903 0.0001 13.0616
#
#
#
# Elastic Compliance Matrix: (Units=1/GPa)
#
#
# Indices 1 2 3 4 5 6 
#
# 1 0.019184 -0.008617 -0.003892 0.000000 0.001395 0.000000
# 2 -0.008617 0.016013 -0.002461 0.000000 0.004861 0.000000
# 3 -0.003892 -0.002461 0.010493 0.000000 -0.010526 0.000000
# 4 0.000000 0.000000 0.000000 0.048623 0.000001 -0.015599
# 5 0.001395 0.004861 -0.010526 0.000001 0.053494 -0.000001
# 6 0.000000 0.000000 0.000000 -0.015599 -0.000001 0.081564
#
#
# Mechanical properties :
#
#
# Convention : Reuss Voigt Hill
#
# Bulk Modulus (GPa) = 63.49031 66.79928 65.14480
# Shear Modulus (GPa) = 18.89922 24.37116 21.63519
#
# Velocity S-wave (km/s) = 3.08933 3.50816 3.30539
# Velocity P-wave (km/s) = 6.69233 7.08115 6.88948
#
# Compressibility (1/GPa) = 0.01575044
#
# Stress axis : x y z
#
# Youngs Moduli (GPa) = 52.12605 62.44946 95.30129
#
# Poissons Ratio (x) = 0.53816 0.37088
# Poissons Ratio (y) = 0.44919 0.23452
# Poissons Ratio (z) = 0.20286 0.15367
#
# Static dielectric constant tensor:
#      x y z
#    x 3.352840 0.000000 0.244700 
#    y 0.000000 3.448310 0.000000 
#    z 0.244700 0.000000 3.768860 
# 
# 
# High freq. dielectric constant tensor:
#      x y z
#    x 1.739730 0.000000 0.022840 
#    y 0.000000 1.773240 0.000000 
#    z 0.022840 0.000000 1.787580 
# 
# From -- ./inp_files/293590.got.cif
#   From: 2010.06.25/outbox.cif.g09.slc.cpg/sg12_147_cif.got.tgz:293590.got - 2010.06.28 00:19:55.
