data_PCOD8094240
_publ_section_title
;
Structure prediction by ZEFSAII (Michael W. Deem and Ramdas Pophale) SiO2 
 PCOD8094240
Probable space group: C 2/M
;
_chemical_formula_sum "Si O2"
_cell_formula_units_Z 44
_cell_length_a 22.749293
_cell_length_b 14.343817
_cell_length_c 17.546451
_cell_angle_alpha 90.000000
_cell_angle_beta 22.973511
_cell_angle_gamma 90.000000
_cell_volume 2234.738031
_symmetry_space_group_name_H-M "C 2/M"
_symmetry_group_IT_number 12
_symmetry_cell_setting 'monoclinic'
loop_
_space_group_symop_operation_xyz
x,y,z
-x,y,-z
-x,-y,-z
x,-y,z
1/2+x,1/2+y,z
1/2-x,1/2+y,-z
1/2-x,1/2-y,-z
1/2+x,1/2-y,z
loop_
_atom_site_type_symbol
_atom_site_label
_atom_site_fract_x
_atom_site_fract_y
_atom_site_fract_z
Si Si1 0.252869 0.000000 0.899749
Si Si2 0.301089 0.337011 0.542531
Si Si3 0.461930 0.000000 0.351206
Si Si4 0.322437 0.000000 0.205812
Si Si5 0.347759 0.343342 0.871687
Si Si6 0.220841 0.500000 0.922570
Si Si7 0.976991 0.000000 0.940219
Si Si8 0.784457 0.860982 0.388366
O O1 0.199191 0.000000 0.875436
O O2 0.431569 0.000000 0.700650
O O3 0.178819 0.908127 0.023909
O O4 0.245148 0.408517 0.673319
O O5 0.477702 0.316279 0.342174
O O6 0.209690 0.240448 0.656815
O O7 0.259954 0.372226 0.507755
O O8 0.357099 0.089751 0.482208
O O9 0.557940 0.000000 0.158199
O O10 0.282200 0.000000 0.164765
O O11 0.500000 0.000000 0.000000
O O12 0.304049 0.404358 0.849141
O O13 0.250000 0.250000 0.000000
O O14 0.000000 0.000000 0.000000
O O15 0.055126 0.906957 0.816893
#
# Coordination Sequence:
#
# PCOD8094240 Si02
#       8
#     4   8   4   4   8   4   4   8
#     4  10  19  37  59  91 117 150 204 241 308 363
#     4  11  21  37  63  86 122 162 207 256 305 372
#     4   9  18  37  65  84 117 153 203 266 295 364
#     4  12  25  40  58  88 134 172 205 254 327 372
#     4  10  20  37  65  92 119 159 207 256 307 368
#     4  10  22  37  59  93 126 159 206 254 309 376
#     4  11  22  41  60  85 119 156 192 259 310 366
#     4  10  21  38  62  89 113 156 215 249 304 370
#
# _framework density 19.689108999999998
#
# number of rings (size 3 to 8) (size 9 to 14) (size 15 to 20)
#    0.000    1.818    1.818    5.455    0.000    3.636 
#    3.273    1.818    4.000    0.000    0.000    0.000 
#    0.000    0.000    0.000    0.000    0.000    0.000 
#
# Total GULP energy -272614.091047 kJ/mol
# GULP energy per Si atom -12391.549593 kJ/mol
# Density = 1.964430 g / cm^3
# Si number density = 19.689109 Si / 1000 Ang^3
#
#
#
# Elastic Constant Matrix: (Units=GPa)
#
#
# Indices 1 2 3 4 5 6 
#
# 1 166.1946 59.9386 39.2053 0.0014 -16.6988 -0.0009
# 2 59.9386 137.3474 35.8789 0.0016 -0.1476 -0.0011
# 3 39.2053 35.8789 69.3862 0.0030 -28.8308 -0.0023
# 4 0.0014 0.0016 0.0030 -24.6743 -0.0018 10.6329
# 5 -16.6988 -0.1476 -28.8308 -0.0018 31.1658 0.0013
# 6 -0.0009 -0.0011 -0.0023 10.6329 0.0013 16.8805
#
#
#
# Elastic Compliance Matrix: (Units=1/GPa)
#
#
# Indices 1 2 3 4 5 6 
#
# 1 0.007743 -0.002881 -0.001895 0.000000 0.002381 0.000000
# 2 -0.002881 0.010380 -0.007083 0.000000 -0.008047 0.000000
# 3 -0.001895 -0.007083 0.030391 0.000001 0.027065 0.000001
# 4 0.000000 0.000000 0.000001 -0.031876 -0.000001 0.020078
# 5 0.002381 -0.008047 0.027065 -0.000001 0.058362 0.000000
# 6 0.000000 0.000000 0.000001 0.020078 0.000000 0.046593
#
#
# Mechanical properties :
#
#
# Convention : Reuss Voigt Hill
#
# Bulk Modulus (GPa) = 40.33087 71.44152 55.88619
# Shear Modulus (GPa) = 32.55701 20.53475 26.54588
#
# Velocity S-wave (km/s) = 4.07080 3.23298 3.67584
# Velocity P-wave (km/s) = 6.52867 7.09223 6.81628
#
# Compressibility (1/GPa) = 0.02479490
#
# Stress axis : x y z
#
# Youngs Moduli (GPa) = 129.15629 96.34158 32.90394
#
# Poissons Ratio (x) = 0.27758 0.06237
# Poissons Ratio (y) = 0.37212 0.23305
# Poissons Ratio (z) = 0.24481 0.68237
#
# Static dielectric constant tensor:
#      x y z
#    x 3.606260 0.000140 -0.395080 
#    y 0.000140 0.950250 0.000320 
#    z -0.395080 0.000320 3.089410 
# 
# 
# High freq. dielectric constant tensor:
#      x y z
#    x 1.769080 0.000000 -0.026220 
#    y 0.000000 1.779390 0.000000 
#    z -0.026220 0.000000 1.753500 
# 
# From -- ./inp_files/290047.got.cif
#   From: 2010.06.25/outbox.cif.g09.slc.cpg/sg12_146_cif.got.tgz:290047.got - 2010.06.28 00:19:55.
