data_PCOD8094052
_publ_section_title
;
Structure prediction by ZEFSAII (Michael W. Deem and Ramdas Pophale) SiO2 
 PCOD8094052
Probable space group: C 2/M
;
_chemical_formula_sum "Si O2"
_cell_formula_units_Z 40
_cell_length_a 12.581944
_cell_length_b 16.974344
_cell_length_c 9.523621
_cell_angle_alpha 90.000000
_cell_angle_beta 76.093503
_cell_angle_gamma 90.000000
_cell_volume 1974.345092
_symmetry_space_group_name_H-M "C 2/M"
_symmetry_group_IT_number 12
_symmetry_cell_setting 'monoclinic'
loop_
_space_group_symop_operation_xyz
x,y,z
-x,y,-z
-x,-y,-z
x,-y,z
1/2+x,1/2+y,z
1/2-x,1/2+y,-z
1/2-x,1/2-y,-z
1/2+x,1/2-y,z
loop_
_atom_site_type_symbol
_atom_site_label
_atom_site_fract_x
_atom_site_fract_y
_atom_site_fract_z
Si Si1 0.226657 0.091091 0.285997
Si Si2 0.695311 0.411677 0.626194
Si Si3 0.988614 0.814559 0.669731
Si Si4 0.420740 0.089349 0.641311
Si Si5 0.039178 0.661558 0.831772
O O1 0.220839 0.090519 0.454065
O O2 0.332705 0.141261 0.205960
O O3 0.122013 0.137677 0.257143
O O4 0.229978 0.000000 0.229420
O O5 0.672351 0.500000 0.685117
O O6 0.588709 0.363671 0.700754
O O7 0.799454 0.371758 0.672916
O O8 0.996901 0.731700 0.744981
O O9 0.000000 0.802301 0.500000
O O10 0.500000 0.129926 0.500000
O O11 0.473132 0.089545 0.780567
O O12 0.400794 0.000000 0.598533
O O13 0.000000 0.678410 0.000000
#
# Coordination Sequence:
#
# PCOD8094052 Si02
#       5
#     8   8   8   8   8
#     4  10  21  40  65  91 120 155 200 251 300 356
#     4   9  18  36  65  93 117 147 197 255 304 354
#     4  10  23  39  64  90 120 156 200 245 303 358
#     4  10  19  36  62  89 118 152 198 252 299 348
#     4  12  26  39  58  86 128 163 201 242 297 354
#
# _framework density 20.259881
#
# number of rings (size 3 to 8) (size 9 to 14) (size 15 to 20)
#    0.000    1.800    2.000    1.800    2.800    6.400 
#    0.000    0.000    0.000    1.200    0.000    0.000 
#    0.000    0.000    0.000    0.000    0.000    0.000 
#
# Total GULP energy -247878.041826 kJ/mol
# GULP energy per Si atom -12393.902091 kJ/mol
# Density = 2.021377 g / cm^3
# Si number density = 20.259881 Si / 1000 Ang^3
#
#
#
# Elastic Constant Matrix: (Units=GPa)
#
#
# Indices 1 2 3 4 5 6 
#
# 1 199.1263 47.7488 41.2364 0.0000 -4.6045 0.0000
# 2 47.7488 76.4808 19.0680 0.0000 -4.8088 0.0000
# 3 41.2364 19.0680 63.7873 0.0000 6.9163 0.0000
# 4 0.0000 0.0000 0.0000 7.5378 0.0000 -0.2749
# 5 -4.6045 -4.8088 6.9163 0.0000 18.1173 0.0000
# 6 0.0000 0.0000 0.0000 -0.2749 0.0000 24.6969
#
#
#
# Elastic Compliance Matrix: (Units=1/GPa)
#
#
# Indices 1 2 3 4 5 6 
#
# 1 0.006543 -0.003060 -0.003554 0.000000 0.002208 0.000000
# 2 -0.003060 0.016124 -0.003361 0.000000 0.004785 0.000000
# 3 -0.003554 -0.003361 0.020002 0.000000 -0.009431 0.000000
# 4 0.000000 0.000000 0.000000 0.132719 0.000000 0.001477
# 5 0.002208 0.004785 -0.009431 0.000000 0.060627 0.000000
# 6 0.000000 0.000000 0.000000 0.001477 0.000000 0.040507
#
#
# Mechanical properties :
#
#
# Convention : Reuss Voigt Hill
#
# Bulk Modulus (GPa) = 44.01570 61.72232 52.86901
# Shear Modulus (GPa) = 16.44486 25.49313 20.96900
#
# Velocity S-wave (km/s) = 2.85212 3.55111 3.22063
# Velocity P-wave (km/s) = 5.71129 6.88079 6.32314
#
# Compressibility (1/GPa) = 0.02271917
#
# Stress axis : x y z
#
# Youngs Moduli (GPa) = 152.84041 62.01829 49.99466
#
# Poissons Ratio (x) = 0.18977 0.17770
# Poissons Ratio (y) = 0.46767 0.16802
# Poissons Ratio (z) = 0.54325 0.20843
#
# Static dielectric constant tensor:
#      x y z
#    x 4.127240 0.000000 0.041480 
#    y 0.000000 3.805430 0.000000 
#    z 0.041480 0.000000 3.188900 
# 
# 
# High freq. dielectric constant tensor:
#      x y z
#    x 1.818450 0.000000 0.004500 
#    y 0.000000 1.794730 0.000000 
#    z 0.004500 0.000000 1.739490 
# 
# From -- ./inp_files/46896.got.cif
#   From: 2010.06.25/outbox.cif.g09.slc.cpg/sg12_24_cif.got.tgz:46896.got - 2010.06.28 00:19:55.
