data_PCOD8094323
_publ_section_title
;
Structure prediction by ZEFSAII (Michael W. Deem and Ramdas Pophale) SiO2 
 PCOD8094323
Probable space group: C 2/M
;
_chemical_formula_sum "Si O2"
_cell_formula_units_Z 48
_cell_length_a 29.292284
_cell_length_b 8.723439
_cell_length_c 18.949430
_cell_angle_alpha 90.000000
_cell_angle_beta 30.955399
_cell_angle_gamma 90.000000
_cell_volume 2490.653500
_symmetry_space_group_name_H-M "C 2/M"
_symmetry_group_IT_number 12
_symmetry_cell_setting 'monoclinic'
loop_
_space_group_symop_operation_xyz
x,y,z
-x,y,-z
-x,-y,-z
x,-y,z
1/2+x,1/2+y,z
1/2-x,1/2+y,-z
1/2-x,1/2-y,-z
1/2+x,1/2-y,z
loop_
_atom_site_type_symbol
_atom_site_label
_atom_site_fract_x
_atom_site_fract_y
_atom_site_fract_z
Si Si1 0.659859 0.819981 0.147304
Si Si2 0.990596 0.681387 0.898396
Si Si3 0.333929 0.317913 0.567070
Si Si4 0.495009 0.681055 0.740417
Si Si5 0.604293 0.322073 0.362414
Si Si6 0.138432 0.681560 0.808008
O O1 0.577751 0.754608 0.212977
O O2 0.650822 0.778537 0.241198
O O3 0.662960 0.000000 0.133021
O O4 0.750000 0.750000 0.000000
O O5 0.989578 0.500000 0.885474
O O6 0.082348 0.734705 0.814133
O O7 0.979320 0.771238 0.841181
O O8 0.909428 0.732909 0.056207
O O9 0.330806 0.500000 0.570734
O O10 0.408107 0.260136 0.413513
O O11 0.357742 0.261468 0.613833
O O12 0.237834 0.249181 0.672533
O O13 0.486932 0.500000 0.742961
O O14 0.500000 0.294212 0.500000
O O15 0.627031 0.500000 0.319139
O O16 0.141163 0.500000 0.804454
#
# Coordination Sequence:
#
# PCOD8094323 Si02
#       6
#     8   8   8   8   8   8
#     4  12  26  42  60  85 117 152 193 239 290 346
#     4   9  18  34  57  84 113 147 193 245 286 336
#     4   9  18  33  56  82 113 155 196 230 279 344
#     4  11  22  38  57  83 116 151 191 237 292 347
#     4  10  19  37  61  85 116 155 194 235 286 345
#     4   8  16  33  56  82 111 149 196 237 285 346
#
# _framework density 19.272048999999999
#
# number of rings (size 3 to 8) (size 9 to 14) (size 15 to 20)
#    0.000    2.167    1.667    3.000    2.333    1.000 
#    0.000    1.667    0.000    4.000    0.000    0.000 
#    0.000    0.000    0.000    0.000    0.000    0.000 
#
# Total GULP energy -297592.773652 kJ/mol
# GULP energy per Si atom -12399.698902 kJ/mol
# Density = 1.922819 g / cm^3
# Si number density = 19.272049 Si / 1000 Ang^3
#
#
#
# Elastic Constant Matrix: (Units=GPa)
#
#
# Indices 1 2 3 4 5 6 
#
# 1 24.9300 5.5863 9.9983 -0.0036 1.6702 -0.0025
# 2 5.5863 61.6737 28.0884 -0.0071 0.3888 0.0050
# 3 9.9983 28.0884 99.9007 -0.0060 -6.1710 -0.0014
# 4 -0.0036 -0.0071 -0.0060 25.8968 0.0032 8.7754
# 5 1.6702 0.3888 -6.1710 0.0032 41.2788 -0.0003
# 6 -0.0025 0.0050 -0.0014 8.7754 -0.0003 15.6302
#
#
#
# Elastic Compliance Matrix: (Units=1/GPa)
#
#
# Indices 1 2 3 4 5 6 
#
# 1 0.042248 -0.002091 -0.003780 0.000003 -0.002255 0.000005
# 2 -0.002091 0.018737 -0.005112 0.000008 -0.000856 -0.000011
# 3 -0.003780 -0.005112 0.011948 0.000000 0.001987 0.000002
# 4 0.000003 0.000008 0.000000 0.047687 -0.000004 -0.026774
# 5 -0.002255 -0.000856 0.001987 -0.000004 0.024622 0.000003
# 6 0.000005 -0.000011 0.000002 -0.026774 0.000003 0.079010
#
#
# Mechanical properties :
#
#
# Convention : Reuss Voigt Hill
#
# Bulk Modulus (GPa) = 19.62009 30.42784 25.02396
# Shear Modulus (GPa) = 18.99643 26.08324 22.53983
#
# Velocity S-wave (km/s) = 3.14299 3.68288 3.42359
# Velocity P-wave (km/s) = 4.83465 5.82303 5.35171
#
# Compressibility (1/GPa) = 0.05096817
#
# Stress axis : x y z
#
# Youngs Moduli (GPa) = 23.66987 53.36954 83.69438
#
# Poissons Ratio (x) = 0.11160 0.31633
# Poissons Ratio (y) = 0.04950 0.42783
# Poissons Ratio (z) = 0.08946 0.27282
#
# Static dielectric constant tensor:
#      x y z
#    x 3.769240 0.000000 -0.200720 
#    y 0.000000 3.170450 0.000020 
#    z -0.200720 0.000020 3.864850 
# 
# 
# High freq. dielectric constant tensor:
#      x y z
#    x 1.760630 0.000000 -0.002690 
#    y 0.000000 1.714250 0.000000 
#    z -0.002690 0.000000 1.762570 
# 
# From -- ./inp_files/244716.got.cif
#   From: 2010.06.25/outbox.cif.g09.slc.cpg/sg12_123_cif.got.tgz:244716.got - 2010.06.28 00:19:55.
