data_PCOD8094826
_publ_section_title
;
Structure prediction by ZEFSAII (Michael W. Deem and Ramdas Pophale) SiO2 
 PCOD8094826
Probable space group: C 2/M
;
_chemical_formula_sum "Si O2"
_cell_formula_units_Z 32
_cell_length_a 19.586137
_cell_length_b 13.250659
_cell_length_c 8.815396
_cell_angle_alpha 90.000000
_cell_angle_beta 139.567293
_cell_angle_gamma 90.000000
_cell_volume 1483.797310
_symmetry_space_group_name_H-M "C 2/M"
_symmetry_group_IT_number 12
_symmetry_cell_setting 'monoclinic'
loop_
_space_group_symop_operation_xyz
x,y,z
-x,y,-z
-x,-y,-z
x,-y,z
1/2+x,1/2+y,z
1/2-x,1/2+y,-z
1/2-x,1/2-y,-z
1/2+x,1/2-y,z
loop_
_atom_site_type_symbol
_atom_site_label
_atom_site_fract_x
_atom_site_fract_y
_atom_site_fract_z
Si Si1 0.354914 0.115566 0.351669
Si Si2 0.966059 0.888336 0.616899
Si Si3 0.061455 0.686107 0.825518
Si Si4 0.250520 0.714705 0.329083
O O1 0.452302 0.122956 0.637320
O O2 0.384436 0.167011 0.243884
O O3 0.257304 0.180048 0.247379
O O4 0.321200 0.000000 0.272389
O O5 0.844100 0.860127 0.439311
O O6 0.000000 0.887778 0.500000
O O7 0.036752 0.803840 0.816335
O O8 0.985806 0.000000 0.719345
O O9 0.141839 0.657410 0.097319
O O10 0.250000 0.750000 0.500000
#
# Coordination Sequence:
#
# PCOD8094826 Si02
#       4
#     8   8   8   8
#     4  10  21  38  61  90 118 154 206 252 298 355
#     4  10  21  38  61  90 117 154 203 245 295 358
#     4  10  19  40  61  86 117 157 199 251 296 352
#     4  11  24  40  59  89 127 160 197 248 308 363
#
# _framework density 21.566289000000001
#
# number of rings (size 3 to 8) (size 9 to 14) (size 15 to 20)
#    0.000    1.750    5.000    2.250    0.000    8.000 
#    0.000    2.500    0.000    0.000    0.000    0.000 
#    0.000    0.000    0.000    0.000    0.000    0.000 
#
# Total GULP energy -198209.634867 kJ/mol
# GULP energy per Si atom -12388.102179 kJ/mol
# Density = 2.151720 g / cm^3
# Si number density = 21.566289 Si / 1000 Ang^3
#
#
#
# Elastic Constant Matrix: (Units=GPa)
#
#
# Indices 1 2 3 4 5 6 
#
# 1 39.5373 5.6845 11.4909 0.0000 -0.2737 0.0000
# 2 5.6845 134.3615 -15.0935 0.0000 -1.8990 0.0000
# 3 11.4909 -15.0935 98.4629 0.0000 -1.8600 0.0000
# 4 0.0000 0.0000 0.0000 11.1137 0.0000 4.5015
# 5 -0.2737 -1.8990 -1.8600 0.0000 19.1561 0.0000
# 6 0.0000 0.0000 0.0000 4.5015 0.0000 -0.4606
#
#
#
# Elastic Compliance Matrix: (Units=1/GPa)
#
#
# Indices 1 2 3 4 5 6 
#
# 1 0.026472 -0.001494 -0.003320 0.000000 -0.000092 0.000000
# 2 -0.001494 0.007672 0.001367 0.000000 0.000872 0.000000
# 3 -0.003320 0.001367 0.010775 0.000000 0.001134 0.000000
# 4 0.000000 0.000000 0.000000 0.018146 0.000000 0.177347
# 5 -0.000092 0.000872 0.001134 0.000000 0.052398 0.000000
# 6 0.000000 0.000000 0.000000 0.177347 0.000000 -0.437848
#
#
# Mechanical properties :
#
#
# Convention : Reuss Voigt Hill
#
# Bulk Modulus (GPa) = 26.29989 30.72506 28.51248
# Shear Modulus (GPa) = -16.51164 23.98049 3.73443
#
# Velocity S-wave (km/s) = -2.76999 3.33820 1.31733
# Velocity P-wave (km/s) = 1.41100 5.39776 3.94504
#
# Compressibility (1/GPa) = 0.03802297
#
# Stress axis : x y z
#
# Youngs Moduli (GPa) = 37.77614 130.34930 92.81148
#
# Poissons Ratio (x) = 0.19477 0.30815
# Poissons Ratio (y) = 0.05645 -0.12686
# Poissons Ratio (z) = 0.12542 -0.17817
#
# Static dielectric constant tensor:
#      x y z
#    x 3.822450 0.000000 0.316430 
#    y 0.000000 4.151790 0.000000 
#    z 0.316430 0.000000 4.086080 
# 
# 
# High freq. dielectric constant tensor:
#      x y z
#    x 1.834030 0.000000 0.020550 
#    y 0.000000 1.843610 0.000000 
#    z 0.020550 0.000000 1.829080 
# 
# From -- ./inp_files/57945.got.cif
#   From: 2010.06.25/outbox.cif.g09.slc.cpg/sg12_29_cif.got.tgz:57945.got - 2010.06.28 00:19:55.
