data_PCOD8094127
_publ_section_title
;
Structure prediction by ZEFSAII (Michael W. Deem and Ramdas Pophale) SiO2 
 PCOD8094127
Probable space group: C 2/M
;
_chemical_formula_sum "Si O2"
_cell_formula_units_Z 48
_cell_length_a 12.357864
_cell_length_b 16.357264
_cell_length_c 12.232623
_cell_angle_alpha 90.000000
_cell_angle_beta 109.893132
_cell_angle_gamma 90.000000
_cell_volume 2325.163300
_symmetry_space_group_name_H-M "C 2/M"
_symmetry_group_IT_number 12
_symmetry_cell_setting 'monoclinic'
loop_
_space_group_symop_operation_xyz
x,y,z
-x,y,-z
-x,-y,-z
x,-y,z
1/2+x,1/2+y,z
1/2-x,1/2+y,-z
1/2-x,1/2-y,-z
1/2+x,1/2-y,z
loop_
_atom_site_type_symbol
_atom_site_label
_atom_site_fract_x
_atom_site_fract_y
_atom_site_fract_z
Si Si1 0.893578 0.339189 0.263012
Si Si2 0.369187 0.094102 0.612461
Si Si3 0.117954 0.406487 0.975290
Si Si4 0.717113 0.597855 0.362380
Si Si5 0.746961 0.593043 0.778594
Si Si6 0.019826 0.163198 0.636442
O O1 0.886176 0.347708 0.130387
O O2 0.771534 0.369905 0.268242
O O3 0.994305 0.395083 0.348990
O O4 0.923407 0.247090 0.304815
O O5 0.304907 0.130779 0.485320
O O6 0.319077 0.136803 0.705323
O O7 0.335902 0.000000 0.603951
O O8 0.140511 0.500000 0.944084
O O9 0.218446 0.371265 0.090495
O O10 0.000000 0.400588 0.000000
O O11 0.700119 0.500000 0.355112
O O12 0.596669 0.643303 0.339635
O O13 0.789383 0.500000 0.799116
O O14 0.612074 0.595385 0.704576
O O15 0.000000 0.161201 0.500000
#
# Coordination Sequence:
#
# PCOD8094127 Si02
#       6
#     8   8   8   8   8   8
#     4  12  25  38  62  96 135 164 209 268 328 376
#     4  10  19  36  64  92 121 158 209 266 313 368
#     4  10  20  39  67  93 122 166 218 268 312 372
#     4  11  24  41  64  95 131 172 215 263 322 382
#     4  10  21  39  66  94 119 161 223 266 301 371
#     4  12  26  41  64  92 135 175 209 255 324 394
#
# _framework density 20.643712000000001
#
# number of rings (size 3 to 8) (size 9 to 14) (size 15 to 20)
#    0.000    1.167    3.333    3.500    2.333    4.000 
#    0.000    0.833    0.000    3.000    0.000    0.000 
#    0.000    0.000    0.000    0.000    0.000    0.000 
#
# Total GULP energy -297561.605540 kJ/mol
# GULP energy per Si atom -12398.400231 kJ/mol
# Density = 2.059673 g / cm^3
# Si number density = 20.643712 Si / 1000 Ang^3
#
#
#
# Elastic Constant Matrix: (Units=GPa)
#
#
# Indices 1 2 3 4 5 6 
#
# 1 132.0908 24.8108 27.0438 0.0000 -7.7391 0.0000
# 2 24.8108 54.1775 29.5763 0.0000 -3.2344 0.0000
# 3 27.0438 29.5763 110.2601 0.0000 0.8029 0.0000
# 4 0.0000 0.0000 0.0000 19.6738 0.0000 0.4496
# 5 -7.7391 -3.2344 0.8029 0.0000 27.0112 0.0000
# 6 0.0000 0.0000 0.0000 0.4496 0.0000 21.9332
#
#
#
# Elastic Compliance Matrix: (Units=1/GPa)
#
#
# Indices 1 2 3 4 5 6 
#
# 1 0.008536 -0.003083 -0.001282 0.000000 0.002115 0.000000
# 2 -0.003083 0.022946 -0.005414 0.000000 0.002025 0.000000
# 3 -0.001282 -0.005414 0.010846 0.000000 -0.001338 0.000000
# 4 0.000000 0.000000 0.000000 0.050853 0.000000 -0.001042
# 5 0.002115 0.002025 -0.001338 0.000000 0.037910 0.000000
# 6 0.000000 0.000000 0.000000 -0.001042 0.000000 0.045614
#
#
# Mechanical properties :
#
#
# Convention : Reuss Voigt Hill
#
# Bulk Modulus (GPa) = 43.91651 51.04336 47.47994
# Shear Modulus (GPa) = 24.52756 28.06347 26.29551
#
# Velocity S-wave (km/s) = 3.45068 3.69103 3.57288
# Velocity P-wave (km/s) = 6.09885 6.55320 6.33010
#
# Compressibility (1/GPa) = 0.02277048
#
# Stress axis : x y z
#
# Youngs Moduli (GPa) = 117.15076 43.58065 92.20134
#
# Poissons Ratio (x) = 0.13436 0.11821
# Poissons Ratio (y) = 0.36117 0.49914
# Poissons Ratio (z) = 0.15020 0.23593
#
# Static dielectric constant tensor:
#      x y z
#    x 3.751950 0.000000 0.036720 
#    y 0.000000 3.500110 0.000000 
#    z 0.036720 0.000000 4.006590 
# 
# 
# High freq. dielectric constant tensor:
#      x y z
#    x 1.808600 0.000000 0.000630 
#    y 0.000000 1.786580 0.000000 
#    z 0.000630 0.000000 1.815610 
# 
# From -- ./inp_files/131242.got.cif
#   From: 2010.06.25/outbox.cif.g09.slc.cpg/sg12_66_cif.got.tgz:131242.got - 2010.06.28 00:19:55.
