data_PCOD8094309
_publ_section_title
;
Structure prediction by ZEFSAII (Michael W. Deem and Ramdas Pophale) SiO2 
 PCOD8094309
Probable space group: C 2/M
;
_chemical_formula_sum "Si O2"
_cell_formula_units_Z 48
_cell_length_a 19.781902
_cell_length_b 8.822038
_cell_length_c 14.747235
_cell_angle_alpha 90.000000
_cell_angle_beta 80.226185
_cell_angle_gamma 90.000000
_cell_volume 2536.283793
_symmetry_space_group_name_H-M "C 2/M"
_symmetry_group_IT_number 12
_symmetry_cell_setting 'monoclinic'
loop_
_space_group_symop_operation_xyz
x,y,z
-x,y,-z
-x,-y,-z
x,-y,z
1/2+x,1/2+y,z
1/2-x,1/2+y,-z
1/2-x,1/2-y,-z
1/2+x,1/2-y,z
loop_
_atom_site_type_symbol
_atom_site_label
_atom_site_fract_x
_atom_site_fract_y
_atom_site_fract_z
Si Si1 0.960786 0.179829 0.254626
Si Si2 0.114828 0.180113 0.234893
Si Si3 0.426680 0.327453 0.062875
Si Si4 0.662348 0.320861 0.597185
Si Si5 0.821594 0.678510 0.957169
Si Si6 0.699801 0.321587 0.389681
O O1 0.933375 0.234599 0.163492
O O2 0.908618 0.240150 0.343490
O O3 0.036988 0.243150 0.256128
O O4 0.964699 0.000000 0.254657
O O5 0.154863 0.254719 0.143569
O O6 0.150854 0.231312 0.319698
O O7 0.116507 0.000000 0.221053
O O8 0.398433 0.500000 0.066535
O O9 0.500000 0.320550 0.000000
O O10 0.375561 0.216790 0.023114
O O11 0.666493 0.500000 0.605108
O O12 0.665052 0.268011 0.491931
O O13 0.725962 0.253873 0.638998
O O14 0.813803 0.500000 0.950051
O O15 0.750000 0.750000 0.000000
O O16 0.710627 0.500000 0.386527
#
# Coordination Sequence:
#
# PCOD8094309 Si02
#       6
#     8   8   8   8   8   8
#     4   9  18  33  57  83 110 147 186 225 273 330
#     4  10  20  38  58  81 112 147 187 232 282 331
#     4  10  19  37  61  83 114 152 185 224 279 337
#     4   9  18  34  55  82 111 145 187 227 277 336
#     4  12  26  41  58  83 114 149 189 234 282 334
#     4   9  19  34  55  81 112 145 183 234 279 324
#
# _framework density 18.925325999999998
#
# number of rings (size 3 to 8) (size 9 to 14) (size 15 to 20)
#    0.000    2.167    1.667    1.500    2.333    1.667 
#    0.000    4.167    0.000    0.000    0.000    5.833 
#    0.000    0.000    0.000    0.000    0.000    0.000 
#
# Total GULP energy -297626.879351 kJ/mol
# GULP energy per Si atom -12401.119973 kJ/mol
# Density = 1.888225 g / cm^3
# Si number density = 18.925326 Si / 1000 Ang^3
#
#
#
# Elastic Constant Matrix: (Units=GPa)
#
#
# Indices 1 2 3 4 5 6 
#
# 1 134.6158 43.4832 101.0155 0.0000 -5.9965 0.0000
# 2 43.4832 39.2813 35.5489 0.0000 2.7985 0.0000
# 3 101.0155 35.5489 147.9414 0.0000 1.9896 0.0000
# 4 0.0000 0.0000 0.0000 22.4903 0.0000 2.2911
# 5 -5.9965 2.7985 1.9896 0.0000 39.3929 0.0000
# 6 0.0000 0.0000 0.0000 2.2911 0.0000 27.0309
#
#
#
# Elastic Compliance Matrix: (Units=1/GPa)
#
#
# Indices 1 2 3 4 5 6 
#
# 1 0.019358 -0.012426 -0.010290 0.000000 0.004349 0.000000
# 2 -0.012426 0.040653 -0.001221 0.000000 -0.004718 0.000000
# 3 -0.010290 -0.001221 0.014109 0.000000 -0.002192 0.000000
# 4 0.000000 0.000000 0.000000 0.044851 0.000000 -0.003801
# 5 0.004349 -0.004718 -0.002192 0.000000 0.026493 0.000000
# 6 0.000000 0.000000 0.000000 -0.003801 0.000000 0.037317
#
#
# Mechanical properties :
#
#
# Convention : Reuss Voigt Hill
#
# Bulk Modulus (GPa) = 38.10120 75.77042 56.93581
# Shear Modulus (GPa) = 20.88524 27.23554 24.06039
#
# Velocity S-wave (km/s) = 3.32559 3.79767 3.56944
# Velocity P-wave (km/s) = 5.90950 7.70410 6.86569
#
# Compressibility (1/GPa) = 0.02624589
#
# Stress axis : x y z
#
# Youngs Moduli (GPa) = 51.65815 24.59827 70.87861
#
# Poissons Ratio (x) = 0.30566 0.72937
# Poissons Ratio (y) = 0.64190 0.08652
# Poissons Ratio (z) = 0.53159 0.03003
#
# Static dielectric constant tensor:
#      x y z
#    x 3.627640 0.000000 -0.023400 
#    y 0.000000 3.225210 0.000000 
#    z -0.023400 0.000000 3.712700 
# 
# 
# High freq. dielectric constant tensor:
#      x y z
#    x 1.745100 0.000000 -0.001640 
#    y 0.000000 1.706850 0.000000 
#    z -0.001640 0.000000 1.747360 
# 
# From -- ./inp_files/221710.got.cif
#   From: 2010.06.25/outbox.cif.g09.slc.cpg/sg12_111_cif.got.tgz:221710.got - 2010.06.28 00:19:55.
