data_PCOD8094992
_publ_section_title
;
Structure prediction by ZEFSAII (Michael W. Deem and Ramdas Pophale) SiO2 
 PCOD8094992
Probable space group: C 2/M
;
_chemical_formula_sum "Si O2"
_cell_formula_units_Z 56
_cell_length_a 15.305543
_cell_length_b 9.491275
_cell_length_c 21.314167
_cell_angle_alpha 90.000000
_cell_angle_beta 113.552692
_cell_angle_gamma 90.000000
_cell_volume 2838.347513
_symmetry_space_group_name_H-M "C 2/M"
_symmetry_group_IT_number 12
_symmetry_cell_setting 'monoclinic'
loop_
_space_group_symop_operation_xyz
x,y,z
-x,y,-z
-x,-y,-z
x,-y,z
1/2+x,1/2+y,z
1/2-x,1/2+y,-z
1/2-x,1/2-y,-z
1/2+x,1/2-y,z
loop_
_atom_site_type_symbol
_atom_site_label
_atom_site_fract_x
_atom_site_fract_y
_atom_site_fract_z
Si Si1 0.343751 0.156226 0.960386
Si Si2 0.732611 0.331972 0.671967
Si Si3 0.914525 0.664984 0.648207
Si Si4 0.627314 0.655218 0.923424
Si Si5 0.478662 0.335870 0.421802
Si Si6 0.473192 0.156741 0.197439
Si Si7 0.332603 0.158582 0.820609
O O1 0.239789 0.138166 0.959570
O O2 0.336721 0.232994 0.889974
O O3 0.391460 0.000000 0.969684
O O4 0.406489 0.251939 0.026047
O O5 0.739962 0.500000 0.677146
O O6 0.810995 0.281975 0.643132
O O7 0.627897 0.278996 0.623120
O O8 0.759593 0.270935 0.749144
O O9 0.911200 0.500000 0.630636
O O10 0.942207 0.752050 0.594600
O O11 0.995364 0.696657 0.723321
O O12 0.579178 0.500000 0.912264
O O13 0.601596 0.730155 0.850106
O O14 0.500000 0.307089 0.500000
O O15 0.486949 0.500000 0.407154
O O16 0.563697 0.160770 0.178729
O O17 0.427884 0.000000 0.183170
O O18 0.296991 0.000000 0.823685
#
# Coordination Sequence:
#
# PCOD8094992 Si02
#       7
#     8   8   8   8   8   8   8
#     4   9  18  32  49  68  92 128 175 211 244 297
#     4   8  16  33  55  77 108 143 179 219 263 319
#     4   9  19  36  56  79 106 143 182 220 265 314
#     4  10  20  31  46  71 101 131 163 204 262 309
#     4  10  21  35  55  85 114 142 177 217 265 318
#     4   9  18  33  52  72  95 124 168 216 254 298
#     4   8  15  30  52  72  88 125 178 213 242 298
#
# _framework density 19.729790000000001
#
# number of rings (size 3 to 8) (size 9 to 14) (size 15 to 20)
#    0.000    3.000    0.000    2.143    2.000    2.571 
#    0.000    4.286    0.000    1.714    0.000    0.000 
#    0.000    0.000    0.000    0.000    0.000    0.000 
#
# Total GULP energy -347016.999137 kJ/mol
# GULP energy per Si atom -12393.464255 kJ/mol
# Density = 1.968488 g / cm^3
# Si number density = 19.729790 Si / 1000 Ang^3
#
#
#
# Elastic Constant Matrix: (Units=GPa)
#
#
# Indices 1 2 3 4 5 6 
#
# 1 41.2970 12.5565 21.5168 0.0000 -7.2486 0.0000
# 2 12.5565 65.6976 35.1329 0.0000 -5.6539 0.0000
# 3 21.5168 35.1329 88.2516 0.0000 -15.7886 0.0000
# 4 0.0000 0.0000 0.0000 18.0817 0.0000 -1.1967
# 5 -7.2486 -5.6539 -15.7886 0.0000 33.1871 0.0000
# 6 0.0000 0.0000 0.0000 -1.1967 0.0000 13.6338
#
#
#
# Elastic Compliance Matrix: (Units=1/GPa)
#
#
# Indices 1 2 3 4 5 6 
#
# 1 0.028287 -0.002222 -0.005437 0.000000 0.003213 0.000000
# 2 -0.002222 0.019518 -0.007345 0.000000 -0.000655 0.000000
# 3 -0.005437 -0.007345 0.016554 0.000000 0.005436 0.000000
# 4 0.000000 0.000000 0.000000 0.055628 0.000000 0.004883
# 5 0.003213 -0.000655 0.005436 0.000000 0.033309 0.000000
# 6 0.000000 0.000000 0.000000 0.004883 0.000000 0.073775
#
#
# Mechanical properties :
#
#
# Convention : Reuss Voigt Hill
#
# Bulk Modulus (GPa) = 29.11288 37.07318 33.09303
# Shear Modulus (GPa) = 18.61988 21.38319 20.00154
#
# Velocity S-wave (km/s) = 3.07538 3.29569 3.18744
# Velocity P-wave (km/s) = 5.23435 5.77177 5.50962
#
# Compressibility (1/GPa) = 0.03434906
#
# Stress axis : x y z
#
# Youngs Moduli (GPa) = 35.35136 51.23561 60.40954
#
# Poissons Ratio (x) = 0.11386 0.32847
# Poissons Ratio (y) = 0.07856 0.44373
# Poissons Ratio (z) = 0.19222 0.37634
#
# Static dielectric constant tensor:
#      x y z
#    x 3.367490 0.000000 0.032090 
#    y 0.000000 3.477930 0.000000 
#    z 0.032090 0.000000 3.737830 
# 
# 
# High freq. dielectric constant tensor:
#      x y z
#    x 1.754400 0.000000 -0.003730 
#    y 0.000000 1.730230 0.000000 
#    z -0.003730 0.000000 1.776940 
# 
# From -- ./inp_files/268872.got.cif
#   From: 2010.06.25/outbox.cif.g09.slc.cpg/sg12_135_cif.got.tgz:268872.got - 2010.06.28 00:19:55.
