data_PCOD8094353
_publ_section_title
;
Structure prediction by ZEFSAII (Michael W. Deem and Ramdas Pophale) SiO2 
 PCOD8094353
Probable space group: C 2/M
;
_chemical_formula_sum "Si O2"
_cell_formula_units_Z 64
_cell_length_a 29.831623
_cell_length_b 8.913162
_cell_length_c 25.516798
_cell_angle_alpha 90.000000
_cell_angle_beta 150.004490
_cell_angle_gamma 90.000000
_cell_volume 3391.922406
_symmetry_space_group_name_H-M "C 2/M"
_symmetry_group_IT_number 12
_symmetry_cell_setting 'monoclinic'
loop_
_space_group_symop_operation_xyz
x,y,z
-x,y,-z
-x,-y,-z
x,-y,z
1/2+x,1/2+y,z
1/2-x,1/2+y,-z
1/2-x,1/2-y,-z
1/2+x,1/2-y,z
loop_
_atom_site_type_symbol
_atom_site_label
_atom_site_fract_x
_atom_site_fract_y
_atom_site_fract_z
Si Si1 0.419130 0.177639 0.057413
Si Si2 0.020360 0.322082 0.768743
Si Si3 0.740342 0.676552 0.271122
Si Si4 0.068014 0.824425 0.713105
Si Si5 0.165687 0.828202 0.439673
Si Si6 0.055031 0.676933 0.107419
Si Si7 0.372760 0.670141 0.480800
Si Si8 0.740475 0.322848 0.821314
O O1 0.432265 0.234440 0.129951
O O2 0.499212 0.235437 0.101040
O O3 0.419396 0.000000 0.055613
O O4 0.323818 0.236811 0.939994
O O5 0.014779 0.500000 0.760468
O O6 0.077678 0.262291 0.777793
O O7 0.921171 0.256971 0.668563
O O8 0.730826 0.500000 0.258188
O O9 0.650464 0.742940 0.205261
O O10 0.824955 0.718171 0.392624
O O11 0.758579 0.740777 0.232594
O O12 0.150038 0.777864 0.759584
O O13 0.976463 0.779641 0.590790
O O14 0.067019 0.000000 0.725642
O O15 0.250000 0.750000 0.500000
O O16 0.175105 0.817522 0.511620
O O17 0.159907 0.000000 0.415416
O O18 0.072553 0.500000 0.126820
O O19 0.000000 0.721963 0.000000
O O20 0.366305 0.500000 0.452774
O O21 0.746782 0.500000 0.817634
#
# Coordination Sequence:
#
# PCOD8094353 Si02
#       8
#     8   8   8   8   8   8   8   8
#     4   9  19  35  58  87 113 149 196 229 271 340
#     4  10  20  35  56  84 119 152 186 231 285 339
#     4  12  25  37  54  87 120 147 186 237 293 339
#     4   9  20  39  63  86 110 146 195 243 282 330
#     4  10  21  37  57  82 112 148 193 237 282 335
#     4  10  19  37  62  81 108 154 196 230 274 334
#     4   9  20  39  58  79 110 151 192 230 278 341
#     4  10  20  40  64  83 109 151 198 236 276 338
#
# _framework density 18.868355999999999
#
# number of rings (size 3 to 8) (size 9 to 14) (size 15 to 20)
#    0.000    2.125    1.250    2.625    1.750    4.250 
#    0.000    4.375    0.000    0.000    0.000    0.000 
#    0.000    0.000    0.000    0.000    0.000    0.000 
#
# Total GULP energy -396878.998563 kJ/mol
# GULP energy per Si atom -12402.468705 kJ/mol
# Density = 1.882541 g / cm^3
# Si number density = 18.868356 Si / 1000 Ang^3
#
#
#
# Elastic Constant Matrix: (Units=GPa)
#
#
# Indices 1 2 3 4 5 6 
#
# 1 99.4634 44.5184 89.9217 0.0000 20.4036 0.0000
# 2 44.5184 66.9280 47.3936 0.0000 -0.9181 0.0000
# 3 89.9217 47.3936 132.4926 0.0000 -7.2844 0.0000
# 4 0.0000 0.0000 0.0000 21.5558 0.0000 -3.8426
# 5 20.4036 -0.9181 -7.2844 0.0000 30.2401 0.0000
# 6 0.0000 0.0000 0.0000 -3.8426 0.0000 27.9043
#
#
#
# Elastic Compliance Matrix: (Units=1/GPa)
#
#
# Indices 1 2 3 4 5 6 
#
# 1 0.068907 -0.015084 -0.044542 0.000000 -0.057680 0.000000
# 2 -0.015084 0.023350 0.002517 0.000000 0.011493 0.000000
# 3 -0.044542 0.002517 0.039051 0.000000 0.039537 0.000000
# 4 0.000000 0.000000 0.000000 0.047559 0.000000 0.006549
# 5 -0.057680 0.011493 0.039537 0.000000 0.081859 0.000000
# 6 0.000000 0.000000 0.000000 0.006549 0.000000 0.036739
#
#
# Mechanical properties :
#
#
# Convention : Reuss Voigt Hill
#
# Bulk Modulus (GPa) = 58.51505 73.61682 66.06593
# Shear Modulus (GPa) = 11.97946 23.74336 17.86141
#
# Velocity S-wave (km/s) = 2.52245 3.55120 3.08008
# Velocity P-wave (km/s) = 6.28993 7.47766 6.90937
#
# Compressibility (1/GPa) = 0.01708962
#
# Stress axis : x y z
#
# Youngs Moduli (GPa) = 14.51233 42.82566 25.60735
#
# Poissons Ratio (x) = 0.64600 1.14060
# Poissons Ratio (y) = 0.21891 -0.06445
# Poissons Ratio (z) = 0.64641 -0.10779
#
# Static dielectric constant tensor:
#      x y z
#    x 3.592140 0.000000 0.039560 
#    y 0.000000 3.316250 0.000000 
#    z 0.039560 0.000000 3.711660 
# 
# 
# High freq. dielectric constant tensor:
#      x y z
#    x 1.741150 0.000000 0.001090 
#    y 0.000000 1.716730 0.000000 
#    z 0.001090 0.000000 1.739880 
# 
# From -- ./inp_files/353501.got.cif
#   From: 2010.06.25/outbox.cif.g09.slc.cpg/sg12_177_cif.got.tgz:353501.got - 2010.06.28 00:19:55.
