data_PCOD8094695
_publ_section_title
;
Structure prediction by ZEFSAII (Michael W. Deem and Ramdas Pophale) SiO2 
 PCOD8094695
Probable space group: C 2/M
;
_chemical_formula_sum "Si O2"
_cell_formula_units_Z 40
_cell_length_a 17.740919
_cell_length_b 15.469114
_cell_length_c 14.579835
_cell_angle_alpha 90.000000
_cell_angle_beta 152.459803
_cell_angle_gamma 90.000000
_cell_volume 1850.054666
_symmetry_space_group_name_H-M "C 2/M"
_symmetry_group_IT_number 12
_symmetry_cell_setting 'monoclinic'
loop_
_space_group_symop_operation_xyz
x,y,z
-x,y,-z
-x,-y,-z
x,-y,z
1/2+x,1/2+y,z
1/2-x,1/2+y,-z
1/2-x,1/2-y,-z
1/2+x,1/2-y,z
loop_
_atom_site_type_symbol
_atom_site_label
_atom_site_fract_x
_atom_site_fract_y
_atom_site_fract_z
Si Si1 0.522152 0.596723 0.696832
Si Si2 0.000000 0.828440 0.000000
Si Si3 0.625425 0.906170 0.882056
Si Si4 0.000000 0.802639 0.500000
Si Si5 0.168426 0.363204 0.722396
Si Si6 0.071342 0.758710 0.270099
O O1 0.451848 0.500000 0.637996
O O2 0.435295 0.638672 0.514182
O O3 0.502134 0.655046 0.765122
O O4 0.714373 0.593044 0.881683
O O5 0.161812 0.885849 0.148408
O O6 0.054129 0.767393 0.142669
O O7 0.688065 0.895772 0.845910
O O8 0.509761 0.829384 0.784935
O O9 0.536883 0.000000 0.796640
O O10 0.148324 0.741566 0.696130
O O11 0.000000 0.405502 0.500000
O O12 0.250000 0.750000 0.500000
#
# Coordination Sequence:
#
# PCOD8094695 Si02
#       6
#     8   4   8   4   8   8
#     4  11  22  39  65  94 129 170 219 275 331 399
#     4  12  22  38  70  94 136 178 222 284 332 410
#     4  11  23  43  68  92 131 180 220 275 339 398
#     4  10  19  38  65  94 126 170 221 272 335 394
#     4  10  21  40  64  97 127 176 222 272 337 395
#     4  12  24  43  66  99 133 180 226 276 349 403
#
# _framework density 21.620984
#
# number of rings (size 3 to 8) (size 9 to 14) (size 15 to 20)
#    0.600    0.400    4.000    4.500    0.000    1.200 
#    0.000    2.500    0.000    0.000    0.000    0.000 
#    0.000    0.000    0.000    0.000    0.000    0.000 
#
# Total GULP energy -247815.122839 kJ/mol
# GULP energy per Si atom -12390.756142 kJ/mol
# Density = 2.157177 g / cm^3
# Si number density = 21.620984 Si / 1000 Ang^3
#
#
#
# Elastic Constant Matrix: (Units=GPa)
#
#
# Indices 1 2 3 4 5 6 
#
# 1 96.6539 32.2964 23.3526 0.0000 -8.8482 0.0000
# 2 32.2964 159.0686 15.8117 0.0000 -8.4180 0.0000
# 3 23.3526 15.8117 96.7067 0.0000 5.3665 0.0001
# 4 0.0000 0.0000 0.0000 16.1602 0.0000 -4.2113
# 5 -8.8482 -8.4180 5.3665 0.0000 45.2999 0.0000
# 6 0.0000 0.0000 0.0001 -4.2113 0.0000 -27.3236
#
#
#
# Elastic Compliance Matrix: (Units=1/GPa)
#
#
# Indices 1 2 3 4 5 6 
#
# 1 0.011873 -0.002027 -0.002661 0.000000 0.002258 0.000000
# 2 -0.002027 0.006816 -0.000678 0.000000 0.000951 0.000000
# 3 -0.002661 -0.000678 0.011203 0.000000 -0.001973 0.000000
# 4 0.000000 0.000000 0.000000 0.059491 0.000000 -0.009169
# 5 0.002258 0.000951 -0.001973 0.000000 0.022927 0.000000
# 6 0.000000 0.000000 0.000000 -0.009169 0.000000 -0.035185
#
#
# Mechanical properties :
#
#
# Convention : Reuss Voigt Hill
#
# Bulk Modulus (GPa) = 52.18835 55.03894 53.61365
# Shear Modulus (GPa) = 53.05462 25.55853 39.30658
#
# Velocity S-wave (km/s) = 4.95901 3.44192 4.26841
# Velocity P-wave (km/s) = 7.54846 6.42708 7.01023
#
# Compressibility (1/GPa) = 0.01916136
#
# Stress axis : x y z
#
# Youngs Moduli (GPa) = 84.22478 146.71856 89.25847
#
# Poissons Ratio (x) = 0.29734 0.23752
# Poissons Ratio (y) = 0.17069 0.06050
# Poissons Ratio (z) = 0.22412 0.09944
#
# Static dielectric constant tensor:
#      x y z
#    x 3.777830 0.000000 -0.066910 
#    y 0.000000 5.034500 0.000010 
#    z -0.066910 0.000010 4.008800 
# 
# 
# High freq. dielectric constant tensor:
#      x y z
#    x 1.833340 0.000000 -0.013510 
#    y 0.000000 1.841860 0.000000 
#    z -0.013510 0.000000 1.858620 
# 
# From -- ./inp_files/225841.got.cif
#   From: 2010.06.25/outbox.cif.g09.slc.cpg/sg12_113_cif.got.tgz:225841.got - 2010.06.28 00:19:55.
