data_PCOD8094595
_publ_section_title
;
Structure prediction by ZEFSAII (Michael W. Deem and Ramdas Pophale) SiO2 
 PCOD8094595
Probable space group: C 2/M
;
_chemical_formula_sum "Si O2"
_cell_formula_units_Z 52
_cell_length_a 14.969021
_cell_length_b 18.466294
_cell_length_c 15.437896
_cell_angle_alpha 90.000000
_cell_angle_beta 143.314322
_cell_angle_gamma 90.000000
_cell_volume 2549.437894
_symmetry_space_group_name_H-M "C 2/M"
_symmetry_group_IT_number 12
_symmetry_cell_setting 'monoclinic'
loop_
_space_group_symop_operation_xyz
x,y,z
-x,y,-z
-x,-y,-z
x,-y,z
1/2+x,1/2+y,z
1/2-x,1/2+y,-z
1/2-x,1/2-y,-z
1/2+x,1/2-y,z
loop_
_atom_site_type_symbol
_atom_site_label
_atom_site_fract_x
_atom_site_fract_y
_atom_site_fract_z
Si Si1 0.141416 0.804495 0.966506
Si Si2 0.886616 0.500000 0.665533
Si Si3 0.651675 0.770082 0.733115
Si Si4 0.048809 0.000000 0.439420
Si Si5 0.101878 0.500000 0.996433
Si Si6 0.356353 0.612855 0.193780
Si Si7 0.317505 0.264189 0.689419
Si Si8 0.858461 0.344935 0.575754
O O1 0.117041 0.876002 0.888723
O O2 0.978967 0.771151 0.859291
O O3 0.250000 0.750000 0.000000
O O4 0.222261 0.819862 0.120896
O O5 0.725831 0.500000 0.584380
O O6 0.901410 0.429178 0.616199
O O7 0.011461 0.500000 0.836506
O O8 0.661043 0.688367 0.772195
O O9 0.685836 0.767590 0.657811
O O10 0.490915 0.802206 0.630408
O O11 0.000000 0.000000 0.500000
O O12 0.993223 0.070393 0.344260
O O13 0.201327 0.571186 0.081601
O O14 0.000000 0.500000 0.000000
O O15 0.287112 0.329738 0.597435
O O16 0.320979 0.187325 0.641530
#
# Coordination Sequence:
#
# PCOD8094595 Si02
#       8
#     8   4   8   4   4   8   8   8
#     4  10  19  38  61  90 123 163 213 258 316 375
#     4  12  26  42  65  88 132 176 206 268 330 380
#     4  11  23  40  69  95 127 167 218 275 319 381
#     4  11  25  39  57  93 128 176 220 251 331 405
#     4  11  25  37  57  95 132 168 210 249 333 391
#     4  10  22  41  59  87 134 167 204 266 308 394
#     4  11  23  40  65  95 128 166 217 269 325 376
#     4  11  25  43  63  97 130 171 217 265 327 391
#
# _framework density 20.396654000000002
#
# number of rings (size 3 to 8) (size 9 to 14) (size 15 to 20)
#    0.000    1.231    3.077    3.692    8.615    0.000 
#    0.000    1.538    0.000    0.000    0.000    8.615 
#    0.000    0.000    0.000    0.000    0.000    0.000 
#
# Total GULP energy -322330.960534 kJ/mol
# GULP energy per Si atom -12397.344636 kJ/mol
# Density = 2.035023 g / cm^3
# Si number density = 20.396654 Si / 1000 Ang^3
#
#
#
# Elastic Constant Matrix: (Units=GPa)
#
#
# Indices 1 2 3 4 5 6 
#
# 1 110.3233 34.7939 9.8361 -0.0008 -3.7735 -0.0011
# 2 34.7939 119.7675 26.0412 -0.0006 -7.2061 -0.0007
# 3 9.8361 26.0412 81.9940 -0.0016 4.9090 -0.0023
# 4 -0.0008 -0.0006 -0.0016 28.9506 -0.0009 -3.7214
# 5 -3.7735 -7.2061 4.9090 -0.0009 36.2926 -0.0012
# 6 -0.0011 -0.0007 -0.0023 -3.7214 -0.0012 13.6720
#
#
#
# Elastic Compliance Matrix: (Units=1/GPa)
#
#
# Indices 1 2 3 4 5 6 
#
# 1 0.009995 -0.002797 -0.000342 0.000000 0.000530 0.000001
# 2 -0.002797 0.009927 -0.002942 0.000000 0.002078 0.000000
# 3 -0.000342 -0.002942 0.013316 0.000001 -0.002421 0.000002
# 4 0.000000 0.000000 0.000001 0.035794 0.000001 0.009743
# 5 0.000530 0.002078 -0.002421 0.000001 0.028349 0.000003
# 6 0.000001 0.000000 0.000002 0.009743 0.000003 0.075794
#
#
# Mechanical properties :
#
#
# Convention : Reuss Voigt Hill
#
# Bulk Modulus (GPa) = 47.44813 50.38081 48.91447
# Shear Modulus (GPa) = 25.99250 31.87727 28.93489
#
# Velocity S-wave (km/s) = 3.57368 3.95760 3.77053
# Velocity P-wave (km/s) = 6.35149 6.75556 6.55664
#
# Compressibility (1/GPa) = 0.02107565
#
# Stress axis : x y z
#
# Youngs Moduli (GPa) = 100.04833 100.73731 75.09621
#
# Poissons Ratio (x) = 0.28180 0.02571
# Poissons Ratio (y) = 0.27987 0.22090
# Poissons Ratio (z) = 0.03425 0.29633
#
# Static dielectric constant tensor:
#      x y z
#    x 3.682930 -0.000020 -0.167110 
#    y -0.000020 3.788660 0.000040 
#    z -0.167110 0.000040 4.280560 
# 
# 
# High freq. dielectric constant tensor:
#      x y z
#    x 1.790910 0.000000 0.007500 
#    y 0.000000 1.774710 0.000000 
#    z 0.007500 0.000000 1.825050 
# 
# From -- ./inp_files/216899.got.cif
#   From: 2010.06.25/outbox.cif.g09.slc.cpg/sg12_109_cif.got.tgz:216899.got - 2010.06.28 00:19:55.
