data_PCOD8094900
_publ_section_title
;
Structure prediction by ZEFSAII (Michael W. Deem and Ramdas Pophale) SiO2 
 PCOD8094900
Probable space group: C 2/M
;
_chemical_formula_sum "Si O2"
_cell_formula_units_Z 64
_cell_length_a 33.231699
_cell_length_b 9.081462
_cell_length_c 14.309290
_cell_angle_alpha 90.000000
_cell_angle_beta 116.576538
_cell_angle_gamma 90.000000
_cell_volume 3862.138547
_symmetry_space_group_name_H-M "C 2/M"
_symmetry_group_IT_number 12
_symmetry_cell_setting 'monoclinic'
loop_
_space_group_symop_operation_xyz
x,y,z
-x,y,-z
-x,-y,-z
x,-y,z
1/2+x,1/2+y,z
1/2-x,1/2+y,-z
1/2-x,1/2-y,-z
1/2+x,1/2-y,z
loop_
_atom_site_type_symbol
_atom_site_label
_atom_site_fract_x
_atom_site_fract_y
_atom_site_fract_z
Si Si1 0.885460 0.175557 0.816202
Si Si2 0.048694 0.330508 0.588024
Si Si3 0.044476 0.673655 0.987464
Si Si4 0.519069 0.832227 0.757566
Si Si5 0.874395 0.833868 0.440812
Si Si6 0.067834 0.836631 0.321159
Si Si7 0.700369 0.172098 0.344716
Si Si8 0.706679 0.828102 0.567316
O O1 0.911887 0.237950 0.932724
O O2 0.914057 0.229131 0.756676
O O3 0.836513 0.248072 0.757817
O O4 0.880292 0.000000 0.816190
O O5 0.055847 0.500000 0.565245
O O6 0.052239 0.311975 0.704144
O O7 0.088505 0.232216 0.589488
O O8 0.000000 0.276116 0.500000
O O9 0.054079 0.500000 0.004613
O O10 0.039128 0.730138 0.875055
O O11 0.000000 0.716855 0.000000
O O12 0.472409 0.758687 0.680266
O O13 0.506837 0.000000 0.762815
O O14 0.891929 0.836225 0.564221
O O15 0.829748 0.734153 0.396838
O O16 0.863021 0.000000 0.395850
O O17 0.049159 0.000000 0.284701
O O18 0.690666 0.199486 0.444240
O O19 0.747744 0.241277 0.365110
O O20 0.700884 0.000000 0.321485
O O21 0.714248 0.000000 0.594578
#
# Coordination Sequence:
#
# PCOD8094900 Si02
#       8
#     8   8   8   8   8   8   8   8
#     4  11  21  33  49  72 102 136 171 207 249 298
#     4  10  20  33  50  72  98 131 172 212 252 299
#     4  10  20  33  50  72  98 131 172 212 252 299
#     4  10  20  34  50  69  98 133 170 214 255 295
#     4  11  21  33  49  72 102 136 171 207 249 298
#     4  10  20  30  45  69 100 133 168 208 248 293
#     4  10  20  33  51  74 102 134 167 205 249 298
#     4  10  20  33  51  74 102 134 167 205 249 298
#
# _framework density 16.571131000000001
#
# number of rings (size 3 to 8) (size 9 to 14) (size 15 to 20)
#    0.000    1.750    3.750    1.500    0.000    3.500 
#    0.000    0.000    0.000    0.000    0.000    0.875 
#    0.000    0.000    0.000    0.000    0.000    0.000 
#
# Total GULP energy -396818.167035 kJ/mol
# GULP energy per Si atom -12400.567720 kJ/mol
# Density = 1.653341 g / cm^3
# Si number density = 16.571131 Si / 1000 Ang^3
#
#
#
# Elastic Constant Matrix: (Units=GPa)
#
#
# Indices 1 2 3 4 5 6 
#
# 1 98.0276 52.1505 32.2607 0.0000 6.6986 0.0000
# 2 52.1505 85.9052 33.1347 0.0000 10.6020 0.0000
# 3 32.2607 33.1347 74.1184 0.0000 4.7030 0.0000
# 4 0.0000 0.0000 0.0000 23.8947 0.0000 5.7410
# 5 6.6986 10.6020 4.7030 0.0000 27.3495 0.0000
# 6 0.0000 0.0000 0.0000 5.7410 0.0000 29.8093
#
#
#
# Elastic Compliance Matrix: (Units=1/GPa)
#
#
# Indices 1 2 3 4 5 6 
#
# 1 0.015634 -0.008287 -0.003095 0.000000 -0.000085 0.000000
# 2 -0.008287 0.019008 -0.004602 0.000000 -0.004547 0.000000
# 3 -0.003095 -0.004602 0.016920 0.000000 -0.000368 0.000000
# 4 0.000000 0.000000 0.000000 0.043881 0.000000 -0.008451
# 5 -0.000085 -0.004547 -0.000368 0.000000 0.038410 0.000000
# 6 0.000000 0.000000 0.000000 -0.008451 0.000000 0.035174
#
#
# Mechanical properties :
#
#
# Convention : Reuss Voigt Hill
#
# Bulk Modulus (GPa) = 51.03579 54.79366 52.91473
# Shear Modulus (GPa) = 24.09344 25.57771 24.83558
#
# Velocity S-wave (km/s) = 3.81719 3.93302 3.87554
# Velocity P-wave (km/s) = 7.09174 7.33228 7.21302
#
# Compressibility (1/GPa) = 0.01959409
#
# Stress axis : x y z
#
# Youngs Moduli (GPa) = 63.96284 52.61041 59.10299
#
# Poissons Ratio (x) = 0.43597 0.18292
# Poissons Ratio (y) = 0.53005 0.27199
# Poissons Ratio (z) = 0.19796 0.24211
#
# Static dielectric constant tensor:
#      x y z
#    x 2.958020 0.000000 -0.008920 
#    y 0.000000 3.169060 0.000000 
#    z -0.008920 0.000000 3.026450 
# 
# 
# High freq. dielectric constant tensor:
#      x y z
#    x 1.624740 0.000000 0.004460 
#    y 0.000000 1.647760 0.000000 
#    z 0.004460 0.000000 1.613980 
# 
# From -- ./inp_files/249169.got.cif
#   From: 2010.06.25/outbox.cif.g09.slc.cpg/sg12_125_cif.got.tgz:249169.got - 2010.06.28 00:19:55.
