data_PCOD8094710
_publ_section_title
;
Structure prediction by ZEFSAII (Michael W. Deem and Ramdas Pophale) SiO2 
 PCOD8094710
Probable space group: C 2/M
;
_chemical_formula_sum "Si O2"
_cell_formula_units_Z 48
_cell_length_a 11.472242
_cell_length_b 29.550219
_cell_length_c 13.561378
_cell_angle_alpha 90.000000
_cell_angle_beta 148.255072
_cell_angle_gamma 90.000000
_cell_volume 2418.872780
_symmetry_space_group_name_H-M "C 2/M"
_symmetry_group_IT_number 12
_symmetry_cell_setting 'monoclinic'
loop_
_space_group_symop_operation_xyz
x,y,z
-x,y,-z
-x,-y,-z
x,-y,z
1/2+x,1/2+y,z
1/2-x,1/2+y,-z
1/2-x,1/2-y,-z
1/2+x,1/2-y,z
loop_
_atom_site_type_symbol
_atom_site_label
_atom_site_fract_x
_atom_site_fract_y
_atom_site_fract_z
Si Si1 0.028283 0.299011 0.274458
Si Si2 0.282629 0.565718 0.291473
Si Si3 0.867354 0.135725 0.003054
Si Si4 0.021861 0.194756 0.284950
Si Si5 0.292446 0.950266 0.987867
Si Si6 0.714111 0.330770 0.705315
O O1 0.240741 0.311407 0.493467
O O2 0.072839 0.306852 0.189515
O O3 0.958630 0.247093 0.229211
O O4 0.837701 0.332397 0.174691
O O5 0.500000 0.544022 0.500000
O O6 0.305226 0.559679 0.190662
O O7 0.266309 0.617523 0.309923
O O8 0.058435 0.544586 0.173075
O O9 0.025664 0.165895 0.187477
O O10 0.788971 0.088688 0.996313
O O11 0.000000 0.122828 0.000000
O O12 0.814040 0.174990 0.198197
O O13 0.205844 0.000000 0.960645
O O14 0.500000 0.307826 0.500000
#
# Coordination Sequence:
#
# PCOD8094710 Si02
#       6
#     8   8   8   8   8   8
#     4  10  22  40  62  89 121 157 198 244 292 346
#     4  10  19  38  66  95 122 147 187 248 312 358
#     4  12  26  41  58  85 119 163 206 242 289 347
#     4  10  22  40  62  89 121 157 198 244 292 346
#     4  11  24  40  61  90 119 153 197 247 303 361
#     4   9  17  33  62  90 115 152 187 236 302 344
#
# _framework density 19.843952999999999
#
# number of rings (size 3 to 8) (size 9 to 14) (size 15 to 20)
#    0.000    1.667    3.333    1.500    2.333    3.000 
#    0.000    0.000    0.000    0.000    0.000    4.667 
#    0.000    0.000    0.000    0.000    0.000    0.000 
#
# Total GULP energy -297419.809391 kJ/mol
# GULP energy per Si atom -12392.492058 kJ/mol
# Density = 1.979879 g / cm^3
# Si number density = 19.843953 Si / 1000 Ang^3
#
#
#
# Elastic Constant Matrix: (Units=GPa)
#
#
# Indices 1 2 3 4 5 6 
#
# 1 129.0165 50.2884 37.9605 0.0000 -0.8449 0.0000
# 2 50.2884 126.9216 31.1500 0.0000 1.0866 0.0000
# 3 37.9605 31.1500 111.0814 -0.0001 -7.3627 0.0000
# 4 0.0000 0.0000 -0.0001 64.8566 0.0000 -29.6455
# 5 -0.8449 1.0866 -7.3627 0.0000 19.9359 0.0000
# 6 0.0000 0.0000 0.0000 -29.6455 0.0000 36.9163
#
#
#
# Elastic Compliance Matrix: (Units=1/GPa)
#
#
# Indices 1 2 3 4 5 6 
#
# 1 0.009735 -0.003257 -0.002434 0.000000 -0.000309 0.000000
# 2 -0.003257 0.009588 -0.001660 0.000000 -0.001274 0.000000
# 3 -0.002434 -0.001660 0.010557 0.000000 0.003886 0.000000
# 4 0.000000 0.000000 0.000000 0.024361 0.000000 0.019563
# 5 -0.000309 -0.001274 0.003886 0.000000 0.051652 0.000000
# 6 0.000000 0.000000 0.000000 0.019563 0.000000 0.042798
#
#
# Mechanical properties :
#
#
# Convention : Reuss Voigt Hill
#
# Bulk Modulus (GPa) = 65.88546 67.31304 66.59925
# Shear Modulus (GPa) = 29.68211 40.84978 35.26595
#
# Velocity S-wave (km/s) = 3.87172 4.54205 4.22021
# Velocity P-wave (km/s) = 7.29800 7.84231 7.57504
#
# Compressibility (1/GPa) = 0.01517786
#
# Stress axis : x y z
#
# Youngs Moduli (GPa) = 102.72701 104.30052 94.72192
#
# Poissons Ratio (x) = 0.33971 0.23053
# Poissons Ratio (y) = 0.33458 0.15724
# Poissons Ratio (z) = 0.25001 0.17314
#
# Static dielectric constant tensor:
#      x y z
#    x 3.553710 0.000000 0.011070 
#    y 0.000000 3.639660 0.000000 
#    z 0.011070 0.000000 3.748200 
# 
# 
# High freq. dielectric constant tensor:
#      x y z
#    x 1.752930 0.000000 -0.001890 
#    y 0.000000 1.783190 0.000000 
#    z -0.001890 0.000000 1.779290 
# 
# From -- ./inp_files/209460.got.cif
#   From: 2010.06.25/outbox.cif.g09.slc.cpg/sg12_105_cif.got.tgz:209460.got - 2010.06.28 00:19:55.
