data_PCOD8094467
_publ_section_title
;
Structure prediction by ZEFSAII (Michael W. Deem and Ramdas Pophale) SiO2 
 PCOD8094467
Probable space group: C 2/M
;
_chemical_formula_sum "Si O2"
_cell_formula_units_Z 52
_cell_length_a 29.144981
_cell_length_b 16.886732
_cell_length_c 10.353772
_cell_angle_alpha 90.000000
_cell_angle_beta 149.866109
_cell_angle_gamma 90.000000
_cell_volume 2558.179861
_symmetry_space_group_name_H-M "C 2/M"
_symmetry_group_IT_number 12
_symmetry_cell_setting 'monoclinic'
loop_
_space_group_symop_operation_xyz
x,y,z
-x,y,-z
-x,-y,-z
x,-y,z
1/2+x,1/2+y,z
1/2-x,1/2+y,-z
1/2-x,1/2-y,-z
1/2+x,1/2-y,z
loop_
_atom_site_type_symbol
_atom_site_label
_atom_site_fract_x
_atom_site_fract_y
_atom_site_fract_z
Si Si1 0.500000 0.709788 0.500000
Si Si2 0.325334 0.187602 0.064975
Si Si3 0.393812 0.907073 0.727826
Si Si4 0.594905 0.410599 0.892510
Si Si5 0.403694 0.408444 0.807026
Si Si6 0.207602 0.594030 0.259770
Si Si7 0.726031 0.843857 0.787123
O O1 0.585039 0.764631 0.675528
O O2 0.483039 0.651656 0.337131
O O3 0.299005 0.134734 0.125401
O O4 0.344174 0.130901 0.989146
O O5 0.247101 0.250064 0.833779
O O6 0.341843 0.876916 0.729738
O O7 0.356537 0.861421 0.511637
O O8 0.377228 0.000000 0.666154
O O9 0.500000 0.886449 0.000000
O O10 0.559381 0.500000 0.783665
O O11 0.617460 0.394773 0.095351
O O12 0.687014 0.397296 0.036345
O O13 0.412467 0.500000 0.792561
O O14 0.313476 0.375966 0.514529
O O15 0.500000 0.366658 0.000000
O O16 0.200642 0.500000 0.233614
#
# Coordination Sequence:
#
# PCOD8094467 Si02
#       7
#     4   8   8   8   8   8   8
#     4  10  23  40  57  84 126 160 200 252 297 366
#     4  10  24  40  58  85 126 163 202 245 303 365
#     4  10  21  38  63  92 119 154 205 252 295 353
#     4  10  19  37  64  90 117 156 203 254 305 354
#     4   9  18  33  57  88 120 149 189 246 305 358
#     4  10  21  40  62  89 122 156 199 253 301 354
#     4  10  21  40  60  85 123 164 199 246 301 361
#
# _framework density 20.326951999999999
#
# number of rings (size 3 to 8) (size 9 to 14) (size 15 to 20)
#    0.000    2.154    1.538    0.692    2.154    5.538 
#    0.000    2.692    0.000    0.000    0.000    0.000 
#    0.000    0.000    0.000    0.000    0.000    0.000 
#
# Total GULP energy -322353.324781 kJ/mol
# GULP energy per Si atom -12398.204799 kJ/mol
# Density = 2.028069 g / cm^3
# Si number density = 20.326952 Si / 1000 Ang^3
#
#
#
# Elastic Constant Matrix: (Units=GPa)
#
#
# Indices 1 2 3 4 5 6 
#
# 1 131.1994 42.4792 64.4193 0.0000 -6.8468 0.0000
# 2 42.4792 50.4536 48.5324 0.0000 -4.7218 0.0000
# 3 64.4193 48.5324 135.4609 0.0000 3.4061 0.0000
# 4 0.0000 0.0000 0.0000 29.6241 0.0000 -5.2049
# 5 -6.8468 -4.7218 3.4061 0.0000 34.0322 0.0000
# 6 0.0000 0.0000 0.0000 -5.2049 0.0000 20.6296
#
#
#
# Elastic Compliance Matrix: (Units=1/GPa)
#
#
# Indices 1 2 3 4 5 6 
#
# 1 0.011309 -0.006327 -0.003154 0.000000 0.001713 0.000000
# 2 -0.006327 0.034765 -0.009560 0.000000 0.004507 0.000000
# 3 -0.003154 -0.009560 0.012388 0.000000 -0.003201 0.000000
# 4 0.000000 0.000000 0.000000 0.035322 0.000000 0.008912
# 5 0.001713 0.004507 -0.003201 0.000000 0.030674 0.000000
# 6 0.000000 0.000000 0.000000 0.008912 0.000000 0.050722
#
#
# Mechanical properties :
#
#
# Convention : Reuss Voigt Hill
#
# Bulk Modulus (GPa) = 49.06960 69.77508 59.42234
# Shear Modulus (GPa) = 22.72158 27.63605 25.17882
#
# Velocity S-wave (km/s) = 3.34699 3.69124 3.52332
# Velocity P-wave (km/s) = 6.25532 7.25038 6.77115
#
# Compressibility (1/GPa) = 0.02037922
#
# Stress axis : x y z
#
# Youngs Moduli (GPa) = 88.42861 28.76471 80.72450
#
# Poissons Ratio (x) = 0.18199 0.25462
# Poissons Ratio (y) = 0.55947 0.77173
# Poissons Ratio (z) = 0.27892 0.27499
#
# Static dielectric constant tensor:
#      x y z
#    x 3.768970 0.000000 0.063030 
#    y 0.000000 3.451270 0.000000 
#    z 0.063030 0.000000 3.775290 
# 
# 
# High freq. dielectric constant tensor:
#      x y z
#    x 1.795950 0.000000 0.000180 
#    y 0.000000 1.771420 0.000000 
#    z 0.000180 0.000000 1.800820 
# 
# From -- ./inp_files/113307.got.cif
#   From: 2010.06.25/outbox.cif.g09.slc.cpg/sg12_57_cif.got.tgz:113307.got - 2010.06.28 00:19:55.
