data_PCOD8094612
_publ_section_title
;
Structure prediction by ZEFSAII (Michael W. Deem and Ramdas Pophale) SiO2 
 PCOD8094612
Probable space group: C 2/M
;
_chemical_formula_sum "Si O2"
_cell_formula_units_Z 64
_cell_length_a 28.974517
_cell_length_b 14.972047
_cell_length_c 12.168458
_cell_angle_alpha 90.000000
_cell_angle_beta 143.603490
_cell_angle_gamma 90.000000
_cell_volume 3132.264407
_symmetry_space_group_name_H-M "C 2/M"
_symmetry_group_IT_number 12
_symmetry_cell_setting 'monoclinic'
loop_
_space_group_symop_operation_xyz
x,y,z
-x,y,-z
-x,-y,-z
x,-y,z
1/2+x,1/2+y,z
1/2-x,1/2+y,-z
1/2-x,1/2-y,-z
1/2+x,1/2-y,z
loop_
_atom_site_type_symbol
_atom_site_label
_atom_site_fract_x
_atom_site_fract_y
_atom_site_fract_z
Si Si1 0.255907 0.365286 0.223355
Si Si2 0.670506 0.405446 0.858605
Si Si3 0.419044 0.759566 0.297806
Si Si4 0.304227 0.828977 0.249557
Si Si5 0.920239 0.400216 0.652156
Si Si6 0.585018 0.164424 0.937874
Si Si7 0.865659 0.718681 0.737952
Si Si8 0.710931 0.603917 0.476745
O O1 0.281739 0.413787 0.162952
O O2 0.274519 0.259977 0.252558
O O3 0.302371 0.402353 0.417823
O O4 0.165230 0.388866 0.071512
O O5 0.633983 0.500000 0.817763
O O6 0.596249 0.342710 0.700533
O O7 0.726577 0.380717 0.067569
O O8 0.500000 0.794206 0.500000
O O9 0.348655 0.813877 0.219016
O O10 0.419496 0.763376 0.167817
O O11 0.359557 0.883524 0.437269
O O12 0.903955 0.500000 0.667559
O O13 0.915031 0.322821 0.733037
O O14 0.009623 0.398937 0.781692
O O15 0.585797 0.213959 0.056550
O O16 0.791992 0.652261 0.603517
O O17 0.851103 0.825079 0.692202
O O18 0.705252 0.500000 0.419582
#
# Coordination Sequence:
#
# PCOD8094612 Si02
#       8
#     8   8   8   8   8   8   8   8
#     4  10  19  38  62  87 122 161 210 250 306 364
#     4  11  22  35  59  93 123 156 207 260 304 366
#     4  11  21  40  62  83 121 163 202 247 307 368
#     4  11  20  39  63  89 121 164 196 255 317 360
#     4  12  25  40  62  93 127 163 203 255 319 373
#     4  11  22  40  62  84 121 169 204 241 308 374
#     4  10  23  40  60  90 131 161 202 259 311 360
#     4  10  20  37  65  94 120 162 212 257 303 362
#
# _framework density 20.432503000000001
#
# number of rings (size 3 to 8) (size 9 to 14) (size 15 to 20)
#    0.000    1.250    5.000    2.250    0.000    3.750 
#    0.000    1.250    0.000    2.250    0.000    0.000 
#    0.000    0.000    0.000    0.000    0.000    0.000 
#
# Total GULP energy -396500.418316 kJ/mol
# GULP energy per Si atom -12390.638072 kJ/mol
# Density = 2.038600 g / cm^3
# Si number density = 20.432503 Si / 1000 Ang^3
#
#
#
# Elastic Constant Matrix: (Units=GPa)
#
#
# Indices 1 2 3 4 5 6 
#
# 1 70.2019 18.3034 17.3384 0.0000 -13.0315 0.0000
# 2 18.3034 126.0959 9.4130 0.0000 -7.3168 0.0000
# 3 17.3384 9.4130 69.9458 0.0000 -14.5237 0.0000
# 4 0.0000 0.0000 0.0000 17.2035 0.0000 -1.2349
# 5 -13.0315 -7.3168 -14.5237 0.0000 33.4787 0.0000
# 6 0.0000 0.0000 0.0000 -1.2349 0.0000 11.2737
#
#
#
# Elastic Compliance Matrix: (Units=1/GPa)
#
#
# Indices 1 2 3 4 5 6 
#
# 1 0.016305 -0.001883 -0.002809 0.000000 0.004716 0.000000
# 2 -0.001883 0.008290 -0.000467 0.000000 0.000876 0.000000
# 3 -0.002809 -0.000467 0.016274 0.000000 0.005864 0.000000
# 4 0.000000 0.000000 0.000000 0.058588 0.000000 0.006418
# 5 0.004716 0.000876 0.005864 0.000000 0.034441 0.000000
# 6 0.000000 0.000000 0.000000 0.006418 0.000000 0.089405
#
#
# Mechanical properties :
#
#
# Convention : Reuss Voigt Hill
#
# Bulk Modulus (GPa) = 32.73336 39.59480 36.16408
# Shear Modulus (GPa) = 20.50829 27.13710 23.82269
#
# Velocity S-wave (km/s) = 3.17157 3.64831 3.41826
# Velocity P-wave (km/s) = 5.42834 6.09650 5.77210
#
# Compressibility (1/GPa) = 0.03054987
#
# Stress axis : x y z
#
# Youngs Moduli (GPa) = 61.33109 120.63405 61.44921
#
# Poissons Ratio (x) = 0.22720 0.17261
# Poissons Ratio (y) = 0.11551 0.02868
# Poissons Ratio (z) = 0.17227 0.05631
#
# Static dielectric constant tensor:
#      x y z
#    x 3.748930 0.000000 -0.093470 
#    y 0.000000 3.625950 0.000000 
#    z -0.093470 0.000000 3.717000 
# 
# 
# High freq. dielectric constant tensor:
#      x y z
#    x 1.798570 0.000000 -0.010330 
#    y 0.000000 1.784370 0.000000 
#    z -0.010330 0.000000 1.793950 
# 
# From -- ./inp_files/183844.got.cif
#   From: 2010.06.25/outbox.cif.g09.slc.cpg/sg12_92_cif.got.tgz:183844.got - 2010.06.28 00:19:55.
