data_PCOD8094150
_publ_section_title
;
Structure prediction by ZEFSAII (Michael W. Deem and Ramdas Pophale) SiO2 
 PCOD8094150
Probable space group: C 2/M
;
_chemical_formula_sum "Si O2"
_cell_formula_units_Z 40
_cell_length_a 9.610299
_cell_length_b 16.596261
_cell_length_c 11.345379
_cell_angle_alpha 90.000000
_cell_angle_beta 75.540233
_cell_angle_gamma 90.000000
_cell_volume 1752.211433
_symmetry_space_group_name_H-M "C 2/M"
_symmetry_group_IT_number 12
_symmetry_cell_setting 'monoclinic'
loop_
_space_group_symop_operation_xyz
x,y,z
-x,y,-z
-x,-y,-z
x,-y,z
1/2+x,1/2+y,z
1/2-x,1/2+y,-z
1/2-x,1/2-y,-z
1/2+x,1/2-y,z
loop_
_atom_site_type_symbol
_atom_site_label
_atom_site_fract_x
_atom_site_fract_y
_atom_site_fract_z
Si Si1 0.411033 0.679819 0.852600
Si Si2 0.125675 0.091815 0.379156
Si Si3 0.809539 0.089716 0.211561
Si Si4 0.658599 0.904866 0.472818
Si Si5 0.870531 0.642928 0.948082
O O1 0.401171 0.656810 0.716984
O O2 0.560370 0.642560 0.870798
O O3 0.421151 0.773983 0.877616
O O4 0.268739 0.645651 0.941059
O O5 0.273305 0.115327 0.414659
O O6 0.000000 0.097531 0.500000
O O7 0.133917 0.000000 0.327259
O O8 0.757452 0.129361 0.345738
O O9 0.673934 0.085801 0.150959
O O10 0.869225 0.000000 0.220281
O O11 0.500000 0.865805 0.500000
O O12 0.648902 0.000000 0.453446
O O13 0.000000 0.607067 0.000000
#
# Coordination Sequence:
#
# PCOD8094150 Si02
#       5
#     8   8   8   8   8
#     4  11  22  42  67  92 132 183 219 268 341 407
#     4  10  19  36  66 102 133 168 221 278 334 404
#     4  11  23  43  71 100 131 176 233 279 333 407
#     4   9  19  36  60  96 138 169 202 273 346 390
#     4  11  26  44  63  91 134 178 225 285 339 384
#
# _framework density 22.828296000000002
#
# number of rings (size 3 to 8) (size 9 to 14) (size 15 to 20)
#    0.000    1.600    2.000    3.600    2.800    2.800 
#    0.000    2.000    0.000    0.000    0.000    0.000 
#    0.000    0.000    0.000    0.000    0.000    0.000 
#
# Total GULP energy -247930.135967 kJ/mol
# GULP energy per Si atom -12396.506798 kJ/mol
# Density = 2.277634 g / cm^3
# Si number density = 22.828296 Si / 1000 Ang^3
#
#
#
# Elastic Constant Matrix: (Units=GPa)
#
#
# Indices 1 2 3 4 5 6 
#
# 1 166.5032 24.1135 40.8268 0.0000 15.5414 0.0000
# 2 24.1135 41.7318 26.6921 0.0000 -11.4890 0.0000
# 3 40.8268 26.6921 91.6722 0.0000 11.5385 0.0000
# 4 0.0000 0.0000 0.0000 33.1136 0.0000 1.2623
# 5 15.5414 -11.4890 11.5385 0.0000 48.3873 0.0000
# 6 0.0000 0.0000 0.0000 1.2623 0.0000 31.2953
#
#
#
# Elastic Compliance Matrix: (Units=1/GPa)
#
#
# Indices 1 2 3 4 5 6 
#
# 1 0.007258 -0.003849 -0.001756 0.000000 -0.002826 0.000000
# 2 -0.003849 0.036214 -0.010380 0.000000 0.012310 0.000000
# 3 -0.001756 -0.010380 0.015415 0.000000 -0.005576 0.000000
# 4 0.000000 0.000000 0.000000 0.030246 0.000000 -0.001220
# 5 -0.002826 0.012310 -0.005576 0.000000 0.025827 0.000000
# 6 0.000000 0.000000 0.000000 -0.001220 0.000000 0.032003
#
#
# Mechanical properties :
#
#
# Convention : Reuss Voigt Hill
#
# Bulk Modulus (GPa) = 37.15010 53.68578 45.41794
# Shear Modulus (GPa) = 26.60937 36.44421 31.52679
#
# Velocity S-wave (km/s) = 3.41784 3.99989 3.72027
# Velocity P-wave (km/s) = 5.64664 6.70078 6.19617
#
# Compressibility (1/GPa) = 0.02691783
#
# Stress axis : x y z
#
# Youngs Moduli (GPa) = 137.78672 27.61326 64.87325
#
# Poissons Ratio (x) = 0.10627 0.11391
# Poissons Ratio (y) = 0.53028 0.67338
# Poissons Ratio (z) = 0.24194 0.28663
#
# Static dielectric constant tensor:
#      x y z
#    x 4.554860 0.000000 0.165570 
#    y 0.000000 3.641390 0.000000 
#    z 0.165570 0.000000 4.167260 
# 
# 
# High freq. dielectric constant tensor:
#      x y z
#    x 1.922570 0.000000 0.008670 
#    y 0.000000 1.856080 0.000000 
#    z 0.008670 0.000000 1.908910 
# 
# From -- ./inp_files/118895.got.cif
#   From: 2010.06.25/outbox.cif.g09.slc.cpg/sg12_60_cif.got.tgz:118895.got - 2010.06.28 00:19:55.
