data_PCOD8094981
_publ_section_title
;
Structure prediction by ZEFSAII (Michael W. Deem and Ramdas Pophale) SiO2 
 PCOD8094981
Probable space group: C 2/M
;
_chemical_formula_sum "Si O2"
_cell_formula_units_Z 48
_cell_length_a 19.407490
_cell_length_b 8.867961
_cell_length_c 29.845917
_cell_angle_alpha 90.000000
_cell_angle_beta 148.404294
_cell_angle_gamma 90.000000
_cell_volume 2691.192524
_symmetry_space_group_name_H-M "C 2/M"
_symmetry_group_IT_number 12
_symmetry_cell_setting 'monoclinic'
loop_
_space_group_symop_operation_xyz
x,y,z
-x,y,-z
-x,-y,-z
x,-y,z
1/2+x,1/2+y,z
1/2-x,1/2+y,-z
1/2-x,1/2-y,-z
1/2+x,1/2-y,z
loop_
_atom_site_type_symbol
_atom_site_label
_atom_site_fract_x
_atom_site_fract_y
_atom_site_fract_z
Si Si1 0.833329 0.671492 0.282392
Si Si2 0.882956 0.679930 0.213535
Si Si3 0.462897 0.672113 0.858650
Si Si4 0.624912 0.179867 0.597114
Si Si5 0.396569 0.822401 0.732131
Si Si6 0.392575 0.679437 0.975004
O O1 0.880303 0.500000 0.309148
O O2 0.891438 0.746403 0.269149
O O3 0.676308 0.684255 0.193189
O O4 0.886774 0.744976 0.358411
O O5 0.872682 0.500000 0.209560
O O6 0.751690 0.743259 0.116727
O O7 0.010939 0.732523 0.257317
O O8 0.486993 0.500000 0.856558
O O9 0.467035 0.777366 0.817473
O O10 0.572201 0.728639 0.954582
O O11 0.500000 0.237322 0.500000
O O12 0.756792 0.242576 0.647504
O O13 0.636225 0.000000 0.603663
O O14 0.375449 0.000000 0.719899
O O15 0.396345 0.500000 0.974134
O O16 0.500000 0.746852 0.000000
#
# Coordination Sequence:
#
# PCOD8094981 Si02
#       6
#     8   8   8   8   8   8
#     4   8  13  25  46  69  91 117 153 194 231 267
#     4   9  16  26  42  69  99 125 157 197 234 268
#     4   9  16  28  48  70  91 123 167 206 230 257
#     4   9  18  34  56  76  90 112 153 200 237 276
#     4  10  20  31  45  68 101 130 150 184 239 294
#     4   9  14  23  44  72  94 118 166 213 228 249
#
# _framework density 17.835958999999999
#
# number of rings (size 3 to 8) (size 9 to 14) (size 15 to 20)
#    0.000    3.000    1.667    1.500    0.000    1.000 
#    0.000    0.833    0.000    9.500    0.000    0.000 
#    0.000    0.000    0.000    0.000    0.000    0.000 
#
# Total GULP energy -297435.464400 kJ/mol
# GULP energy per Si atom -12393.144350 kJ/mol
# Density = 1.779536 g / cm^3
# Si number density = 17.835959 Si / 1000 Ang^3
#
#
#
# Elastic Constant Matrix: (Units=GPa)
#
#
# Indices 1 2 3 4 5 6 
#
# 1 144.6128 19.4135 79.4302 0.0000 0.1887 0.0001
# 2 19.4135 17.7088 16.2595 0.0000 1.4747 0.0003
# 3 79.4302 16.2595 149.1523 0.0000 -10.5737 0.0000
# 4 0.0000 0.0000 0.0000 15.9128 0.0000 1.1071
# 5 0.1887 1.4747 -10.5737 0.0000 21.9141 0.0000
# 6 0.0001 0.0003 0.0000 1.1071 0.0000 16.7969
#
#
#
# Elastic Compliance Matrix: (Units=1/GPa)
#
#
# Indices 1 2 3 4 5 6 
#
# 1 0.010608 -0.006818 -0.005053 0.000000 -0.002071 0.000000
# 2 -0.006818 0.068443 -0.004300 0.000000 -0.006622 -0.000001
# 3 -0.005053 -0.004300 0.010238 0.000000 0.005273 0.000000
# 4 0.000000 0.000000 0.000000 0.063132 0.000000 -0.004161
# 5 -0.002071 -0.006622 0.005273 0.000000 0.048640 0.000000
# 6 0.000000 -0.000001 0.000000 -0.004161 0.000000 0.059809
#
#
# Mechanical properties :
#
#
# Convention : Reuss Voigt Hill
#
# Bulk Modulus (GPa) = 17.55991 60.18669 38.87330
# Shear Modulus (GPa) = 16.01568 24.01613 20.01591
#
# Velocity S-wave (km/s) = 2.99982 3.67345 3.35359
# Velocity P-wave (km/s) = 4.67602 7.19793 6.06940
#
# Compressibility (1/GPa) = 0.05694792
#
# Stress axis : x y z
#
# Youngs Moduli (GPa) = 94.26512 14.61080 97.67494
#
# Poissons Ratio (x) = 0.09961 0.49355
# Poissons Ratio (y) = 0.64267 0.41999
# Poissons Ratio (z) = 0.47632 0.06282
#
# Static dielectric constant tensor:
#      x y z
#    x 3.496630 0.000000 -0.181070 
#    y 0.000000 2.777550 0.000000 
#    z -0.181070 0.000000 3.367390 
# 
# 
# High freq. dielectric constant tensor:
#      x y z
#    x 1.694310 0.000000 -0.012480 
#    y 0.000000 1.634160 0.000000 
#    z -0.012480 0.000000 1.683080 
# 
# From -- ./inp_files/274117.got.cif
#   From: 2010.06.25/outbox.cif.g09.slc.cpg/sg12_138_cif.got.tgz:274117.got - 2010.06.28 00:19:55.
