data_PCOD8094222
_publ_section_title
;
Structure prediction by ZEFSAII (Michael W. Deem and Ramdas Pophale) SiO2 
 PCOD8094222
Probable space group: C 2/M
;
_chemical_formula_sum "Si O2"
_cell_formula_units_Z 48
_cell_length_a 11.376257
_cell_length_b 14.187921
_cell_length_c 27.487459
_cell_angle_alpha 90.000000
_cell_angle_beta 146.934511
_cell_angle_gamma 90.000000
_cell_volume 2420.610685
_symmetry_space_group_name_H-M "C 2/M"
_symmetry_group_IT_number 12
_symmetry_cell_setting 'monoclinic'
loop_
_space_group_symop_operation_xyz
x,y,z
-x,y,-z
-x,-y,-z
x,-y,z
1/2+x,1/2+y,z
1/2-x,1/2+y,-z
1/2-x,1/2-y,-z
1/2+x,1/2-y,z
loop_
_atom_site_type_symbol
_atom_site_label
_atom_site_fract_x
_atom_site_fract_y
_atom_site_fract_z
Si Si1 0.155200 0.605367 0.625455
Si Si2 0.396980 0.311082 0.014257
Si Si3 0.311315 0.394162 0.571002
Si Si4 0.001341 0.397810 0.833191
Si Si5 0.317726 0.106310 0.206784
Si Si6 0.834822 0.748445 0.293221
O O1 0.204277 0.500000 0.661710
O O2 0.254233 0.618565 0.607262
O O3 0.263513 0.682358 0.698388
O O4 0.897491 0.621975 0.534781
O O5 0.236623 0.390900 0.938505
O O6 0.500000 0.261789 0.000000
O O7 0.250000 0.250000 0.000000
O O8 0.580114 0.359217 0.109779
O O9 0.402204 0.500000 0.593352
O O10 0.487405 0.315273 0.620058
O O11 0.905058 0.500000 0.814826
O O12 0.018547 0.391576 0.781099
O O13 0.844477 0.313635 0.795209
O O14 0.422302 0.176371 0.282840
O O15 0.300263 0.000000 0.221627
#
# Coordination Sequence:
#
# PCOD8094222 Si02
#       6
#     8   8   8   8   8   8
#     4   9  19  35  52  72 101 137 173 209 259 323
#     4  10  19  37  59  80 106 146 187 219 263 322
#     4   9  19  35  52  72 101 137 173 209 259 323
#     4  10  21  35  53  77 107 142 178 216 262 322
#     4  10  21  35  53  77 107 142 178 216 262 322
#     4  12  19  31  54  80 104 128 174 225 269 298
#
# _framework density 19.829706999999999
#
# number of rings (size 3 to 8) (size 9 to 14) (size 15 to 20)
#    0.000    2.000    1.667    4.000    0.000    2.000 
#    0.000    0.000    0.000    4.000    0.000   14.000 
#    0.000    0.000    0.000    0.000    0.000    0.000 
#
# Total GULP energy -297390.366250 kJ/mol
# GULP energy per Si atom -12391.265260 kJ/mol
# Density = 1.978457 g / cm^3
# Si number density = 19.829707 Si / 1000 Ang^3
#
#
#
# Elastic Constant Matrix: (Units=GPa)
#
#
# Indices 1 2 3 4 5 6 
#
# 1 57.5223 32.8514 -6.6371 0.0000 -3.4807 0.0000
# 2 32.8514 132.1182 19.8938 0.0000 -4.5699 0.0000
# 3 -6.6371 19.8938 31.0283 0.0001 -0.3576 0.0000
# 4 0.0000 0.0000 0.0001 24.9192 0.0000 0.1918
# 5 -3.4807 -4.5699 -0.3576 0.0000 26.8115 0.0000
# 6 0.0000 0.0000 0.0000 0.1918 0.0000 25.3456
#
#
#
# Elastic Compliance Matrix: (Units=1/GPa)
#
#
# Indices 1 2 3 4 5 6 
#
# 1 0.022531 -0.006936 0.009288 0.000000 0.001867 0.000000
# 2 -0.006936 0.010563 -0.008247 0.000000 0.000790 0.000000
# 3 0.009288 -0.008247 0.039507 0.000000 0.000327 0.000000
# 4 0.000000 0.000000 0.000000 0.040132 0.000000 -0.000304
# 5 0.001867 0.000790 0.000327 0.000000 0.037679 0.000000
# 6 0.000000 0.000000 0.000000 -0.000304 0.000000 0.039457
#
#
# Mechanical properties :
#
#
# Convention : Reuss Voigt Hill
#
# Bulk Modulus (GPa) = 16.44473 34.76501 25.60487
# Shear Modulus (GPa) = 22.52985 27.05264 24.79124
#
# Velocity S-wave (km/s) = 3.37436 3.69758 3.53966
# Velocity P-wave (km/s) = 4.84693 5.98325 5.44482
#
# Compressibility (1/GPa) = 0.06080976
#
# Stress axis : x y z
#
# Youngs Moduli (GPa) = 44.38426 94.67194 25.31217
#
# Poissons Ratio (x) = 0.65667 -0.23510
# Poissons Ratio (y) = 0.30786 0.20875
# Poissons Ratio (z) = -0.41224 0.78075
#
# Static dielectric constant tensor:
#      x y z
#    x 3.454010 0.000000 -0.035710 
#    y 0.000000 3.768000 0.000000 
#    z -0.035710 0.000000 3.571950 
# 
# 
# High freq. dielectric constant tensor:
#      x y z
#    x 1.751880 0.000000 -0.004830 
#    y 0.000000 1.781290 0.000000 
#    z -0.004830 0.000000 1.766300 
# 
# From -- ./inp_files/204445.got.cif
#   From: 2010.06.25/outbox.cif.g09.slc.cpg/sg12_103_cif.got.tgz:204445.got - 2010.06.28 00:19:55.
