data_PCOD8094912
_publ_section_title
;
Structure prediction by ZEFSAII (Michael W. Deem and Ramdas Pophale) SiO2 
 PCOD8094912
Probable space group: C 2/M
;
_chemical_formula_sum "Si O2"
_cell_formula_units_Z 64
_cell_length_a 25.001135
_cell_length_b 8.945839
_cell_length_c 16.689032
_cell_angle_alpha 90.000000
_cell_angle_beta 76.176239
_cell_angle_gamma 90.000000
_cell_volume 3624.490428
_symmetry_space_group_name_H-M "C 2/M"
_symmetry_group_IT_number 12
_symmetry_cell_setting 'monoclinic'
loop_
_space_group_symop_operation_xyz
x,y,z
-x,y,-z
-x,-y,-z
x,-y,z
1/2+x,1/2+y,z
1/2-x,1/2+y,-z
1/2-x,1/2-y,-z
1/2+x,1/2-y,z
loop_
_atom_site_type_symbol
_atom_site_label
_atom_site_fract_x
_atom_site_fract_y
_atom_site_fract_z
Si Si1 0.720095 0.821654 0.826633
Si Si2 0.448395 0.323617 0.344554
Si Si3 0.564589 0.175162 0.318608
Si Si4 0.880767 0.175912 0.214641
Si Si5 0.170755 0.677494 0.181174
Si Si6 0.565151 0.664262 0.477153
Si Si7 0.941688 0.327685 0.052762
Si Si8 0.163723 0.328512 0.006004
O O1 0.677194 0.760623 0.776177
O O2 0.780398 0.756624 0.786438
O O3 0.719315 0.000000 0.822805
O O4 0.701518 0.760275 0.921485
O O5 0.459383 0.500000 0.340933
O O6 0.507834 0.248654 0.309960
O O7 0.405960 0.275831 0.290867
O O8 0.419913 0.274386 0.439180
O O9 0.612395 0.222656 0.239981
O O10 0.584500 0.225249 0.400130
O O11 0.555165 0.000000 0.323458
O O12 0.924845 0.223962 0.132363
O O13 0.870327 0.000000 0.212949
O O14 0.178936 0.500000 0.181403
O O15 0.173051 0.744800 0.089761
O O16 0.500000 0.649846 0.500000
O O17 0.591501 0.500000 0.452957
O O18 0.943225 0.500000 0.081414
O O19 0.899968 0.308170 0.994037
O O20 0.000000 0.271859 0.000000
O O21 0.179692 0.500000 0.008469
#
# Coordination Sequence:
#
# PCOD8094912 Si02
#       8
#     8   8   8   8   8   8   8   8
#     4  10  20  35  53  72  95 128 173 212 249 292
#     4   9  19  34  52  74 101 135 167 198 242 302
#     4  10  20  30  48  79 107 130 161 203 250 295
#     4  10  20  34  52  73  99 129 167 209 248 293
#     4  10  20  33  50  72 101 132 164 205 251 293
#     4   8  15  31  51  69  98 135 164 194 243 300
#     4   9  18  31  49  70 100 136 167 201 245 293
#     4   8  16  31  48  69  95 128 168 203 240 289
#
# _framework density 17.657654000000001
#
# number of rings (size 3 to 8) (size 9 to 14) (size 15 to 20)
#    0.000    2.750    0.000    3.000    1.750    4.500 
#    0.000    2.500    0.000    0.750    0.000    0.000 
#    0.000    0.000    0.000    0.000    0.000    0.000 
#
# Total GULP energy -396666.573538 kJ/mol
# GULP energy per Si atom -12395.830423 kJ/mol
# Density = 1.761746 g / cm^3
# Si number density = 17.657654 Si / 1000 Ang^3
#
#
#
# Elastic Constant Matrix: (Units=GPa)
#
#
# Indices 1 2 3 4 5 6 
#
# 1 90.3958 38.5106 49.7137 0.0000 12.2707 0.0000
# 2 38.5106 52.8711 35.3851 0.0000 3.6563 0.0000
# 3 49.7137 35.3851 96.4534 0.0000 23.4720 0.0000
# 4 0.0000 0.0000 0.0000 24.8729 0.0000 -0.3796
# 5 12.2707 3.6563 23.4720 0.0000 22.3837 0.0000
# 6 0.0000 0.0000 0.0000 -0.3796 0.0000 25.2814
#
#
#
# Elastic Compliance Matrix: (Units=1/GPa)
#
#
# Indices 1 2 3 4 5 6 
#
# 1 0.018512 -0.009793 -0.005194 0.000000 -0.003102 0.000000
# 2 -0.009793 0.031211 -0.008684 0.000000 0.009377 0.000000
# 3 -0.005194 -0.008684 0.020398 0.000000 -0.017124 0.000000
# 4 0.000000 0.000000 0.000000 0.040214 0.000000 0.000604
# 5 -0.003102 0.009377 -0.017124 0.000000 0.062801 0.000000
# 6 0.000000 0.000000 0.000000 0.000604 0.000000 0.039564
#
#
# Mechanical properties :
#
#
# Convention : Reuss Voigt Hill
#
# Bulk Modulus (GPa) = 43.90229 54.10435 49.00332
# Shear Modulus (GPa) = 18.68219 22.24832 20.46525
#
# Velocity S-wave (km/s) = 3.25625 3.55347 3.40810
# Velocity P-wave (km/s) = 6.24937 6.89518 6.58020
#
# Compressibility (1/GPa) = 0.02277785
#
# Stress axis : x y z
#
# Youngs Moduli (GPa) = 54.01875 32.03985 49.02532
#
# Poissons Ratio (x) = 0.31378 0.25462
# Poissons Ratio (y) = 0.52903 0.42576
# Poissons Ratio (z) = 0.28055 0.27825
#
# Static dielectric constant tensor:
#      x y z
#    x 3.208880 0.000000 0.158500 
#    y 0.000000 3.137890 0.000000 
#    z 0.158500 0.000000 3.682260 
# 
# 
# High freq. dielectric constant tensor:
#      x y z
#    x 1.670950 0.000000 0.009830 
#    y 0.000000 1.672410 0.000000 
#    z 0.009830 0.000000 1.675950 
# 
# From -- ./inp_files/243910.got.cif
#   From: 2010.06.25/outbox.cif.g09.slc.cpg/sg12_122_cif.got.tgz:243910.got - 2010.06.28 00:19:55.
