data_PCOD8094279
_publ_section_title
;
Structure prediction by ZEFSAII (Michael W. Deem and Ramdas Pophale) SiO2 
 PCOD8094279
Probable space group: C 2/M
;
_chemical_formula_sum "Si O2"
_cell_formula_units_Z 48
_cell_length_a 11.083006
_cell_length_b 20.782489
_cell_length_c 10.977947
_cell_angle_alpha 90.000000
_cell_angle_beta 76.469729
_cell_angle_gamma 90.000000
_cell_volume 2458.400428
_symmetry_space_group_name_H-M "C 2/M"
_symmetry_group_IT_number 12
_symmetry_cell_setting 'monoclinic'
loop_
_space_group_symop_operation_xyz
x,y,z
-x,y,-z
-x,-y,-z
x,-y,z
1/2+x,1/2+y,z
1/2-x,1/2+y,-z
1/2-x,1/2-y,-z
1/2+x,1/2-y,z
loop_
_atom_site_type_symbol
_atom_site_label
_atom_site_fract_x
_atom_site_fract_y
_atom_site_fract_z
Si Si1 0.864288 0.667866 0.502871
Si Si2 0.402391 0.608365 0.700480
Si Si3 0.249525 0.727137 0.692837
Si Si4 0.341964 0.426993 0.448504
Si Si5 0.150754 0.791595 0.945893
Si Si6 0.365574 0.431196 0.975876
O O1 0.846620 0.684926 0.364466
O O2 0.836271 0.731428 0.585488
O O3 0.782047 0.607756 0.564854
O O4 0.000000 0.643530 0.500000
O O5 0.344812 0.678980 0.737726
O O6 0.549563 0.613708 0.642401
O O7 0.348102 0.573341 0.593970
O O8 0.372702 0.568398 0.827813
O O9 0.171989 0.771785 0.801701
O O10 0.345112 0.500000 0.400558
O O11 0.250000 0.750000 0.000000
O O12 0.195163 0.865706 0.957122
O O13 0.000000 0.781928 0.000000
O O14 0.297881 0.500000 0.026262
O O15 0.500000 0.433653 0.000000
#
# Coordination Sequence:
#
# PCOD8094279 Si02
#       6
#     8   8   8   8   8   8
#     4  10  24  36  58  86 119 160 191 253 300 361
#     4  10  19  37  60  86 115 150 200 252 291 347
#     4  10  23  39  59  87 120 152 206 246 303 358
#     4  10  21  36  60  88 115 155 198 245 302 355
#     4  11  24  40  63  91 122 163 204 256 306 367
#     4  10  21  35  56  87 121 154 195 248 305 356
#
# _framework density 19.524889999999999
#
# number of rings (size 3 to 8) (size 9 to 14) (size 15 to 20)
#    0.000    1.833    1.667    2.000   14.000    0.333 
#    0.000    0.000    0.000    0.500    0.000    0.000 
#    0.000    0.000    0.000    0.000    0.000    0.000 
#
# Total GULP energy -297344.743560 kJ/mol
# GULP energy per Si atom -12389.364315 kJ/mol
# Density = 1.948045 g / cm^3
# Si number density = 19.524890 Si / 1000 Ang^3
#
#
#
# Elastic Constant Matrix: (Units=GPa)
#
#
# Indices 1 2 3 4 5 6 
#
# 1 122.7557 55.8393 16.7154 0.0000 -8.0478 0.0000
# 2 55.8393 154.6047 44.3417 0.0000 -6.3341 0.0000
# 3 16.7154 44.3417 69.5343 0.0000 -6.6573 0.0000
# 4 0.0000 0.0000 0.0000 50.0706 0.0000 59.5858
# 5 -8.0478 -6.3341 -6.6573 0.0000 19.3110 0.0000
# 6 0.0000 0.0000 0.0000 59.5858 0.0000 164.0902
#
#
#
# Elastic Compliance Matrix: (Units=1/GPa)
#
#
# Indices 1 2 3 4 5 6 
#
# 1 0.009917 -0.003497 0.000136 0.000000 0.003033 0.000000
# 2 -0.003497 0.009163 -0.005020 0.000000 -0.000182 0.000000
# 3 0.000136 -0.005020 0.017992 0.000000 0.004613 0.000000
# 4 0.000000 0.000000 0.000000 0.035170 0.000000 -0.012771
# 5 0.003033 -0.000182 0.004613 0.000000 0.054578 0.000000
# 6 0.000000 0.000000 0.000000 -0.012771 0.000000 0.010732
#
#
# Mechanical properties :
#
#
# Convention : Reuss Voigt Hill
#
# Bulk Modulus (GPa) = 49.23527 64.52083 56.87805
# Shear Modulus (GPa) = 31.03971 62.02760 46.53366
#
# Velocity S-wave (km/s) = 3.99149 5.64247 4.88720
# Velocity P-wave (km/s) = 6.82013 8.69293 7.81285
#
# Compressibility (1/GPa) = 0.02031064
#
# Stress axis : x y z
#
# Youngs Moduli (GPa) = 100.83594 109.12988 55.58111
#
# Poissons Ratio (x) = 0.38158 -0.00757
# Poissons Ratio (y) = 0.35258 0.27904
# Poissons Ratio (z) = -0.01373 0.54787
#
# Static dielectric constant tensor:
#      x y z
#    x 3.452240 0.000000 0.144270 
#    y 0.000000 4.128190 0.000000 
#    z 0.144270 0.000000 3.482090 
# 
# 
# High freq. dielectric constant tensor:
#      x y z
#    x 1.738730 0.000000 0.022090 
#    y 0.000000 1.771320 0.000000 
#    z 0.022090 0.000000 1.755580 
# 
# From -- ./inp_files/132425.got.cif
#   From: 2010.06.25/outbox.cif.g09.slc.cpg/sg12_67_cif.got.tgz:132425.got - 2010.06.28 00:19:55.
