data_PCOD8094448
_publ_section_title
;
Structure prediction by ZEFSAII (Michael W. Deem and Ramdas Pophale) SiO2 
 PCOD8094448
Probable space group: C 2/M
;
_chemical_formula_sum "Si O2"
_cell_formula_units_Z 64
_cell_length_a 28.613791
_cell_length_b 17.250550
_cell_length_c 8.977458
_cell_angle_alpha 90.000000
_cell_angle_beta 44.878473
_cell_angle_gamma 90.000000
_cell_volume 3126.753292
_symmetry_space_group_name_H-M "C 2/M"
_symmetry_group_IT_number 12
_symmetry_cell_setting 'monoclinic'
loop_
_space_group_symop_operation_xyz
x,y,z
-x,y,-z
-x,-y,-z
x,-y,z
1/2+x,1/2+y,z
1/2-x,1/2+y,-z
1/2-x,1/2-y,-z
1/2+x,1/2-y,z
loop_
_atom_site_type_symbol
_atom_site_label
_atom_site_fract_x
_atom_site_fract_y
_atom_site_fract_z
Si Si1 0.194442 0.121876 0.257046
Si Si2 0.013282 0.761884 0.806955
Si Si3 0.915383 0.914677 0.280289
Si Si4 0.257519 0.916027 0.830570
Si Si5 0.799044 0.410418 0.241199
Si Si6 0.359187 0.783604 0.658313
Si Si7 0.622915 0.224598 0.026529
Si Si8 0.809343 0.860035 0.292426
O O1 0.135200 0.076208 0.468533
O O2 0.264901 0.090760 0.156612
O O3 0.185864 0.213655 0.300171
O O4 0.196879 0.105017 0.076993
O O5 0.028313 0.853322 0.800868
O O6 0.072152 0.717909 0.588359
O O7 0.949850 0.755170 0.845391
O O8 0.000000 0.723507 0.000000
O O9 0.877248 0.887517 0.217039
O O10 0.946789 0.000000 0.183301
O O11 0.320326 0.859786 0.697952
O O12 0.220073 0.920335 0.758308
O O13 0.287824 0.000000 0.795139
O O14 0.811605 0.500000 0.265255
O O15 0.748975 0.358686 0.453729
O O16 0.867136 0.361872 0.066973
O O17 0.369862 0.777039 0.811313
O O18 0.677665 0.279237 0.823030
#
# Coordination Sequence:
#
# PCOD8094448 Si02
#       8
#     8   8   8   8   8   8   8   8
#     4  10  19  37  63  90 126 159 195 239 313 384
#     4  11  25  44  64  88 112 169 220 255 291 361
#     4  10  21  41  64  92 125 159 200 253 305 363
#     4  12  22  36  62  98 129 156 195 252 318 372
#     4  11  23  39  62  95 127 158 202 255 308 365
#     4  11  24  41  63  88 126 164 207 258 302 364
#     4  12  23  42  64  88 122 170 211 251 302 362
#     4  11  22  38  61  97 129 159 192 246 312 378
#
# _framework density 20.468515
#
# number of rings (size 3 to 8) (size 9 to 14) (size 15 to 20)
#    0.000    1.000    3.750    4.875    1.750    0.250 
#    0.000    0.625    0.000    3.750    0.000    0.000 
#    0.000    0.000    0.000    0.000    0.000    0.000 
#
# Total GULP energy -396551.728738 kJ/mol
# GULP energy per Si atom -12392.241523 kJ/mol
# Density = 2.042193 g / cm^3
# Si number density = 20.468515 Si / 1000 Ang^3
#
#
#
# Elastic Constant Matrix: (Units=GPa)
#
#
# Indices 1 2 3 4 5 6 
#
# 1 97.1598 41.9252 41.1631 0.0000 -5.8417 0.0000
# 2 41.9252 136.1051 59.3510 0.0000 -14.2801 0.0000
# 3 41.1631 59.3510 111.9952 0.0000 1.7245 0.0000
# 4 0.0000 0.0000 0.0000 6.7992 0.0000 6.1083
# 5 -5.8417 -14.2801 1.7245 0.0000 23.2982 0.0000
# 6 0.0000 0.0000 0.0000 6.1083 0.0000 1.2470
#
#
#
# Elastic Compliance Matrix: (Units=1/GPa)
#
#
# Indices 1 2 3 4 5 6 
#
# 1 0.012892 -0.002162 -0.003626 0.000000 0.002176 0.000000
# 2 -0.002162 0.010918 -0.005092 0.000000 0.006527 0.000000
# 3 -0.003626 -0.005092 0.013037 0.000000 -0.004995 0.000000
# 4 0.000000 0.000000 0.000000 -0.043251 0.000000 0.211857
# 5 0.002176 0.006527 -0.004995 0.000000 0.047838 0.000000
# 6 0.000000 0.000000 0.000000 0.211857 0.000000 -0.235822
#
#
# Mechanical properties :
#
#
# Convention : Reuss Voigt Hill
#
# Bulk Modulus (GPa) = 66.27956 70.01543 68.14749
# Shear Modulus (GPa) = -29.83332 19.79027 -5.02152
#
# Velocity S-wave (km/s) = -3.82189 3.11282 -1.56800
# Velocity P-wave (km/s) = 3.60218 6.87024 5.48525
#
# Compressibility (1/GPa) = 0.01508761
#
# Stress axis : x y z
#
# Youngs Moduli (GPa) = 77.56568 91.58786 76.70283
#
# Poissons Ratio (x) = 0.19797 0.27816
# Poissons Ratio (y) = 0.16766 0.39059
# Poissons Ratio (z) = 0.28129 0.46638
#
# Static dielectric constant tensor:
#      x y z
#    x 3.577670 0.000000 0.197980 
#    y 0.000000 3.680760 0.000000 
#    z 0.197980 0.000000 3.946390 
# 
# 
# High freq. dielectric constant tensor:
#      x y z
#    x 1.784850 0.000000 0.017650 
#    y 0.000000 1.794850 0.000000 
#    z 0.017650 0.000000 1.814250 
# 
# From -- ./inp_files/111968.got.cif
#   From: 2010.06.25/outbox.cif.g09.slc.cpg/sg12_56_cif.got.tgz:111968.got - 2010.06.28 00:19:55.
