data_PCOD8094524
_publ_section_title
;
Structure prediction by ZEFSAII (Michael W. Deem and Ramdas Pophale) SiO2 
 PCOD8094524
Probable space group: C 2/M
;
_chemical_formula_sum "Si O2"
_cell_formula_units_Z 64
_cell_length_a 17.778394
_cell_length_b 29.100093
_cell_length_c 21.183522
_cell_angle_alpha 90.000000
_cell_angle_beta 159.793375
_cell_angle_gamma 90.000000
_cell_volume 3785.435454
_symmetry_space_group_name_H-M "C 2/M"
_symmetry_group_IT_number 12
_symmetry_cell_setting 'monoclinic'
loop_
_space_group_symop_operation_xyz
x,y,z
-x,y,-z
-x,-y,-z
x,-y,z
1/2+x,1/2+y,z
1/2-x,1/2+y,-z
1/2-x,1/2-y,-z
1/2+x,1/2-y,z
loop_
_atom_site_type_symbol
_atom_site_label
_atom_site_fract_x
_atom_site_fract_y
_atom_site_fract_z
Si Si1 0.123170 0.448879 0.183178
Si Si2 0.205714 0.677170 0.120189
Si Si3 0.423036 0.848893 0.687586
Si Si4 0.923574 0.787323 0.511127
Si Si5 0.250493 0.289907 0.552453
Si Si6 0.233578 0.801200 0.964378
Si Si7 0.317487 0.579289 0.212353
Si Si8 0.214427 0.551840 0.397832
O O1 0.184748 0.500000 0.210700
O O2 0.237998 0.416900 0.222447
O O3 0.217349 0.438060 0.325683
O O4 0.861142 0.443348 0.974599
O O5 0.358977 0.713432 0.275418
O O6 0.126682 0.696435 0.990463
O O7 0.350615 0.631998 0.218971
O O8 0.000000 0.664182 0.000000
O O9 0.245181 0.826394 0.596068
O O10 0.396564 0.830002 0.594832
O O11 0.414963 0.904656 0.675295
O O12 0.663079 0.835697 0.902697
O O13 0.833446 0.735008 0.449358
O O14 0.000000 0.797168 0.500000
O O15 0.250000 0.250000 0.500000
O O16 0.483026 0.312817 0.751232
O O17 0.250000 0.750000 0.000000
O O18 0.541397 0.551625 0.382599
O O19 0.116526 0.500000 0.334325
#
# Coordination Sequence:
#
# PCOD8094524 Si02
#       8
#     8   8   8   8   8   8   8   8
#     4  10  20  31  41  58  85 119 163 210 248 282
#     4  12  22  31  46  74  99 127 176 214 242 294
#     4  11  21  35  54  69 102 136 169 208 253 297
#     4  11  21  33  50  74 103 128 163 212 252 294
#     4  10  19  38  51  73  97 126 170 208 248 313
#     4  12  20  34  54  70  93 133 168 202 260 307
#     4  11  19  32  45  59  89 127 165 206 255 278
#     4  11  22  33  48  69  92 127 174 214 248 286
#
# _framework density 16.906905999999999
#
# number of rings (size 3 to 8) (size 9 to 14) (size 15 to 20)
#    0.000    1.000    7.500    3.375    1.750    1.000 
#    0.000    0.000    0.000    0.000    0.000    0.000 
#    0.000    0.500    0.000    1.125    0.000    0.000 
#
# Total GULP energy -396502.931928 kJ/mol
# GULP energy per Si atom -12390.716623 kJ/mol
# Density = 1.686842 g / cm^3
# Si number density = 16.906906 Si / 1000 Ang^3
#
#
#
# Elastic Constant Matrix: (Units=GPa)
#
#
# Indices 1 2 3 4 5 6 
#
# 1 31.8544 23.8584 3.3796 -0.0048 -7.5375 0.0007
# 2 23.8584 107.6292 23.8317 0.0018 -4.7025 -0.0003
# 3 3.3796 23.8317 96.4011 0.0481 -9.9908 0.0087
# 4 -0.0048 0.0018 0.0481 25.1647 -0.0039 0.0126
# 5 -7.5375 -4.7025 -9.9908 -0.0039 17.5840 -0.0013
# 6 0.0007 -0.0003 0.0087 0.0126 -0.0013 20.8557
#
#
#
# Elastic Compliance Matrix: (Units=1/GPa)
#
#
# Indices 1 2 3 4 5 6 
#
# 1 0.041982 -0.009127 0.002547 0.000006 0.017002 -0.000002
# 2 -0.009127 0.011843 -0.002853 0.000003 -0.002366 0.000002
# 3 0.002547 -0.002853 0.011713 -0.000021 0.006984 -0.000005
# 4 0.000006 0.000003 -0.000021 0.039738 0.000000 -0.000024
# 5 0.017002 -0.002366 0.006984 0.000000 0.067493 0.000001
# 6 -0.000002 0.000002 -0.000005 -0.000024 0.000001 0.047948
#
#
# Mechanical properties :
#
#
# Convention : Reuss Voigt Hill
#
# Bulk Modulus (GPa) = 21.42682 37.55823 29.49253
# Shear Modulus (GPa) = 19.59700 25.04189 22.31944
#
# Velocity S-wave (km/s) = 3.40827 3.85276 3.63731
# Velocity P-wave (km/s) = 5.30936 6.48496 5.92638
#
# Compressibility (1/GPa) = 0.04667047
#
# Stress axis : x y z
#
# Youngs Moduli (GPa) = 23.81986 84.43989 85.37431
#
# Poissons Ratio (x) = 0.77070 -0.21742
# Poissons Ratio (y) = 0.21741 0.24357
# Poissons Ratio (z) = -0.06066 0.24090
#
# Static dielectric constant tensor:
#      x y z
#    x 3.014810 -0.000010 -0.252040 
#    y -0.000010 3.294430 -0.000040 
#    z -0.252040 -0.000040 3.634690 
# 
# 
# High freq. dielectric constant tensor:
#      x y z
#    x 1.589110 0.000000 -0.028780 
#    y 0.000000 1.645150 0.000000 
#    z -0.028780 0.000000 1.671190 
# 
# From -- ./inp_files/318659.got.cif
#   From: 2010.06.25/outbox.cif.g09.slc.cpg/sg12_160_cif.got.tgz:318659.got - 2010.06.28 00:19:55.
