data_PCOD8094576
_publ_section_title
;
Structure prediction by ZEFSAII (Michael W. Deem and Ramdas Pophale) SiO2 
 PCOD8094576
Probable space group: C 2/M
;
_chemical_formula_sum "Si O2"
_cell_formula_units_Z 56
_cell_length_a 9.172670
_cell_length_b 32.397477
_cell_length_c 20.484692
_cell_angle_alpha 90.000000
_cell_angle_beta 28.680332
_cell_angle_gamma 90.000000
_cell_volume 2921.510098
_symmetry_space_group_name_H-M "C 2/M"
_symmetry_group_IT_number 12
_symmetry_cell_setting 'monoclinic'
loop_
_space_group_symop_operation_xyz
x,y,z
-x,y,-z
-x,-y,-z
x,-y,z
1/2+x,1/2+y,z
1/2-x,1/2+y,-z
1/2-x,1/2-y,-z
1/2+x,1/2-y,z
loop_
_atom_site_type_symbol
_atom_site_label
_atom_site_fract_x
_atom_site_fract_y
_atom_site_fract_z
Si Si1 0.527124 0.294164 0.156658
Si Si2 0.881213 0.079865 0.475104
Si Si3 0.811927 0.000000 0.416511
Si Si4 0.825177 0.626860 0.742586
Si Si5 0.650412 0.213094 0.837325
Si Si6 0.903490 0.636584 0.226529
Si Si7 0.042132 0.500000 0.906589
Si Si8 0.345076 0.425273 0.995165
O O1 0.345973 0.336867 0.227690
O O2 0.324467 0.256700 0.209373
O O3 0.605940 0.285751 0.200782
O O4 0.819993 0.296888 0.995702
O O5 0.590187 0.109587 0.592744
O O6 0.000000 0.067334 0.500000
O O7 0.135588 0.103811 0.335310
O O8 0.805803 0.039164 0.465482
O O9 0.500000 0.000000 0.500000
O O10 0.104830 0.000000 0.253481
O O11 0.959455 0.646290 0.756249
O O12 0.605740 0.587524 0.841568
O O13 0.725349 0.178059 0.754952
O O14 0.165879 0.617064 0.078949
O O15 0.878456 0.459501 0.944277
O O16 0.000000 0.500000 0.000000
O O17 0.500000 0.442908 0.000000
#
# Coordination Sequence:
#
# PCOD8094576 Si02
#       8
#     8   8   4   8   8   8   4   8
#     4  10  20  34  54  89 118 158 192 243 292 352
#     4  10  23  43  65  85 116 161 202 244 297 361
#     4  12  27  44  60  86 124 164 201 246 302 360
#     4  10  21  36  62  89 117 146 202 242 297 357
#     4  10  20  33  57  84 124 154 194 239 298 347
#     4  10  19  38  60  87 114 157 193 247 294 353
#     4  12  27  42  60  90 126 156 199 254 304 352
#     4  10  21  39  64  88 116 155 200 251 303 354
#
# _framework density 19.168168999999999
#
# number of rings (size 3 to 8) (size 9 to 14) (size 15 to 20)
#    0.000    1.714    2.857    1.286    2.000    3.429 
#    0.000    0.714    0.000    0.000    0.000    0.000 
#    0.000    0.000    0.000    0.000    0.000    0.000 
#
# Total GULP energy -347271.011129 kJ/mol
# GULP energy per Si atom -12402.536112 kJ/mol
# Density = 1.912454 g / cm^3
# Si number density = 19.168169 Si / 1000 Ang^3
#
#
#
# Elastic Constant Matrix: (Units=GPa)
#
#
# Indices 1 2 3 4 5 6 
#
# 1 124.2846 80.3367 48.1527 0.0005 -9.5531 -0.0001
# 2 80.3367 108.8689 21.6118 -0.0005 -7.1362 0.0004
# 3 48.1527 21.6118 63.7532 -0.0038 -9.0459 0.0053
# 4 0.0005 -0.0005 -0.0038 13.0476 0.0002 -12.1660
# 5 -9.5531 -7.1362 -9.0459 0.0002 25.9799 0.0002
# 6 -0.0001 0.0004 0.0053 -12.1660 0.0002 31.5174
#
#
#
# Elastic Compliance Matrix: (Units=1/GPa)
#
#
# Indices 1 2 3 4 5 6 
#
# 1 0.021026 -0.013250 -0.011371 -0.000004 0.000133 0.000001
# 2 -0.013250 0.018263 0.004037 0.000002 0.001550 0.000000
# 3 -0.011371 0.004037 0.023637 0.000006 0.005158 -0.000002
# 4 -0.000004 0.000002 0.000006 0.119740 0.000000 0.046221
# 5 0.000133 0.001550 0.005158 0.000000 0.040762 -0.000001
# 6 0.000001 0.000000 -0.000002 0.046221 -0.000001 0.049570
#
#
# Mechanical properties :
#
#
# Convention : Reuss Voigt Hill
#
# Bulk Modulus (GPa) = 45.95905 66.34544 56.15225
# Shear Modulus (GPa) = 15.55600 23.89601 19.72601
#
# Velocity S-wave (km/s) = 2.85187 3.53462 3.21144
# Velocity P-wave (km/s) = 5.90534 7.16558 6.56577
#
# Compressibility (1/GPa) = 0.02175850
#
# Stress axis : x y z
#
# Youngs Moduli (GPa) = 47.55936 54.75548 42.30605
#
# Poissons Ratio (x) = 0.72550 0.48105
# Poissons Ratio (y) = 0.63015 -0.17077
# Poissons Ratio (z) = 0.54078 -0.22102
#
# Static dielectric constant tensor:
#      x y z
#    x 3.539020 0.000000 -0.051280 
#    y 0.000000 3.428220 0.000000 
#    z -0.051280 0.000000 3.501480 
# 
# 
# High freq. dielectric constant tensor:
#      x y z
#    x 1.747040 0.000000 -0.005170 
#    y 0.000000 1.751530 0.000000 
#    z -0.005170 0.000000 1.736620 
# 
# From -- ./inp_files/303028.got.cif
#   From: 2010.06.25/outbox.cif.g09.slc.cpg/sg12_152_cif.got.tgz:303028.got - 2010.06.28 00:19:55.
