data_PCOD8094694
_publ_section_title
;
Structure prediction by ZEFSAII (Michael W. Deem and Ramdas Pophale) SiO2 
 PCOD8094694
Probable space group: C 2/M
;
_chemical_formula_sum "Si O2"
_cell_formula_units_Z 64
_cell_length_a 23.302295
_cell_length_b 8.748188
_cell_length_c 19.695630
_cell_angle_alpha 90.000000
_cell_angle_beta 129.806342
_cell_angle_gamma 90.000000
_cell_volume 3084.381886
_symmetry_space_group_name_H-M "C 2/M"
_symmetry_group_IT_number 12
_symmetry_cell_setting 'monoclinic'
loop_
_space_group_symop_operation_xyz
x,y,z
-x,y,-z
-x,-y,-z
x,-y,z
1/2+x,1/2+y,z
1/2-x,1/2+y,-z
1/2-x,1/2-y,-z
1/2+x,1/2-y,z
loop_
_atom_site_type_symbol
_atom_site_label
_atom_site_fract_x
_atom_site_fract_y
_atom_site_fract_z
Si Si1 0.460021 0.679902 0.644516
Si Si2 0.301969 0.820525 0.096294
Si Si3 0.718296 0.822821 0.683231
Si Si4 0.694620 0.820254 0.512183
Si Si5 0.053378 0.677498 0.602991
Si Si6 0.711700 0.820631 0.142356
Si Si7 0.967430 0.320180 0.176024
Si Si8 0.443413 0.679065 0.016924
O O1 0.454147 0.500000 0.649906
O O2 0.385620 0.742733 0.553415
O O3 0.529797 0.722083 0.649560
O O4 0.469836 0.757613 0.725363
O O5 0.280234 0.754062 0.153063
O O6 0.386887 0.776442 0.145218
O O7 0.289662 0.000000 0.087747
O O8 0.250000 0.750000 0.000000
O O9 0.728942 0.785428 0.612122
O O10 0.635861 0.773868 0.643869
O O11 0.779091 0.726809 0.771903
O O12 0.732705 0.000000 0.708873
O O13 0.750000 0.750000 0.500000
O O14 0.684920 0.000000 0.493201
O O15 0.048502 0.500000 0.620348
O O16 0.000000 0.714257 0.500000
O O17 0.715150 0.000000 0.136158
O O18 0.633862 0.764983 0.053309
O O19 0.977121 0.500000 0.173166
O O20 0.980253 0.237040 0.114267
O O21 0.427157 0.500000 0.008654
O O22 0.500000 0.720903 0.000000
#
# Coordination Sequence:
#
# PCOD8094694 Si02
#       8
#     8   8   8   8   8   8   8   8
#     4  12  25  40  63  96 131 168 209 258 313 375
#     4  11  22  38  64  95 129 167 207 254 313 376
#     4  10  22  41  66  92 125 167 208 255 314 376
#     4  11  24  45  68  92 124 166 214 265 318 373
#     4  10  19  38  65  93 126 167 208 253 314 377
#     4  12  25  40  63  95 130 167 207 254 311 375
#     4  11  24  42  66  95 127 167 210 257 314 374
#     4  11  25  45  68  92 122 162 210 264 317 372
#
# _framework density 20.749701000000002
#
# number of rings (size 3 to 8) (size 9 to 14) (size 15 to 20)
#    0.000    1.000    2.500    4.500    0.000    8.250 
#    0.000    1.250    0.000    0.000    0.000    0.000 
#    0.000    0.000    0.000    0.000    0.000    0.000 
#
# Total GULP energy -397033.886962 kJ/mol
# GULP energy per Si atom -12407.308968 kJ/mol
# Density = 2.070247 g / cm^3
# Si number density = 20.749701 Si / 1000 Ang^3
#
#
#
# Elastic Constant Matrix: (Units=GPa)
#
#
# Indices 1 2 3 4 5 6 
#
# 1 93.0239 39.3537 12.2451 0.0000 -26.4639 0.0000
# 2 39.3537 91.1563 23.0453 0.0000 -13.4223 0.0000
# 3 12.2451 23.0453 83.5299 0.0000 -24.3262 0.0000
# 4 0.0000 0.0000 0.0000 36.4981 0.0000 -5.0367
# 5 -26.4639 -13.4223 -24.3262 0.0000 27.4598 0.0000
# 6 0.0000 0.0000 0.0000 -5.0367 0.0000 27.0930
#
#
#
# Elastic Compliance Matrix: (Units=1/GPa)
#
#
# Indices 1 2 3 4 5 6 
#
# 1 0.017951 -0.006180 0.004356 0.000000 0.018138 0.000000
# 2 -0.006180 0.014236 -0.003679 0.000000 -0.002257 0.000000
# 3 0.004356 -0.003679 0.017583 0.000000 0.017976 0.000000
# 4 0.000000 0.000000 0.000000 0.028120 0.000000 0.005228
# 5 0.018138 -0.002257 0.017976 0.000000 0.068719 0.000000
# 6 0.000000 0.000000 0.000000 0.005228 0.000000 0.037882
#
#
# Mechanical properties :
#
#
# Convention : Reuss Voigt Hill
#
# Bulk Modulus (GPa) = 25.79711 46.33314 36.06512
# Shear Modulus (GPa) = 23.99010 31.08124 27.53567
#
# Velocity S-wave (km/s) = 3.40393 3.87449 3.64681
# Velocity P-wave (km/s) = 5.28285 6.51103 5.92883
#
# Compressibility (1/GPa) = 0.03876404
#
# Stress axis : x y z
#
# Youngs Moduli (GPa) = 55.70699 70.24418 56.87176
#
# Poissons Ratio (x) = 0.43413 -0.24772
# Poissons Ratio (y) = 0.34428 0.20922
# Poissons Ratio (z) = -0.24265 0.25841
#
# Static dielectric constant tensor:
#      x y z
#    x 3.763540 0.000000 -0.132010 
#    y 0.000000 3.745030 0.000000 
#    z -0.132010 0.000000 3.892380 
# 
# 
# High freq. dielectric constant tensor:
#      x y z
#    x 1.809300 0.000000 -0.010180 
#    y 0.000000 1.815340 0.000000 
#    z -0.010180 0.000000 1.828120 
# 
# From -- ./inp_files/324330.got.cif
#   From: 2010.06.25/outbox.cif.g09.slc.cpg/sg12_163_cif.got.tgz:324330.got - 2010.06.28 00:19:55.
