data_PCOD8094908
_publ_section_title
;
Structure prediction by ZEFSAII (Michael W. Deem and Ramdas Pophale) SiO2 
 PCOD8094908
Probable space group: C 2/M
;
_chemical_formula_sum "Si O2"
_cell_formula_units_Z 44
_cell_length_a 16.502186
_cell_length_b 12.525682
_cell_length_c 12.562882
_cell_angle_alpha 90.000000
_cell_angle_beta 81.773369
_cell_angle_gamma 90.000000
_cell_volume 2570.040836
_symmetry_space_group_name_H-M "C 2/M"
_symmetry_group_IT_number 12
_symmetry_cell_setting 'monoclinic'
loop_
_space_group_symop_operation_xyz
x,y,z
-x,y,-z
-x,-y,-z
x,-y,z
1/2+x,1/2+y,z
1/2-x,1/2+y,-z
1/2-x,1/2-y,-z
1/2+x,1/2-y,z
loop_
_atom_site_type_symbol
_atom_site_label
_atom_site_fract_x
_atom_site_fract_y
_atom_site_fract_z
Si Si1 0.270892 0.624406 0.240742
Si Si2 0.612793 0.623701 0.957577
Si Si3 0.525774 0.301425 0.161255
Si Si4 0.081443 0.878266 0.641349
Si Si5 0.411390 0.874571 0.710145
Si Si6 0.000000 0.728243 0.500000
O O1 0.265171 0.500000 0.263392
O O2 0.298676 0.646786 0.112439
O O3 0.339149 0.668054 0.310688
O O4 0.181247 0.672981 0.277681
O O5 0.588735 0.500000 0.942606
O O6 0.548260 0.698693 0.908428
O O7 0.606810 0.651799 0.084697
O O8 0.499323 0.373093 0.267762
O O9 0.543404 0.181976 0.199346
O O10 0.068221 0.803481 0.541793
O O11 0.093725 0.000000 0.601389
O O12 0.455343 0.848865 0.591353
O O13 0.413672 0.000000 0.732440
#
# Coordination Sequence:
#
# PCOD8094908 Si02
#       6
#     8   8   8   8   8   4
#     4   8  16  29  46  64  90 119 142 174 220 261
#     4   9  15  28  49  73  93 112 138 175 221 273
#     4   9  16  26  46  70  90 115 144 172 216 260
#     4   9  16  29  47  71  93 109 137 184 229 270
#     4  10  20  33  43  60  87 120 158 187 207 250
#     4  10  20  30  48  66  82 116 154 186 228 256
#
# _framework density 17.120349999999998
#
# number of rings (size 3 to 8) (size 9 to 14) (size 15 to 20)
#    0.000    2.909    0.000    3.818    0.000    1.455 
#    0.000    1.818    0.000    0.000    0.000   58.545 
#    0.000    0.000    0.000    0.000    0.000    0.000 
#
# Total GULP energy -272554.376834 kJ/mol
# GULP energy per Si atom -12388.835311 kJ/mol
# Density = 1.708138 g / cm^3
# Si number density = 17.120350 Si / 1000 Ang^3
#
#
#
# Elastic Constant Matrix: (Units=GPa)
#
#
# Indices 1 2 3 4 5 6 
#
# 1 72.3435 39.3393 40.8767 0.0000 -12.5244 0.0000
# 2 39.3393 74.4917 36.5909 0.0000 1.5451 0.0000
# 3 40.8767 36.5909 87.5297 0.0000 -8.4811 0.0000
# 4 0.0000 0.0000 0.0000 21.7099 0.0000 3.4262
# 5 -12.5244 1.5451 -8.4811 0.0000 24.6736 0.0000
# 6 0.0000 0.0000 0.0000 3.4262 0.0000 13.8451
#
#
#
# Elastic Compliance Matrix: (Units=1/GPa)
#
#
# Indices 1 2 3 4 5 6 
#
# 1 0.024875 -0.010307 -0.006229 0.000000 0.011131 0.000000
# 2 -0.010307 0.021480 -0.004969 0.000000 -0.008285 0.000000
# 3 -0.006229 -0.004969 0.016691 0.000000 0.002886 0.000000
# 4 0.000000 0.000000 0.000000 0.047934 0.000000 -0.011862
# 5 0.011131 -0.008285 0.002886 0.000000 0.047690 0.000000
# 6 0.000000 0.000000 0.000000 -0.011862 0.000000 0.075163
#
#
# Mechanical properties :
#
#
# Convention : Reuss Voigt Hill
#
# Bulk Modulus (GPa) = 49.91329 51.99764 50.95547
# Shear Modulus (GPa) = 17.63533 19.88290 18.75911
#
# Velocity S-wave (km/s) = 3.21297 3.41157 3.31376
# Velocity P-wave (km/s) = 6.55606 6.77910 6.66851
#
# Compressibility (1/GPa) = 0.02003474
#
# Stress axis : x y z
#
# Youngs Moduli (GPa) = 40.20157 46.55441 59.91421
#
# Poissons Ratio (x) = 0.47986 0.37321
# Poissons Ratio (y) = 0.41438 0.29770
# Poissons Ratio (z) = 0.25042 0.23132
#
# Static dielectric constant tensor:
#      x y z
#    x 3.276580 0.000000 -0.200120 
#    y 0.000000 2.919940 0.000000 
#    z -0.200120 0.000000 3.458490 
# 
# 
# High freq. dielectric constant tensor:
#      x y z
#    x 1.638800 0.000000 -0.015800 
#    y 0.000000 1.632890 0.000000 
#    z -0.015800 0.000000 1.670030 
# 
# From -- ./inp_files/153433.got.cif
#   From: 2010.06.25/outbox.cif.g09.slc.cpg/sg12_77_cif.got.tgz:153433.got - 2010.06.28 00:19:55.
