data_PCOD8094405
_publ_section_title
;
Structure prediction by ZEFSAII (Michael W. Deem and Ramdas Pophale) SiO2 
 PCOD8094405
Probable space group: C 2/M
;
_chemical_formula_sum "Si O2"
_cell_formula_units_Z 48
_cell_length_a 24.208546
_cell_length_b 8.831968
_cell_length_c 11.422917
_cell_angle_alpha 90.000000
_cell_angle_beta 68.526583
_cell_angle_gamma 90.000000
_cell_volume 2272.795879
_symmetry_space_group_name_H-M "C 2/M"
_symmetry_group_IT_number 12
_symmetry_cell_setting 'monoclinic'
loop_
_space_group_symop_operation_xyz
x,y,z
-x,y,-z
-x,-y,-z
x,-y,z
1/2+x,1/2+y,z
1/2-x,1/2+y,-z
1/2-x,1/2-y,-z
1/2+x,1/2-y,z
loop_
_atom_site_type_symbol
_atom_site_label
_atom_site_fract_x
_atom_site_fract_y
_atom_site_fract_z
Si Si1 0.236937 0.175735 0.634426
Si Si2 0.886663 0.321715 0.895642
Si Si3 0.164449 0.178280 0.292739
Si Si4 0.477695 0.827884 0.203450
Si Si5 0.061218 0.327334 0.507695
Si Si6 0.620043 0.325831 0.860664
O O1 0.250000 0.250000 0.500000
O O2 0.274857 0.250506 0.708006
O O3 0.168212 0.200465 0.721256
O O4 0.253625 0.000000 0.612515
O O5 0.879781 0.500000 0.885285
O O6 0.848492 0.241336 0.825653
O O7 0.955279 0.269937 0.830362
O O8 0.861252 0.270408 0.040341
O O9 0.112732 0.218761 0.423822
O O10 0.171819 0.000000 0.280541
O O11 0.441424 0.815323 0.351356
O O12 0.444576 0.726874 0.133164
O O13 0.478285 0.000000 0.156772
O O14 0.073692 0.500000 0.456528
O O15 0.000000 0.269531 0.500000
O O16 0.616226 0.500000 0.900638
#
# Coordination Sequence:
#
# PCOD8094405 Si02
#       6
#     8   8   8   8   8   8
#     4  11  25  46  69  93 125 164 209 259 314 376
#     4  11  23  42  65  91 125 168 213 254 308 377
#     4  12  25  40  63  96 130 165 209 261 316 369
#     4  10  21  38  63  92 125 167 211 253 305 372
#     4  10  19  37  62  90 125 164 207 253 306 368
#     4  11  25  42  62  92 126 162 207 261 317 369
#
# _framework density 21.119364000000001
#
# number of rings (size 3 to 8) (size 9 to 14) (size 15 to 20)
#    0.000    1.167    1.667    4.500    0.000   10.333 
#    0.000    0.000    0.000    0.000    0.000    0.000 
#    0.000    0.000    0.000    0.000    0.000    0.000 
#
# Total GULP energy -297762.301911 kJ/mol
# GULP energy per Si atom -12406.762580 kJ/mol
# Density = 2.107130 g / cm^3
# Si number density = 21.119364 Si / 1000 Ang^3
#
#
#
# Elastic Constant Matrix: (Units=GPa)
#
#
# Indices 1 2 3 4 5 6 
#
# 1 109.1845 54.6601 21.3865 0.0000 19.9956 0.0000
# 2 54.6601 126.1887 43.9380 0.0000 6.9395 0.0000
# 3 21.3865 43.9380 93.8221 0.0000 16.1957 0.0000
# 4 0.0000 0.0000 0.0000 37.4505 0.0000 5.4553
# 5 19.9956 6.9395 16.1957 0.0000 32.5143 0.0000
# 6 0.0000 0.0000 0.0000 5.4553 0.0000 34.4235
#
#
#
# Elastic Compliance Matrix: (Units=1/GPa)
#
#
# Indices 1 2 3 4 5 6 
#
# 1 0.013125 -0.005593 0.000891 0.000000 -0.007322 0.000000
# 2 -0.005593 0.011853 -0.004850 0.000000 0.003326 0.000000
# 3 0.000891 -0.004850 0.013832 0.000000 -0.006403 0.000000
# 4 0.000000 0.000000 0.000000 0.027333 0.000000 -0.004332
# 5 -0.007322 0.003326 -0.006403 0.000000 0.037738 0.000000
# 6 0.000000 0.000000 0.000000 -0.004332 0.000000 0.029736
#
#
# Mechanical properties :
#
#
# Convention : Reuss Voigt Hill
#
# Bulk Modulus (GPa) = 50.74437 63.24051 56.99244
# Shear Modulus (GPa) = 31.38928 34.82505 33.10717
#
# Velocity S-wave (km/s) = 3.85941 4.06515 3.96362
# Velocity P-wave (km/s) = 6.62870 7.21410 6.92759
#
# Compressibility (1/GPa) = 0.01970662
#
# Stress axis : x y z
#
# Youngs Moduli (GPa) = 76.18991 84.36526 72.29643
#
# Poissons Ratio (x) = 0.47185 -0.06444
# Poissons Ratio (y) = 0.42613 0.35065
# Poissons Ratio (z) = -0.06791 0.40919
#
# Static dielectric constant tensor:
#      x y z
#    x 3.952330 0.000000 0.028450 
#    y 0.000000 3.802090 0.000000 
#    z 0.028450 0.000000 3.828970 
# 
# 
# High freq. dielectric constant tensor:
#      x y z
#    x 1.831810 0.000000 0.007160 
#    y 0.000000 1.826170 0.000000 
#    z 0.007160 0.000000 1.837500 
# 
# From -- ./inp_files/172881.got.cif
#   From: 2010.06.25/outbox.cif.g09.slc.cpg/sg12_87_cif.got.tgz:172881.got - 2010.06.28 00:19:55.
