data_PCOD8094369
_publ_section_title
;
Structure prediction by ZEFSAII (Michael W. Deem and Ramdas Pophale) SiO2 
 PCOD8094369
Probable space group: C 2/M
;
_chemical_formula_sum "Si O2"
_cell_formula_units_Z 56
_cell_length_a 22.948405
_cell_length_b 17.548747
_cell_length_c 19.354737
_cell_angle_alpha 90.000000
_cell_angle_beta 21.223394
_cell_angle_gamma 90.000000
_cell_volume 2821.634221
_symmetry_space_group_name_H-M "C 2/M"
_symmetry_group_IT_number 12
_symmetry_cell_setting 'monoclinic'
loop_
_space_group_symop_operation_xyz
x,y,z
-x,y,-z
-x,-y,-z
x,-y,z
1/2+x,1/2+y,z
1/2-x,1/2+y,-z
1/2-x,1/2-y,-z
1/2+x,1/2-y,z
loop_
_atom_site_type_symbol
_atom_site_label
_atom_site_fract_x
_atom_site_fract_y
_atom_site_fract_z
Si Si1 0.709127 0.912727 0.016038
Si Si2 0.880219 0.913324 0.298833
Si Si3 0.068378 0.290087 0.088494
Si Si4 0.264427 0.727043 0.350367
Si Si5 0.507532 0.321616 0.709275
Si Si6 0.178774 0.729178 0.291310
Si Si7 0.741699 0.916005 0.139175
O O1 0.876102 0.869848 0.812370
O O2 0.721918 0.000000 0.978722
O O3 0.569213 0.872448 0.125405
O O4 0.675327 0.905025 0.134833
O O5 0.773870 0.860238 0.366318
O O6 0.868077 0.879912 0.390369
O O7 0.814624 0.000000 0.368845
O O8 0.065486 0.908599 0.070727
O O9 0.905516 0.279360 0.225526
O O10 0.084379 0.225522 0.129272
O O11 0.222298 0.283962 0.868517
O O12 0.096446 0.764134 0.559577
O O13 0.275812 0.725280 0.255667
O O14 0.161248 0.644824 0.278585
O O15 0.000000 0.762564 0.500000
O O16 0.692243 0.000000 0.220106
#
# Coordination Sequence:
#
# PCOD8094369 Si02
#       7
#     8   8   8   8   8   8   8
#     4  10  20  37  65  90 116 156 202 248 304 353
#     4   9  17  34  60  86 119 159 203 240 290 352
#     4  11  21  38  62  85 120 155 202 252 294 351
#     4  11  23  37  59  91 120 159 203 247 301 355
#     4  10  19  37  62  85 118 156 205 249 293 350
#     4  12  24  37  58  85 123 161 202 244 299 354
#     4   9  19  36  57  86 121 163 199 236 290 354
#
# _framework density 19.846654000000001
#
# number of rings (size 3 to 8) (size 9 to 14) (size 15 to 20)
#    0.000    1.714    4.286    4.714    2.000    0.857 
#    0.000    5.000    0.000    6.429    0.000    0.000 
#    0.000    0.000    0.000    0.000    0.000    0.000 
#
# Total GULP energy -347158.522389 kJ/mol
# GULP energy per Si atom -12398.518657 kJ/mol
# Density = 1.980148 g / cm^3
# Si number density = 19.846654 Si / 1000 Ang^3
#
#
#
# Elastic Constant Matrix: (Units=GPa)
#
#
# Indices 1 2 3 4 5 6 
#
# 1 100.8344 64.7809 20.8995 -0.0051 -0.7181 0.0046
# 2 64.7809 128.8024 28.4011 -0.0181 -2.0874 0.0106
# 3 20.8995 28.4011 55.9417 -0.0147 9.7943 0.0142
# 4 -0.0051 -0.0181 -0.0147 27.6780 0.0058 -2.6825
# 5 -0.7181 -2.0874 9.7943 0.0058 26.0667 -0.0041
# 6 0.0046 0.0106 0.0142 -2.6825 -0.0041 28.9960
#
#
#
# Elastic Compliance Matrix: (Units=1/GPa)
#
#
# Indices 1 2 3 4 5 6 
#
# 1 0.014853 -0.006994 -0.002110 -0.000003 0.000642 0.000001
# 2 -0.006994 0.012196 -0.003977 0.000004 0.002278 -0.000001
# 3 -0.002110 -0.003977 0.022210 0.000010 -0.008722 -0.000009
# 4 -0.000003 0.000004 0.000010 0.036457 -0.000011 0.003373
# 5 0.000642 0.002278 -0.008722 -0.000011 0.041840 0.000008
# 6 0.000001 -0.000001 -0.000009 0.003373 0.000008 0.034800
#
#
# Mechanical properties :
#
#
# Convention : Reuss Voigt Hill
#
# Bulk Modulus (GPa) = 43.30025 57.08239 50.19132
# Shear Modulus (GPa) = 25.48185 27.98126 26.73156
#
# Velocity S-wave (km/s) = 3.58709 3.75890 3.67400
# Velocity P-wave (km/s) = 6.24669 6.90386 6.58348
#
# Compressibility (1/GPa) = 0.02309456
#
# Stress axis : x y z
#
# Youngs Moduli (GPa) = 67.32738 81.99666 45.02382
#
# Poissons Ratio (x) = 0.57352 0.09501
# Poissons Ratio (y) = 0.47092 0.17908
# Poissons Ratio (z) = 0.14208 0.32613
#
# Static dielectric constant tensor:
#      x y z
#    x 3.589920 -0.000010 -0.048220 
#    y -0.000010 3.800970 0.000010 
#    z -0.048220 0.000010 3.351650 
# 
# 
# High freq. dielectric constant tensor:
#      x y z
#    x 1.765250 0.000000 -0.009640 
#    y 0.000000 1.767230 0.000000 
#    z -0.009640 0.000000 1.756960 
# 
# From -- ./inp_files/325996.got.cif
#   From: 2010.06.25/outbox.cif.g09.slc.cpg/sg12_163_cif.got.tgz:325996.got - 2010.06.28 00:19:55.
