data_PCOD8094568
_publ_section_title
;
Structure prediction by ZEFSAII (Michael W. Deem and Ramdas Pophale) SiO2 
 PCOD8094568
Probable space group: C 2/M
;
_chemical_formula_sum "Si O2"
_cell_formula_units_Z 64
_cell_length_a 25.195157
_cell_length_b 22.089619
_cell_length_c 12.424964
_cell_angle_alpha 90.000000
_cell_angle_beta 27.410558
_cell_angle_gamma 90.000000
_cell_volume 3183.473213
_symmetry_space_group_name_H-M "C 2/M"
_symmetry_group_IT_number 12
_symmetry_cell_setting 'monoclinic'
loop_
_space_group_symop_operation_xyz
x,y,z
-x,y,-z
-x,-y,-z
x,-y,z
1/2+x,1/2+y,z
1/2-x,1/2+y,-z
1/2-x,1/2-y,-z
1/2+x,1/2-y,z
loop_
_atom_site_type_symbol
_atom_site_label
_atom_site_fract_x
_atom_site_fract_y
_atom_site_fract_z
Si Si1 0.956907 0.273893 0.800615
Si Si2 0.636827 0.818596 0.644868
Si Si3 0.657203 0.932371 0.481339
Si Si4 0.809123 0.930748 0.819547
Si Si5 0.954338 0.602245 0.699220
Si Si6 0.781091 0.281673 0.289069
Si Si7 0.426478 0.652182 0.432093
Si Si8 0.128028 0.069833 0.048685
O O1 0.957734 0.325291 0.708329
O O2 0.028298 0.292018 0.777814
O O3 0.003936 0.213221 0.659163
O O4 0.829899 0.267659 0.081596
O O5 0.653747 0.889551 0.591110
O O6 0.747504 0.782439 0.400988
O O7 0.628302 0.812073 0.789863
O O8 0.536073 0.930379 0.637482
O O9 0.679761 0.000000 0.482541
O O10 0.758474 0.909992 0.219824
O O11 0.875890 0.883041 0.625458
O O12 0.849255 0.916297 0.867427
O O13 0.841736 0.000000 0.729120
O O14 0.672659 0.923252 0.053803
O O15 0.000000 0.585008 0.500000
O O16 0.674565 0.328618 0.467962
O O17 0.517862 0.608564 0.207206
O O18 0.099823 0.000000 0.078746
#
# Coordination Sequence:
#
# PCOD8094568 Si02
#       8
#     8   8   8   8   8   8   8   8
#     4  10  21  37  58  83 119 150 186 243 298 345
#     4   9  20  35  60  85 109 148 193 239 289 352
#     4  10  20  36  58  86 119 152 191 243 293 343
#     4  11  22  38  60  85 120 160 201 238 280 347
#     4  11  21  37  59  90 116 153 199 240 285 343
#     4  10  19  38  60  83 110 149 196 240 289 347
#     4  11  22  37  58  87 117 153 196 243 291 347
#     4  10  21  37  58  82 118 163 198 232 284 350
#
# _framework density 20.103829000000001
#
# number of rings (size 3 to 8) (size 9 to 14) (size 15 to 20)
#    0.000    1.750    2.500    2.250    0.000    2.500 
#    0.000    4.375    0.000    3.000    0.000    0.000 
#    0.000    0.000    0.000    0.000    0.000    0.000 
#
# Total GULP energy -396739.236693 kJ/mol
# GULP energy per Si atom -12398.101147 kJ/mol
# Density = 2.005807 g / cm^3
# Si number density = 20.103829 Si / 1000 Ang^3
#
#
#
# Elastic Constant Matrix: (Units=GPa)
#
#
# Indices 1 2 3 4 5 6 
#
# 1 50.0115 23.3241 10.6083 -0.0003 -4.6405 0.0003
# 2 23.3241 109.0415 34.2851 -0.0002 5.2023 0.0002
# 3 10.6083 34.2851 91.8095 -0.0005 -3.7012 0.0004
# 4 -0.0003 -0.0002 -0.0005 36.2090 0.0003 -4.1920
# 5 -4.6405 5.2023 -3.7012 0.0003 29.4248 -0.0003
# 6 0.0003 0.0002 0.0004 -4.1920 -0.0003 18.2440
#
#
#
# Elastic Compliance Matrix: (Units=1/GPa)
#
#
# Indices 1 2 3 4 5 6 
#
# 1 0.022817 -0.004891 -0.000633 0.000000 0.004383 0.000000
# 2 -0.004891 0.011602 -0.003901 0.000000 -0.003313 0.000000
# 3 -0.000633 -0.003901 0.012509 0.000000 0.002163 0.000000
# 4 0.000000 0.000000 0.000000 0.028372 0.000000 0.006519
# 5 0.004383 -0.003313 0.002163 0.000000 0.035534 0.000000
# 6 0.000000 0.000000 0.000000 0.006519 0.000000 0.056311
#
#
# Mechanical properties :
#
#
# Convention : Reuss Voigt Hill
#
# Bulk Modulus (GPa) = 35.61476 43.03305 39.32390
# Shear Modulus (GPa) = 25.59451 28.95188 27.27320
#
# Velocity S-wave (km/s) = 3.57195 3.79901 3.68722
# Velocity P-wave (km/s) = 5.89624 6.37927 6.14250
#
# Compressibility (1/GPa) = 0.02807825
#
# Stress axis : x y z
#
# Youngs Moduli (GPa) = 43.82626 86.19538 79.94068
#
# Poissons Ratio (x) = 0.42155 0.05063
# Poissons Ratio (y) = 0.21434 0.31184
# Poissons Ratio (z) = 0.02776 0.33624
#
# Static dielectric constant tensor:
#      x y z
#    x 3.422700 0.000000 -0.194330 
#    y 0.000000 3.750500 0.000000 
#    z -0.194330 0.000000 3.762920 
# 
# 
# High freq. dielectric constant tensor:
#      x y z
#    x 1.759150 0.000000 -0.012450 
#    y 0.000000 1.789200 0.000000 
#    z -0.012450 0.000000 1.796850 
# 
# From -- ./inp_files/178403.got.cif
#   From: 2010.06.25/outbox.cif.g09.slc.cpg/sg12_90_cif.got.tgz:178403.got - 2010.06.28 00:19:55.
