data_PCOD8094874
_publ_section_title
;
Structure prediction by ZEFSAII (Michael W. Deem and Ramdas Pophale) SiO2 
 PCOD8094874
Probable space group: C 2/M
;
_chemical_formula_sum "Si O2"
_cell_formula_units_Z 48
_cell_length_a 19.051638
_cell_length_b 19.151637
_cell_length_c 9.165323
_cell_angle_alpha 90.000000
_cell_angle_beta 60.702067
_cell_angle_gamma 90.000000
_cell_volume 2916.391161
_symmetry_space_group_name_H-M "C 2/M"
_symmetry_group_IT_number 12
_symmetry_cell_setting 'monoclinic'
loop_
_space_group_symop_operation_xyz
x,y,z
-x,y,-z
-x,-y,-z
x,-y,z
1/2+x,1/2+y,z
1/2-x,1/2+y,-z
1/2-x,1/2-y,-z
1/2+x,1/2-y,z
loop_
_atom_site_type_symbol
_atom_site_label
_atom_site_fract_x
_atom_site_fract_y
_atom_site_fract_z
Si Si1 0.461437 0.000000 0.258089
Si Si2 0.000000 0.615440 0.000000
Si Si3 0.357864 0.000000 0.871124
Si Si4 0.283162 0.148016 0.537388
Si Si5 0.804092 0.500000 0.604534
Si Si6 0.744921 0.716597 0.285078
Si Si7 0.639994 0.150860 0.042992
Si Si8 0.905888 0.289778 0.600058
O O1 0.392617 0.000000 0.447321
O O2 0.452936 0.932080 0.165030
O O3 0.546393 0.000000 0.256548
O O4 0.935908 0.665046 0.985153
O O5 0.335306 0.931080 0.987244
O O6 0.308002 0.000000 0.773874
O O7 0.255901 0.069207 0.602100
O O8 0.229803 0.205613 0.681365
O O9 0.270963 0.159039 0.377455
O O10 0.377088 0.159983 0.494433
O O11 0.647623 0.718358 0.356057
O O12 0.787303 0.698582 0.089307
O O13 0.617188 0.169989 0.229805
O O14 0.000000 0.272131 0.500000
#
# Coordination Sequence:
#
# PCOD8094874 Si02
#       8
#     4   4   4   8   4   8   8   8
#     4   9  19  28  38  62 112 141 155 195 243 288
#     4   9  20  28  40  74 100 137 174 198 228 311
#     4  10  20  27  42  77 100 133 176 201 233 306
#     4   9  21  33  53  72 105 133 170 209 251 299
#     4  12  18  29  50  73  99 136 168 197 253 301
#     4   9  20  38  50  69 105 140 169 211 252 298
#     4  11  20  31  51  70 108 139 171 207 251 291
#     4  10  21  33  52  75 101 136 174 210 248 299
#
# _framework density 16.458697000000001
#
# number of rings (size 3 to 8) (size 9 to 14) (size 15 to 20)
#    1.000    1.167    1.667    2.250    7.000    0.667 
#    0.000    0.000    0.000    0.000    0.000    2.333 
#    0.000    6.000    0.000    0.000    0.000    0.000 
#
# Total GULP energy -297364.769083 kJ/mol
# GULP energy per Si atom -12390.198712 kJ/mol
# Density = 1.642124 g / cm^3
# Si number density = 16.458697 Si / 1000 Ang^3
#
#
#
# Elastic Constant Matrix: (Units=GPa)
#
#
# Indices 1 2 3 4 5 6 
#
# 1 92.6154 34.6168 28.8744 0.0000 9.6275 0.0000
# 2 34.6168 86.6713 28.8269 0.0000 -0.9464 0.0000
# 3 28.8744 28.8269 58.1593 0.0000 -6.3916 0.0000
# 4 0.0000 0.0000 0.0000 19.9255 0.0000 2.7627
# 5 9.6275 -0.9464 -6.3916 0.0000 22.7314 0.0000
# 6 0.0000 0.0000 0.0000 2.7627 0.0000 18.9057
#
#
#
# Elastic Compliance Matrix: (Units=1/GPa)
#
#
# Indices 1 2 3 4 5 6 
#
# 1 0.015190 -0.004003 -0.006483 0.000000 -0.008423 0.000000
# 2 -0.004003 0.014913 -0.005314 0.000000 0.000822 0.000000
# 3 -0.006483 -0.005314 0.024068 0.000000 0.009292 0.000000
# 4 0.000000 0.000000 0.000000 0.051225 0.000000 -0.007486
# 5 -0.008423 0.000822 0.009292 0.000000 0.050206 0.000000
# 6 0.000000 0.000000 0.000000 -0.007486 0.000000 0.053988
#
#
# Mechanical properties :
#
#
# Convention : Reuss Voigt Hill
#
# Bulk Modulus (GPa) = 44.30437 46.89802 45.60120
# Shear Modulus (GPa) = 20.10338 21.98773 21.04556
#
# Velocity S-wave (km/s) = 3.49871 3.65901 3.57976
# Velocity P-wave (km/s) = 6.58014 6.81229 6.69722
#
# Compressibility (1/GPa) = 0.02257113
#
# Stress axis : x y z
#
# Youngs Moduli (GPa) = 65.83152 67.05563 41.54881
#
# Poissons Ratio (x) = 0.26840 0.26937
# Poissons Ratio (y) = 0.26350 0.22080
# Poissons Ratio (z) = 0.42681 0.35634
#
# Static dielectric constant tensor:
#      x y z
#    x 3.045260 0.000000 0.262730 
#    y 0.000000 3.076470 0.000000 
#    z 0.262730 0.000000 2.935270 
# 
# 
# High freq. dielectric constant tensor:
#      x y z
#    x 1.613600 0.000000 0.034840 
#    y 0.000000 1.617000 0.000000 
#    z 0.034840 0.000000 1.625960 
# 
# From -- ./inp_files/88712.got.cif
#   From: 2010.06.25/outbox.cif.g09.slc.cpg/sg12_45_cif.got.tgz:88712.got - 2010.06.28 00:19:55.
