data_PCOD8094535
_publ_section_title
;
Structure prediction by ZEFSAII (Michael W. Deem and Ramdas Pophale) SiO2 
 PCOD8094535
Probable space group: C 2/M
;
_chemical_formula_sum "Si O2"
_cell_formula_units_Z 56
_cell_length_a 22.380194
_cell_length_b 25.627361
_cell_length_c 17.892265
_cell_angle_alpha 90.000000
_cell_angle_beta 163.176377
_cell_angle_gamma 90.000000
_cell_volume 2970.101626
_symmetry_space_group_name_H-M "C 2/M"
_symmetry_group_IT_number 12
_symmetry_cell_setting 'monoclinic'
loop_
_space_group_symop_operation_xyz
x,y,z
-x,y,-z
-x,-y,-z
x,-y,z
1/2+x,1/2+y,z
1/2-x,1/2+y,-z
1/2-x,1/2-y,-z
1/2+x,1/2-y,z
loop_
_atom_site_type_symbol
_atom_site_label
_atom_site_fract_x
_atom_site_fract_y
_atom_site_fract_z
Si Si1 0.471369 0.198362 0.381605
Si Si2 0.712996 0.561187 0.725831
Si Si3 0.576567 0.938166 0.269577
Si Si4 0.781418 0.770606 0.419083
Si Si5 0.647592 0.129893 0.895220
Si Si6 0.073852 0.733241 0.895892
Si Si7 0.125566 0.113647 0.474601
O O1 0.500000 0.177282 0.500000
O O2 0.676200 0.227490 0.594586
O O3 0.410600 0.149289 0.257435
O O4 0.295158 0.241768 0.171907
O O5 0.500000 0.587241 0.500000
O O6 0.702392 0.500000 0.722000
O O7 0.732151 0.575299 0.662075
O O8 0.903901 0.580909 0.003375
O O9 0.500966 0.918543 0.260632
O O10 0.784719 0.906633 0.497272
O O11 0.615524 0.000000 0.318270
O O12 0.551342 0.763566 0.176216
O O13 0.804538 0.828892 0.416376
O O14 0.952721 0.766153 0.688837
O O15 0.606640 0.174548 0.907595
O O16 0.880033 0.109020 0.175898
#
# Coordination Sequence:
#
# PCOD8094535 Si02
#       7
#     8   8   8   8   8   8   8
#     4  11  23  38  57  86 119 149 189 240 288 337
#     4  10  21  36  53  79 117 149 180 230 280 328
#     4  11  24  39  56  83 116 150 192 236 284 338
#     4  10  20  34  58  80 114 149 186 227 277 333
#     4  11  21  38  61  82 112 153 195 235 282 333
#     4  10  19  38  56  83 113 149 186 232 278 332
#     4  12  20  34  58  82 110 156 190 225 271 338
#
# _framework density 18.854572999999998
#
# number of rings (size 3 to 8) (size 9 to 14) (size 15 to 20)
#    0.000    1.286    5.714    1.714    0.000    4.000 
#    2.571    0.000    0.000    0.429    0.000    1.000 
#    0.000    0.000    0.000    0.000    0.000    0.000 
#
# Total GULP energy -347218.098988 kJ/mol
# GULP energy per Si atom -12400.646392 kJ/mol
# Density = 1.881166 g / cm^3
# Si number density = 18.854573 Si / 1000 Ang^3
#
#
#
# Elastic Constant Matrix: (Units=GPa)
#
#
# Indices 1 2 3 4 5 6 
#
# 1 111.3528 24.1368 37.0615 -0.0014 11.2527 -0.0006
# 2 24.1368 52.7009 25.7237 -0.0008 3.4179 -0.0004
# 3 37.0615 25.7237 59.8486 0.0003 18.8974 0.0013
# 4 -0.0014 -0.0008 0.0003 23.3226 0.0008 3.7813
# 5 11.2527 3.4179 18.8974 0.0008 32.3240 0.0014
# 6 -0.0006 -0.0004 0.0013 3.7813 0.0014 30.1978
#
#
#
# Elastic Compliance Matrix: (Units=1/GPa)
#
#
# Indices 1 2 3 4 5 6 
#
# 1 0.011524 -0.002295 -0.006082 0.000001 -0.000213 0.000000
# 2 -0.002295 0.024964 -0.010703 0.000001 0.004417 0.000000
# 3 -0.006082 -0.010703 0.029494 0.000000 -0.013994 -0.000001
# 4 0.000001 0.000001 0.000000 0.043765 -0.000001 -0.005480
# 5 -0.000213 0.004417 -0.013994 -0.000001 0.038725 -0.000001
# 6 0.000000 0.000000 -0.000001 -0.005480 -0.000001 0.033801
#
#
# Mechanical properties :
#
#
# Convention : Reuss Voigt Hill
#
# Bulk Modulus (GPa) = 35.94429 44.19402 40.06916
# Shear Modulus (GPa) = 21.76663 26.30089 24.03376
#
# Velocity S-wave (km/s) = 3.40140 3.73893 3.57416
# Velocity P-wave (km/s) = 5.87634 6.49075 6.19117
#
# Compressibility (1/GPa) = 0.02782083
#
# Stress axis : x y z
#
# Youngs Moduli (GPa) = 86.77606 40.05759 33.90474
#
# Poissons Ratio (x) = 0.09194 0.20622
# Poissons Ratio (y) = 0.19917 0.36289
# Poissons Ratio (z) = 0.52781 0.42874
#
# Static dielectric constant tensor:
#      x y z
#    x 3.607980 0.000000 0.359270 
#    y 0.000000 3.287600 0.000000 
#    z 0.359270 0.000000 3.491190 
# 
# 
# High freq. dielectric constant tensor:
#      x y z
#    x 1.728770 0.000000 0.035630 
#    y 0.000000 1.717900 0.000000 
#    z 0.035630 0.000000 1.723150 
# 
# From -- ./inp_files/219075.got.cif
#   From: 2010.06.25/outbox.cif.g09.slc.cpg/sg12_110_cif.got.tgz:219075.got - 2010.06.28 00:19:55.
