data_PCOD8094480
_publ_section_title
;
Structure prediction by ZEFSAII (Michael W. Deem and Ramdas Pophale) SiO2 
 PCOD8094480
Probable space group: C 2/M
;
_chemical_formula_sum "Si O2"
_cell_formula_units_Z 28
_cell_length_a 8.455890
_cell_length_b 28.262933
_cell_length_c 5.500661
_cell_angle_alpha 90.000000
_cell_angle_beta 120.770231
_cell_angle_gamma 90.000000
_cell_volume 1129.532560
_symmetry_space_group_name_H-M "C 2/M"
_symmetry_group_IT_number 12
_symmetry_cell_setting 'monoclinic'
loop_
_space_group_symop_operation_xyz
x,y,z
-x,y,-z
-x,-y,-z
x,-y,z
1/2+x,1/2+y,z
1/2-x,1/2+y,-z
1/2-x,1/2-y,-z
1/2+x,1/2-y,z
loop_
_atom_site_type_symbol
_atom_site_label
_atom_site_fract_x
_atom_site_fract_y
_atom_site_fract_z
Si Si1 0.152891 0.315303 0.790703
Si Si2 0.500000 0.263704 0.000000
Si Si3 0.187110 0.945049 0.392818
Si Si4 0.280144 0.591386 0.083816
O O1 0.332263 0.297644 0.783958
O O2 0.000000 0.339805 0.500000
O O3 0.057816 0.268831 0.822838
O O4 0.218648 0.353716 0.041886
O O5 0.300452 0.932011 0.729714
O O6 0.000648 0.914351 0.253813
O O7 0.135184 0.000000 0.354150
O O8 0.296134 0.932516 0.228278
#
# Coordination Sequence:
#
# PCOD8094480 Si02
#       4
#     8   4   8   8
#     4  11  24  43  68  98 138 174 232 278 345 403
#     4  10  24  46  66  98 130 188 222 282 342 414
#     4  10  19  37  64  98 131 178 227 271 335 409
#     4  10  20  34  63  95 130 169 221 280 325 393
#
# _framework density 24.789017000000001
#
# number of rings (size 3 to 8) (size 9 to 14) (size 15 to 20)
#    0.000    1.714    0.000    6.857    4.000    0.000 
#   20.571    0.000    0.000    9.429    0.000    0.000 
#    0.000    0.000    0.000    0.000    0.000    0.000 
#
# Total GULP energy -173488.289963 kJ/mol
# GULP energy per Si atom -12392.020712 kJ/mol
# Density = 2.473260 g / cm^3
# Si number density = 24.789017 Si / 1000 Ang^3
#
#
#
# Elastic Constant Matrix: (Units=GPa)
#
#
# Indices 1 2 3 4 5 6 
#
# 1 82.6827 38.0975 61.9439 0.0000 -14.1110 0.0000
# 2 38.0975 128.9529 65.6380 0.0000 9.8842 0.0000
# 3 61.9439 65.6380 165.2622 0.0000 -33.6173 0.0000
# 4 0.0000 0.0000 0.0000 31.7039 0.0000 -11.2862
# 5 -14.1110 9.8842 -33.6173 0.0000 51.5602 0.0000
# 6 0.0000 0.0000 0.0000 -11.2862 0.0000 0.4593
#
#
#
# Elastic Compliance Matrix: (Units=1/GPa)
#
#
# Indices 1 2 3 4 5 6 
#
# 1 0.017492 -0.002751 -0.005053 0.000000 0.002020 0.000000
# 2 -0.002751 0.011444 -0.004743 0.000000 -0.006039 0.000000
# 3 -0.005053 -0.004743 0.011221 0.000000 0.006842 0.000000
# 4 0.000000 0.000000 0.000000 -0.004071 0.000000 -0.100039
# 5 0.002020 -0.006039 0.006842 0.000000 0.025566 0.000000
# 6 0.000000 0.000000 0.000000 -0.100039 0.000000 -0.281018
#
#
# Mechanical properties :
#
#
# Convention : Reuss Voigt Hill
#
# Bulk Modulus (GPa) = 66.38346 78.69518 72.53932
# Shear Modulus (GPa) = -26.41991 30.82590 2.20299
#
# Velocity S-wave (km/s) = -3.26819 3.53020 0.94373
# Velocity P-wave (km/s) = 3.54910 6.95926 5.52392
#
# Compressibility (1/GPa) = 0.01506399
#
# Stress axis : x y z
#
# Youngs Moduli (GPa) = 57.16828 87.37826 89.12175
#
# Poissons Ratio (x) = 0.24034 0.45034
# Poissons Ratio (y) = 0.15725 0.42270
# Poissons Ratio (z) = 0.28888 0.41443
#
# Static dielectric constant tensor:
#      x y z
#    x 4.582680 0.000000 -0.425890 
#    y 0.000000 4.304540 0.000000 
#    z -0.425890 0.000000 5.136070 
# 
# 
# High freq. dielectric constant tensor:
#      x y z
#    x 1.967760 0.000000 -0.010590 
#    y 0.000000 1.986880 0.000000 
#    z -0.010590 0.000000 1.985170 
# 
# From -- ./inp_files/3618.got.cif
#   From: 2010.06.25/outbox.cif.g09.slc.cpg/sg12_2_cif.got.tgz:3618.got - 2010.06.28 00:19:55.
