data_PCOD8094104
_publ_section_title
;
Structure prediction by ZEFSAII (Michael W. Deem and Ramdas Pophale) SiO2 
 PCOD8094104
Probable space group: C 2/M
;
_chemical_formula_sum "Si O2"
_cell_formula_units_Z 60
_cell_length_a 14.879116
_cell_length_b 12.149963
_cell_length_c 17.280862
_cell_angle_alpha 90.000000
_cell_angle_beta 74.755773
_cell_angle_gamma 90.000000
_cell_volume 3014.123225
_symmetry_space_group_name_H-M "C 2/M"
_symmetry_group_IT_number 12
_symmetry_cell_setting 'monoclinic'
loop_
_space_group_symop_operation_xyz
x,y,z
-x,y,-z
-x,-y,-z
x,-y,z
1/2+x,1/2+y,z
1/2-x,1/2+y,-z
1/2-x,1/2-y,-z
1/2+x,1/2-y,z
loop_
_atom_site_type_symbol
_atom_site_label
_atom_site_fract_x
_atom_site_fract_y
_atom_site_fract_z
Si Si1 0.239234 0.625829 0.637362
Si Si2 0.123015 0.876412 0.834987
Si Si3 0.111751 0.873354 0.266585
Si Si4 0.918399 0.801999 0.324224
Si Si5 0.500000 0.714584 0.000000
Si Si6 0.649980 0.874724 0.019545
Si Si7 0.599228 0.625181 0.505942
Si Si8 0.765924 0.766890 0.873316
O O1 0.211893 0.500000 0.624546
O O2 0.294231 0.634636 0.705200
O O3 0.140272 0.689259 0.664461
O O4 0.310174 0.677543 0.557153
O O5 0.080970 0.864492 0.758266
O O6 0.053470 0.857966 0.923775
O O7 0.206551 0.788557 0.818081
O O8 0.160598 0.000000 0.834271
O O9 0.140167 0.825081 0.176731
O O10 0.029669 0.793201 0.316911
O O11 0.076718 0.000000 0.269653
O O12 0.881158 0.869913 0.406679
O O13 0.436928 0.793534 0.962118
O O14 0.706955 0.863732 0.927021
O O15 0.617529 0.000000 0.039215
O O16 0.715528 0.835666 0.074255
O O17 0.500000 0.679111 0.500000
O O18 0.596181 0.500000 0.477015
#
# Coordination Sequence:
#
# PCOD8094104 Si02
#       8
#     8   8   8   8   4   8   8   8
#     4  10  22  40  61  88 124 160 199 246 302 361
#     4  11  22  37  57  86 121 156 197 251 307 360
#     4  11  21  38  62  87 118 157 203 250 295 357
#     4  12  22  37  63  94 121 157 207 251 299 360
#     4  10  22  38  56  82 114 158 204 250 290 364
#     4  10  20  36  57  80 110 153 200 246 303 360
#     4  10  19  36  63  94 122 157 203 250 300 355
#     4  10  21  37  56  82 117 153 195 250 306 362
#
# _framework density 19.906286999999999
#
# number of rings (size 3 to 8) (size 9 to 14) (size 15 to 20)
#    0.000    1.467    2.667    3.600    0.000    0.000 
#    0.000    7.333    0.000    0.400    0.000    0.000 
#    0.000    0.000    0.000    0.000    0.000    0.000 
#
# Total GULP energy -371692.067373 kJ/mol
# GULP energy per Si atom -12389.735579 kJ/mol
# Density = 1.986098 g / cm^3
# Si number density = 19.906287 Si / 1000 Ang^3
#
#
#
# Elastic Constant Matrix: (Units=GPa)
#
#
# Indices 1 2 3 4 5 6 
#
# 1 82.0262 45.5196 24.7838 0.0000 -15.4186 0.0000
# 2 45.5196 86.0711 37.1079 0.0000 -10.2363 0.0000
# 3 24.7838 37.1079 92.9936 0.0000 -5.3155 0.0000
# 4 0.0000 0.0000 0.0000 18.1659 0.0000 3.7211
# 5 -15.4186 -10.2363 -5.3155 0.0000 38.4186 0.0000
# 6 0.0000 0.0000 0.0000 3.7211 0.0000 16.1150
#
#
#
# Elastic Compliance Matrix: (Units=1/GPa)
#
#
# Indices 1 2 3 4 5 6 
#
# 1 0.018199 -0.008545 -0.001162 0.000000 0.004866 0.000000
# 2 -0.008545 0.018393 -0.005018 0.000000 0.000777 0.000000
# 3 -0.001162 -0.005018 0.013066 0.000000 0.000004 0.000000
# 4 0.000000 0.000000 0.000000 0.057781 0.000000 -0.013342
# 5 0.004866 0.000777 0.000004 0.000000 0.028190 0.000000
# 6 0.000000 0.000000 0.000000 -0.013342 0.000000 0.065135
#
#
# Mechanical properties :
#
#
# Convention : Reuss Voigt Hill
#
# Bulk Modulus (GPa) = 49.48586 52.87928 51.18257
# Shear Modulus (GPa) = 21.10153 24.78522 22.94338
#
# Velocity S-wave (km/s) = 3.25936 3.53242 3.39863
# Velocity P-wave (km/s) = 6.25124 6.57716 6.41627
#
# Compressibility (1/GPa) = 0.02020779
#
# Stress axis : x y z
#
# Youngs Moduli (GPa) = 54.94798 54.36822 76.53606
#
# Poissons Ratio (x) = 0.46457 0.08896
# Poissons Ratio (y) = 0.46952 0.38404
# Poissons Ratio (z) = 0.06387 0.27281
#
# Static dielectric constant tensor:
#      x y z
#    x 3.667570 0.000000 -0.049950 
#    y 0.000000 3.308180 0.000000 
#    z -0.049950 0.000000 3.722340 
# 
# 
# High freq. dielectric constant tensor:
#      x y z
#    x 1.776790 0.000000 0.000790 
#    y 0.000000 1.748250 0.000000 
#    z 0.000790 0.000000 1.791220 
# 
# From -- ./inp_files/269267.got.cif
#   From: 2010.06.25/outbox.cif.g09.slc.cpg/sg12_135_cif.got.tgz:269267.got - 2010.06.28 00:19:55.
