data_PCOD8094618
_publ_section_title
;
Structure prediction by ZEFSAII (Michael W. Deem and Ramdas Pophale) SiO2 
 PCOD8094618
Probable space group: C 2/M
;
_chemical_formula_sum "Si O2"
_cell_formula_units_Z 48
_cell_length_a 17.614419
_cell_length_b 18.223321
_cell_length_c 8.850077
_cell_angle_alpha 90.000000
_cell_angle_beta 56.541667
_cell_angle_gamma 90.000000
_cell_volume 2370.054680
_symmetry_space_group_name_H-M "C 2/M"
_symmetry_group_IT_number 12
_symmetry_cell_setting 'monoclinic'
loop_
_space_group_symop_operation_xyz
x,y,z
-x,y,-z
-x,-y,-z
x,-y,z
1/2+x,1/2+y,z
1/2-x,1/2+y,-z
1/2-x,1/2-y,-z
1/2+x,1/2-y,z
loop_
_atom_site_type_symbol
_atom_site_label
_atom_site_fract_x
_atom_site_fract_y
_atom_site_fract_z
Si Si1 0.155935 0.206954 0.125265
Si Si2 0.674327 0.286286 0.436754
Si Si3 0.256399 0.132934 0.597634
Si Si4 0.096909 0.916121 0.959209
Si Si5 0.986633 0.720136 0.190938
Si Si6 0.049478 0.418182 0.598466
O O1 0.141297 0.180889 0.314567
O O2 0.079989 0.266040 0.172926
O O3 0.250000 0.250000 0.000000
O O4 0.138159 0.133954 0.046731
O O5 0.729938 0.211821 0.334750
O O6 0.742249 0.346342 0.435910
O O7 0.593515 0.268755 0.645557
O O8 0.168035 0.088550 0.745247
O O9 0.341702 0.081231 0.540861
O O10 0.087220 0.000000 0.027235
O O11 0.000000 0.887498 0.000000
O O12 0.969879 0.634051 0.237966
O O13 0.000000 0.737519 0.000000
O O14 0.014968 0.500000 0.673857
O O15 0.000000 0.389557 0.500000
#
# Coordination Sequence:
#
# PCOD8094618 Si02
#       6
#     8   8   8   8   8   8
#     4  12  23  38  65  97 123 163 208 266 310 370
#     4  10  21  37  65  93 124 160 213 263 311 366
#     4  10  19  38  62  90 124 167 209 258 309 376
#     4  11  24  42  64  93 132 173 212 258 324 388
#     4  11  23  39  63  91 125 163 208 262 310 372
#     4  10  22  39  60  87 124 168 209 253 317 381
#
# _framework density 20.252696
#
# number of rings (size 3 to 8) (size 9 to 14) (size 15 to 20)
#    0.000    1.333    1.667    5.500    4.667    0.333 
#    0.000    1.667    0.000    4.000    0.000    0.000 
#    0.000    0.000    0.000    0.000    0.000    0.000 
#
# Total GULP energy -297458.049869 kJ/mol
# GULP energy per Si atom -12394.085411 kJ/mol
# Density = 2.020660 g / cm^3
# Si number density = 20.252696 Si / 1000 Ang^3
#
#
#
# Elastic Constant Matrix: (Units=GPa)
#
#
# Indices 1 2 3 4 5 6 
#
# 1 156.0874 37.2463 55.8879 0.0000 1.4696 0.0000
# 2 37.2463 85.9237 29.9428 0.0000 6.6017 0.0000
# 3 55.8879 29.9428 94.4624 0.0000 9.6070 0.0000
# 4 0.0000 0.0000 0.0000 19.8765 0.0000 2.1011
# 5 1.4696 6.6017 9.6070 0.0000 45.2516 0.0000
# 6 0.0000 0.0000 0.0000 2.1011 0.0000 -67.6968
#
#
#
# Elastic Compliance Matrix: (Units=1/GPa)
#
#
# Indices 1 2 3 4 5 6 
#
# 1 0.008515 -0.002222 -0.004434 0.000000 0.000989 0.000000
# 2 -0.002222 0.013712 -0.002898 0.000000 -0.001313 0.000000
# 3 -0.004434 -0.002898 0.014381 0.000000 -0.002486 0.000000
# 4 0.000000 0.000000 0.000000 0.050146 0.000000 0.001556
# 5 0.000989 -0.001313 -0.002486 0.000000 0.022786 0.000000
# 6 0.000000 0.000000 0.000000 0.001556 0.000000 -0.014723
#
#
# Mechanical properties :
#
#
# Convention : Reuss Voigt Hill
#
# Bulk Modulus (GPa) = 57.14393 64.73639 60.94016
# Shear Modulus (GPa) = 41.75011 13.71268 27.73140
#
# Velocity S-wave (km/s) = 4.54526 2.60490 3.70438
# Velocity P-wave (km/s) = 7.47145 6.40945 6.96073
#
# Compressibility (1/GPa) = 0.01749967
#
# Stress axis : x y z
#
# Youngs Moduli (GPa) = 117.43600 72.92706 69.53460
#
# Poissons Ratio (x) = 0.16204 0.30833
# Poissons Ratio (y) = 0.26094 0.20154
# Poissons Ratio (z) = 0.52074 0.21137
#
# Static dielectric constant tensor:
#      x y z
#    x 3.987280 0.000000 -0.043000 
#    y 0.000000 3.542580 0.000000 
#    z -0.043000 0.000000 3.569270 
# 
# 
# High freq. dielectric constant tensor:
#      x y z
#    x 1.815070 0.000000 -0.005640 
#    y 0.000000 1.775500 0.000000 
#    z -0.005640 0.000000 1.775380 
# 
# From -- ./inp_files/75112.got.cif
#   From: 2010.06.25/outbox.cif.g09.slc.cpg/sg12_38_cif.got.tgz:75112.got - 2010.06.28 00:19:55.
