data_PCOD8094832
_publ_section_title
;
Structure prediction by ZEFSAII (Michael W. Deem and Ramdas Pophale) SiO2 
 PCOD8094832
Probable space group: C 2/M
;
_chemical_formula_sum "Si O2"
_cell_formula_units_Z 48
_cell_length_a 16.493468
_cell_length_b 19.266753
_cell_length_c 14.080461
_cell_angle_alpha 90.000000
_cell_angle_beta 30.709148
_cell_angle_gamma 90.000000
_cell_volume 2285.001049
_symmetry_space_group_name_H-M "C 2/M"
_symmetry_group_IT_number 12
_symmetry_cell_setting 'monoclinic'
loop_
_space_group_symop_operation_xyz
x,y,z
-x,y,-z
-x,-y,-z
x,-y,z
1/2+x,1/2+y,z
1/2-x,1/2+y,-z
1/2-x,1/2-y,-z
1/2+x,1/2-y,z
loop_
_atom_site_type_symbol
_atom_site_label
_atom_site_fract_x
_atom_site_fract_y
_atom_site_fract_z
Si Si1 0.629329 0.227224 0.543114
Si Si2 0.602018 0.355250 0.805230
Si Si3 0.259686 0.000000 0.664882
Si Si4 0.607486 0.881654 0.127471
Si Si5 0.555105 0.500000 0.336940
Si Si6 0.931358 0.500000 0.964847
Si Si7 0.605801 0.000000 0.262561
Si Si8 0.953516 0.856574 0.748830
O O1 0.750000 0.250000 0.500000
O O2 0.734068 0.190100 0.355615
O O3 0.508854 0.174091 0.712383
O O4 0.535398 0.295899 0.602094
O O5 0.647140 0.435338 0.761667
O O6 0.503051 0.343595 0.808482
O O7 0.500000 0.333700 0.000000
O O8 0.413906 0.000000 0.442011
O O9 0.331240 0.000000 0.696535
O O10 0.513790 0.929395 0.144151
O O11 0.674334 0.931725 0.143127
O O12 0.764414 0.845645 0.926492
O O13 0.500000 0.500000 0.500000
O O14 0.490829 0.431756 0.346468
O O15 0.742948 0.500000 0.150630
O O16 0.000000 0.500000 0.000000
#
# Coordination Sequence:
#
# PCOD8094832 Si02
#       8
#     8   8   4   8   4   4   4   8
#     4  10  22  39  59  88 121 163 204 247 308 366
#     4  11  22  38  60  94 127 163 204 246 301 367
#     4  11  20  34  56  91 126 157 198 240 290 358
#     4  10  19  40  62  85 122 158 201 249 312 363
#     4  10  22  43  63  89 116 152 206 254 303 362
#     4   9  21  36  62  90 113 152 205 256 303 350
#     4  10  20  33  59  91 121 158 190 242 298 361
#     4  10  22  41  65  89 121 160 201 258 308 368
#
# _framework density 21.006554999999999
#
# number of rings (size 3 to 8) (size 9 to 14) (size 15 to 20)
#    0.000    1.833    1.667    2.750    0.000    2.667 
#    0.000   13.333    0.000    0.000    0.000    0.000 
#    0.000    0.000    0.000    0.000    0.000    0.000 
#
# Total GULP energy -297498.088572 kJ/mol
# GULP energy per Si atom -12395.753691 kJ/mol
# Density = 2.095874 g / cm^3
# Si number density = 21.006555 Si / 1000 Ang^3
#
#
#
# Elastic Constant Matrix: (Units=GPa)
#
#
# Indices 1 2 3 4 5 6 
#
# 1 70.7602 28.7651 17.5947 0.0035 8.0802 -0.0142
# 2 28.7651 163.1489 72.6192 0.0080 -3.1311 -0.0242
# 3 17.5947 72.6192 124.2113 0.0063 5.7966 -0.0295
# 4 0.0035 0.0080 0.0063 31.5605 -0.0021 -16.3633
# 5 8.0802 -3.1311 5.7966 -0.0021 31.2844 0.0121
# 6 -0.0142 -0.0242 -0.0295 -16.3633 0.0121 66.0037
#
#
#
# Elastic Compliance Matrix: (Units=1/GPa)
#
#
# Indices 1 2 3 4 5 6 
#
# 1 0.015819 -0.002652 -0.000491 0.000000 -0.004260 0.000003
# 2 -0.002652 0.008825 -0.004900 -0.000001 0.002476 0.000000
# 3 -0.000491 -0.004900 0.011098 0.000001 -0.002420 0.000004
# 4 0.000000 -0.000001 0.000001 0.036359 -0.000001 0.009014
# 5 -0.004260 0.002476 -0.002420 -0.000001 0.033761 -0.000008
# 6 0.000003 0.000000 0.000004 0.009014 -0.000008 0.017385
#
#
# Mechanical properties :
#
#
# Convention : Reuss Voigt Hill
#
# Bulk Modulus (GPa) = 50.87505 66.23094 58.55300
# Shear Modulus (GPa) = 34.27344 41.71247 37.99295
#
# Velocity S-wave (km/s) = 4.04364 4.46094 4.25741
# Velocity P-wave (km/s) = 6.78768 7.62433 7.21814
#
# Compressibility (1/GPa) = 0.01965600
#
# Stress axis : x y z
#
# Youngs Moduli (GPa) = 63.21498 113.31038 90.10785
#
# Poissons Ratio (x) = 0.30051 0.04428
# Poissons Ratio (y) = 0.16765 0.44149
# Poissons Ratio (z) = 0.03107 0.55517
#
# Static dielectric constant tensor:
#      x y z
#    x 3.342840 0.000000 -0.262060 
#    y 0.000000 4.265230 0.000020 
#    z -0.262060 0.000020 4.081550 
# 
# 
# High freq. dielectric constant tensor:
#      x y z
#    x 1.796130 0.000000 -0.004870 
#    y 0.000000 1.834390 0.000000 
#    z -0.004870 0.000000 1.835260 
# 
# From -- ./inp_files/112785.got.cif
#   From: 2010.06.25/outbox.cif.g09.slc.cpg/sg12_57_cif.got.tgz:112785.got - 2010.06.28 00:19:55.
