data_PCOD8094646
_publ_section_title
;
Structure prediction by ZEFSAII (Michael W. Deem and Ramdas Pophale) SiO2 
 PCOD8094646
Probable space group: C 2/M
;
_chemical_formula_sum "Si O2"
_cell_formula_units_Z 64
_cell_length_a 24.837322
_cell_length_b 8.832220
_cell_length_c 14.610434
_cell_angle_alpha 90.000000
_cell_angle_beta 89.630776
_cell_angle_gamma 90.000000
_cell_volume 3205.005249
_symmetry_space_group_name_H-M "C 2/M"
_symmetry_group_IT_number 12
_symmetry_cell_setting 'monoclinic'
loop_
_space_group_symop_operation_xyz
x,y,z
-x,y,-z
-x,-y,-z
x,-y,z
1/2+x,1/2+y,z
1/2-x,1/2+y,-z
1/2-x,1/2-y,-z
1/2+x,1/2-y,z
loop_
_atom_site_type_symbol
_atom_site_label
_atom_site_fract_x
_atom_site_fract_y
_atom_site_fract_z
Si Si1 0.188407 0.675245 0.819116
Si Si2 0.591826 0.321494 0.711065
Si Si3 0.308975 0.325124 0.797003
Si Si4 0.979663 0.169341 0.788749
Si Si5 0.608481 0.671479 0.353049
Si Si6 0.337618 0.678263 0.997152
Si Si7 0.942946 0.674279 0.958889
Si Si8 0.439555 0.821380 0.478675
O O1 0.171610 0.500000 0.823241
O O2 0.145668 0.766117 0.759864
O O3 0.246621 0.696602 0.770903
O O4 0.194940 0.738089 0.922222
O O5 0.595046 0.500000 0.696267
O O6 0.541152 0.277520 0.775430
O O7 0.584374 0.244519 0.613848
O O8 0.325682 0.500000 0.805215
O O9 0.346525 0.256097 0.716225
O O10 0.320258 0.255351 0.897911
O O11 0.950436 0.172335 0.691627
O O12 0.946736 0.285050 0.852105
O O13 0.977019 0.000000 0.830976
O O14 0.624863 0.500000 0.380373
O O15 0.603200 0.773204 0.443148
O O16 0.327869 0.500000 0.006778
O O17 0.400178 0.720146 0.011097
O O18 0.926724 0.500000 0.971831
O O19 0.000000 0.715075 0.000000
O O20 0.500000 0.760479 0.500000
O O21 0.440557 0.000000 0.470016
#
# Coordination Sequence:
#
# PCOD8094646 Si02
#       8
#     8   8   8   8   8   8   8   8
#     4  11  23  40  60  87 121 157 196 248 303 346
#     4  11  23  40  62  89 119 159 201 240 290 356
#     4   9  20  39  63  87 117 156 201 248 294 345
#     4  10  20  35  58  83 113 151 192 239 290 347
#     4  10  19  38  63  88 115 151 195 241 292 350
#     4  11  21  38  61  86 116 156 206 248 288 350
#     4  11  23  35  50  79 119 159 195 239 297 352
#     4  11  23  38  60  93 126 155 189 240 300 356
#
# _framework density 19.968765999999999
#
# number of rings (size 3 to 8) (size 9 to 14) (size 15 to 20)
#    0.000    1.500    2.500    3.000    0.000    5.000 
#    0.000    3.750    0.000    0.000    0.000    0.000 
#    0.000    0.000    0.000    0.000    0.000    0.000 
#
# Total GULP energy -396820.887044 kJ/mol
# GULP energy per Si atom -12400.652720 kJ/mol
# Density = 1.992332 g / cm^3
# Si number density = 19.968766 Si / 1000 Ang^3
#
#
#
# Elastic Constant Matrix: (Units=GPa)
#
#
# Indices 1 2 3 4 5 6 
#
# 1 96.7007 19.2097 30.7547 0.0000 -13.0994 0.0000
# 2 19.2097 50.1820 20.2535 0.0000 -8.3160 0.0000
# 3 30.7547 20.2535 94.2134 0.0000 -15.4608 0.0000
# 4 0.0000 0.0000 0.0000 28.9611 0.0000 -1.5631
# 5 -13.0994 -8.3160 -15.4608 0.0000 25.7305 0.0000
# 6 0.0000 0.0000 0.0000 -1.5631 0.0000 25.5662
#
#
#
# Elastic Compliance Matrix: (Units=1/GPa)
#
#
# Indices 1 2 3 4 5 6 
#
# 1 0.012311 -0.002989 -0.002780 0.000000 0.003631 0.000000
# 2 -0.002989 0.023070 -0.003339 0.000000 0.003928 0.000000
# 3 -0.002780 -0.003339 0.013124 0.000000 0.005391 0.000000
# 4 0.000000 0.000000 0.000000 0.034643 0.000000 0.002118
# 5 0.003631 0.003928 0.005391 0.000000 0.045222 0.000000
# 6 0.000000 0.000000 0.000000 0.002118 0.000000 0.039244
#
#
# Mechanical properties :
#
#
# Convention : Reuss Voigt Hill
#
# Bulk Modulus (GPa) = 33.01547 42.39243 37.70395
# Shear Modulus (GPa) = 25.51959 27.44344 26.48152
#
# Velocity S-wave (km/s) = 3.57876 3.71120 3.64558
# Velocity P-wave (km/s) = 5.80053 6.29599 6.05333
#
# Compressibility (1/GPa) = 0.03028883
#
# Stress axis : x y z
#
# Youngs Moduli (GPa) = 81.22782 43.34585 76.19378
#
# Poissons Ratio (x) = 0.12955 0.21185
# Poissons Ratio (y) = 0.24277 0.25443
# Poissons Ratio (z) = 0.22585 0.14474
#
# Static dielectric constant tensor:
#      x y z
#    x 3.642950 0.000000 -0.087610 
#    y 0.000000 3.480520 0.000000 
#    z -0.087610 0.000000 3.621830 
# 
# 
# High freq. dielectric constant tensor:
#      x y z
#    x 1.780750 0.000000 -0.007910 
#    y 0.000000 1.767150 0.000000 
#    z -0.007910 0.000000 1.774360 
# 
# From -- ./inp_files/238676.got.cif
#   From: 2010.06.25/outbox.cif.g09.slc.cpg/sg12_120_cif.got.tgz:238676.got - 2010.06.28 00:19:55.
