data_PCOD8094010
_publ_section_title
;
Structure prediction by ZEFSAII (Michael W. Deem and Ramdas Pophale) SiO2 
 PCOD8094010
Probable space group: C 2/M
;
_chemical_formula_sum "Si O2"
_cell_formula_units_Z 48
_cell_length_a 28.322310
_cell_length_b 8.676814
_cell_length_c 10.061418
_cell_angle_alpha 90.000000
_cell_angle_beta 90.173537
_cell_angle_gamma 90.000000
_cell_volume 2472.556133
_symmetry_space_group_name_H-M "C 2/M"
_symmetry_group_IT_number 12
_symmetry_cell_setting 'monoclinic'
loop_
_space_group_symop_operation_xyz
x,y,z
-x,y,-z
-x,-y,-z
x,-y,z
1/2+x,1/2+y,z
1/2-x,1/2+y,-z
1/2-x,1/2-y,-z
1/2+x,1/2-y,z
loop_
_atom_site_type_symbol
_atom_site_label
_atom_site_fract_x
_atom_site_fract_y
_atom_site_fract_z
Si Si1 0.221685 0.818446 0.118851
Si Si2 0.027772 0.826071 0.136405
Si Si3 0.471387 0.180250 0.369372
Si Si4 0.374159 0.682779 0.285518
Si Si5 0.276811 0.182927 0.375513
Si Si6 0.622936 0.682841 0.017410
O O1 0.244785 0.757457 0.253618
O O2 0.167887 0.762049 0.102743
O O3 0.224351 0.000000 0.110157
O O4 0.250000 0.750000 0.000000
O O5 0.078785 0.754217 0.101283
O O6 0.003016 0.716221 0.241605
O O7 0.030910 0.000000 0.194922
O O8 0.000000 0.829646 0.000000
O O9 0.500000 0.234151 0.500000
O O10 0.421809 0.269924 0.362303
O O11 0.460234 0.000000 0.374079
O O12 0.369370 0.500000 0.287489
O O13 0.329743 0.753068 0.363332
O O14 0.375364 0.747530 0.133829
O O15 0.250000 0.250000 0.500000
O O16 0.279203 0.000000 0.383970
O O17 0.618637 0.500000 0.006178
#
# Coordination Sequence:
#
# PCOD8094010 Si02
#       6
#     8   8   8   8   8   8
#     4  10  20  36  59  88 119 155 200 248 297 351
#     4  10  19  36  61  90 118 153 203 252 297 353
#     4  11  25  42  59  87 128 164 198 247 303 364
#     4  11  21  39  66  89 116 159 203 251 309 362
#     4  11  24  40  60  90 127 165 204 249 303 363
#     4   9  18  34  59  89 120 151 196 251 299 350
#
# _framework density 19.413108000000001
#
# number of rings (size 3 to 8) (size 9 to 14) (size 15 to 20)
#    0.000    1.667    3.333    1.500    0.000    3.667 
#    0.000    2.500    0.000    0.000    0.000    0.000 
#    0.000    0.000    0.000    0.000    0.000    0.000 
#
# Total GULP energy -297603.423526 kJ/mol
# GULP energy per Si atom -12400.142647 kJ/mol
# Density = 1.936892 g / cm^3
# Si number density = 19.413108 Si / 1000 Ang^3
#
#
#
# Elastic Constant Matrix: (Units=GPa)
#
#
# Indices 1 2 3 4 5 6 
#
# 1 189.5633 32.7661 76.3617 0.0000 -5.9994 0.0000
# 2 32.7661 46.5678 33.8691 0.0000 0.9009 0.0000
# 3 76.3617 33.8691 128.9842 0.0000 -0.5924 0.0000
# 4 0.0000 0.0000 0.0000 36.2333 0.0000 -7.4786
# 5 -5.9994 0.9009 -0.5924 0.0000 37.7086 0.0000
# 6 0.0000 0.0000 0.0000 -7.4786 0.0000 32.4109
#
#
#
# Elastic Compliance Matrix: (Units=1/GPa)
#
#
# Indices 1 2 3 4 5 6 
#
# 1 0.007189 -0.002458 -0.003605 0.000000 0.001146 0.000000
# 2 -0.002458 0.027405 -0.005746 0.000000 -0.001136 0.000000
# 3 -0.003605 -0.005746 0.011395 0.000000 -0.000257 0.000000
# 4 0.000000 0.000000 0.000000 0.028979 0.000000 0.006687
# 5 0.001146 -0.001136 -0.000257 0.000000 0.026725 0.000000
# 6 0.000000 0.000000 0.000000 0.006687 0.000000 0.032397
#
#
# Mechanical properties :
#
#
# Convention : Reuss Voigt Hill
#
# Bulk Modulus (GPa) = 44.70330 72.34546 58.52438
# Shear Modulus (GPa) = 30.27297 36.07845 33.17571
#
# Velocity S-wave (km/s) = 3.95322 4.31566 4.13841
# Velocity P-wave (km/s) = 6.62681 7.88546 7.28337
#
# Compressibility (1/GPa) = 0.02236971
#
# Stress axis : x y z
#
# Youngs Moduli (GPa) = 139.10701 36.48994 87.75926
#
# Poissons Ratio (x) = 0.08970 0.31638
# Poissons Ratio (y) = 0.34196 0.50426
# Poissons Ratio (z) = 0.50150 0.20967
#
# Static dielectric constant tensor:
#      x y z
#    x 3.804680 0.000000 0.129130 
#    y 0.000000 3.383520 0.000000 
#    z 0.129130 0.000000 3.531300 
# 
# 
# High freq. dielectric constant tensor:
#      x y z
#    x 1.777420 0.000000 0.000820 
#    y 0.000000 1.739200 0.000000 
#    z 0.000820 0.000000 1.753600 
# 
# From -- ./inp_files/108661.got.cif
#   From: 2010.06.25/outbox.cif.g09.slc.cpg/sg12_55_cif.got.tgz:108661.got - 2010.06.28 00:19:55.
