data_PCOD8094387
_publ_section_title
;
Structure prediction by ZEFSAII (Michael W. Deem and Ramdas Pophale) SiO2 
 PCOD8094387
Probable space group: C 2/M
;
_chemical_formula_sum "Si O2"
_cell_formula_units_Z 64
_cell_length_a 19.617881
_cell_length_b 8.625373
_cell_length_c 23.178079
_cell_angle_alpha 90.000000
_cell_angle_beta 121.818162
_cell_angle_gamma 90.000000
_cell_volume 3332.622549
_symmetry_space_group_name_H-M "C 2/M"
_symmetry_group_IT_number 12
_symmetry_cell_setting 'monoclinic'
loop_
_space_group_symop_operation_xyz
x,y,z
-x,y,-z
-x,-y,-z
x,-y,z
1/2+x,1/2+y,z
1/2-x,1/2+y,-z
1/2-x,1/2-y,-z
1/2+x,1/2-y,z
loop_
_atom_site_type_symbol
_atom_site_label
_atom_site_fract_x
_atom_site_fract_y
_atom_site_fract_z
Si Si1 0.245961 0.183195 0.320894
Si Si2 0.710062 0.319719 0.538351
Si Si3 0.072829 0.681920 0.796632
Si Si4 0.918801 0.316800 0.795440
Si Si5 0.836264 0.682755 0.050380
Si Si6 0.103267 0.315241 0.684122
Si Si7 0.487165 0.318623 0.060443
Si Si8 0.958206 0.326340 0.542394
O O1 0.250301 0.246421 0.387421
O O2 0.163524 0.231191 0.254427
O O3 0.319103 0.251155 0.314827
O O4 0.252049 0.000000 0.326951
O O5 0.727597 0.500000 0.548301
O O6 0.750000 0.250000 0.500000
O O7 0.615545 0.289968 0.493108
O O8 0.064585 0.500000 0.785028
O O9 0.141071 0.722986 0.873518
O O10 0.099007 0.754954 0.747013
O O11 0.986369 0.743196 0.780233
O O12 0.906145 0.500000 0.785608
O O13 0.947749 0.274050 0.872635
O O14 0.839615 0.500000 0.040485
O O15 0.897327 0.766938 0.034980
O O16 0.750000 0.750000 0.000000
O O17 0.108562 0.500000 0.686546
O O18 0.021903 0.260789 0.616688
O O19 0.498319 0.500000 0.077283
O O20 0.500000 0.275175 0.000000
O O21 0.928684 0.500000 0.546113
O O22 0.000000 0.333290 0.500000
#
# Coordination Sequence:
#
# PCOD8094387 Si02
#       8
#     8   8   8   8   8   8   8   8
#     4  11  22  39  60  86 118 154 196 240 288 346
#     4  12  26  42  60  85 117 153 197 248 298 351
#     4   8  17  34  55  81 110 147 191 229 277 342
#     4  10  21  37  58  86 119 155 194 243 296 346
#     4  10  20  35  57  85 119 153 192 241 293 351
#     4   9  18  34  58  83 112 150 189 229 281 344
#     4  10  21  38  60  85 114 155 204 249 296 350
#     4  10  19  37  62  87 115 150 190 235 291 350
#
# _framework density 19.204094999999999
#
# number of rings (size 3 to 8) (size 9 to 14) (size 15 to 20)
#    0.000    2.000    1.250    3.375    1.750    2.250 
#    0.000    2.500    0.000    9.000    0.000    0.000 
#    0.000    0.000    0.000    0.000    0.000    0.000 
#
# Total GULP energy -396825.519168 kJ/mol
# GULP energy per Si atom -12400.797474 kJ/mol
# Density = 1.916039 g / cm^3
# Si number density = 19.204095 Si / 1000 Ang^3
#
#
#
# Elastic Constant Matrix: (Units=GPa)
#
#
# Indices 1 2 3 4 5 6 
#
# 1 100.0998 27.3896 71.7029 0.0000 -7.2148 0.0000
# 2 27.3896 58.4851 25.4537 0.0000 -5.6145 0.0000
# 3 71.7029 25.4537 130.4598 0.0000 -3.1181 0.0000
# 4 0.0000 0.0000 0.0000 31.2170 0.0000 2.9625
# 5 -7.2148 -5.6145 -3.1181 0.0000 41.9970 0.0000
# 6 0.0000 0.0000 0.0000 2.9625 0.0000 22.4193
#
#
#
# Elastic Compliance Matrix: (Units=1/GPa)
#
#
# Indices 1 2 3 4 5 6 
#
# 1 0.017575 -0.004232 -0.008791 0.000000 0.001801 0.000000
# 2 -0.004232 0.019915 -0.001516 0.000000 0.001823 0.000000
# 3 -0.008791 -0.001516 0.012774 0.000000 -0.000764 0.000000
# 4 0.000000 0.000000 0.000000 0.032441 0.000000 -0.004287
# 5 0.001801 0.001823 -0.000764 0.000000 0.024308 0.000000
# 6 0.000000 0.000000 0.000000 -0.004287 0.000000 0.045171
#
#
# Mechanical properties :
#
#
# Convention : Reuss Voigt Hill
#
# Bulk Modulus (GPa) = 47.19929 59.79300 53.49614
# Shear Modulus (GPa) = 26.55028 30.09324 28.32176
#
# Velocity S-wave (km/s) = 3.72228 3.96286 3.84445
# Velocity P-wave (km/s) = 6.56543 7.22095 6.90098
#
# Compressibility (1/GPa) = 0.02118676
#
# Stress axis : x y z
#
# Youngs Moduli (GPa) = 56.90049 50.21336 78.28291
#
# Poissons Ratio (x) = 0.21249 0.68815
# Poissons Ratio (y) = 0.24079 0.11869
# Poissons Ratio (z) = 0.50019 0.07613
#
# Static dielectric constant tensor:
#      x y z
#    x 3.718090 0.000000 -0.144820 
#    y 0.000000 3.409790 0.000000 
#    z -0.144820 0.000000 3.641420 
# 
# 
# High freq. dielectric constant tensor:
#      x y z
#    x 1.753080 0.000000 -0.001050 
#    y 0.000000 1.729970 0.000000 
#    z -0.001050 0.000000 1.759150 
# 
# From -- ./inp_files/346177.got.cif
#   From: 2010.06.25/outbox.cif.g09.slc.cpg/sg12_174_cif.got.tgz:346177.got - 2010.06.28 00:19:55.
