data_PCOD8094143
_publ_section_title
;
Structure prediction by ZEFSAII (Michael W. Deem and Ramdas Pophale) SiO2 
 PCOD8094143
Probable space group: C 2/M
;
_chemical_formula_sum "Si O2"
_cell_formula_units_Z 64
_cell_length_a 17.215390
_cell_length_b 14.627112
_cell_length_c 13.936483
_cell_angle_alpha 90.000000
_cell_angle_beta 64.298612
_cell_angle_gamma 90.000000
_cell_volume 3162.172031
_symmetry_space_group_name_H-M "C 2/M"
_symmetry_group_IT_number 12
_symmetry_cell_setting 'monoclinic'
loop_
_space_group_symop_operation_xyz
x,y,z
-x,y,-z
-x,-y,-z
x,-y,z
1/2+x,1/2+y,z
1/2-x,1/2+y,-z
1/2-x,1/2-y,-z
1/2+x,1/2-y,z
loop_
_atom_site_type_symbol
_atom_site_label
_atom_site_fract_x
_atom_site_fract_y
_atom_site_fract_z
Si Si1 0.121703 0.769952 0.816644
Si Si2 0.939728 0.225960 0.450447
Si Si3 0.667250 0.673103 0.153639
Si Si4 0.310369 0.773459 0.666124
Si Si5 0.046670 0.397422 0.338531
Si Si6 0.494291 0.899079 0.152942
Si Si7 0.016431 0.103893 0.753390
Si Si8 0.650824 0.189168 0.996023
O O1 0.208743 0.791164 0.710818
O O2 0.053863 0.850561 0.830454
O O3 0.142185 0.767939 0.919031
O O4 0.084595 0.671582 0.804273
O O5 0.843452 0.234876 0.545520
O O6 0.943819 0.162983 0.354762
O O7 0.000000 0.180650 0.500000
O O8 0.972310 0.328998 0.413629
O O9 0.669896 0.697255 0.264097
O O10 0.587477 0.604165 0.183777
O O11 0.760209 0.632253 0.070378
O O12 0.651275 0.763917 0.099568
O O13 0.360545 0.865573 0.670352
O O14 0.027898 0.500000 0.386400
O O15 0.046794 0.396003 0.223795
O O16 0.456422 0.000000 0.153516
O O17 0.567102 0.875825 0.033362
O O18 0.048006 0.000000 0.726888
#
# Coordination Sequence:
#
# PCOD8094143 Si02
#       8
#     8   8   8   8   8   8   8   8
#     4  11  23  39  59  88 126 159 190 246 298 350
#     4  10  19  39  65  89 114 154 201 245 303 344
#     4  10  19  39  59  90 113 153 199 245 290 341
#     4  10  20  37  64  88 121 155 194 245 298 349
#     4  10  19  36  65  93 118 150 197 249 295 349
#     4  11  21  38  63  89 120 157 195 240 300 356
#     4  12  24  41  60  85 123 160 200 242 293 361
#     4  10  20  36  67  83 117 154 195 243 299 350
#
# _framework density 20.239253999999999
#
# number of rings (size 3 to 8) (size 9 to 14) (size 15 to 20)
#    0.000    1.500    6.250    0.375    0.000    5.000 
#    0.000    3.750    0.000    0.000    0.000    0.000 
#    0.000    0.000    0.000    0.000    0.000    0.000 
#
# Total GULP energy -396651.044759 kJ/mol
# GULP energy per Si atom -12395.345149 kJ/mol
# Density = 2.019319 g / cm^3
# Si number density = 20.239254 Si / 1000 Ang^3
#
#
#
# Elastic Constant Matrix: (Units=GPa)
#
#
# Indices 1 2 3 4 5 6 
#
# 1 91.2452 36.1714 27.0640 0.0000 -20.3048 0.0000
# 2 36.1714 116.4450 33.5286 0.0000 -13.3877 0.0000
# 3 27.0640 33.5286 91.5900 0.0000 -20.2589 0.0000
# 4 0.0000 0.0000 0.0000 12.6275 0.0000 2.7525
# 5 -20.3048 -13.3877 -20.2589 0.0000 30.5246 0.0000
# 6 0.0000 0.0000 0.0000 2.7525 0.0000 16.0469
#
#
#
# Elastic Compliance Matrix: (Units=1/GPa)
#
#
# Indices 1 2 3 4 5 6 
#
# 1 0.014237 -0.003183 -0.001472 0.000000 0.007098 0.000000
# 2 -0.003183 0.010439 -0.002739 0.000000 0.000644 0.000000
# 3 -0.001472 -0.002739 0.013916 0.000000 0.007056 0.000000
# 4 0.000000 0.000000 0.000000 0.082268 0.000000 -0.014111
# 5 0.007098 0.000644 0.007056 0.000000 0.042447 0.000000
# 6 0.000000 0.000000 0.000000 -0.014111 0.000000 0.064738
#
#
# Mechanical properties :
#
#
# Convention : Reuss Voigt Hill
#
# Bulk Modulus (GPa) = 42.00582 54.75647 48.38115
# Shear Modulus (GPa) = 19.93878 25.34087 22.63982
#
# Velocity S-wave (km/s) = 3.14212 3.54229 3.34819
# Velocity P-wave (km/s) = 5.82783 6.62146 6.23728
#
# Compressibility (1/GPa) = 0.02380622
#
# Stress axis : x y z
#
# Youngs Moduli (GPa) = 70.23848 95.79539 71.85768
#
# Poissons Ratio (x) = 0.30488 0.10577
# Poissons Ratio (y) = 0.22355 0.19679
# Poissons Ratio (z) = 0.10338 0.26234
#
# Static dielectric constant tensor:
#      x y z
#    x 3.798720 0.000000 -0.011130 
#    y 0.000000 3.341630 0.000000 
#    z -0.011130 0.000000 3.952050 
# 
# 
# High freq. dielectric constant tensor:
#      x y z
#    x 1.791130 0.000000 0.001400 
#    y 0.000000 1.750150 0.000000 
#    z 0.001400 0.000000 1.803820 
# 
# From -- ./inp_files/225255.got.cif
#   From: 2010.06.25/outbox.cif.g09.slc.cpg/sg12_113_cif.got.tgz:225255.got - 2010.06.28 00:19:55.
