data_PCOD8094231
_publ_section_title
;
Structure prediction by ZEFSAII (Michael W. Deem and Ramdas Pophale) SiO2 
 PCOD8094231
Probable space group: C 2/M
;
_chemical_formula_sum "Si O2"
_cell_formula_units_Z 56
_cell_length_a 11.673556
_cell_length_b 16.884313
_cell_length_c 15.527828
_cell_angle_alpha 90.000000
_cell_angle_beta 68.783867
_cell_angle_gamma 90.000000
_cell_volume 2853.097395
_symmetry_space_group_name_H-M "C 2/M"
_symmetry_group_IT_number 12
_symmetry_cell_setting 'monoclinic'
loop_
_space_group_symop_operation_xyz
x,y,z
-x,y,-z
-x,-y,-z
x,-y,z
1/2+x,1/2+y,z
1/2-x,1/2+y,-z
1/2-x,1/2-y,-z
1/2+x,1/2-y,z
loop_
_atom_site_type_symbol
_atom_site_label
_atom_site_fract_x
_atom_site_fract_y
_atom_site_fract_z
Si Si1 0.999479 0.411679 0.344430
Si Si2 0.279329 0.672213 0.858815
Si Si3 0.245519 0.347958 0.205052
Si Si4 0.446568 0.131738 0.179371
Si Si5 0.200923 0.588035 0.042184
Si Si6 0.462129 0.303328 0.254366
Si Si7 0.601015 0.235758 0.547869
O O1 0.016233 0.500000 0.379102
O O2 0.936402 0.420816 0.268105
O O3 0.915529 0.358392 0.430288
O O4 0.127443 0.365176 0.296408
O O5 0.261154 0.763563 0.840129
O O6 0.179821 0.619321 0.836313
O O7 0.413774 0.646285 0.790608
O O8 0.264658 0.653798 0.964224
O O9 0.257671 0.409489 0.123298
O O10 0.356475 0.356568 0.241081
O O11 0.555381 0.104206 0.087177
O O12 0.473223 0.222061 0.198534
O O13 0.224494 0.500000 0.999066
O O14 0.438459 0.288774 0.360837
O O15 0.500000 0.258869 0.500000
O O16 0.750000 0.250000 0.500000
#
# Coordination Sequence:
#
# PCOD8094231 Si02
#       7
#     8   8   8   8   8   8   8
#     4  10  20  38  63  90 119 156 197 244 299 362
#     4  11  20  34  57  83 122 153 207 246 299 351
#     4  10  19  37  59  85 119 158 205 246 289 352
#     4   9  19  33  57  82 116 156 201 248 289 345
#     4  11  22  36  54  84 121 161 206 253 293 342
#     4  10  21  36  58  87 114 154 196 246 304 359
#     4  11  23  39  67  98 125 153 200 258 308 370
#
# _framework density 19.627791999999999
#
# number of rings (size 3 to 8) (size 9 to 14) (size 15 to 20)
#    0.000    1.714    4.286    3.429    4.000    2.571 
#    0.000    2.143    0.000    1.286    0.000    0.000 
#    0.000    0.000    0.000    0.000    0.000    0.000 
#
# Total GULP energy -346931.964146 kJ/mol
# GULP energy per Si atom -12390.427291 kJ/mol
# Density = 1.958312 g / cm^3
# Si number density = 19.627792 Si / 1000 Ang^3
#
#
#
# Elastic Constant Matrix: (Units=GPa)
#
#
# Indices 1 2 3 4 5 6 
#
# 1 161.6348 37.8314 67.7693 0.0000 1.0465 0.0000
# 2 37.8314 82.0025 38.4172 0.0000 -12.8441 0.0000
# 3 67.7693 38.4172 108.9301 0.0000 -12.0201 0.0000
# 4 0.0000 0.0000 0.0000 12.6111 0.0000 3.9641
# 5 1.0465 -12.8441 -12.0201 0.0000 24.8139 0.0000
# 6 0.0000 0.0000 0.0000 3.9641 0.0000 12.4063
#
#
#
# Elastic Compliance Matrix: (Units=1/GPa)
#
#
# Indices 1 2 3 4 5 6 
#
# 1 0.008935 -0.002333 -0.005188 0.000000 -0.004098 0.000000
# 2 -0.002333 0.015923 -0.003427 0.000000 0.006680 0.000000
# 3 -0.005188 -0.003427 0.014204 0.000000 0.005325 0.000000
# 4 0.000000 0.000000 0.000000 0.088148 0.000000 -0.028165
# 5 -0.004098 0.006680 0.005325 0.000000 0.046510 0.000000
# 6 0.000000 0.000000 0.000000 -0.028165 0.000000 0.089604
#
#
# Mechanical properties :
#
#
# Convention : Reuss Voigt Hill
#
# Bulk Modulus (GPa) = 58.25610 71.17815 64.71713
# Shear Modulus (GPa) = 17.18558 23.86957 20.52757
#
# Velocity S-wave (km/s) = 2.96222 3.49106 3.23746
# Velocity P-wave (km/s) = 6.43774 7.25208 6.85701
#
# Compressibility (1/GPa) = 0.01716558
#
# Stress axis : x y z
#
# Youngs Moduli (GPa) = 111.92549 62.80213 70.40314
#
# Poissons Ratio (x) = 0.14654 0.36523
# Poissons Ratio (y) = 0.26116 0.24127
# Poissons Ratio (z) = 0.58064 0.21522
#
# Static dielectric constant tensor:
#      x y z
#    x 4.024570 0.000000 0.060710 
#    y 0.000000 3.335890 0.000000 
#    z 0.060710 0.000000 3.549390 
# 
# 
# High freq. dielectric constant tensor:
#      x y z
#    x 1.771910 0.000000 0.004760 
#    y 0.000000 1.738380 0.000000 
#    z 0.004760 0.000000 1.759900 
# 
# From -- ./inp_files/206577.got.cif
#   From: 2010.06.25/outbox.cif.g09.slc.cpg/sg12_104_cif.got.tgz:206577.got - 2010.06.28 00:19:55.
