data_PCOD8094984
_publ_section_title
;
Structure prediction by ZEFSAII (Michael W. Deem and Ramdas Pophale) SiO2 
 PCOD8094984
Probable space group: C 2/M
;
_chemical_formula_sum "Si O2"
_cell_formula_units_Z 48
_cell_length_a 26.856360
_cell_length_b 10.474617
_cell_length_c 18.378779
_cell_angle_alpha 90.000000
_cell_angle_beta 149.346022
_cell_angle_gamma 90.000000
_cell_volume 2636.004583
_symmetry_space_group_name_H-M "C 2/M"
_symmetry_group_IT_number 12
_symmetry_cell_setting 'monoclinic'
loop_
_space_group_symop_operation_xyz
x,y,z
-x,y,-z
-x,-y,-z
x,-y,z
1/2+x,1/2+y,z
1/2-x,1/2+y,-z
1/2-x,1/2-y,-z
1/2+x,1/2-y,z
loop_
_atom_site_type_symbol
_atom_site_label
_atom_site_fract_x
_atom_site_fract_y
_atom_site_fract_z
Si Si1 0.574334 0.764376 0.152507
Si Si2 0.676105 0.135580 0.409352
Si Si3 0.553764 0.849547 0.497278
Si Si4 0.489833 0.145394 0.261554
Si Si5 0.072895 0.144767 0.928171
Si Si6 0.229044 0.852231 0.242699
O O1 0.609615 0.871622 0.253064
O O2 0.516196 0.657328 0.126258
O O3 0.670633 0.708381 0.236321
O O4 0.500000 0.824868 0.000000
O O5 0.750000 0.250000 0.500000
O O6 0.604957 0.152133 0.388259
O O7 0.732292 0.000000 0.485899
O O8 0.500000 0.789333 0.500000
O O9 0.485573 0.819728 0.341593
O O10 0.662875 0.790286 0.627206
O O11 0.566041 0.000000 0.523457
O O12 0.430749 0.251087 0.141307
O O13 0.450565 0.000000 0.197416
O O14 0.069696 0.000000 0.892669
O O15 0.174198 0.170489 0.097270
O O16 0.236037 0.000000 0.270409
#
# Coordination Sequence:
#
# PCOD8094984 Si02
#       6
#     8   8   8   8   8   8
#     4   9  17  29  46  69  97 126 156 189 228 273
#     4  10  20  31  45  68  97 128 158 190 230 276
#     4   9  17  30  49  69  88 118 161 201 234 272
#     4   9  18  32  48  67  94 124 153 192 237 276
#     4   9  17  29  48  73  98 125 154 185 228 282
#     4   9  16  28  46  69  96 123 156 196 231 268
#
# _framework density 18.209377
#
# number of rings (size 3 to 8) (size 9 to 14) (size 15 to 20)
#    0.000    2.833    0.000    1.500    0.000    7.000 
#    0.000    3.333    0.000    1.500    0.000    0.000 
#    0.000    0.000    0.000    0.000    0.000    0.000 
#
# Total GULP energy -297407.187443 kJ/mol
# GULP energy per Si atom -12391.966143 kJ/mol
# Density = 1.816793 g / cm^3
# Si number density = 18.209377 Si / 1000 Ang^3
#
#
#
# Elastic Constant Matrix: (Units=GPa)
#
#
# Indices 1 2 3 4 5 6 
#
# 1 98.6085 17.1881 34.8374 0.0000 -14.3525 0.0000
# 2 17.1881 78.2881 24.8359 0.0000 -13.7852 0.0000
# 3 34.8374 24.8359 62.3811 0.0000 -7.4491 0.0000
# 4 0.0000 0.0000 0.0000 20.6048 0.0000 -2.0673
# 5 -14.3525 -13.7852 -7.4491 0.0000 27.3943 0.0000
# 6 0.0000 0.0000 0.0000 -2.0673 0.0000 12.3776
#
#
#
# Elastic Compliance Matrix: (Units=1/GPa)
#
#
# Indices 1 2 3 4 5 6 
#
# 1 0.013294 0.000175 -0.006875 0.000000 0.005184 0.000000
# 2 0.000175 0.015631 -0.005551 0.000000 0.006448 0.000000
# 3 -0.006875 -0.005551 0.022032 0.000000 -0.000404 0.000000
# 4 0.000000 0.000000 0.000000 0.049360 0.000000 0.008244
# 5 0.005184 0.006448 -0.000404 0.000000 0.042355 0.000000
# 6 0.000000 0.000000 0.000000 0.008244 0.000000 0.082168
#
#
# Mechanical properties :
#
#
# Convention : Reuss Voigt Hill
#
# Bulk Modulus (GPa) = 37.79990 43.66670 40.73330
# Shear Modulus (GPa) = 19.36791 22.90309 21.13550
#
# Velocity S-wave (km/s) = 3.26486 3.55034 3.41059
# Velocity P-wave (km/s) = 5.91743 6.39054 6.15853
#
# Compressibility (1/GPa) = 0.02645509
#
# Stress axis : x y z
#
# Youngs Moduli (GPa) = 75.22258 63.97411 45.38943
#
# Poissons Ratio (x) = -0.01120 0.31204
# Poissons Ratio (y) = -0.01317 0.25196
# Poissons Ratio (z) = 0.51714 0.35512
#
# Static dielectric constant tensor:
#      x y z
#    x 3.411880 0.000000 -0.099890 
#    y 0.000000 3.074970 0.000000 
#    z -0.099890 0.000000 3.507330 
# 
# 
# High freq. dielectric constant tensor:
#      x y z
#    x 1.691190 0.000000 -0.017200 
#    y 0.000000 1.670760 0.000000 
#    z -0.017200 0.000000 1.708410 
# 
# From -- ./inp_files/292944.got.cif
#   From: 2010.06.25/outbox.cif.g09.slc.cpg/sg12_147_cif.got.tgz:292944.got - 2010.06.28 00:19:55.
