data_PCOD8094209
_publ_section_title
;
Structure prediction by ZEFSAII (Michael W. Deem and Ramdas Pophale) SiO2 
 PCOD8094209
Probable space group: C 2/M
;
_chemical_formula_sum "Si O2"
_cell_formula_units_Z 56
_cell_length_a 15.059395
_cell_length_b 17.914595
_cell_length_c 17.191336
_cell_angle_alpha 90.000000
_cell_angle_beta 37.445755
_cell_angle_gamma 90.000000
_cell_volume 2819.907761
_symmetry_space_group_name_H-M "C 2/M"
_symmetry_group_IT_number 12
_symmetry_cell_setting 'monoclinic'
loop_
_space_group_symop_operation_xyz
x,y,z
-x,y,-z
-x,-y,-z
x,-y,z
1/2+x,1/2+y,z
1/2-x,1/2+y,-z
1/2-x,1/2-y,-z
1/2+x,1/2-y,z
loop_
_atom_site_type_symbol
_atom_site_label
_atom_site_fract_x
_atom_site_fract_y
_atom_site_fract_z
Si Si1 0.645379 0.179722 0.088933
Si Si2 0.059393 0.584279 0.872191
Si Si3 0.825897 0.087217 0.213563
Si Si4 0.762801 0.296066 0.607270
Si Si5 0.647291 0.414361 0.976293
Si Si6 0.986872 0.247336 0.332421
Si Si7 0.143745 0.161201 0.353042
O O1 0.524068 0.153195 0.112069
O O2 0.748499 0.107917 0.025937
O O3 0.575700 0.193802 0.220842
O O4 0.750000 0.250000 0.000000
O O5 0.031816 0.500000 0.857507
O O6 0.234701 0.597482 0.745682
O O7 0.000000 0.587435 0.000000
O O8 0.729869 0.131052 0.343575
O O9 0.776656 0.105134 0.159394
O O10 0.812704 0.000000 0.243394
O O11 0.989512 0.122256 0.101979
O O12 0.902110 0.297356 0.454296
O O13 0.619111 0.297262 0.652990
O O14 0.773157 0.223987 0.654878
O O15 0.609475 0.500000 0.003827
O O16 0.093086 0.189873 0.303312
O O17 0.000000 0.131409 0.500000
#
# Coordination Sequence:
#
# PCOD8094209 Si02
#       7
#     8   8   8   8   8   8   8
#     4  12  22  37  61  91 115 154 206 250 304 369
#     4  11  25  43  61  88 127 162 202 260 312 361
#     4   9  18  34  56  84 118 156 193 243 305 366
#     4  10  19  37  58  84 122 150 200 254 299 361
#     4   9  19  34  54  83 120 154 190 242 306 359
#     4  10  21  35  59  87 116 153 198 253 304 349
#     4  10  21  40  65  89 121 165 203 250 309 366
#
# _framework density 19.858806000000001
#
# number of rings (size 3 to 8) (size 9 to 14) (size 15 to 20)
#    0.000    1.857    1.429    3.857    0.000    0.286 
#    0.000    3.571    0.000    5.571    0.000    0.000 
#    0.000    0.000    0.000    0.000    0.000    0.000 
#
# Total GULP energy -346906.405649 kJ/mol
# GULP energy per Si atom -12389.514487 kJ/mol
# Density = 1.981361 g / cm^3
# Si number density = 19.858806 Si / 1000 Ang^3
#
#
#
# Elastic Constant Matrix: (Units=GPa)
#
#
# Indices 1 2 3 4 5 6 
#
# 1 98.1569 34.5597 31.1010 0.0000 -9.4564 -0.0004
# 2 34.5597 76.4539 58.5360 -0.0001 0.5711 -0.0006
# 3 31.1010 58.5360 102.7766 -0.0022 3.8168 -0.0030
# 4 0.0000 -0.0001 -0.0022 19.4633 0.0006 -9.5698
# 5 -9.4564 0.5711 3.8168 0.0006 29.9709 0.0009
# 6 -0.0004 -0.0006 -0.0030 -9.5698 0.0009 24.6139
#
#
#
# Elastic Compliance Matrix: (Units=1/GPa)
#
#
# Indices 1 2 3 4 5 6 
#
# 1 0.012688 -0.004799 -0.001264 -0.000001 0.004256 0.000000
# 2 -0.004799 0.025056 -0.012805 -0.000002 -0.000361 -0.000002
# 3 -0.001264 -0.012805 0.017494 0.000004 -0.002383 0.000003
# 4 -0.000001 -0.000002 0.000004 0.063522 -0.000003 0.024697
# 5 0.004256 -0.000361 -0.002383 -0.000003 0.035019 -0.000003
# 6 0.000000 -0.000002 0.000003 0.024697 -0.000003 0.050230
#
#
# Mechanical properties :
#
#
# Convention : Reuss Voigt Hill
#
# Bulk Modulus (GPa) = 57.13882 58.42009 57.77945
# Shear Modulus (GPa) = 20.19565 25.02232 22.60898
#
# Velocity S-wave (km/s) = 3.19244 3.55351 3.37781
# Velocity P-wave (km/s) = 6.51337 6.80575 6.66116
#
# Compressibility (1/GPa) = 0.01750124
#
# Stress axis : x y z
#
# Youngs Moduli (GPa) = 78.81397 39.91110 57.16353
#
# Poissons Ratio (x) = 0.19155 0.07226
# Poissons Ratio (y) = 0.37826 0.73196
# Poissons Ratio (z) = 0.09963 0.51105
#
# Static dielectric constant tensor:
#      x y z
#    x 3.721600 0.000000 -0.150680 
#    y 0.000000 3.391070 0.000000 
#    z -0.150680 0.000000 3.710110 
# 
# 
# High freq. dielectric constant tensor:
#      x y z
#    x 1.783250 0.000000 -0.001950 
#    y 0.000000 1.749570 0.000000 
#    z -0.001950 0.000000 1.783490 
# 
# From -- ./inp_files/271399.got.cif
#   From: 2010.06.25/outbox.cif.g09.slc.cpg/sg12_136_cif.got.tgz:271399.got - 2010.06.28 00:19:55.
