data_PCOD8094107
_publ_section_title
;
Structure prediction by ZEFSAII (Michael W. Deem and Ramdas Pophale) SiO2 
 PCOD8094107
Probable space group: C 2/M
;
_chemical_formula_sum "Si O2"
_cell_formula_units_Z 48
_cell_length_a 13.908873
_cell_length_b 13.802335
_cell_length_c 13.737782
_cell_angle_alpha 90.000000
_cell_angle_beta 121.129437
_cell_angle_gamma 90.000000
_cell_volume 2257.541268
_symmetry_space_group_name_H-M "C 2/M"
_symmetry_group_IT_number 12
_symmetry_cell_setting 'monoclinic'
loop_
_space_group_symop_operation_xyz
x,y,z
-x,y,-z
-x,-y,-z
x,-y,z
1/2+x,1/2+y,z
1/2-x,1/2+y,-z
1/2-x,1/2-y,-z
1/2+x,1/2-y,z
loop_
_atom_site_type_symbol
_atom_site_label
_atom_site_fract_x
_atom_site_fract_y
_atom_site_fract_z
Si Si1 0.820372 0.386094 0.077455
Si Si2 0.570990 0.891111 0.198944
Si Si3 0.235361 0.108872 0.837114
Si Si4 0.958712 0.212735 0.374059
Si Si5 0.329359 0.272443 0.630972
Si Si6 0.814833 0.386461 0.293449
O O1 0.828312 0.500000 0.060109
O O2 0.771637 0.365681 0.159865
O O3 0.946819 0.343649 0.131694
O O4 0.738054 0.344746 0.948478
O O5 0.633745 0.889990 0.127630
O O6 0.651098 0.831264 0.311588
O O7 0.563574 0.000000 0.237172
O O8 0.158917 0.168117 0.722288
O O9 0.187117 0.000000 0.812441
O O10 0.932129 0.328215 0.370154
O O11 0.000000 0.172563 0.500000
O O12 0.052797 0.185132 0.345116
O O13 0.250000 0.250000 0.500000
O O14 0.278876 0.350103 0.679874
O O15 0.838531 0.500000 0.321903
#
# Coordination Sequence:
#
# PCOD8094107 Si02
#       6
#     8   8   8   8   8   8
#     4   9  19  38  65  96 129 167 218 268 319 388
#     4  10  19  36  63  95 127 164 214 273 324 371
#     4  10  21  39  64  96 133 169 211 269 328 383
#     4  12  24  43  67  93 129 168 222 268 318 394
#     4  12  24  42  61  94 133 165 217 274 321 387
#     4  11  24  43  66  95 131 171 213 266 329 383
#
# _framework density 21.262067999999999
#
# number of rings (size 3 to 8) (size 9 to 14) (size 15 to 20)
#    0.000    1.333    5.000    0.500    0.000    4.667 
#    0.000    0.833    0.000    3.000    0.000    0.000 
#    0.000    0.000    0.000    0.000    0.000    0.000 
#
# Total GULP energy -297465.093503 kJ/mol
# GULP energy per Si atom -12394.378896 kJ/mol
# Density = 2.121367 g / cm^3
# Si number density = 21.262068 Si / 1000 Ang^3
#
#
#
# Elastic Constant Matrix: (Units=GPa)
#
#
# Indices 1 2 3 4 5 6 
#
# 1 138.4362 28.0343 46.2108 0.0000 -14.4025 0.0000
# 2 28.0343 65.0115 50.9716 0.0000 -2.0417 0.0000
# 3 46.2108 50.9716 161.7768 0.0000 -8.2993 0.0000
# 4 0.0000 0.0000 0.0000 25.0614 0.0000 -5.6858
# 5 -14.4025 -2.0417 -8.2993 0.0000 33.7979 0.0000
# 6 0.0000 0.0000 0.0000 -5.6858 0.0000 25.8479
#
#
#
# Elastic Compliance Matrix: (Units=1/GPa)
#
#
# Indices 1 2 3 4 5 6 
#
# 1 0.008542 -0.002388 -0.001527 0.000000 0.003121 0.000000
# 2 -0.002388 0.021100 -0.006029 0.000000 -0.001223 0.000000
# 3 -0.001527 -0.006029 0.008573 0.000000 0.001090 0.000000
# 4 0.000000 0.000000 0.000000 0.041998 0.000000 0.009238
# 5 0.003121 -0.001223 0.001090 0.000000 0.031111 0.000000
# 6 0.000000 0.000000 0.000000 0.009238 0.000000 0.040720
#
#
# Mechanical properties :
#
#
# Convention : Reuss Voigt Hill
#
# Bulk Modulus (GPa) = 54.56514 68.40645 61.48579
# Shear Modulus (GPa) = 28.08350 32.94196 30.51273
#
# Velocity S-wave (km/s) = 3.63826 3.94042 3.79235
# Velocity P-wave (km/s) = 6.58545 7.27636 6.93951
#
# Compressibility (1/GPa) = 0.01832672
#
# Stress axis : x y z
#
# Youngs Moduli (GPa) = 117.07392 47.39370 116.64411
#
# Poissons Ratio (x) = 0.11316 0.17817
# Poissons Ratio (y) = 0.27954 0.70321
# Poissons Ratio (z) = 0.17883 0.28572
#
# Static dielectric constant tensor:
#      x y z
#    x 3.996400 0.000000 -0.227160 
#    y 0.000000 3.748300 0.000000 
#    z -0.227160 0.000000 3.959440 
# 
# 
# High freq. dielectric constant tensor:
#      x y z
#    x 1.831200 0.000000 -0.015480 
#    y 0.000000 1.819820 0.000000 
#    z -0.015480 0.000000 1.841630 
# 
# From -- ./inp_files/143891.got.cif
#   From: 2010.06.25/outbox.cif.g09.slc.cpg/sg12_72_cif.got.tgz:143891.got - 2010.06.28 00:19:55.
