data_PCOD8094805
_publ_section_title
;
Structure prediction by ZEFSAII (Michael W. Deem and Ramdas Pophale) SiO2 
 PCOD8094805
Probable space group: C 2/M
;
_chemical_formula_sum "Si O2"
_cell_formula_units_Z 56
_cell_length_a 22.656036
_cell_length_b 24.598253
_cell_length_c 5.169201
_cell_angle_alpha 90.000000
_cell_angle_beta 115.222140
_cell_angle_gamma 90.000000
_cell_volume 2606.142614
_symmetry_space_group_name_H-M "C 2/M"
_symmetry_group_IT_number 12
_symmetry_cell_setting 'monoclinic'
loop_
_space_group_symop_operation_xyz
x,y,z
-x,y,-z
-x,-y,-z
x,-y,z
1/2+x,1/2+y,z
1/2-x,1/2+y,-z
1/2-x,1/2-y,-z
1/2+x,1/2-y,z
loop_
_atom_site_type_symbol
_atom_site_label
_atom_site_fract_x
_atom_site_fract_y
_atom_site_fract_z
Si Si1 0.628495 0.633087 0.196396
Si Si2 0.247724 0.141940 0.126010
Si Si3 0.170297 0.560393 0.421787
Si Si4 0.701651 0.559390 0.654153
Si Si5 0.867769 0.705992 0.268674
Si Si6 0.574193 0.319651 0.609970
Si Si7 0.576543 0.150926 0.123694
O O1 0.700347 0.661064 0.273098
O O2 0.648851 0.571910 0.326450
O O3 0.586768 0.661534 0.341597
O O4 0.585890 0.634226 0.852939
O O5 0.300623 0.095476 0.290062
O O6 0.290071 0.192478 0.098802
O O7 0.197243 0.112158 0.833700
O O8 0.151122 0.500000 0.483659
O O9 0.224372 0.556363 0.301833
O O10 0.106294 0.590448 0.195638
O O11 0.683812 0.500000 0.742620
O O12 0.876513 0.770122 0.238701
O O13 0.894465 0.690395 0.602101
O O14 0.907751 0.674529 0.126806
O O15 0.500000 0.299367 0.500000
O O16 0.500000 0.145570 0.000000
#
# Coordination Sequence:
#
# PCOD8094805 Si02
#       7
#     8   8   8   8   8   8   8
#     4  11  24  42  65  99 123 161 207 257 309 368
#     4  10  20  39  64  95 130 154 204 260 314 359
#     4   9  19  33  56  88 122 164 206 255 315 365
#     4  10  19  39  67  94 126 160 199 253 322 377
#     4  11  24  40  64  90 123 165 213 255 308 362
#     4  12  25  44  65  89 127 171 209 251 304 369
#     4  11  21  37  57  84 124 168 218 259 293 359
#
# _framework density 21.487696
#
# number of rings (size 3 to 8) (size 9 to 14) (size 15 to 20)
#    0.000    1.429    2.857    3.000    0.000    2.000 
#    0.000    0.000    0.000    5.143    0.000    0.000 
#    0.000    0.000    0.000    0.000    0.000    0.000 
#
# Total GULP energy -346952.839215 kJ/mol
# GULP energy per Si atom -12391.172829 kJ/mol
# Density = 2.143879 g / cm^3
# Si number density = 21.487696 Si / 1000 Ang^3
#
#
#
# Elastic Constant Matrix: (Units=GPa)
#
#
# Indices 1 2 3 4 5 6 
#
# 1 111.6803 26.5432 20.6827 0.0000 -14.9662 0.0000
# 2 26.5432 47.5693 19.7206 0.0000 0.8792 0.0000
# 3 20.6827 19.7206 80.1532 0.0000 -8.2697 0.0000
# 4 0.0000 0.0000 0.0000 25.6151 0.0000 -1.2366
# 5 -14.9662 0.8792 -8.2697 0.0000 27.5922 0.0000
# 6 0.0000 0.0000 0.0000 -1.2366 0.0000 15.0433
#
#
#
# Elastic Compliance Matrix: (Units=1/GPa)
#
#
# Indices 1 2 3 4 5 6 
#
# 1 0.011381 -0.006134 -0.000795 0.000000 0.006130 0.000000
# 2 -0.006134 0.026891 -0.005639 0.000000 -0.005874 0.000000
# 3 -0.000795 -0.005639 0.014491 0.000000 0.004092 0.000000
# 4 0.000000 0.000000 0.000000 0.039195 0.000000 0.003222
# 5 0.006130 -0.005874 0.004092 0.000000 0.040981 0.000000
# 6 0.000000 0.000000 0.000000 0.003222 0.000000 0.066739
#
#
# Mechanical properties :
#
#
# Convention : Reuss Voigt Hill
#
# Bulk Modulus (GPa) = 36.19805 41.47732 38.83769
# Shear Modulus (GPa) = 21.36537 25.14722 23.25629
#
# Velocity S-wave (km/s) = 3.15668 3.42469 3.29341
# Velocity P-wave (km/s) = 5.49261 5.91462 5.70751
#
# Compressibility (1/GPa) = 0.02762580
#
# Stress axis : x y z
#
# Youngs Moduli (GPa) = 87.86764 37.18691 69.00879
#
# Poissons Ratio (x) = 0.22811 0.05486
# Poissons Ratio (y) = 0.53899 0.38917
# Poissons Ratio (z) = 0.06986 0.20971
#
# Static dielectric constant tensor:
#      x y z
#    x 3.910330 0.000000 -0.060560 
#    y 0.000000 3.951380 0.000000 
#    z -0.060560 0.000000 3.952100 
# 
# 
# High freq. dielectric constant tensor:
#      x y z
#    x 1.844840 0.000000 -0.009160 
#    y 0.000000 1.825150 0.000000 
#    z -0.009160 0.000000 1.840910 
# 
# From -- ./inp_files/26128.got.cif
#   From: 2010.06.25/outbox.cif.g09.slc.cpg/sg12_14_cif.got.tgz:26128.got - 2010.06.28 00:19:55.
