data_PCOD8094225
_publ_section_title
;
Structure prediction by ZEFSAII (Michael W. Deem and Ramdas Pophale) SiO2 
 PCOD8094225
Probable space group: C 2/M
;
_chemical_formula_sum "Si O2"
_cell_formula_units_Z 64
_cell_length_a 30.469947
_cell_length_b 17.058809
_cell_length_c 12.971300
_cell_angle_alpha 90.000000
_cell_angle_beta 149.301284
_cell_angle_gamma 90.000000
_cell_volume 3442.070597
_symmetry_space_group_name_H-M "C 2/M"
_symmetry_group_IT_number 12
_symmetry_cell_setting 'monoclinic'
loop_
_space_group_symop_operation_xyz
x,y,z
-x,y,-z
-x,-y,-z
x,-y,z
1/2+x,1/2+y,z
1/2-x,1/2+y,-z
1/2-x,1/2-y,-z
1/2+x,1/2-y,z
loop_
_atom_site_type_symbol
_atom_site_label
_atom_site_fract_x
_atom_site_fract_y
_atom_site_fract_z
Si Si1 0.936016 0.589088 0.776811
Si Si2 0.678358 0.217865 0.930502
Si Si3 0.166942 0.780186 0.131310
Si Si4 0.066294 0.798736 0.559851
Si Si5 0.762889 0.910276 0.597916
Si Si6 0.688361 0.663288 0.513248
Si Si7 0.974773 0.257399 0.745940
Si Si8 0.287508 0.590120 0.226284
O O1 0.948150 0.500000 0.759825
O O2 0.839067 0.602789 0.619544
O O3 0.958294 0.650066 0.730819
O O4 0.000000 0.605924 0.000000
O O5 0.593614 0.225785 0.689976
O O6 0.750000 0.250000 0.000000
O O7 0.674825 0.272701 0.024491
O O8 0.697365 0.128802 0.006375
O O9 0.196986 0.867385 0.221659
O O10 0.232390 0.723038 0.322601
O O11 0.070310 0.764636 0.977213
O O12 0.027952 0.759634 0.380799
O O13 0.138199 0.862098 0.680327
O O14 0.000000 0.845378 0.500000
O O15 0.811218 0.879824 0.594256
O O16 0.786174 0.000000 0.661215
O O17 0.597042 0.707394 0.339120
O O18 0.700356 0.598444 0.626735
O O19 0.289178 0.500000 0.196996
#
# Coordination Sequence:
#
# PCOD8094225 Si02
#       8
#     8   8   8   8   8   8   8   8
#     4  10  22  39  60  89 120 154 197 246 294 340
#     4   9  19  36  60  80 112 150 195 239 282 346
#     4  11  21  37  60  89 114 155 202 234 288 355
#     4  10  19  37  59  82 112 150 196 239 285 346
#     4  11  23  39  58  86 124 156 189 244 298 344
#     4  10  21  37  58  85 116 157 200 233 286 361
#     4  11  22  36  63  87 116 158 198 244 287 353
#     4   9  19  35  57  86 112 146 190 241 294 342
#
# _framework density 18.59346
#
# number of rings (size 3 to 8) (size 9 to 14) (size 15 to 20)
#    0.000    1.875    2.500    2.250    1.750    0.250 
#    0.000    9.375    0.000    0.750    0.000    0.000 
#    0.000    0.000    0.000    0.000    0.000    0.000 
#
# Total GULP energy -396616.733130 kJ/mol
# GULP energy per Si atom -12394.272910 kJ/mol
# Density = 1.855114 g / cm^3
# Si number density = 18.593460 Si / 1000 Ang^3
#
#
#
# Elastic Constant Matrix: (Units=GPa)
#
#
# Indices 1 2 3 4 5 6 
#
# 1 99.2949 58.4494 45.4291 0.0000 1.5050 0.0000
# 2 58.4494 132.4606 53.4378 0.0000 -4.7410 0.0000
# 3 45.4291 53.4378 89.1128 0.0000 11.8568 0.0000
# 4 0.0000 0.0000 0.0000 20.7270 0.0000 -1.9229
# 5 1.5050 -4.7410 11.8568 0.0000 30.3144 0.0000
# 6 0.0000 0.0000 0.0000 -1.9229 0.0000 14.0628
#
#
#
# Elastic Compliance Matrix: (Units=1/GPa)
#
#
# Indices 1 2 3 4 5 6 
#
# 1 0.015058 -0.004624 -0.004966 0.000000 0.000472 0.000000
# 2 -0.004624 0.011888 -0.005327 0.000000 0.004172 0.000000
# 3 -0.004966 -0.005327 0.017960 0.000000 -0.007611 0.000000
# 4 0.000000 0.000000 0.000000 0.048866 0.000000 0.006682
# 5 0.000472 0.004172 -0.007611 0.000000 0.036594 0.000000
# 6 0.000000 0.000000 0.000000 0.006682 0.000000 0.072023
#
#
# Mechanical properties :
#
#
# Convention : Reuss Voigt Hill
#
# Bulk Modulus (GPa) = 66.34645 70.61121 68.47883
# Shear Modulus (GPa) = 21.07502 23.92430 22.49966
#
# Velocity S-wave (km/s) = 3.37035 3.59096 3.48240
# Velocity P-wave (km/s) = 7.13483 7.43318 7.28553
#
# Compressibility (1/GPa) = 0.01507240
#
# Stress axis : x y z
#
# Youngs Moduli (GPa) = 66.41011 84.11812 55.67786
#
# Poissons Ratio (x) = 0.38897 0.27651
# Poissons Ratio (y) = 0.30708 0.29658
# Poissons Ratio (z) = 0.32981 0.44807
#
# Static dielectric constant tensor:
#      x y z
#    x 3.484490 0.000000 0.058380 
#    y 0.000000 3.388740 0.000000 
#    z 0.058380 0.000000 3.610620 
# 
# 
# High freq. dielectric constant tensor:
#      x y z
#    x 1.732600 0.000000 0.005840 
#    y 0.000000 1.702310 0.000000 
#    z 0.005840 0.000000 1.726930 
# 
# From -- ./inp_files/190064.got.cif
#   From: 2010.06.25/outbox.cif.g09.slc.cpg/sg12_96_cif.got.tgz:190064.got - 2010.06.28 00:19:55.
