data_PCOD8094124
_publ_section_title
;
Structure prediction by ZEFSAII (Michael W. Deem and Ramdas Pophale) SiO2 
 PCOD8094124
Probable space group: C 2/M
;
_chemical_formula_sum "Si O2"
_cell_formula_units_Z 56
_cell_length_a 14.936560
_cell_length_b 13.868057
_cell_length_c 12.106924
_cell_angle_alpha 90.000000
_cell_angle_beta 90.977198
_cell_angle_gamma 90.000000
_cell_volume 2507.476400
_symmetry_space_group_name_H-M "C 2/M"
_symmetry_group_IT_number 12
_symmetry_cell_setting 'monoclinic'
loop_
_space_group_symop_operation_xyz
x,y,z
-x,y,-z
-x,-y,-z
x,-y,z
1/2+x,1/2+y,z
1/2-x,1/2+y,-z
1/2-x,1/2-y,-z
1/2+x,1/2-y,z
loop_
_atom_site_type_symbol
_atom_site_label
_atom_site_fract_x
_atom_site_fract_y
_atom_site_fract_z
Si Si1 0.821220 0.109104 0.868865
Si Si2 0.117838 0.391039 0.814758
Si Si3 0.581428 0.386621 0.345640
Si Si4 0.889918 0.113131 0.287482
Si Si5 0.913151 0.384857 0.432781
Si Si6 0.225245 0.885731 0.516742
Si Si7 0.091004 0.788132 0.943777
O O1 0.724612 0.114190 0.810816
O O2 0.892016 0.142046 0.778280
O O3 0.840809 0.000000 0.910903
O O4 0.829209 0.183914 0.970574
O O5 0.084424 0.500000 0.836394
O O6 0.081658 0.352008 0.695593
O O7 0.083510 0.325774 0.916145
O O8 0.589372 0.500000 0.362648
O O9 0.478372 0.353105 0.358314
O O10 0.649422 0.339380 0.435039
O O11 0.802763 0.140994 0.358257
O O12 0.883776 0.161683 0.169515
O O13 0.895862 0.000000 0.266298
O O14 0.909948 0.500000 0.436443
O O15 0.822877 0.342384 0.488580
O O16 0.000000 0.345629 0.500000
O O17 0.228772 0.000000 0.501932
O O18 0.000000 0.824856 0.000000
#
# Coordination Sequence:
#
# PCOD8094124 Si02
#       7
#     8   8   8   8   8   8   8
#     4  10  19  36  64  91 119 161 204 246 304 371
#     4  10  22  42  64  85 115 161 215 259 305 359
#     4   9  15  28  55  88 120 158 195 232 298 377
#     4  10  20  33  54  90 130 161 193 241 308 378
#     4   9  17  34  61  87 113 154 208 258 303 356
#     4   9  16  30  55  88 124 158 193 244 309 374
#     4  12  24  38  58  88 126 163 208 256 302 361
#
# _framework density 22.333210000000001
#
# number of rings (size 3 to 8) (size 9 to 14) (size 15 to 20)
#    0.000    2.143    2.857    1.286    0.000    2.571 
#    0.000    5.000    0.000    3.429    0.000    0.000 
#    0.000    0.000    0.000    0.000    0.000    0.000 
#
# Total GULP energy -347103.481940 kJ/mol
# GULP energy per Si atom -12396.552926 kJ/mol
# Density = 2.228238 g / cm^3
# Si number density = 22.333210 Si / 1000 Ang^3
#
#
#
# Elastic Constant Matrix: (Units=GPa)
#
#
# Indices 1 2 3 4 5 6 
#
# 1 92.3113 14.9531 51.8548 0.0000 2.6526 0.0000
# 2 14.9531 52.1728 42.9793 0.0000 4.5816 0.0000
# 3 51.8548 42.9793 113.9921 0.0000 19.3126 0.0000
# 4 0.0000 0.0000 0.0000 24.1101 0.0000 0.6677
# 5 2.6526 4.5816 19.3126 0.0000 28.8919 0.0000
# 6 0.0000 0.0000 0.0000 0.6677 0.0000 13.3731
#
#
#
# Elastic Compliance Matrix: (Units=1/GPa)
#
#
# Indices 1 2 3 4 5 6 
#
# 1 0.015041 0.002211 -0.008325 0.000000 0.003833 0.000000
# 2 0.002211 0.028349 -0.012290 0.000000 0.003517 0.000000
# 3 -0.008325 -0.012290 0.018871 0.000000 -0.009901 0.000000
# 4 0.000000 0.000000 0.000000 0.041534 0.000000 -0.002074
# 5 0.003833 0.003517 -0.009901 0.000000 0.040320 0.000000
# 6 0.000000 0.000000 0.000000 -0.002074 0.000000 0.074881
#
#
# Mechanical properties :
#
#
# Convention : Reuss Voigt Hill
#
# Bulk Modulus (GPa) = 39.28977 53.11674 46.20325
# Shear Modulus (GPa) = 18.91867 23.18763 21.05315
#
# Velocity S-wave (km/s) = 2.91367 3.22570 3.07365
# Velocity P-wave (km/s) = 5.38052 6.14075 5.77317
#
# Compressibility (1/GPa) = 0.02545192
#
# Stress axis : x y z
#
# Youngs Moduli (GPa) = 66.48393 35.27445 52.99167
#
# Poissons Ratio (x) = -0.07798 0.44116
# Poissons Ratio (y) = -0.14697 0.65127
# Poissons Ratio (z) = 0.55349 0.43353
#
# Static dielectric constant tensor:
#      x y z
#    x 4.080590 0.000000 0.008820 
#    y 0.000000 3.874600 0.000000 
#    z 0.008820 0.000000 3.990580 
# 
# 
# High freq. dielectric constant tensor:
#      x y z
#    x 1.872250 0.000000 0.000920 
#    y 0.000000 1.865910 0.000000 
#    z 0.000920 0.000000 1.878840 
# 
# From -- ./inp_files/143743.got.cif
#   From: 2010.06.25/outbox.cif.g09.slc.cpg/sg12_72_cif.got.tgz:143743.got - 2010.06.28 00:19:55.
