data_PCOD8094457
_publ_section_title
;
Structure prediction by ZEFSAII (Michael W. Deem and Ramdas Pophale) SiO2 
 PCOD8094457
Probable space group: C 2/M
;
_chemical_formula_sum "Si O2"
_cell_formula_units_Z 44
_cell_length_a 19.036319
_cell_length_b 11.787638
_cell_length_c 11.560356
_cell_angle_alpha 90.000000
_cell_angle_beta 122.028556
_cell_angle_gamma 90.000000
_cell_volume 2199.207092
_symmetry_space_group_name_H-M "C 2/M"
_symmetry_group_IT_number 12
_symmetry_cell_setting 'monoclinic'
loop_
_space_group_symop_operation_xyz
x,y,z
-x,y,-z
-x,-y,-z
x,-y,z
1/2+x,1/2+y,z
1/2-x,1/2+y,-z
1/2-x,1/2-y,-z
1/2+x,1/2-y,z
loop_
_atom_site_type_symbol
_atom_site_label
_atom_site_fract_x
_atom_site_fract_y
_atom_site_fract_z
Si Si1 0.092618 0.500000 0.222190
Si Si2 0.719558 0.279941 0.846945
Si Si3 0.245213 0.634725 0.654748
Si Si4 0.536945 0.238793 0.655812
Si Si5 0.680436 0.000000 0.076174
Si Si6 0.431945 0.000000 0.228362
Si Si7 0.872303 0.272089 0.630845
O O1 0.099412 0.500000 0.088817
O O2 0.138973 0.387666 0.307418
O O3 0.999481 0.500000 0.185800
O O4 0.745950 0.175365 0.787790
O O5 0.620788 0.306418 0.758744
O O6 0.764667 0.392211 0.843396
O O7 0.750000 0.250000 0.000000
O O8 0.233120 0.500000 0.639381
O O9 0.169114 0.702682 0.529743
O O10 0.329553 0.668638 0.661560
O O11 0.500000 0.273446 0.500000
O O12 0.467831 0.263685 0.693608
O O13 0.561096 0.105941 0.680010
O O14 0.654185 0.000000 0.918122
#
# Coordination Sequence:
#
# PCOD8094457 Si02
#       7
#     4   8   8   8   4   4   8
#     4  10  19  37  63  97 122 163 209 272 325 370
#     4  12  26  42  64  95 132 174 212 262 324 390
#     4  11  23  40  67  93 129 171 213 263 323 386
#     4  11  22  40  64  97 128 166 215 270 322 373
#     4  12  23  43  60  92 135 175 210 259 327 392
#     4  10  22  36  66  93 130 161 216 276 322 374
#     4  10  21  40  64  97 128 161 216 270 315 377
#
# _framework density 20.007210000000001
#
# number of rings (size 3 to 8) (size 9 to 14) (size 15 to 20)
#    0.000    1.091    6.364    0.545    2.545    0.000 
#    1.636    1.364    0.000    1.091    0.000    0.000 
#    0.000    0.000    0.000    0.000    0.000    0.000 
#
# Total GULP energy -272813.372054 kJ/mol
# GULP energy per Si atom -12400.607821 kJ/mol
# Density = 1.996167 g / cm^3
# Si number density = 20.007210 Si / 1000 Ang^3
#
#
#
# Elastic Constant Matrix: (Units=GPa)
#
#
# Indices 1 2 3 4 5 6 
#
# 1 93.8530 35.4686 36.3344 0.0000 5.8094 0.0000
# 2 35.4686 63.2585 11.6219 0.0000 -2.7234 0.0000
# 3 36.3344 11.6219 116.1083 0.0000 -3.7849 0.0000
# 4 0.0000 0.0000 0.0000 21.0265 0.0000 -1.1554
# 5 5.8094 -2.7234 -3.7849 0.0000 36.1564 0.0000
# 6 0.0000 0.0000 0.0000 -1.1554 0.0000 26.1886
#
#
#
# Elastic Compliance Matrix: (Units=1/GPa)
#
#
# Indices 1 2 3 4 5 6 
#
# 1 0.015553 -0.008107 -0.004171 0.000000 -0.003546 0.000000
# 2 -0.008107 0.020370 0.000593 0.000000 0.002899 0.000000
# 3 -0.004171 0.000593 0.009916 0.000000 0.001753 0.000000
# 4 0.000000 0.000000 0.000000 0.047675 0.000000 0.002103
# 5 -0.003546 0.002899 0.001753 0.000000 0.028629 0.000000
# 6 0.000000 0.000000 0.000000 0.002103 0.000000 0.038277
#
#
# Mechanical properties :
#
#
# Convention : Reuss Voigt Hill
#
# Bulk Modulus (GPa) = 44.50914 48.89662 46.70288
# Shear Modulus (GPa) = 26.13972 29.32728 27.73350
#
# Velocity S-wave (km/s) = 3.61850 3.83278 3.72718
# Velocity P-wave (km/s) = 6.30499 6.63924 6.47427
#
# Compressibility (1/GPa) = 0.02246730
#
# Stress axis : x y z
#
# Youngs Moduli (GPa) = 64.29611 49.09289 100.84909
#
# Poissons Ratio (x) = 0.39799 0.42067
# Poissons Ratio (y) = 0.52124 -0.05975
# Poissons Ratio (z) = 0.26819 -0.02909
#
# Static dielectric constant tensor:
#      x y z
#    x 3.784300 0.000000 0.076230 
#    y 0.000000 3.520520 0.000000 
#    z 0.076230 0.000000 3.534620 
# 
# 
# High freq. dielectric constant tensor:
#      x y z
#    x 1.795630 0.000000 -0.005000 
#    y 0.000000 1.757710 0.000000 
#    z -0.005000 0.000000 1.778840 
# 
# From -- ./inp_files/154446.got.cif
#   From: 2010.06.25/outbox.cif.g09.slc.cpg/sg12_78_cif.got.tgz:154446.got - 2010.06.28 00:19:55.
