data_PCOD8094220
_publ_section_title
;
Structure prediction by ZEFSAII (Michael W. Deem and Ramdas Pophale) SiO2 
 PCOD8094220
Probable space group: C 2/M
;
_chemical_formula_sum "Si O2"
_cell_formula_units_Z 64
_cell_length_a 14.585267
_cell_length_b 8.978209
_cell_length_c 25.803995
_cell_angle_alpha 90.000000
_cell_angle_beta 90.362944
_cell_angle_gamma 90.000000
_cell_volume 3378.954396
_symmetry_space_group_name_H-M "C 2/M"
_symmetry_group_IT_number 12
_symmetry_cell_setting 'monoclinic'
loop_
_space_group_symop_operation_xyz
x,y,z
-x,y,-z
-x,-y,-z
x,-y,z
1/2+x,1/2+y,z
1/2-x,1/2+y,-z
1/2-x,1/2-y,-z
1/2+x,1/2-y,z
loop_
_atom_site_type_symbol
_atom_site_label
_atom_site_fract_x
_atom_site_fract_y
_atom_site_fract_z
Si Si1 0.085364 0.175233 0.377674
Si Si2 0.348934 0.325258 0.000463
Si Si3 0.230154 0.322554 0.445272
Si Si4 0.122486 0.175027 0.636507
Si Si5 0.026984 0.675206 0.810909
Si Si6 0.827035 0.829015 0.250894
Si Si7 0.498892 0.324749 0.918518
Si Si8 0.122804 0.670664 0.272568
O O1 0.132719 0.264210 0.424473
O O2 0.125193 0.225405 0.322709
O O3 0.978979 0.218571 0.381360
O O4 0.101620 0.000000 0.384498
O O5 0.332340 0.500000 0.001069
O O6 0.407925 0.279443 0.950206
O O7 0.250000 0.250000 0.000000
O O8 0.408537 0.276954 0.050773
O O9 0.229499 0.500000 0.450325
O O10 0.250000 0.250000 0.500000
O O11 0.307091 0.262220 0.405667
O O12 0.143546 0.241469 0.693460
O O13 0.137427 0.000000 0.640546
O O14 0.032369 0.500000 0.816365
O O15 0.126102 0.738136 0.795363
O O16 0.993531 0.739794 0.864786
O O17 0.955698 0.725593 0.766454
O O18 0.718519 0.813486 0.242816
O O19 0.859141 0.000000 0.246957
O O20 0.500280 0.500000 0.908503
O O21 0.107669 0.500000 0.290521
#
# Coordination Sequence:
#
# PCOD8094220 Si02
#       8
#     8   8   8   8   8   8   8   8
#     4  11  21  36  60  87 109 142 188 231 276 335
#     4   9  19  37  62  87 112 149 197 239 286 340
#     4  11  23  42  61  84 115 148 186 233 285 339
#     4   9  19  36  60  82 109 148 186 221 275 346
#     4  11  23  36  54  87 121 148 189 246 287 321
#     4  10  19  37  59  79 108 155 192 220 280 349
#     4   9  20  39  58  80 116 159 192 228 284 353
#     4  10  21  37  56  80 113 151 187 229 281 335
#
# _framework density 18.940769
#
# number of rings (size 3 to 8) (size 9 to 14) (size 15 to 20)
#    0.000    2.000    2.500    1.875    0.000    3.500 
#    0.000   10.000    0.000    0.000    0.000    0.000 
#    0.000    0.000    0.000    0.000    0.000    0.000 
#
# Total GULP energy -396863.774230 kJ/mol
# GULP energy per Si atom -12401.992945 kJ/mol
# Density = 1.889766 g / cm^3
# Si number density = 18.940769 Si / 1000 Ang^3
#
#
#
# Elastic Constant Matrix: (Units=GPa)
#
#
# Indices 1 2 3 4 5 6 
#
# 1 101.2732 28.9849 20.4607 0.0000 -3.2477 0.0000
# 2 28.9849 56.4554 28.9112 0.0000 -0.1201 0.0000
# 3 20.4607 28.9112 82.8143 0.0000 -5.7491 0.0000
# 4 0.0000 0.0000 0.0000 35.2398 0.0000 0.5947
# 5 -3.2477 -0.1201 -5.7491 0.0000 25.9082 0.0000
# 6 0.0000 0.0000 0.0000 0.5947 0.0000 31.6414
#
#
#
# Elastic Compliance Matrix: (Units=1/GPa)
#
#
# Indices 1 2 3 4 5 6 
#
# 1 0.011677 -0.005552 -0.000860 0.000000 0.001247 0.000000
# 2 -0.005552 0.024274 -0.007255 0.000000 -0.002193 0.000000
# 3 -0.000860 -0.007255 0.015042 0.000000 0.003196 0.000000
# 4 0.000000 0.000000 0.000000 0.028386 0.000000 -0.000534
# 5 0.001247 -0.002193 0.003196 0.000000 0.039453 0.000000
# 6 0.000000 0.000000 0.000000 -0.000534 0.000000 0.031614
#
#
# Mechanical properties :
#
#
# Convention : Reuss Voigt Hill
#
# Bulk Modulus (GPa) = 42.26630 44.13961 43.20296
# Shear Modulus (GPa) = 26.92982 29.37027 28.15005
#
# Velocity S-wave (km/s) = 3.77476 3.94209 3.85933
# Velocity P-wave (km/s) = 6.43131 6.63888 6.53592
#
# Compressibility (1/GPa) = 0.02365951
#
# Stress axis : x y z
#
# Youngs Moduli (GPa) = 85.63790 41.19608 66.47892
#
# Poissons Ratio (x) = 0.22872 0.05719
# Poissons Ratio (y) = 0.47546 0.48229
# Poissons Ratio (z) = 0.07367 0.29887
#
# Static dielectric constant tensor:
#      x y z
#    x 3.701210 0.000000 0.038260 
#    y 0.000000 3.310730 0.000000 
#    z 0.038260 0.000000 3.482530 
# 
# 
# High freq. dielectric constant tensor:
#      x y z
#    x 1.747170 0.000000 0.000000 
#    y 0.000000 1.723570 0.000000 
#    z 0.000000 0.000000 1.734180 
# 
# From -- ./inp_files/338750.got.cif
#   From: 2010.06.25/outbox.cif.g09.slc.cpg/sg12_170_cif.got.tgz:338750.got - 2010.06.28 00:19:55.
