data_PCOD8094885
_publ_section_title
;
Structure prediction by ZEFSAII (Michael W. Deem and Ramdas Pophale) SiO2 
 PCOD8094885
Probable space group: C 2/M
;
_chemical_formula_sum "Si O2"
_cell_formula_units_Z 56
_cell_length_a 17.934088
_cell_length_b 20.560046
_cell_length_c 8.340955
_cell_angle_alpha 90.000000
_cell_angle_beta 88.163121
_cell_angle_gamma 90.000000
_cell_volume 3073.943853
_symmetry_space_group_name_H-M "C 2/M"
_symmetry_group_IT_number 12
_symmetry_cell_setting 'monoclinic'
loop_
_space_group_symop_operation_xyz
x,y,z
-x,y,-z
-x,-y,-z
x,-y,z
1/2+x,1/2+y,z
1/2-x,1/2+y,-z
1/2-x,1/2-y,-z
1/2+x,1/2-y,z
loop_
_atom_site_type_symbol
_atom_site_label
_atom_site_fract_x
_atom_site_fract_y
_atom_site_fract_z
Si Si1 0.147587 0.812030 0.193372
Si Si2 0.152757 0.208536 0.822488
Si Si3 0.083295 0.425435 0.846077
Si Si4 0.438969 0.135394 0.814778
Si Si5 0.294904 0.843081 0.296960
Si Si6 0.997223 0.229730 0.685845
Si Si7 0.799436 0.676062 0.667656
O O1 0.210602 0.863180 0.249617
O O2 0.066288 0.825414 0.277249
O O3 0.175890 0.743196 0.256240
O O4 0.140721 0.813998 0.003733
O O5 0.176761 0.284023 0.816607
O O6 0.216084 0.161443 0.739188
O O7 0.075873 0.199647 0.731794
O O8 0.092002 0.500000 0.897346
O O9 0.152177 0.405424 0.728401
O O10 0.004534 0.414896 0.757792
O O11 0.082663 0.378071 0.999654
O O12 0.473777 0.207653 0.792990
O O13 0.363275 0.124159 0.716233
O O14 0.297398 0.818257 0.477808
O O15 0.000000 0.250258 0.500000
#
# Coordination Sequence:
#
# PCOD8094885 Si02
#       7
#     8   8   8   8   8   8   8
#     4  10  20  29  48  74  98 134 169 197 246 316
#     4  11  18  31  49  75 101 135 165 197 244 318
#     4  11  23  37  54  69  94 136 186 223 251 291
#     4  10  20  34  50  68  96 134 172 212 258 289
#     4  11  19  34  49  68 101 130 168 213 259 292
#     4  11  20  30  49  78 109 136 165 201 254 311
#     4  10  20  30  50  71  99 131 164 205 258 310
#
# _framework density 18.217638999999998
#
# number of rings (size 3 to 8) (size 9 to 14) (size 15 to 20)
#    0.000    1.429    1.429    9.857    4.000    0.000 
#    0.000    2.143    0.000    0.000    0.000    0.000 
#    0.000   15.429    0.000    0.000    0.000    0.143 
#
# Total GULP energy -347007.652800 kJ/mol
# GULP energy per Si atom -12393.130457 kJ/mol
# Density = 1.817618 g / cm^3
# Si number density = 18.217639 Si / 1000 Ang^3
#
#
#
# Elastic Constant Matrix: (Units=GPa)
#
#
# Indices 1 2 3 4 5 6 
#
# 1 177.0549 33.9982 44.7180 0.0000 6.3604 0.0000
# 2 33.9982 33.3624 22.0553 0.0000 -3.9672 0.0000
# 3 44.7180 22.0553 91.4274 0.0000 2.3716 0.0000
# 4 0.0000 0.0000 0.0000 5.0887 0.0000 -1.5877
# 5 6.3604 -3.9672 2.3716 0.0000 33.2113 0.0000
# 6 0.0000 0.0000 0.0000 -1.5877 0.0000 12.0484
#
#
#
# Elastic Compliance Matrix: (Units=1/GPa)
#
#
# Indices 1 2 3 4 5 6 
#
# 1 0.007491 -0.006535 -0.002034 0.000000 -0.002070 0.000000
# 2 -0.006535 0.042171 -0.007153 0.000000 0.006800 0.000000
# 3 -0.002034 -0.007153 0.013695 0.000000 -0.001443 0.000000
# 4 0.000000 0.000000 0.000000 0.204939 0.000000 0.027007
# 5 -0.002070 0.006800 -0.001443 0.000000 0.031422 0.000000
# 6 0.000000 0.000000 0.000000 0.027007 0.000000 0.086558
#
#
# Mechanical properties :
#
#
# Convention : Reuss Voigt Hill
#
# Bulk Modulus (GPa) = 31.33486 55.93195 43.63341
# Shear Modulus (GPa) = 11.67249 23.47456 17.57352
#
# Velocity S-wave (km/s) = 2.53400 3.59355 3.10924
# Velocity P-wave (km/s) = 5.07929 6.92726 6.07396
#
# Compressibility (1/GPa) = 0.03191334
#
# Stress axis : x y z
#
# Youngs Moduli (GPa) = 133.49561 23.71297 73.01806
#
# Poissons Ratio (x) = 0.15497 0.14849
# Poissons Ratio (y) = 0.87245 0.52229
# Poissons Ratio (z) = 0.27148 0.16962
#
# Static dielectric constant tensor:
#      x y z
#    x 4.774650 0.000000 0.013480 
#    y 0.000000 2.752710 0.000000 
#    z 0.013480 0.000000 3.339160 
# 
# 
# High freq. dielectric constant tensor:
#      x y z
#    x 1.740280 0.000000 -0.001600 
#    y 0.000000 1.610710 0.000000 
#    z -0.001600 0.000000 1.715620 
# 
# From -- ./inp_files/76881.got.cif
#   From: 2010.06.25/outbox.cif.g09.slc.cpg/sg12_39_cif.got.tgz:76881.got - 2010.06.28 00:19:55.
