data_PCOD8094894
_publ_section_title
;
Structure prediction by ZEFSAII (Michael W. Deem and Ramdas Pophale) SiO2 
 PCOD8094894
Probable space group: C 2/M
;
_chemical_formula_sum "Si O2"
_cell_formula_units_Z 32
_cell_length_a 16.879536
_cell_length_b 16.145581
_cell_length_c 18.316641
_cell_angle_alpha 90.000000
_cell_angle_beta 22.878752
_cell_angle_gamma 90.000000
_cell_volume 1940.736191
_symmetry_space_group_name_H-M "C 2/M"
_symmetry_group_IT_number 12
_symmetry_cell_setting 'monoclinic'
loop_
_space_group_symop_operation_xyz
x,y,z
-x,y,-z
-x,-y,-z
x,-y,z
1/2+x,1/2+y,z
1/2-x,1/2+y,-z
1/2-x,1/2-y,-z
1/2+x,1/2-y,z
loop_
_atom_site_type_symbol
_atom_site_label
_atom_site_fract_x
_atom_site_fract_y
_atom_site_fract_z
Si Si1 0.916816 0.403051 0.786052
Si Si2 0.988669 0.096934 0.214107
Si Si3 0.092221 0.315399 0.499972
Si Si4 0.307260 0.328211 0.500150
O O1 0.914879 0.500000 0.771435
O O2 0.944997 0.356048 0.685488
O O3 0.101444 0.382140 0.685707
O O4 0.707669 0.372836 0.000096
O O5 0.815993 0.143985 0.314409
O O6 0.972236 0.117722 0.314818
O O7 0.957567 0.000000 0.228550
O O8 0.000000 0.334249 0.500000
O O9 0.105665 0.214286 0.499946
O O10 0.250000 0.250000 0.500000
#
# Coordination Sequence:
#
# PCOD8094894 Si02
#       4
#     8   8   8   8
#     4   9  17  30  49  68  85 112 149 185 218 252
#     4   9  17  30  49  68  85 112 149 185 218 252
#     4  10  20  30  42  66  96 120 142 172 216 268
#     4   8  16  29  46  64  86 115 149 182 212 250
#
# _framework density 16.488589000000001
#
# number of rings (size 3 to 8) (size 9 to 14) (size 15 to 20)
#    0.000    3.500    0.000    3.000    0.000   12.000 
#    0.000    2.500    0.000    3.000    0.000    3.500 
#    0.000    0.000    0.000    0.000    0.000    0.000 
#
# Total GULP energy -198211.394965 kJ/mol
# GULP energy per Si atom -12388.212185 kJ/mol
# Density = 1.645106 g / cm^3
# Si number density = 16.488589 Si / 1000 Ang^3
#
#
#
# Elastic Constant Matrix: (Units=GPa)
#
#
# Indices 1 2 3 4 5 6 
#
# 1 48.4890 46.6882 42.3655 0.0687 0.9348 0.0212
# 2 46.6882 61.0368 49.2641 -0.0034 0.2347 -0.0119
# 3 42.3655 49.2641 167.8447 0.0166 12.9521 0.0006
# 4 0.0687 -0.0034 0.0166 11.9812 -0.0311 -0.5467
# 5 0.9348 0.2347 12.9521 -0.0311 8.9381 -0.0132
# 6 0.0212 -0.0119 0.0006 -0.5467 -0.0132 16.2532
#
#
#
# Elastic Compliance Matrix: (Units=1/GPa)
#
#
# Indices 1 2 3 4 5 6 
#
# 1 0.079404 -0.058624 -0.002605 -0.000483 -0.002993 -0.000165
# 2 -0.058624 0.065517 -0.005374 0.000400 0.012200 0.000148
# 3 -0.002605 -0.005374 0.009188 -0.000033 -0.012901 -0.000012
# 4 -0.000483 0.000400 -0.000033 0.083596 0.000383 0.002813
# 5 -0.002993 0.012200 -0.012901 0.000383 0.130570 0.000132
# 6 -0.000165 0.000148 -0.000012 0.002813 0.000132 0.061621
#
#
# Mechanical properties :
#
#
# Convention : Reuss Voigt Hill
#
# Bulk Modulus (GPa) = 47.83827 61.55623 54.69725
# Shear Modulus (GPa) = 8.77085 16.70469 12.73777
#
# Velocity S-wave (km/s) = 2.30887 3.18639 2.78244
# Velocity P-wave (km/s) = 6.01530 7.13800 6.60056
#
# Compressibility (1/GPa) = 0.02090377
#
# Stress axis : x y z
#
# Youngs Moduli (GPa) = 12.59380 15.26323 108.83527
#
# Poissons Ratio (x) = 0.89479 0.28347
# Poissons Ratio (y) = 0.73830 0.58489
# Poissons Ratio (z) = 0.03280 0.08203
#
# Static dielectric constant tensor:
#      x y z
#    x 3.230600 0.000730 0.011490 
#    y 0.000730 3.615520 0.000030 
#    z 0.011490 0.000030 3.335080 
# 
# 
# High freq. dielectric constant tensor:
#      x y z
#    x 1.586190 0.000000 0.006750 
#    y 0.000000 1.643350 0.000020 
#    z 0.006750 0.000020 1.643530 
# 
# From -- ./inp_files/20042.got.cif
#   From: 2010.06.25/outbox.cif.g09.slc.cpg/sg12_11_cif.got.tgz:20042.got - 2010.06.28 00:19:55.
