data_PCOD8094915
_publ_section_title
;
Structure prediction by ZEFSAII (Michael W. Deem and Ramdas Pophale) SiO2 
 PCOD8094915
Probable space group: C 2/M
;
_chemical_formula_sum "Si O2"
_cell_formula_units_Z 64
_cell_length_a 16.223796
_cell_length_b 14.333501
_cell_length_c 23.217548
_cell_angle_alpha 90.000000
_cell_angle_beta 142.117103
_cell_angle_gamma 90.000000
_cell_volume 3315.313352
_symmetry_space_group_name_H-M "C 2/M"
_symmetry_group_IT_number 12
_symmetry_cell_setting 'monoclinic'
loop_
_space_group_symop_operation_xyz
x,y,z
-x,y,-z
-x,-y,-z
x,-y,z
1/2+x,1/2+y,z
1/2-x,1/2+y,-z
1/2-x,1/2-y,-z
1/2+x,1/2-y,z
loop_
_atom_site_type_symbol
_atom_site_label
_atom_site_fract_x
_atom_site_fract_y
_atom_site_fract_z
Si Si1 0.354746 0.391274 0.896721
Si Si2 0.040242 0.709337 0.619953
Si Si3 0.534220 0.606600 0.281714
Si Si4 0.395111 0.601644 0.391757
Si Si5 0.782854 0.391451 0.497443
Si Si6 0.398376 0.210813 0.218483
Si Si7 0.211243 0.106785 0.269236
Si Si8 0.652565 0.892032 0.337538
O O1 0.322552 0.500000 0.889597
O O2 0.249470 0.329325 0.876654
O O3 0.351157 0.365465 0.827101
O O4 0.500000 0.363757 0.000000
O O5 0.051699 0.821607 0.623466
O O6 0.072349 0.674265 0.701308
O O7 0.154286 0.665283 0.641632
O O8 0.892546 0.670592 0.523232
O O9 0.483457 0.500000 0.258848
O O10 0.638686 0.632208 0.390324
O O11 0.406951 0.676540 0.217039
O O12 0.601092 0.625671 0.256974
O O13 0.500000 0.592176 0.500000
O O14 0.385296 0.500000 0.354964
O O15 0.253359 0.630717 0.341203
O O16 0.817195 0.500000 0.506674
O O17 0.780646 0.364041 0.563900
O O18 0.518008 0.164971 0.247179
O O19 0.256357 0.000000 0.294533
O O20 0.614393 0.000000 0.318307
#
# Coordination Sequence:
#
# PCOD8094915 Si02
#       8
#     8   8   8   8   8   8   8   8
#     4   9  18  36  61  83 100 118 148 195 253 312
#     4  10  20  30  49  69  97 132 171 215 247 281
#     4  10  21  33  46  67 101 138 166 197 234 283
#     4  10  22  33  43  63  94 138 182 216 242 270
#     4   9  19  32  47  68  93 131 175 210 245 279
#     4  10  20  32  52  77  99 126 163 204 250 292
#     4   9  18  33  51  76 103 126 157 201 252 295
#     4   9  18  33  49  66  97 132 171 215 246 280
#
# _framework density 19.304359999999999
#
# number of rings (size 3 to 8) (size 9 to 14) (size 15 to 20)
#    0.000    2.500    0.000    1.500    5.250    4.500 
#    0.000    2.500    0.000    0.375    0.000    0.000 
#    0.000    0.000    0.000    0.000    0.000    0.000 
#
# Total GULP energy -396682.654752 kJ/mol
# GULP energy per Si atom -12396.332961 kJ/mol
# Density = 1.926042 g / cm^3
# Si number density = 19.304360 Si / 1000 Ang^3
#
#
#
# Elastic Constant Matrix: (Units=GPa)
#
#
# Indices 1 2 3 4 5 6 
#
# 1 41.9448 36.8660 15.9794 0.0000 17.9247 0.0000
# 2 36.8660 107.7070 35.1172 0.0000 25.0092 0.0000
# 3 15.9794 35.1172 47.3736 0.0001 24.3672 0.0000
# 4 0.0000 0.0000 0.0001 51.8160 0.0000 -24.1750
# 5 17.9247 25.0092 24.3672 0.0000 26.3580 0.0000
# 6 0.0000 0.0000 0.0000 -24.1750 0.0000 75.0405
#
#
#
# Elastic Compliance Matrix: (Units=1/GPa)
#
#
# Indices 1 2 3 4 5 6 
#
# 1 0.040732 -0.010494 0.006037 0.000000 -0.023323 0.000000
# 2 -0.010494 0.015494 -0.007731 0.000000 -0.000417 0.000000
# 3 0.006037 -0.007731 0.044123 0.000000 -0.037561 0.000000
# 4 0.000000 0.000000 0.000000 0.022713 0.000000 0.007317
# 5 -0.023323 -0.000417 -0.037561 0.000000 0.088920 0.000000
# 6 0.000000 0.000000 0.000000 0.007317 0.000000 0.015683
#
#
# Mechanical properties :
#
#
# Convention : Reuss Voigt Hill
#
# Bulk Modulus (GPa) = 13.16280 41.43896 27.30088
# Shear Modulus (GPa) = 18.02673 37.91375 27.97024
#
# Velocity S-wave (km/s) = 3.05916 4.43651 3.81058
# Velocity P-wave (km/s) = 4.39446 6.91059 5.79083
#
# Compressibility (1/GPa) = 0.07597169
#
# Stress axis : x y z
#
# Youngs Moduli (GPa) = 24.55097 64.54117 22.66384
#
# Poissons Ratio (x) = 0.67732 -0.13681
# Poissons Ratio (y) = 0.25765 0.17521
# Poissons Ratio (z) = -0.14821 0.49896
#
# Static dielectric constant tensor:
#      x y z
#    x 3.756460 0.000000 0.166390 
#    y 0.000000 3.717370 0.000000 
#    z 0.166390 0.000000 3.164830 
# 
# 
# High freq. dielectric constant tensor:
#      x y z
#    x 1.752310 0.000000 0.016020 
#    y 0.000000 1.763640 0.000000 
#    z 0.016020 0.000000 1.691780 
# 
# From -- ./inp_files/340201.got.cif
#   From: 2010.06.25/outbox.cif.g09.slc.cpg/sg12_171_cif.got.tgz:340201.got - 2010.06.28 00:19:55.
