data_PCOD8094988
_publ_section_title
;
Structure prediction by ZEFSAII (Michael W. Deem and Ramdas Pophale) SiO2 
 PCOD8094988
Probable space group: C 2/M
;
_chemical_formula_sum "Si O2"
_cell_formula_units_Z 56
_cell_length_a 12.323727
_cell_length_b 22.284884
_cell_length_c 25.404236
_cell_angle_alpha 90.000000
_cell_angle_beta 153.904758
_cell_angle_gamma 90.000000
_cell_volume 3068.863634
_symmetry_space_group_name_H-M "C 2/M"
_symmetry_group_IT_number 12
_symmetry_cell_setting 'monoclinic'
loop_
_space_group_symop_operation_xyz
x,y,z
-x,y,-z
-x,-y,-z
x,-y,z
1/2+x,1/2+y,z
1/2-x,1/2+y,-z
1/2-x,1/2-y,-z
1/2+x,1/2-y,z
loop_
_atom_site_type_symbol
_atom_site_label
_atom_site_fract_x
_atom_site_fract_y
_atom_site_fract_z
Si Si1 0.099206 0.431948 0.823129
Si Si2 0.984256 0.239281 0.359978
Si Si3 0.234076 0.862037 0.269964
Si Si4 0.608624 0.638099 0.603169
Si Si5 0.532217 0.431812 0.928845
Si Si6 0.222951 0.429358 0.503673
Si Si7 0.779549 0.162234 0.619195
O O1 0.004835 0.500000 0.786617
O O2 0.297005 0.426083 0.863563
O O3 0.873749 0.390434 0.709411
O O4 0.222439 0.412501 0.932432
O O5 0.250000 0.250000 0.500000
O O6 0.030141 0.210353 0.322461
O O7 0.830179 0.299896 0.286668
O O8 0.844313 0.194614 0.338440
O O9 0.005889 0.887284 0.136834
O O10 0.455013 0.910163 0.365913
O O11 0.127125 0.852444 0.281805
O O12 0.500000 0.659519 0.500000
O O13 0.425839 0.589733 0.549474
O O14 0.560088 0.500000 0.920751
O O15 0.231653 0.500000 0.516082
O O16 0.277794 0.397974 0.583357
O O17 0.500000 0.188709 0.500000
#
# Coordination Sequence:
#
# PCOD8094988 Si02
#       7
#     8   8   8   8   8   8   8
#     4   9  19  36  56  79 111 139 170 224 274 313
#     4  11  21  35  49  77 110 140 172 216 273 313
#     4  11  20  32  54  75 101 140 185 213 256 324
#     4  11  22  32  55  81 105 140 176 214 272 325
#     4   9  19  36  55  79 107 140 181 220 263 317
#     4  10  20  31  45  74 110 133 165 219 267 315
#     4   9  19  32  47  71 105 139 172 211 260 318
#
# _framework density 18.247796999999998
#
# number of rings (size 3 to 8) (size 9 to 14) (size 15 to 20)
#    0.000    2.000    4.286    2.571    2.000    5.429 
#    0.000    0.714    0.000    3.429    0.000    9.000 
#    0.000    0.000    0.000    0.000    0.000    0.000 
#
# Total GULP energy -347197.937951 kJ/mol
# GULP energy per Si atom -12399.926355 kJ/mol
# Density = 1.820626 g / cm^3
# Si number density = 18.247797 Si / 1000 Ang^3
#
#
#
# Elastic Constant Matrix: (Units=GPa)
#
#
# Indices 1 2 3 4 5 6 
#
# 1 79.8340 28.5797 21.2895 0.0077 -17.9765 0.0004
# 2 28.5797 87.6972 18.6045 0.0103 -11.6760 0.0036
# 3 21.2895 18.6045 69.6036 -0.0036 -19.3815 0.0111
# 4 0.0077 0.0103 -0.0036 19.4542 0.0172 -1.7261
# 5 -17.9765 -11.6760 -19.3815 0.0172 29.2007 0.0059
# 6 0.0004 0.0036 0.0111 -1.7261 0.0059 16.8497
#
#
#
# Elastic Compliance Matrix: (Units=1/GPa)
#
#
# Indices 1 2 3 4 5 6 
#
# 1 0.016006 -0.003876 -0.001898 -0.000011 0.007044 -0.000002
# 2 -0.003876 0.013291 -0.001904 -0.000008 0.001665 -0.000003
# 3 -0.001898 -0.001904 0.018302 -0.000005 0.010218 -0.000016
# 4 -0.000011 -0.000008 -0.000005 0.051874 -0.000045 0.005314
# 5 0.007044 0.001665 0.010218 -0.000045 0.046030 -0.000028
# 6 -0.000002 -0.000003 -0.000016 0.005314 -0.000028 0.059893
#
#
# Mechanical properties :
#
#
# Convention : Reuss Voigt Hill
#
# Bulk Modulus (GPa) = 31.01360 41.56467 36.28913
# Shear Modulus (GPa) = 21.59840 24.34500 22.97170
#
# Velocity S-wave (km/s) = 3.44411 3.65654 3.55191
# Velocity P-wave (km/s) = 5.73136 6.37608 6.06230
#
# Compressibility (1/GPa) = 0.03224392
#
# Stress axis : x y z
#
# Youngs Moduli (GPa) = 62.47769 75.23647 54.63969
#
# Poissons Ratio (x) = 0.29158 0.10372
# Poissons Ratio (y) = 0.24214 0.10401
# Poissons Ratio (z) = 0.11860 0.14322
#
# Static dielectric constant tensor:
#      x y z
#    x 4.034580 -0.005810 -0.225670 
#    y -0.005810 -1.153860 0.000440 
#    z -0.225670 0.000440 3.197230 
# 
# 
# High freq. dielectric constant tensor:
#      x y z
#    x 1.709570 0.000000 -0.012980 
#    y 0.000000 1.709250 0.000000 
#    z -0.012980 0.000000 1.673510 
# 
# From -- ./inp_files/133295.got.cif
#   From: 2010.06.25/outbox.cif.g09.slc.cpg/sg12_67_cif.got.tgz:133295.got - 2010.06.28 00:19:55.
