data_PCOD8094614
_publ_section_title
;
Structure prediction by ZEFSAII (Michael W. Deem and Ramdas Pophale) SiO2 
 PCOD8094614
Probable space group: C 2/M
;
_chemical_formula_sum "Si O2"
_cell_formula_units_Z 40
_cell_length_a 26.945939
_cell_length_b 17.497724
_cell_length_c 9.716497
_cell_angle_alpha 90.000000
_cell_angle_beta 153.562094
_cell_angle_gamma 90.000000
_cell_volume 2039.702147
_symmetry_space_group_name_H-M "C 2/M"
_symmetry_group_IT_number 12
_symmetry_cell_setting 'monoclinic'
loop_
_space_group_symop_operation_xyz
x,y,z
-x,y,-z
-x,-y,-z
x,-y,z
1/2+x,1/2+y,z
1/2-x,1/2+y,-z
1/2-x,1/2-y,-z
1/2+x,1/2-y,z
loop_
_atom_site_type_symbol
_atom_site_label
_atom_site_fract_x
_atom_site_fract_y
_atom_site_fract_z
Si Si1 0.887719 0.500000 0.638647
Si Si2 0.129604 0.813254 0.310407
Si Si3 0.125500 0.797894 0.794463
Si Si4 0.737346 0.852017 0.107315
Si Si5 0.735051 0.845948 0.616632
Si Si6 0.114411 0.500000 0.696949
O O1 0.824771 0.426467 0.540265
O O2 0.907985 0.500000 0.523163
O O3 0.000000 0.500000 0.000000
O O4 0.207214 0.863730 0.605408
O O5 0.167825 0.836178 0.253664
O O6 0.146252 0.722991 0.381538
O O7 0.000000 0.834309 0.000000
O O8 0.162578 0.814187 0.731340
O O9 0.000000 0.825547 0.500000
O O10 0.135386 0.708379 0.859538
O O11 0.206561 0.847026 0.090878
O O12 0.689829 0.928755 0.926044
O O13 0.000000 0.500000 0.500000
#
# Coordination Sequence:
#
# PCOD8094614 Si02
#       6
#     4   8   8   8   8   4
#     4  12  26  44  65  90 124 162 203 256 319 368
#     4  10  21  40  64  92 124 164 207 251 306 358
#     4  10  19  38  62  88 120 164 202 251 307 352
#     4  10  22  38  61  90 124 154 209 255 293 372
#     4  10  22  40  63  93 125 159 208 256 298 373
#     4  12  26  44  63  92 124 162 203 258 317 364
#
# _framework density 19.610706
#
# number of rings (size 3 to 8) (size 9 to 14) (size 15 to 20)
#    0.000    1.600    2.000    2.400    2.800    0.000 
#    7.200    6.000    0.000    0.000    0.000    0.000 
#    0.000    0.000    0.000    0.000    0.000    0.000 
#
# Total GULP energy -248000.159164 kJ/mol
# GULP energy per Si atom -12400.007958 kJ/mol
# Density = 1.956607 g / cm^3
# Si number density = 19.610706 Si / 1000 Ang^3
#
#
#
# Elastic Constant Matrix: (Units=GPa)
#
#
# Indices 1 2 3 4 5 6 
#
# 1 76.7047 15.2352 19.2324 0.0000 4.3155 0.0000
# 2 15.2352 113.5077 55.6406 0.0000 1.6601 0.0000
# 3 19.2324 55.6406 66.9585 0.0000 11.6340 0.0000
# 4 0.0000 0.0000 0.0000 11.2138 0.0000 -0.8745
# 5 4.3155 1.6601 11.6340 0.0000 35.7702 0.0000
# 6 0.0000 0.0000 0.0000 -0.8745 0.0000 21.9192
#
#
#
# Elastic Compliance Matrix: (Units=1/GPa)
#
#
# Indices 1 2 3 4 5 6 
#
# 1 0.014055 0.000111 -0.004063 0.000000 -0.000379 0.000000
# 2 0.000111 0.015298 -0.013374 0.000000 0.003626 0.000000
# 3 -0.004063 -0.013374 0.028641 0.000000 -0.008204 0.000000
# 4 0.000000 0.000000 0.000000 0.089454 0.000000 0.003569
# 5 -0.000379 0.003626 -0.008204 0.000000 0.030502 0.000000
# 6 0.000000 0.000000 0.000000 0.003569 0.000000 0.045764
#
#
# Mechanical properties :
#
#
# Convention : Reuss Voigt Hill
#
# Bulk Modulus (GPa) = 42.84350 48.59860 45.72105
# Shear Modulus (GPa) = 18.78655 24.91815 21.85235
#
# Velocity S-wave (km/s) = 3.09847 3.56847 3.34175
# Velocity P-wave (km/s) = 5.89026 6.46638 6.18503
#
# Compressibility (1/GPa) = 0.02334076
#
# Stress axis : x y z
#
# Youngs Moduli (GPa) = 71.14841 65.36832 34.91540
#
# Poissons Ratio (x) = -0.00724 0.14187
# Poissons Ratio (y) = -0.00788 0.46696
# Poissons Ratio (z) = 0.28909 0.87424
#
# Static dielectric constant tensor:
#      x y z
#    x 3.637980 0.000000 -0.170520 
#    y 0.000000 3.250380 0.000000 
#    z -0.170520 0.000000 3.501520 
# 
# 
# High freq. dielectric constant tensor:
#      x y z
#    x 1.776060 0.000000 -0.009880 
#    y 0.000000 1.751610 0.000000 
#    z -0.009880 0.000000 1.770940 
# 
# From -- ./inp_files/47175.got.cif
#   From: 2010.06.25/outbox.cif.g09.slc.cpg/sg12_24_cif.got.tgz:47175.got - 2010.06.28 00:19:55.
