data_PCOD8094464
_publ_section_title
;
Structure prediction by ZEFSAII (Michael W. Deem and Ramdas Pophale) SiO2 
 PCOD8094464
Probable space group: C 2/M
;
_chemical_formula_sum "Si O2"
_cell_formula_units_Z 48
_cell_length_a 28.309160
_cell_length_b 8.855241
_cell_length_c 17.290381
_cell_angle_alpha 90.000000
_cell_angle_beta 144.914884
_cell_angle_gamma 90.000000
_cell_volume 2491.398357
_symmetry_space_group_name_H-M "C 2/M"
_symmetry_group_IT_number 12
_symmetry_cell_setting 'monoclinic'
loop_
_space_group_symop_operation_xyz
x,y,z
-x,y,-z
-x,-y,-z
x,-y,z
1/2+x,1/2+y,z
1/2-x,1/2+y,-z
1/2-x,1/2-y,-z
1/2+x,1/2-y,z
loop_
_atom_site_type_symbol
_atom_site_label
_atom_site_fract_x
_atom_site_fract_y
_atom_site_fract_z
Si Si1 0.949933 0.827731 0.355029
Si Si2 0.903816 0.830267 0.859403
Si Si3 0.720236 0.177154 0.882399
Si Si4 0.839576 0.678289 0.623170
Si Si5 0.520685 0.321686 0.285444
Si Si6 0.131909 0.820962 0.021298
O O1 0.871479 0.723122 0.260695
O O2 0.000000 0.805768 0.500000
O O3 0.003266 0.779455 0.351691
O O4 0.920638 0.000000 0.304537
O O5 0.881172 0.719170 0.760153
O O6 0.867191 0.761310 0.889626
O O7 0.870379 0.000000 0.797045
O O8 0.000000 0.838168 0.000000
O O9 0.782148 0.234380 0.898991
O O10 0.726100 0.000000 0.899756
O O11 0.750000 0.250000 0.000000
O O12 0.832105 0.500000 0.604842
O O13 0.750000 0.750000 0.500000
O O14 0.895412 0.740485 0.627804
O O15 0.532785 0.500000 0.290485
O O16 0.444991 0.259275 0.132025
O O17 0.123720 0.000000 0.011050
#
# Coordination Sequence:
#
# PCOD8094464 Si02
#       6
#     8   8   8   8   8   8
#     4  10  22  40  62  89 124 162 200 247 303 357
#     4  10  19  37  64  89 116 156 200 243 298 356
#     4  11  21  36  59  89 122 158 202 249 295 351
#     4  12  26  42  61  89 123 158 201 248 300 357
#     4  10  19  39  64  86 119 161 200 241 303 362
#     4   9  18  34  60  90 120 158 199 242 297 358
#
# _framework density 19.266289
#
# number of rings (size 3 to 8) (size 9 to 14) (size 15 to 20)
#    0.000    1.667    3.333    2.000    0.000    2.667 
#    0.000    5.000    0.000    0.000    0.000    0.000 
#    0.000    0.000    0.000    0.000    0.000    0.000 
#
# Total GULP energy -297614.306443 kJ/mol
# GULP energy per Si atom -12400.596102 kJ/mol
# Density = 1.922244 g / cm^3
# Si number density = 19.266289 Si / 1000 Ang^3
#
#
#
# Elastic Constant Matrix: (Units=GPa)
#
#
# Indices 1 2 3 4 5 6 
#
# 1 184.1456 48.6499 57.8523 0.0000 7.3969 0.0000
# 2 48.6499 75.9381 35.8973 0.0000 10.5522 0.0000
# 3 57.8523 35.8973 84.9007 0.0000 7.3336 0.0000
# 4 0.0000 0.0000 0.0000 20.5614 0.0000 9.5633
# 5 7.3969 10.5522 7.3336 0.0000 37.6563 0.0000
# 6 0.0000 0.0000 0.0000 9.5633 0.0000 24.8068
#
#
#
# Elastic Compliance Matrix: (Units=1/GPa)
#
#
# Indices 1 2 3 4 5 6 
#
# 1 0.007403 -0.002961 -0.003802 0.000000 0.000116 0.000000
# 2 -0.002961 0.018059 -0.005320 0.000000 -0.003443 0.000000
# 3 -0.003802 -0.005320 0.016707 0.000000 -0.001016 0.000000
# 4 0.000000 0.000000 0.000000 0.059260 0.000000 -0.022846
# 5 0.000116 -0.003443 -0.001016 0.000000 0.027696 0.000000
# 6 0.000000 0.000000 0.000000 -0.022846 0.000000 0.049119
#
#
# Mechanical properties :
#
#
# Convention : Reuss Voigt Hill
#
# Bulk Modulus (GPa) = 55.55370 69.97593 62.76482
# Shear Modulus (GPa) = 23.99094 30.11057 27.05076
#
# Velocity S-wave (km/s) = 3.53261 3.95759 3.75113
# Velocity P-wave (km/s) = 6.74806 7.56853 7.17004
#
# Compressibility (1/GPa) = 0.01800060
#
# Stress axis : x y z
#
# Youngs Moduli (GPa) = 135.08572 55.37314 59.85625
#
# Poissons Ratio (x) = 0.16398 0.22759
# Poissons Ratio (y) = 0.40003 0.31846
# Poissons Ratio (z) = 0.51363 0.29461
#
# Static dielectric constant tensor:
#      x y z
#    x 3.622770 0.000000 -0.446570 
#    y 0.000000 3.039140 0.000000 
#    z -0.446570 0.000000 1.925900 
# 
# 
# High freq. dielectric constant tensor:
#      x y z
#    x 1.772410 0.000000 0.000110 
#    y 0.000000 1.726950 0.000000 
#    z 0.000110 0.000000 1.745130 
# 
# From -- ./inp_files/280808.got.cif
#   From: 2010.06.25/outbox.cif.g09.slc.cpg/sg12_141_cif.got.tgz:280808.got - 2010.06.28 00:19:55.
