data_PCOD8094383
_publ_section_title
;
Structure prediction by ZEFSAII (Michael W. Deem and Ramdas Pophale) SiO2 
 PCOD8094383
Probable space group: C 2/M
;
_chemical_formula_sum "Si O2"
_cell_formula_units_Z 64
_cell_length_a 22.067348
_cell_length_b 15.554936
_cell_length_c 15.882428
_cell_angle_alpha 90.000000
_cell_angle_beta 37.221503
_cell_angle_gamma 90.000000
_cell_volume 3297.747671
_symmetry_space_group_name_H-M "C 2/M"
_symmetry_group_IT_number 12
_symmetry_cell_setting 'monoclinic'
loop_
_space_group_symop_operation_xyz
x,y,z
-x,y,-z
-x,-y,-z
x,-y,z
1/2+x,1/2+y,z
1/2-x,1/2+y,-z
1/2-x,1/2-y,-z
1/2+x,1/2-y,z
loop_
_atom_site_type_symbol
_atom_site_label
_atom_site_fract_x
_atom_site_fract_y
_atom_site_fract_z
Si Si1 0.200150 0.311684 0.424424
Si Si2 0.882732 0.601929 0.646244
Si Si3 0.321826 0.251817 0.839559
Si Si4 0.658926 0.407881 0.609288
Si Si5 0.215615 0.406995 0.864989
Si Si6 0.520354 0.731878 0.717316
Si Si7 0.003875 0.674889 0.089577
Si Si8 0.284972 0.126403 0.317139
O O1 0.173937 0.374991 0.377126
O O2 0.292323 0.350879 0.372845
O O3 0.104772 0.298597 0.591204
O O4 0.242814 0.221715 0.346156
O O5 0.867812 0.500000 0.684296
O O6 0.832693 0.661371 0.775564
O O7 0.000000 0.622591 0.500000
O O8 0.284196 0.330481 0.824429
O O9 0.432589 0.272416 0.747458
O O10 0.250000 0.250000 0.000000
O O11 0.629232 0.500000 0.680118
O O12 0.561048 0.364212 0.679053
O O13 0.735020 0.422254 0.449019
O O14 0.235545 0.500000 0.888196
O O15 0.241080 0.422523 0.739372
O O16 0.097772 0.387094 0.000552
O O17 0.484666 0.754316 0.850692
O O18 0.902036 0.621874 0.211145
O O19 0.000000 0.717740 0.000000
#
# Coordination Sequence:
#
# PCOD8094383 Si02
#       8
#     8   8   8   8   8   8   8   8
#     4  11  19  38  66  91 121 164 205 259 325 384
#     4  11  24  43  68  98 128 166 220 277 324 376
#     4  12  25  43  66  88 129 177 214 263 323 382
#     4  11  22  35  60  94 123 156 204 256 314 382
#     4  11  24  39  61  91 121 162 212 253 304 378
#     4  11  21  40  61  89 122 166 210 255 323 376
#     4  10  20  37  61  87 118 160 199 255 315 376
#     4  10  19  37  62  86 126 158 197 253 320 376
#
# _framework density 19.407184999999998
#
# number of rings (size 3 to 8) (size 9 to 14) (size 15 to 20)
#    0.000    1.125    6.250    1.500    0.000    3.750 
#    0.000    0.000    0.000    3.000    0.000    0.000 
#    0.000    0.000    0.000    0.000    0.000    0.000 
#
# Total GULP energy -396526.577014 kJ/mol
# GULP energy per Si atom -12391.455532 kJ/mol
# Density = 1.936301 g / cm^3
# Si number density = 19.407185 Si / 1000 Ang^3
#
#
#
# Elastic Constant Matrix: (Units=GPa)
#
#
# Indices 1 2 3 4 5 6 
#
# 1 100.1209 45.6453 27.7973 0.0000 -9.1513 0.0000
# 2 45.6453 134.1685 45.2111 0.0000 -6.1450 0.0000
# 3 27.7973 45.2111 65.1633 0.0000 12.8809 0.0000
# 4 0.0000 0.0000 0.0000 8.0765 0.0000 4.2126
# 5 -9.1513 -6.1450 12.8809 0.0000 29.7817 0.0000
# 6 0.0000 0.0000 0.0000 4.2126 0.0000 7.8563
#
#
#
# Elastic Compliance Matrix: (Units=1/GPa)
#
#
# Indices 1 2 3 4 5 6 
#
# 1 0.013010 -0.002514 -0.004914 0.000000 0.005604 0.000000
# 2 -0.002514 0.011073 -0.007555 0.000000 0.004780 0.000000
# 3 -0.004914 -0.007555 0.025468 0.000000 -0.014084 0.000000
# 4 0.000000 0.000000 0.000000 0.171887 0.000000 -0.092166
# 5 0.005604 0.004780 -0.014084 0.000000 0.042378 0.000000
# 6 0.000000 0.000000 0.000000 -0.092166 0.000000 0.176706
#
#
# Mechanical properties :
#
#
# Convention : Reuss Voigt Hill
#
# Bulk Modulus (GPa) = 51.05634 59.64001 55.34818
# Shear Modulus (GPa) = 10.48178 21.19618 15.83898
#
# Velocity S-wave (km/s) = 2.32652 3.30840 2.85992
# Velocity P-wave (km/s) = 5.79500 6.73733 6.28385
#
# Compressibility (1/GPa) = 0.01958620
#
# Stress axis : x y z
#
# Youngs Moduli (GPa) = 76.86131 90.30599 39.26454
#
# Poissons Ratio (x) = 0.22701 0.19293
# Poissons Ratio (y) = 0.19321 0.29666
# Poissons Ratio (z) = 0.37767 0.68231
#
# Static dielectric constant tensor:
#      x y z
#    x 3.682970 0.000000 0.023810 
#    y 0.000000 3.448930 0.000000 
#    z 0.023810 0.000000 3.688730 
# 
# 
# High freq. dielectric constant tensor:
#      x y z
#    x 1.765980 0.000000 0.001510 
#    y 0.000000 1.748220 0.000000 
#    z 0.001510 0.000000 1.753330 
# 
# From -- ./inp_files/290072.got.cif
#   From: 2010.06.25/outbox.cif.g09.slc.cpg/sg12_146_cif.got.tgz:290072.got - 2010.06.28 00:19:55.
