data_PCOD8094940
_publ_section_title
;
Structure prediction by ZEFSAII (Michael W. Deem and Ramdas Pophale) SiO2 
 PCOD8094940
Probable space group: C 2/M
;
_chemical_formula_sum "Si O2"
_cell_formula_units_Z 56
_cell_length_a 22.731396
_cell_length_b 9.778917
_cell_length_c 21.141760
_cell_angle_alpha 90.000000
_cell_angle_beta 49.276303
_cell_angle_gamma 90.000000
_cell_volume 3561.636639
_symmetry_space_group_name_H-M "C 2/M"
_symmetry_group_IT_number 12
_symmetry_cell_setting 'monoclinic'
loop_
_space_group_symop_operation_xyz
x,y,z
-x,y,-z
-x,-y,-z
x,-y,z
1/2+x,1/2+y,z
1/2-x,1/2+y,-z
1/2-x,1/2-y,-z
1/2+x,1/2-y,z
loop_
_atom_site_type_symbol
_atom_site_label
_atom_site_fract_x
_atom_site_fract_y
_atom_site_fract_z
Si Si1 0.982959 0.839346 0.769533
Si Si2 0.243533 0.650704 0.912240
Si Si3 0.859217 0.152561 0.948636
Si Si4 0.619943 0.660818 0.272714
Si Si5 0.317548 0.156687 0.527941
Si Si6 0.414246 0.841807 0.583120
Si Si7 0.852935 0.842028 0.388598
O O1 0.939200 0.783147 0.863177
O O2 0.944877 0.784624 0.731244
O O3 0.074149 0.802311 0.707165
O O4 0.966497 0.000000 0.782078
O O5 0.207907 0.500000 0.927193
O O6 0.297817 0.649499 0.935255
O O7 0.294665 0.692038 0.815471
O O8 0.171854 0.754624 0.971981
O O9 0.871927 0.000000 0.967066
O O10 0.609696 0.500000 0.294616
O O11 0.610452 0.746260 0.342559
O O12 0.353170 0.189639 0.570657
O O13 0.225354 0.187402 0.595579
O O14 0.357963 0.252335 0.448075
O O15 0.333414 0.000000 0.497078
O O16 0.500000 0.802552 0.500000
O O17 0.410880 0.000000 0.606595
O O18 0.858771 0.000000 0.405477
#
# Coordination Sequence:
#
# PCOD8094940 Si02
#       7
#     8   8   8   8   8   8   8
#     4   8  14  25  41  62  84 104 131 167 202 234
#     4   8  14  24  36  54  81 106 128 158 194 231
#     4   8  13  22  37  56  79 105 129 155 192 239
#     4   9  17  28  42  60  82 108 137 166 195 234
#     4   9  18  30  42  59  82 106 134 168 203 236
#     4  10  20  31  41  57  84 112 135 164 201 237
#     4   9  16  28  46  62  78 104 135 167 202 238
#
# _framework density 15.723108
#
# number of rings (size 3 to 8) (size 9 to 14) (size 15 to 20)
#    0.000    3.286    0.000    2.571    0.000    1.429 
#    0.000    2.857    0.000    0.000    0.000    1.000 
#    0.000    8.000    0.000    0.000    0.000    0.000 
#
# Total GULP energy -347029.252624 kJ/mol
# GULP energy per Si atom -12393.901879 kJ/mol
# Density = 1.568732 g / cm^3
# Si number density = 15.723108 Si / 1000 Ang^3
#
#
#
# Elastic Constant Matrix: (Units=GPa)
#
#
# Indices 1 2 3 4 5 6 
#
# 1 55.3135 30.0887 47.3620 0.0000 -7.7752 0.0000
# 2 30.0887 67.0887 68.0162 -0.0001 -4.3738 0.0000
# 3 47.3620 68.0162 137.2248 0.0000 -16.3514 0.0000
# 4 0.0000 -0.0001 0.0000 31.2035 0.0000 2.3068
# 5 -7.7752 -4.3738 -16.3514 0.0000 20.7155 0.0000
# 6 0.0000 0.0000 0.0000 2.3068 0.0000 13.9757
#
#
#
# Elastic Compliance Matrix: (Units=1/GPa)
#
#
# Indices 1 2 3 4 5 6 
#
# 1 0.026876 -0.005796 -0.005903 0.000000 0.004205 0.000000
# 2 -0.005796 0.031892 -0.014641 0.000000 -0.006998 0.000000
# 3 -0.005903 -0.014641 0.017605 0.000000 0.008589 0.000000
# 4 0.000000 0.000000 0.000000 0.032444 0.000000 -0.005355
# 5 0.004205 -0.006998 0.008589 0.000000 0.055153 0.000000
# 6 0.000000 0.000000 0.000000 -0.005355 0.000000 0.072437
#
#
# Mechanical properties :
#
#
# Convention : Reuss Voigt Hill
#
# Bulk Modulus (GPa) = 42.20281 61.17343 51.68812
# Shear Modulus (GPa) = 16.83589 20.78960 18.81274
#
# Velocity S-wave (km/s) = 3.27582 3.64020 3.46280
# Velocity P-wave (km/s) = 6.41931 7.52723 6.99524
#
# Compressibility (1/GPa) = 0.02369510
#
# Stress axis : x y z
#
# Youngs Moduli (GPa) = 37.20725 31.35556 56.80206
#
# Poissons Ratio (x) = 0.18173 0.33527
# Poissons Ratio (y) = 0.21564 0.83165
# Poissons Ratio (z) = 0.21962 0.45908
#
# Static dielectric constant tensor:
#      x y z
#    x 2.749150 0.000000 -0.241060 
#    y 0.000000 3.027510 0.000000 
#    z -0.241060 0.000000 3.139340 
# 
# 
# High freq. dielectric constant tensor:
#      x y z
#    x 1.564180 0.000000 -0.019980 
#    y 0.000000 1.594680 0.000000 
#    z -0.019980 0.000000 1.607020 
# 
# From -- ./inp_files/289013.got.cif
#   From: 2010.06.25/outbox.cif.g09.slc.cpg/sg12_145_cif.got.tgz:289013.got - 2010.06.28 00:19:55.
