data_PCOD8094068
_publ_section_title
;
Structure prediction by ZEFSAII (Michael W. Deem and Ramdas Pophale) SiO2 
 PCOD8094068
Probable space group: C 2/M
;
_chemical_formula_sum "Si O2"
_cell_formula_units_Z 64
_cell_length_a 31.183936
_cell_length_b 8.519290
_cell_length_c 14.279607
_cell_angle_alpha 90.000000
_cell_angle_beta 56.934579
_cell_angle_gamma 90.000000
_cell_volume 3179.212499
_symmetry_space_group_name_H-M "C 2/M"
_symmetry_group_IT_number 12
_symmetry_cell_setting 'monoclinic'
loop_
_space_group_symop_operation_xyz
x,y,z
-x,y,-z
-x,-y,-z
x,-y,z
1/2+x,1/2+y,z
1/2-x,1/2+y,-z
1/2-x,1/2-y,-z
1/2+x,1/2-y,z
loop_
_atom_site_type_symbol
_atom_site_label
_atom_site_fract_x
_atom_site_fract_y
_atom_site_fract_z
Si Si1 0.894024 0.685900 0.421190
Si Si2 0.443652 0.814651 0.550694
Si Si3 0.347590 0.182181 0.780319
Si Si4 0.718034 0.317074 0.452656
Si Si5 0.339059 0.319608 0.991807
Si Si6 0.044578 0.314581 0.826629
Si Si7 0.253436 0.319512 0.789005
Si Si8 0.430841 0.185396 0.997199
O O1 0.899220 0.500000 0.414271
O O2 0.919965 0.756248 0.483585
O O3 0.835242 0.728652 0.487086
O O4 0.923503 0.759493 0.296771
O O5 0.500000 0.740328 0.500000
O O6 0.405664 0.772440 0.681788
O O7 0.449156 0.000000 0.533614
O O8 0.339571 0.213706 0.898930
O O9 0.309345 0.283368 0.762857
O O10 0.336932 0.000000 0.772056
O O11 0.708056 0.500000 0.479447
O O12 0.750000 0.250000 0.500000
O O13 0.748116 0.285119 0.320093
O O14 0.339908 0.500000 0.959958
O O15 0.287927 0.288691 0.111271
O O16 0.387692 0.282332 0.996790
O O17 0.049102 0.500000 0.822183
O O18 0.068148 0.255580 0.896562
O O19 0.985082 0.269698 0.885978
O O20 0.239845 0.500000 0.825387
O O21 0.419506 0.000000 0.002729
#
# Coordination Sequence:
#
# PCOD8094068 Si02
#       8
#     8   8   8   8   8   8   8   8
#     4  10  19  36  62  92 124 159 202 248 297 353
#     4   9  19  34  59  94 125 156 200 247 291 347
#     4  11  22  40  65  90 119 155 197 248 299 354
#     4  11  25  42  63  90 124 162 203 248 302 362
#     4  12  26  40  59  88 120 154 197 247 302 360
#     4   8  17  33  60  88 118 156 197 244 290 349
#     4  11  24  44  65  86 117 156 199 248 300 358
#     4   9  18  37  59  87 119 155 201 244 292 347
#
# _framework density 20.130772
#
# number of rings (size 3 to 8) (size 9 to 14) (size 15 to 20)
#    0.000    1.875    1.250    3.375    3.500    1.500 
#    0.000    1.875    0.000    1.875    0.000    0.000 
#    0.000    0.000    0.000    0.000    0.000    0.000 
#
# Total GULP energy -396849.814572 kJ/mol
# GULP energy per Si atom -12401.556705 kJ/mol
# Density = 2.008495 g / cm^3
# Si number density = 20.130772 Si / 1000 Ang^3
#
#
#
# Elastic Constant Matrix: (Units=GPa)
#
#
# Indices 1 2 3 4 5 6 
#
# 1 131.2498 10.9594 38.3920 0.0000 3.9373 0.0000
# 2 10.9594 31.4586 21.2091 0.0000 -0.1194 0.0000
# 3 38.3920 21.2091 108.5235 0.0000 19.1428 0.0000
# 4 0.0000 0.0000 0.0000 20.9035 0.0000 -3.4469
# 5 3.9373 -0.1194 19.1428 0.0000 20.9514 0.0000
# 6 0.0000 0.0000 0.0000 -3.4469 0.0000 23.1073
#
#
#
# Elastic Compliance Matrix: (Units=1/GPa)
#
#
# Indices 1 2 3 4 5 6 
#
# 1 0.008554 -0.000916 -0.003055 0.000000 0.001179 0.000000
# 2 -0.000916 0.037883 -0.008521 0.000000 0.008174 0.000000
# 3 -0.003055 -0.008521 0.014148 0.000000 -0.012401 0.000000
# 4 0.000000 0.000000 0.000000 0.049045 0.000000 0.007316
# 5 0.001179 0.008174 -0.012401 0.000000 0.058885 0.000000
# 6 0.000000 0.000000 0.000000 0.007316 0.000000 0.044368
#
#
# Mechanical properties :
#
#
# Convention : Reuss Voigt Hill
#
# Bulk Modulus (GPa) = 28.08945 45.81700 36.95323
# Shear Modulus (GPa) = 20.02124 26.37052 23.19588
#
# Velocity S-wave (km/s) = 3.15708 3.62326 3.39818
# Velocity P-wave (km/s) = 5.22239 6.34926 5.81320
#
# Compressibility (1/GPa) = 0.03560056
#
# Stress axis : x y z
#
# Youngs Moduli (GPa) = 116.90738 26.39709 70.68026
#
# Poissons Ratio (x) = 0.02418 0.21592
# Poissons Ratio (y) = 0.10707 0.60230
# Poissons Ratio (z) = 0.35714 0.22494
#
# Static dielectric constant tensor:
#      x y z
#    x 3.818340 0.000000 0.141640 
#    y 0.000000 3.345670 0.000000 
#    z 0.141640 0.000000 4.092640 
# 
# 
# High freq. dielectric constant tensor:
#      x y z
#    x 1.794980 0.000000 0.001200 
#    y 0.000000 1.756810 0.000000 
#    z 0.001200 0.000000 1.801820 
# 
# From -- ./inp_files/249651.got.cif
#   From: 2010.06.25/outbox.cif.g09.slc.cpg/sg12_125_cif.got.tgz:249651.got - 2010.06.28 00:19:55.
