data_PCOD8094526
_publ_section_title
;
Structure prediction by ZEFSAII (Michael W. Deem and Ramdas Pophale) SiO2 
 PCOD8094526
Probable space group: C 2/M
;
_chemical_formula_sum "Si O2"
_cell_formula_units_Z 40
_cell_length_a 21.616780
_cell_length_b 9.724146
_cell_length_c 18.951517
_cell_angle_alpha 90.000000
_cell_angle_beta 145.931926
_cell_angle_gamma 90.000000
_cell_volume 2231.578222
_symmetry_space_group_name_H-M "C 2/M"
_symmetry_group_IT_number 12
_symmetry_cell_setting 'monoclinic'
loop_
_space_group_symop_operation_xyz
x,y,z
-x,y,-z
-x,-y,-z
x,-y,z
1/2+x,1/2+y,z
1/2-x,1/2+y,-z
1/2-x,1/2-y,-z
1/2+x,1/2-y,z
loop_
_atom_site_type_symbol
_atom_site_label
_atom_site_fract_x
_atom_site_fract_y
_atom_site_fract_z
Si Si1 0.922001 0.500000 0.161181
Si Si2 0.995545 0.209817 0.266419
Si Si3 0.619975 0.000000 0.033114
Si Si4 0.191919 0.000000 0.888703
Si Si5 0.000000 0.271160 0.000000
Si Si6 0.624215 0.345929 0.245956
Si Si7 0.784821 0.159268 0.466121
O O1 0.974403 0.371340 0.250449
O O2 0.955910 0.500000 0.109909
O O3 0.787900 0.500000 0.039411
O O4 0.041245 0.167437 0.233313
O O5 0.081798 0.167025 0.409984
O O6 0.880218 0.135913 0.171201
O O7 0.749271 0.000000 0.132939
O O8 0.594250 0.864655 0.053614
O O9 0.056619 0.174064 0.110696
O O10 0.674224 0.500000 0.293665
O O11 0.723865 0.233302 0.342902
O O12 0.750000 0.250000 0.500000
O O13 0.745965 0.000000 0.434711
#
# Coordination Sequence:
#
# PCOD8094526 Si02
#       7
#     4   8   4   4   4   8   8
#     4  10  21  30  55  82 110 150 177 219 279 326
#     4  11  19  35  55  83 119 140 180 232 281 331
#     4   9  22  34  58  84 108 152 184 235 259 347
#     4  10  19  38  53  85 115 141 191 220 288 324
#     4  11  21  38  56  82 116 142 194 228 278 322
#     4  11  22  35  56  84 111 150 182 233 282 328
#     4  10  21  32  52  82 113 149 181 229 278 337
#
# _framework density 17.924534000000001
#
# number of rings (size 3 to 8) (size 9 to 14) (size 15 to 20)
#    0.600    1.000    4.000    2.700    9.800    0.000 
#    0.000    0.000    2.200    2.400    0.000    1.400 
#    0.000    0.000    0.000    0.000    0.000    0.000 
#
# Total GULP energy -247890.533041 kJ/mol
# GULP energy per Si atom -12394.526652 kJ/mol
# Density = 1.788374 g / cm^3
# Si number density = 17.924534 Si / 1000 Ang^3
#
#
#
# Elastic Constant Matrix: (Units=GPa)
#
#
# Indices 1 2 3 4 5 6 
#
# 1 62.6857 28.9777 33.6451 0.0000 6.9485 0.0000
# 2 28.9777 173.1341 53.2043 0.0000 1.9686 0.0000
# 3 33.6451 53.2043 113.2587 0.0000 -3.6456 0.0000
# 4 0.0000 0.0000 0.0000 22.4129 0.0000 20.0634
# 5 6.9485 1.9686 -3.6456 0.0000 21.7067 0.0000
# 6 0.0000 0.0000 0.0000 20.0634 0.0000 -10.3399
#
#
#
# Elastic Compliance Matrix: (Units=1/GPa)
#
#
# Indices 1 2 3 4 5 6 
#
# 1 0.020509 -0.001641 -0.005558 0.000000 -0.007350 0.000000
# 2 -0.001641 0.006910 -0.002777 0.000000 -0.000568 0.000000
# 3 -0.005558 -0.002777 0.011915 0.000000 0.004032 0.000000
# 4 0.000000 0.000000 0.000000 0.016302 0.000000 0.031631
# 5 -0.007350 -0.000568 0.004032 0.000000 0.049150 0.000000
# 6 0.000000 0.000000 0.000000 0.031631 0.000000 -0.035336
#
#
# Mechanical properties :
#
#
# Convention : Reuss Voigt Hill
#
# Bulk Modulus (GPa) = 51.59475 64.52587 58.06031
# Shear Modulus (GPa) = 52.15749 22.30604 37.23177
#
# Velocity S-wave (km/s) = 5.40014 3.53149 4.56251
# Velocity P-wave (km/s) = 8.22976 7.25985 7.75997
#
# Compressibility (1/GPa) = 0.01938182
#
# Stress axis : x y z
#
# Youngs Moduli (GPa) = 48.75874 144.71033 83.92925
#
# Poissons Ratio (x) = 0.23747 0.46650
# Poissons Ratio (y) = 0.08001 0.23307
# Poissons Ratio (z) = 0.27101 0.40186
#
# Static dielectric constant tensor:
#      x y z
#    x 2.966650 0.000000 0.096090 
#    y 0.000000 3.428700 0.000000 
#    z 0.096090 0.000000 3.721790 
# 
# 
# High freq. dielectric constant tensor:
#      x y z
#    x 1.641130 0.000000 0.008790 
#    y 0.000000 1.714620 0.000000 
#    z 0.008790 0.000000 1.698470 
# 
# From -- ./inp_files/324453.got.cif
#   From: 2010.06.25/outbox.cif.g09.slc.cpg/sg12_163_cif.got.tgz:324453.got - 2010.06.28 00:19:55.
