data_PCOD8094492
_publ_section_title
;
Structure prediction by ZEFSAII (Michael W. Deem and Ramdas Pophale) SiO2 
 PCOD8094492
Probable space group: C 2/M
;
_chemical_formula_sum "Si O2"
_cell_formula_units_Z 64
_cell_length_a 23.901290
_cell_length_b 17.172746
_cell_length_c 15.021833
_cell_angle_alpha 90.000000
_cell_angle_beta 149.871504
_cell_angle_gamma 90.000000
_cell_volume 3094.828958
_symmetry_space_group_name_H-M "C 2/M"
_symmetry_group_IT_number 12
_symmetry_cell_setting 'monoclinic'
loop_
_space_group_symop_operation_xyz
x,y,z
-x,y,-z
-x,-y,-z
x,-y,z
1/2+x,1/2+y,z
1/2-x,1/2+y,-z
1/2-x,1/2-y,-z
1/2+x,1/2-y,z
loop_
_atom_site_type_symbol
_atom_site_label
_atom_site_fract_x
_atom_site_fract_y
_atom_site_fract_z
Si Si1 0.402296 0.591232 0.715215
Si Si2 0.243310 0.407986 0.980423
Si Si3 0.685703 0.663316 0.576913
Si Si4 0.717390 0.158097 0.591781
Si Si5 0.872741 0.085441 0.330629
Si Si6 0.159410 0.092387 0.071782
Si Si7 0.026287 0.408057 0.777248
Si Si8 0.906075 0.408824 0.936448
O O1 0.382856 0.500000 0.705333
O O2 0.386782 0.612039 0.590816
O O3 0.311176 0.637765 0.647612
O O4 0.530259 0.614200 0.913693
O O5 0.248417 0.500000 0.980340
O O6 0.114739 0.380709 0.822310
O O7 0.321036 0.380016 0.168894
O O8 0.295480 0.374384 0.960858
O O9 0.688316 0.751573 0.548698
O O10 0.637979 0.651709 0.609913
O O11 0.807993 0.630904 0.748771
O O12 0.599736 0.116671 0.413660
O O13 0.763409 0.133905 0.750449
O O14 0.000000 0.066397 0.500000
O O15 0.814938 0.000000 0.273464
O O16 0.175029 0.000000 0.100016
O O17 0.025415 0.500000 0.781828
O O18 0.071853 0.374795 0.934320
O O19 0.887875 0.500000 0.915529
O O20 0.000000 0.382403 0.000000
#
# Coordination Sequence:
#
# PCOD8094492 Si02
#       8
#     8   8   8   8   8   8   8   8
#     4  11  23  43  69  90 118 160 217 272 308 364
#     4   9  18  36  64  94 119 154 209 264 309 353
#     4  12  24  39  60  96 130 161 198 252 325 390
#     4  12  26  40  58  91 130 173 204 251 317 380
#     4  10  19  37  65  94 125 160 209 265 311 368
#     4  10  22  42  67  92 117 162 223 269 305 357
#     4  10  20  38  62  87 123 166 212 260 302 365
#     4  10  20  36  62  92 120 157 206 256 312 375
#
# _framework density 20.679656000000001
#
# number of rings (size 3 to 8) (size 9 to 14) (size 15 to 20)
#    0.000    1.500    1.250    4.500    0.000    6.500 
#    2.250    2.500    0.000    0.000    0.000    0.000 
#    0.000    0.000    0.000    0.000    0.000    0.000 
#
# Total GULP energy -396579.611333 kJ/mol
# GULP energy per Si atom -12393.112854 kJ/mol
# Density = 2.063259 g / cm^3
# Si number density = 20.679656 Si / 1000 Ang^3
#
#
#
# Elastic Constant Matrix: (Units=GPa)
#
#
# Indices 1 2 3 4 5 6 
#
# 1 88.3616 14.8772 -4.8864 0.0000 6.8125 0.0000
# 2 14.8772 38.7353 6.5562 0.0000 2.6463 0.0000
# 3 -4.8864 6.5562 80.8820 0.0000 4.5060 0.0000
# 4 0.0000 0.0000 0.0000 26.0133 0.0000 7.1719
# 5 6.8125 2.6463 4.5060 0.0000 42.5927 0.0000
# 6 0.0000 0.0000 0.0000 7.1719 0.0000 12.1577
#
#
#
# Elastic Compliance Matrix: (Units=1/GPa)
#
#
# Indices 1 2 3 4 5 6 
#
# 1 0.012337 -0.004824 0.001237 0.000000 -0.001804 0.000000
# 2 -0.004824 0.028146 -0.002533 0.000000 -0.000709 0.000000
# 3 0.001237 -0.002533 0.012721 0.000000 -0.001386 0.000000
# 4 0.000000 0.000000 0.000000 0.045908 0.000000 -0.027082
# 5 -0.001804 -0.000709 -0.001386 0.000000 0.023957 0.000000
# 6 0.000000 0.000000 0.000000 -0.027082 0.000000 0.098228
#
#
# Mechanical properties :
#
#
# Convention : Reuss Voigt Hill
#
# Bulk Modulus (GPa) = 24.41262 26.78590 25.59926
# Shear Modulus (GPa) = 20.22705 28.91489 24.57097
#
# Velocity S-wave (km/s) = 3.13087 3.74335 3.45073
# Velocity P-wave (km/s) = 4.99005 5.62711 5.31813
#
# Compressibility (1/GPa) = 0.04096242
#
# Stress axis : x y z
#
# Youngs Moduli (GPa) = 81.05757 35.52852 78.61015
#
# Poissons Ratio (x) = 0.17140 -0.09723
# Poissons Ratio (y) = 0.39105 0.19916
# Poissons Ratio (z) = -0.10026 0.09001
#
# Static dielectric constant tensor:
#      x y z
#    x 4.032320 0.000000 0.010540 
#    y 0.000000 3.414650 0.000000 
#    z 0.010540 0.000000 3.899330 
# 
# 
# High freq. dielectric constant tensor:
#      x y z
#    x 1.824450 0.000000 0.005530 
#    y 0.000000 1.776860 0.000000 
#    z 0.005530 0.000000 1.825550 
# 
# From -- ./inp_files/241541.got.cif
#   From: 2010.06.25/outbox.cif.g09.slc.cpg/sg12_121_cif.got.tgz:241541.got - 2010.06.28 00:19:55.
