data_PCOD8094660
_publ_section_title
;
Structure prediction by ZEFSAII (Michael W. Deem and Ramdas Pophale) SiO2 
 PCOD8094660
Probable space group: C 2/M
;
_chemical_formula_sum "Si O2"
_cell_formula_units_Z 56
_cell_length_a 14.887679
_cell_length_b 16.999631
_cell_length_c 17.605815
_cell_angle_alpha 90.000000
_cell_angle_beta 141.117501
_cell_angle_gamma 90.000000
_cell_volume 2796.998718
_symmetry_space_group_name_H-M "C 2/M"
_symmetry_group_IT_number 12
_symmetry_cell_setting 'monoclinic'
loop_
_space_group_symop_operation_xyz
x,y,z
-x,y,-z
-x,-y,-z
x,-y,z
1/2+x,1/2+y,z
1/2-x,1/2+y,-z
1/2-x,1/2-y,-z
1/2+x,1/2-y,z
loop_
_atom_site_type_symbol
_atom_site_label
_atom_site_fract_x
_atom_site_fract_y
_atom_site_fract_z
Si Si1 0.316922 0.327951 0.076238
Si Si2 0.482326 0.130732 0.070374
Si Si3 0.368726 0.681713 0.464900
Si Si4 0.697383 0.731273 0.227241
Si Si5 0.399394 0.911978 0.694029
Si Si6 0.519113 0.588121 0.101921
Si Si7 0.961600 0.263035 0.293223
O O1 0.374084 0.384616 0.047938
O O2 0.447165 0.302237 0.217439
O O3 0.250000 0.250000 0.000000
O O4 0.188330 0.371746 0.033360
O O5 0.555946 0.217554 0.114578
O O6 0.557320 0.084682 0.188614
O O7 0.500000 0.088742 0.000000
O O8 0.500000 0.649851 0.500000
O O9 0.270807 0.740305 0.352375
O O10 0.269422 0.608878 0.424854
O O11 0.420168 0.731486 0.570899
O O12 0.650962 0.642352 0.213492
O O13 0.806153 0.731061 0.228730
O O14 0.494284 0.848304 0.710803
O O15 0.422426 0.000000 0.675589
O O16 0.555859 0.500000 0.151704
O O17 0.500000 0.594756 0.000000
#
# Coordination Sequence:
#
# PCOD8094660 Si02
#       7
#     8   8   8   8   8   8   8
#     4  12  20  37  63  89 117 158 201 248 290 347
#     4  11  21  37  62  88 116 156 206 244 289 352
#     4   9  21  41  65  86 108 156 212 248 286 352
#     4  10  19  38  64  86 115 155 198 250 298 341
#     4  11  24  38  57  88 124 157 190 246 311 355
#     4  11  24  38  56  88 127 161 194 240 305 365
#     4  11  21  38  65  90 115 153 209 248 288 355
#
# _framework density 20.021460999999999
#
# number of rings (size 3 to 8) (size 9 to 14) (size 15 to 20)
#    0.000    1.286    4.286    2.571    0.000    1.714 
#    0.000    2.857    0.000    2.571    0.000    0.000 
#    0.000    0.000    0.000    0.000    0.000    0.000 
#
# Total GULP energy -347138.839673 kJ/mol
# GULP energy per Si atom -12397.815703 kJ/mol
# Density = 1.997589 g / cm^3
# Si number density = 20.021461 Si / 1000 Ang^3
#
#
#
# Elastic Constant Matrix: (Units=GPa)
#
#
# Indices 1 2 3 4 5 6 
#
# 1 116.0055 48.8733 37.3881 0.0005 2.8103 0.0003
# 2 48.8733 114.2545 33.3049 0.0004 8.2395 0.0002
# 3 37.3881 33.3049 94.3518 0.0016 -2.3103 0.0010
# 4 0.0005 0.0004 0.0016 14.6334 0.0002 2.1574
# 5 2.8103 8.2395 -2.3103 0.0002 35.1936 0.0001
# 6 0.0003 0.0002 0.0010 2.1574 0.0001 21.1792
#
#
#
# Elastic Compliance Matrix: (Units=1/GPa)
#
#
# Indices 1 2 3 4 5 6 
#
# 1 0.011266 -0.003905 -0.003091 0.000000 -0.000188 0.000000
# 2 -0.003905 0.011337 -0.002516 0.000000 -0.002508 0.000000
# 3 -0.003091 -0.002516 0.012752 -0.000001 0.001673 0.000000
# 4 0.000000 0.000000 -0.000001 0.069379 -0.000001 -0.007067
# 5 -0.000188 -0.002508 0.001673 -0.000001 0.029126 0.000000
# 6 0.000000 0.000000 0.000000 -0.007067 0.000000 0.047936
#
#
# Mechanical properties :
#
#
# Convention : Reuss Voigt Hill
#
# Bulk Modulus (GPa) = 61.22607 62.63826 61.93217
# Shear Modulus (GPa) = 24.24092 27.87094 26.05593
#
# Velocity S-wave (km/s) = 3.48335 3.73507 3.61141
# Velocity P-wave (km/s) = 6.84288 7.06785 6.95627
#
# Compressibility (1/GPa) = 0.01633291
#
# Stress axis : x y z
#
# Youngs Moduli (GPa) = 88.76296 88.20801 78.41679
#
# Poissons Ratio (x) = 0.34442 0.24236
# Poissons Ratio (y) = 0.34659 0.19729
# Poissons Ratio (z) = 0.27433 0.22192
#
# Static dielectric constant tensor:
#      x y z
#    x 4.134810 0.000000 0.458210 
#    y 0.000000 4.078110 0.000030 
#    z 0.458210 0.000030 2.411730 
# 
# 
# High freq. dielectric constant tensor:
#      x y z
#    x 1.801330 0.000000 0.003190 
#    y 0.000000 1.754560 0.000000 
#    z 0.003190 0.000000 1.780170 
# 
# From -- ./inp_files/271441.got.cif
#   From: 2010.06.25/outbox.cif.g09.slc.cpg/sg12_136_cif.got.tgz:271441.got - 2010.06.28 00:19:55.
