data_PCOD8094584
_publ_section_title
;
Structure prediction by ZEFSAII (Michael W. Deem and Ramdas Pophale) SiO2 
 PCOD8094584
Probable space group: C 2/M
;
_chemical_formula_sum "Si O2"
_cell_formula_units_Z 44
_cell_length_a 14.749962
_cell_length_b 19.956405
_cell_length_c 12.245847
_cell_angle_alpha 90.000000
_cell_angle_beta 144.308241
_cell_angle_gamma 90.000000
_cell_volume 2103.035621
_symmetry_space_group_name_H-M "C 2/M"
_symmetry_group_IT_number 12
_symmetry_cell_setting 'monoclinic'
loop_
_space_group_symop_operation_xyz
x,y,z
-x,y,-z
-x,-y,-z
x,-y,z
1/2+x,1/2+y,z
1/2-x,1/2+y,-z
1/2-x,1/2-y,-z
1/2+x,1/2-y,z
loop_
_atom_site_type_symbol
_atom_site_label
_atom_site_fract_x
_atom_site_fract_y
_atom_site_fract_z
Si Si1 0.241540 0.240090 0.764993
Si Si2 0.000000 0.644686 0.500000
Si Si3 0.428646 0.881629 0.203547
Si Si4 0.593366 0.358888 0.787995
Si Si5 0.932394 0.500000 0.053012
Si Si6 0.963510 0.253326 0.794026
Si Si7 0.566538 0.500000 0.683617
O O1 0.142232 0.178463 0.720870
O O2 0.305995 0.228063 0.705141
O O3 0.148535 0.308433 0.663658
O O4 0.388846 0.251768 0.984186
O O5 0.010980 0.596148 0.616862
O O6 0.514790 0.811491 0.272104
O O7 0.488669 0.934765 0.173424
O O8 0.243570 0.870734 0.011674
O O9 0.462638 0.315818 0.723921
O O10 0.512321 0.430997 0.688149
O O11 0.750430 0.500000 0.860517
O O12 0.000000 0.500000 0.000000
O O13 0.500000 0.500000 0.500000
#
# Coordination Sequence:
#
# PCOD8094584 Si02
#       7
#     8   4   8   8   4   8   4
#     4  10  21  33  61  88 118 155 195 260 287 359
#     4  12  20  37  56  93 124 146 210 246 306 347
#     4  10  21  36  61  87 118 163 192 250 301 360
#     4  10  19  41  58  88 124 159 199 244 313 359
#     4  10  24  43  61  85 122 157 198 244 311 373
#     4  10  19  38  61  85 116 162 207 231 310 354
#     4  10  24  38  63  84 115 159 194 249 300 351
#
# _framework density 20.922136999999999
#
# number of rings (size 3 to 8) (size 9 to 14) (size 15 to 20)
#    0.000    1.818    3.636    1.091    8.909    1.091 
#    3.273    0.000    0.000    3.273    0.000    0.000 
#    0.000    0.000    0.000    0.000    0.000    0.000 
#
# Total GULP energy -272567.054213 kJ/mol
# GULP energy per Si atom -12389.411555 kJ/mol
# Density = 2.087452 g / cm^3
# Si number density = 20.922137 Si / 1000 Ang^3
#
#
#
# Elastic Constant Matrix: (Units=GPa)
#
#
# Indices 1 2 3 4 5 6 
#
# 1 96.8025 40.8287 34.5209 0.0000 -33.4020 0.0000
# 2 40.8287 132.3093 24.5169 0.0000 -28.3210 0.0000
# 3 34.5209 24.5169 59.3262 0.0000 -32.2949 0.0000
# 4 0.0000 0.0000 0.0000 21.7539 0.0000 -10.4258
# 5 -33.4020 -28.3210 -32.2949 0.0000 30.7353 0.0000
# 6 0.0000 0.0000 0.0000 -10.4258 0.0000 23.1901
#
#
#
# Elastic Compliance Matrix: (Units=1/GPa)
#
#
# Indices 1 2 3 4 5 6 
#
# 1 0.016792 -0.001586 0.000053 0.000000 0.016844 0.000000
# 2 -0.001586 0.009662 0.001958 0.000000 0.009237 0.000000
# 3 0.000053 0.001958 0.039787 0.000000 0.043668 0.000000
# 4 0.000000 0.000000 0.000000 0.058594 0.000000 0.026343
# 5 0.016844 0.009237 0.043668 0.000000 0.105236 0.000000
# 6 0.000000 0.000000 0.000000 0.026343 0.000000 0.054965
#
#
# Mechanical properties :
#
#
# Convention : Reuss Voigt Hill
#
# Bulk Modulus (GPa) = 14.90492 54.24122 34.57307
# Shear Modulus (GPa) = 16.31057 27.70729 22.00893
#
# Velocity S-wave (km/s) = 2.79513 3.64305 3.24689
# Velocity P-wave (km/s) = 4.19005 6.60888 5.53325
#
# Compressibility (1/GPa) = 0.06709195
#
# Stress axis : x y z
#
# Youngs Moduli (GPa) = 59.55111 103.50051 25.13383
#
# Poissons Ratio (x) = 0.16419 -0.00134
# Poissons Ratio (y) = 0.09447 -0.04922
# Poissons Ratio (z) = -0.00318 -0.20268
#
# Static dielectric constant tensor:
#      x y z
#    x 4.048980 0.000000 -0.229810 
#    y 0.000000 3.938560 0.000000 
#    z -0.229810 0.000000 3.783750 
# 
# 
# High freq. dielectric constant tensor:
#      x y z
#    x 1.804130 0.000000 -0.019310 
#    y 0.000000 1.806490 0.000000 
#    z -0.019310 0.000000 1.824040 
# 
# From -- ./inp_files/63738.got.cif
#   From: 2010.06.25/outbox.cif.g09.slc.cpg/sg12_32_cif.got.tgz:63738.got - 2010.06.28 00:19:55.
