data_PCOD8094657
_publ_section_title
;
Structure prediction by ZEFSAII (Michael W. Deem and Ramdas Pophale) SiO2 
 PCOD8094657
Probable space group: C 2/M
;
_chemical_formula_sum "Si O2"
_cell_formula_units_Z 64
_cell_length_a 30.975770
_cell_length_b 8.897348
_cell_length_c 19.584626
_cell_angle_alpha 90.000000
_cell_angle_beta 142.312508
_cell_angle_gamma 90.000000
_cell_volume 3299.825237
_symmetry_space_group_name_H-M "C 2/M"
_symmetry_group_IT_number 12
_symmetry_cell_setting 'monoclinic'
loop_
_space_group_symop_operation_xyz
x,y,z
-x,y,-z
-x,-y,-z
x,-y,z
1/2+x,1/2+y,z
1/2-x,1/2+y,-z
1/2-x,1/2-y,-z
1/2+x,1/2-y,z
loop_
_atom_site_type_symbol
_atom_site_label
_atom_site_fract_x
_atom_site_fract_y
_atom_site_fract_z
Si Si1 0.446539 0.821173 0.641898
Si Si2 0.286993 0.671280 0.745280
Si Si3 0.802657 0.169086 0.262130
Si Si4 0.709940 0.176048 0.512242
Si Si5 0.057790 0.677264 0.520004
Si Si6 0.057023 0.827796 0.021892
Si Si7 0.570352 0.320343 0.885402
Si Si8 0.714956 0.827541 0.019814
O O1 0.371263 0.771643 0.580009
O O2 0.451425 0.764347 0.569275
O O3 0.507320 0.738973 0.759715
O O4 0.456351 0.000000 0.658458
O O5 0.263941 0.500000 0.733490
O O6 0.262702 0.783417 0.773292
O O7 0.253211 0.725436 0.632739
O O8 0.370631 0.686500 0.846138
O O9 0.866729 0.280207 0.355804
O O10 0.776151 0.183272 0.152303
O O11 0.826318 0.000000 0.309192
O O12 0.750000 0.250000 0.500000
O O13 0.712941 0.000000 0.504620
O O14 0.051771 0.500000 0.511443
O O15 0.000000 0.746392 0.500000
O O16 0.034786 0.000000 0.983414
O O17 0.059652 0.757072 0.949216
O O18 0.000000 0.746610 0.000000
O O19 0.572712 0.500000 0.886173
O O20 0.644524 0.260128 0.951481
O O21 0.694666 0.000000 0.978988
O O22 0.750000 0.750000 0.000000
#
# Coordination Sequence:
#
# PCOD8094657 Si02
#       8
#     8   8   8   8   8   8   8   8
#     4  10  22  41  59  84 123 161 199 247 298 355
#     4  10  19  38  64  85 115 157 202 248 293 358
#     4  11  23  39  62  91 122 152 193 254 304 345
#     4  10  22  38  60  87 119 159 202 248 298 354
#     4  10  22  41  65  89 115 158 204 238 291 362
#     4   9  19  35  59  89 117 152 200 247 291 348
#     4  11  23  39  63  91 121 159 201 249 303 356
#     4  11  25  43  63  90 124 160 201 247 301 361
#
# _framework density 19.394967000000001
#
# number of rings (size 3 to 8) (size 9 to 14) (size 15 to 20)
#    0.000    1.750    2.500    1.125    3.500    3.250 
#    0.000    0.000    0.000    1.875    0.000    0.000 
#    0.000    0.000    0.000    0.000    0.000    0.000 
#
# Total GULP energy -396785.231749 kJ/mol
# GULP energy per Si atom -12399.538492 kJ/mol
# Density = 1.935082 g / cm^3
# Si number density = 19.394967 Si / 1000 Ang^3
#
#
#
# Elastic Constant Matrix: (Units=GPa)
#
#
# Indices 1 2 3 4 5 6 
#
# 1 160.5088 35.4708 51.1902 0.0000 -1.6643 0.0000
# 2 35.4708 36.4234 34.4539 0.0000 -7.1193 0.0000
# 3 51.1902 34.4539 114.8872 0.0000 1.9786 0.0000
# 4 0.0000 0.0000 0.0000 27.1286 0.0000 1.6745
# 5 -1.6643 -7.1193 1.9786 0.0000 29.7741 0.0000
# 6 0.0000 0.0000 0.0000 1.6745 0.0000 29.0807
#
#
#
# Elastic Compliance Matrix: (Units=1/GPa)
#
#
# Indices 1 2 3 4 5 6 
#
# 1 0.008213 -0.006634 -0.001652 0.000000 -0.001017 0.000000
# 2 -0.006634 0.046868 -0.011299 0.000000 0.011587 0.000000
# 3 -0.001652 -0.011299 0.012892 0.000000 -0.003651 0.000000
# 4 0.000000 0.000000 0.000000 0.036993 0.000000 -0.002130
# 5 -0.001017 0.011587 -0.003651 0.000000 0.036542 0.000000
# 6 0.000000 0.000000 0.000000 -0.002130 0.000000 0.034510
#
#
# Mechanical properties :
#
#
# Convention : Reuss Voigt Hill
#
# Bulk Modulus (GPa) = 34.71976 61.56102 48.14039
# Shear Modulus (GPa) = 22.24309 29.91029 26.07669
#
# Velocity S-wave (km/s) = 3.39019 3.93130 3.67073
# Velocity P-wave (km/s) = 5.76756 7.23992 6.54528
#
# Compressibility (1/GPa) = 0.02880204
#
# Stress axis : x y z
#
# Youngs Moduli (GPa) = 121.76431 21.33650 77.56818
#
# Poissons Ratio (x) = 0.14154 0.12817
# Poissons Ratio (y) = 0.80774 0.87646
# Poissons Ratio (z) = 0.20120 0.24109
#
# Static dielectric constant tensor:
#      x y z
#    x 3.922400 0.000000 -0.131900 
#    y 0.000000 3.414400 0.000000 
#    z -0.131900 0.000000 3.471040 
# 
# 
# High freq. dielectric constant tensor:
#      x y z
#    x 1.768930 0.000000 -0.000020 
#    y 0.000000 1.736750 0.000000 
#    z -0.000020 0.000000 1.767850 
# 
# From -- ./inp_files/295602.got.cif
#   From: 2010.06.25/outbox.cif.g09.slc.cpg/sg12_148_cif.got.tgz:295602.got - 2010.06.28 00:19:55.
