data_PCOD8094324
_publ_section_title
;
Structure prediction by ZEFSAII (Michael W. Deem and Ramdas Pophale) SiO2 
 PCOD8094324
Probable space group: C 2/M
;
_chemical_formula_sum "Si O2"
_cell_formula_units_Z 64
_cell_length_a 9.666506
_cell_length_b 26.083700
_cell_length_c 14.713000
_cell_angle_alpha 90.000000
_cell_angle_beta 64.097784
_cell_angle_gamma 90.000000
_cell_volume 3337.035780
_symmetry_space_group_name_H-M "C 2/M"
_symmetry_group_IT_number 12
_symmetry_cell_setting 'monoclinic'
loop_
_space_group_symop_operation_xyz
x,y,z
-x,y,-z
-x,-y,-z
x,-y,z
1/2+x,1/2+y,z
1/2-x,1/2+y,-z
1/2-x,1/2-y,-z
1/2+x,1/2-y,z
loop_
_atom_site_type_symbol
_atom_site_label
_atom_site_fract_x
_atom_site_fract_y
_atom_site_fract_z
Si Si1 0.670357 0.352924 0.979758
Si Si2 0.327102 0.941870 0.027557
Si Si3 0.149668 0.910868 0.254512
Si Si4 0.741696 0.792743 0.219720
Si Si5 0.828302 0.056582 0.401715
Si Si6 0.088865 0.374389 0.383174
Si Si7 0.582042 0.694895 0.189198
Si Si8 0.167205 0.440008 0.631259
O O1 0.752238 0.321940 0.877230
O O2 0.500000 0.369440 0.000000
O O3 0.765419 0.405014 0.966274
O O4 0.669980 0.317586 0.069854
O O5 0.217933 0.937442 0.145977
O O6 0.324186 0.000000 0.991832
O O7 0.500000 0.924471 0.000000
O O8 0.084964 0.854565 0.252627
O O9 0.280076 0.910103 0.293882
O O10 0.009728 0.944438 0.332787
O O11 0.624729 0.822479 0.319042
O O12 0.673507 0.737171 0.219625
O O13 0.908428 0.787108 0.218533
O O14 0.749042 0.097643 0.358845
O O15 0.794221 0.069075 0.516727
O O16 0.761450 0.000000 0.399155
O O17 0.000000 0.358616 0.500000
O O18 0.992553 0.414569 0.351802
O O19 0.140825 0.500000 0.659700
#
# Coordination Sequence:
#
# PCOD8094324 Si02
#       8
#     8   8   8   8   8   8   8   8
#     4   9  21  40  61  88 114 146 196 244 288 345
#     4  10  22  37  54  83 126 161 189 231 285 347
#     4  11  21  38  57  88 118 154 195 242 289 349
#     4  11  22  41  62  85 113 154 196 247 292 350
#     4  10  19  37  61  85 117 154 194 244 291 342
#     4  10  22  39  58  86 123 153 193 241 293 349
#     4  10  23  39  63  87 115 147 197 244 300 340
#     4  10  21  35  59  90 117 154 199 238 287 349
#
# _framework density 19.178698000000001
#
# number of rings (size 3 to 8) (size 9 to 14) (size 15 to 20)
#    0.000    1.875    1.250    2.250    3.500    3.750 
#    0.000    3.125    0.000    0.000    0.000    0.000 
#    0.000    0.000    0.000    0.000    0.000    0.000 
#
# Total GULP energy -396910.684862 kJ/mol
# GULP energy per Si atom -12403.458902 kJ/mol
# Density = 1.913505 g / cm^3
# Si number density = 19.178698 Si / 1000 Ang^3
#
#
#
# Elastic Constant Matrix: (Units=GPa)
#
#
# Indices 1 2 3 4 5 6 
#
# 1 83.8658 50.8697 23.2099 0.0000 7.7660 0.0000
# 2 50.8697 110.0487 30.0612 0.0000 10.0832 0.0000
# 3 23.2099 30.0612 53.0858 0.0000 4.3329 0.0000
# 4 0.0000 0.0000 0.0000 20.8101 0.0000 6.7079
# 5 7.7660 10.0832 4.3329 0.0000 31.1374 0.0000
# 6 0.0000 0.0000 0.0000 6.7079 0.0000 39.9023
#
#
#
# Elastic Compliance Matrix: (Units=1/GPa)
#
#
# Indices 1 2 3 4 5 6 
#
# 1 0.017193 -0.006843 -0.003513 0.000000 -0.001583 0.000000
# 2 -0.006843 0.013696 -0.004593 0.000000 -0.002089 0.000000
# 3 -0.003513 -0.004593 0.023043 0.000000 -0.000843 0.000000
# 4 0.000000 0.000000 0.000000 0.050807 0.000000 -0.008541
# 5 -0.001583 -0.002089 -0.000843 0.000000 0.033305 0.000000
# 6 0.000000 0.000000 0.000000 -0.008541 0.000000 0.026497
#
#
# Mechanical properties :
#
#
# Convention : Reuss Voigt Hill
#
# Bulk Modulus (GPa) = 41.60747 50.58688 46.09717
# Shear Modulus (GPa) = 24.69736 27.89395 26.29565
#
# Velocity S-wave (km/s) = 3.59242 3.81783 3.70684
# Velocity P-wave (km/s) = 6.24091 6.77261 6.51219
#
# Compressibility (1/GPa) = 0.02403415
#
# Stress axis : x y z
#
# Youngs Moduli (GPa) = 58.16240 73.01313 43.39653
#
# Poissons Ratio (x) = 0.49962 0.15245
# Poissons Ratio (y) = 0.39799 0.19934
# Poissons Ratio (z) = 0.20432 0.33538
#
# Static dielectric constant tensor:
#      x y z
#    x 3.514030 0.000000 0.023140 
#    y 0.000000 3.393340 0.000000 
#    z 0.023140 0.000000 3.517380 
# 
# 
# High freq. dielectric constant tensor:
#      x y z
#    x 1.752910 0.000000 -0.000420 
#    y 0.000000 1.741930 0.000000 
#    z -0.000420 0.000000 1.746370 
# 
# From -- ./inp_files/199749.got.cif
#   From: 2010.06.25/outbox.cif.g09.slc.cpg/sg12_100_cif.got.tgz:199749.got - 2010.06.28 00:19:55.
