data_PCOD8094619
_publ_section_title
;
Structure prediction by ZEFSAII (Michael W. Deem and Ramdas Pophale) SiO2 
 PCOD8094619
Probable space group: C 2/M
;
_chemical_formula_sum "Si O2"
_cell_formula_units_Z 56
_cell_length_a 27.548861
_cell_length_b 15.996609
_cell_length_c 9.671137
_cell_angle_alpha 90.000000
_cell_angle_beta 136.994895
_cell_angle_gamma 90.000000
_cell_volume 2906.925724
_symmetry_space_group_name_H-M "C 2/M"
_symmetry_group_IT_number 12
_symmetry_cell_setting 'monoclinic'
loop_
_space_group_symop_operation_xyz
x,y,z
-x,y,-z
-x,-y,-z
x,-y,z
1/2+x,1/2+y,z
1/2-x,1/2+y,-z
1/2-x,1/2-y,-z
1/2+x,1/2-y,z
loop_
_atom_site_type_symbol
_atom_site_label
_atom_site_fract_x
_atom_site_fract_y
_atom_site_fract_z
Si Si1 0.192982 0.407647 0.236679
Si Si2 0.573310 0.093945 0.203700
Si Si3 0.428201 0.500000 0.770458
Si Si4 0.690622 0.733544 0.101285
Si Si5 0.170522 0.850842 0.346321
Si Si6 0.584343 0.319532 0.644393
Si Si7 0.069159 0.000000 0.550041
Si Si8 0.848246 0.720209 0.455907
O O1 0.203660 0.500000 0.189147
O O2 0.119329 0.404645 0.161697
O O3 0.195658 0.334221 0.129081
O O4 0.253478 0.394894 0.478733
O O5 0.609733 0.137585 0.411260
O O6 0.558218 0.000000 0.223497
O O7 0.500000 0.137584 0.000000
O O8 0.389128 0.416493 0.736708
O O9 0.445601 0.500000 0.644211
O O10 0.500000 0.500000 0.000000
O O11 0.661593 0.683398 0.173319
O O12 0.770253 0.701348 0.226058
O O13 0.632466 0.718159 0.864118
O O14 0.166527 0.770896 0.435572
O O15 0.500000 0.313634 0.500000
O O16 0.610825 0.415159 0.675670
O O17 0.599577 0.268740 0.537496
O O18 0.000000 0.000000 0.500000
#
# Coordination Sequence:
#
# PCOD8094619 Si02
#       8
#     8   8   4   8   8   8   4   8
#     4  10  19  38  62  90 125 159 199 260 319 367
#     4  10  21  36  61  93 125 159 200 257 322 366
#     4  12  26  38  66 102 127 162 213 262 315 382
#     4  11  23  40  63  98 120 167 213 257 310 384
#     4  11  21  38  64  94 124 159 204 264 312 370
#     4  11  26  42  65  86 129 172 209 256 322 379
#     4  10  24  48  58  86 134 170 203 252 324 390
#     4  11  21  42  64  88 127 161 211 263 305 381
#
# _framework density 19.264339
#
# number of rings (size 3 to 8) (size 9 to 14) (size 15 to 20)
#    0.000    1.286    5.000    1.286    6.000    0.571 
#    1.286    0.714    0.000    0.857    0.000    0.000 
#    0.000    0.000    0.000    0.000    0.000    0.000 
#
# Total GULP energy -347111.657088 kJ/mol
# GULP energy per Si atom -12396.844896 kJ/mol
# Density = 1.922049 g / cm^3
# Si number density = 19.264339 Si / 1000 Ang^3
#
#
#
# Elastic Constant Matrix: (Units=GPa)
#
#
# Indices 1 2 3 4 5 6 
#
# 1 85.2488 28.7595 23.8057 0.0000 7.2412 0.0000
# 2 28.7595 120.2975 58.6683 0.0000 -0.2407 0.0000
# 3 23.8057 58.6683 102.9876 0.0000 19.7687 0.0000
# 4 0.0000 0.0000 0.0000 -27.8667 0.0000 117.1481
# 5 7.2412 -0.2407 19.7687 0.0000 31.5820 0.0000
# 6 0.0000 0.0000 0.0000 117.1481 0.0000 -246.5161
#
#
#
# Elastic Compliance Matrix: (Units=1/GPa)
#
#
# Indices 1 2 3 4 5 6 
#
# 1 0.013114 -0.002604 -0.001099 0.000000 -0.002339 0.000000
# 2 -0.002604 0.012695 -0.007687 0.000000 0.005505 0.000000
# 3 -0.001099 -0.007687 0.016259 0.000000 -0.009984 0.000000
# 4 0.000000 0.000000 0.000000 0.035966 0.000000 0.017092
# 5 -0.002339 0.005505 -0.009984 0.000000 0.038491 0.000000
# 6 0.000000 0.000000 0.000000 0.017092 0.000000 0.004066
#
#
# Mechanical properties :
#
#
# Convention : Reuss Voigt Hill
#
# Bulk Modulus (GPa) = 51.84259 59.00010 55.42134
# Shear Modulus (GPa) = 33.37753 -35.40682 -1.01464
#
# Velocity S-wave (km/s) = 4.16698 -4.29178 -0.72652
# Velocity P-wave (km/s) = 7.07963 2.47668 5.30354
#
# Compressibility (1/GPa) = 0.01928916
#
# Stress axis : x y z
#
# Youngs Moduli (GPa) = 76.25203 78.77088 61.50323
#
# Poissons Ratio (x) = 0.20511 0.06760
# Poissons Ratio (y) = 0.19855 0.47276
# Poissons Ratio (z) = 0.08381 0.60549
#
# Static dielectric constant tensor:
#      x y z
#    x 3.471480 0.000000 0.131310 
#    y 0.000000 3.844400 0.000000 
#    z 0.131310 0.000000 3.408610 
# 
# 
# High freq. dielectric constant tensor:
#      x y z
#    x 1.750310 0.000000 0.015670 
#    y 0.000000 1.760360 0.000000 
#    z 0.015670 0.000000 1.738830 
# 
# From -- ./inp_files/106073.got.cif
#   From: 2010.06.25/outbox.cif.g09.slc.cpg/sg12_54_cif.got.tgz:106073.got - 2010.06.28 00:19:55.
