data_PCOD8094188
_publ_section_title
;
Structure prediction by ZEFSAII (Michael W. Deem and Ramdas Pophale) SiO2 
 PCOD8094188
Probable space group: C 2/M
;
_chemical_formula_sum "Si O2"
_cell_formula_units_Z 64
_cell_length_a 17.606808
_cell_length_b 13.229402
_cell_length_c 28.780108
_cell_angle_alpha 90.000000
_cell_angle_beta 149.908588
_cell_angle_gamma 90.000000
_cell_volume 3361.098043
_symmetry_space_group_name_H-M "C 2/M"
_symmetry_group_IT_number 12
_symmetry_cell_setting 'monoclinic'
loop_
_space_group_symop_operation_xyz
x,y,z
-x,y,-z
-x,-y,-z
x,-y,z
1/2+x,1/2+y,z
1/2-x,1/2+y,-z
1/2-x,1/2-y,-z
1/2+x,1/2-y,z
loop_
_atom_site_type_symbol
_atom_site_label
_atom_site_fract_x
_atom_site_fract_y
_atom_site_fract_z
Si Si1 0.140033 0.615524 0.471529
Si Si2 0.201968 0.382821 0.688103
Si Si3 0.563026 0.749581 0.236508
Si Si4 0.958489 0.381948 0.867372
Si Si5 0.391107 0.234976 0.634540
Si Si6 0.783307 0.749614 0.218030
Si Si7 0.328117 0.611163 0.920423
Si Si8 0.763118 0.727725 0.954437
O O1 0.189083 0.500000 0.502692
O O2 0.258327 0.683466 0.561822
O O3 0.141096 0.640164 0.416707
O O4 0.978631 0.634154 0.411544
O O5 0.244979 0.500000 0.709475
O O6 0.296943 0.326699 0.698069
O O7 0.254046 0.337588 0.764586
O O8 0.548033 0.832625 0.187703
O O9 0.591551 0.800325 0.302440
O O10 0.399930 0.690841 0.152459
O O11 0.951420 0.500000 0.855331
O O12 0.813953 0.348030 0.821285
O O13 0.102925 0.355470 0.976976
O O14 0.543127 0.285848 0.693873
O O15 0.745974 0.697224 0.150014
O O16 0.247194 0.500000 0.875647
O O17 0.313776 0.661851 0.962941
O O18 0.500000 0.593353 0.000000
O O19 0.750000 0.750000 0.000000
#
# Coordination Sequence:
#
# PCOD8094188 Si02
#       8
#     8   8   8   8   8   8   8   8
#     4   9  20  38  59  84 113 145 180 228 294 349
#     4   9  19  36  57  82 112 146 182 231 290 341
#     4  10  21  36  58  83 113 146 191 238 275 330
#     4  10  22  39  56  75 113 163 192 221 272 333
#     4  10  20  36  60  85 113 142 180 240 287 328
#     4  10  19  37  57  82 114 142 193 235 276 330
#     4  11  21  35  61  87 109 145 191 240 285 325
#     4  10  21  38  52  80 122 150 186 231 277 329
#
# _framework density 19.041395999999999
#
# number of rings (size 3 to 8) (size 9 to 14) (size 15 to 20)
#    0.000    2.125    2.500    0.375    0.000    5.000 
#    0.000    2.500    0.000    0.000    0.000    7.000 
#    0.000    0.000    0.000    0.000    0.000    0.000 
#
# Total GULP energy -396453.250639 kJ/mol
# GULP energy per Si atom -12389.164082 kJ/mol
# Density = 1.899806 g / cm^3
# Si number density = 19.041396 Si / 1000 Ang^3
#
#
#
# Elastic Constant Matrix: (Units=GPa)
#
#
# Indices 1 2 3 4 5 6 
#
# 1 93.3536 38.9488 33.1986 0.0001 2.7238 0.0000
# 2 38.9488 108.1511 41.5285 0.0002 14.5049 0.0000
# 3 33.1986 41.5285 89.5683 0.0008 7.1006 -0.0001
# 4 0.0001 0.0002 0.0008 19.8337 0.0000 -2.2144
# 5 2.7238 14.5049 7.1006 0.0000 35.7197 0.0000
# 6 0.0000 0.0000 -0.0001 -2.2144 0.0000 38.0182
#
#
#
# Elastic Compliance Matrix: (Units=1/GPa)
#
#
# Indices 1 2 3 4 5 6 
#
# 1 0.013412 -0.003698 -0.003347 0.000000 0.001144 0.000000
# 2 -0.003698 0.012740 -0.004215 0.000000 -0.004054 0.000000
# 3 -0.003347 -0.004215 0.014431 -0.000001 -0.000902 0.000000
# 4 0.000000 0.000000 -0.000001 0.050749 0.000000 0.002956
# 5 0.001144 -0.004054 -0.000902 0.000000 0.029734 0.000000
# 6 0.000000 0.000000 0.000000 0.002956 0.000000 0.026475
#
#
# Mechanical properties :
#
#
# Convention : Reuss Voigt Hill
#
# Bulk Modulus (GPa) = 55.36328 57.60276 56.48302
# Shear Modulus (GPa) = 28.39567 30.54082 29.46824
#
# Velocity S-wave (km/s) = 3.86587 4.00924 3.93821
# Velocity P-wave (km/s) = 7.00464 7.19368 7.09979
#
# Compressibility (1/GPa) = 0.01806251
#
# Stress axis : x y z
#
# Youngs Moduli (GPa) = 74.56080 78.49082 69.29498
#
# Poissons Ratio (x) = 0.29028 0.23194
# Poissons Ratio (y) = 0.27575 0.29207
# Poissons Ratio (z) = 0.24957 0.33084
#
# Static dielectric constant tensor:
#      x y z
#    x 3.680090 0.000000 0.094690 
#    y 0.000000 2.283750 -0.000010 
#    z 0.094690 -0.000010 1.666990 
# 
# 
# High freq. dielectric constant tensor:
#      x y z
#    x 1.751690 0.000000 0.008590 
#    y 0.000000 1.712370 0.000000 
#    z 0.008590 0.000000 1.745260 
# 
# From -- ./inp_files/379116.got.cif
#   From: 2010.06.25/outbox.cif.g09.slc.cpg/sg12_190_cif.got.tgz:379116.got - 2010.06.28 00:19:55.
