data_PCOD8094921
_publ_section_title
;
Structure prediction by ZEFSAII (Michael W. Deem and Ramdas Pophale) SiO2 
 PCOD8094921
Probable space group: C 2/M
;
_chemical_formula_sum "Si O2"
_cell_formula_units_Z 44
_cell_length_a 15.071602
_cell_length_b 31.033422
_cell_length_c 5.087312
_cell_angle_alpha 90.000000
_cell_angle_beta 92.002204
_cell_angle_gamma 90.000000
_cell_volume 2378.002094
_symmetry_space_group_name_H-M "C 2/M"
_symmetry_group_IT_number 12
_symmetry_cell_setting 'monoclinic'
loop_
_space_group_symop_operation_xyz
x,y,z
-x,y,-z
-x,-y,-z
x,-y,z
1/2+x,1/2+y,z
1/2-x,1/2+y,-z
1/2-x,1/2-y,-z
1/2+x,1/2-y,z
loop_
_atom_site_type_symbol
_atom_site_label
_atom_site_fract_x
_atom_site_fract_y
_atom_site_fract_z
Si Si1 0.364690 0.796530 0.853885
Si Si2 0.396278 0.293432 0.994597
Si Si3 0.294811 0.681305 0.469470
Si Si4 0.939741 0.549061 0.242024
Si Si5 0.165894 0.370782 0.748724
Si Si6 0.500000 0.827101 0.500000
O O1 0.369932 0.756438 0.058025
O O2 0.291153 0.789134 0.615087
O O3 0.464183 0.798454 0.739367
O O4 0.332323 0.840404 0.993073
O O5 0.357088 0.298999 0.699300
O O6 0.500000 0.303108 0.000000
O O7 0.353495 0.324609 0.210678
O O8 0.255031 0.636311 0.583625
O O9 0.905300 0.500000 0.241018
O O10 0.850546 0.578488 0.202531
O O11 0.000000 0.559066 0.500000
O O12 0.000000 0.559398 0.000000
O O13 0.080007 0.357784 0.577699
#
# Coordination Sequence:
#
# PCOD8094921 Si02
#       6
#     8   8   8   8   8   4
#     4  11  23  36  55  79 113 146 195 234 278 326
#     4  12  25  40  56  77 108 147 193 238 291 332
#     4  11  25  39  56  80 107 149 187 242 281 329
#     4  10  21  36  56  84 118 154 187 222 268 328
#     4  11  21  36  55  80 116 146 195 225 276 321
#     4  10  20  30  51  82 104 154 186 228 261 324
#
# _framework density 18.502928000000001
#
# number of rings (size 3 to 8) (size 9 to 14) (size 15 to 20)
#    0.000    1.091    2.727    4.364   10.182    0.000 
#    0.000    0.000    0.000    0.000    0.000    0.000 
#    0.000    4.364    0.000    0.000    0.000    0.000 
#
# Total GULP energy -272580.049173 kJ/mol
# GULP energy per Si atom -12390.002235 kJ/mol
# Density = 1.846081 g / cm^3
# Si number density = 18.502928 Si / 1000 Ang^3
#
#
#
# Elastic Constant Matrix: (Units=GPa)
#
#
# Indices 1 2 3 4 5 6 
#
# 1 98.7487 51.6799 36.8838 0.0000 -17.6229 0.0000
# 2 51.6799 88.6330 32.6157 0.0000 -6.7043 0.0000
# 3 36.8838 32.6157 113.2331 0.0000 -11.8984 0.0000
# 4 0.0000 0.0000 0.0000 25.2067 0.0000 -4.8767
# 5 -17.6229 -6.7043 -11.8984 0.0000 31.9363 0.0000
# 6 0.0000 0.0000 0.0000 -4.8767 0.0000 20.0517
#
#
#
# Elastic Compliance Matrix: (Units=1/GPa)
#
#
# Indices 1 2 3 4 5 6 
#
# 1 0.016472 -0.008266 -0.002302 0.000000 0.006497 0.000000
# 2 -0.008266 0.016824 -0.002354 0.000000 -0.001906 0.000000
# 3 -0.002302 -0.002354 0.010484 0.000000 0.002142 0.000000
# 4 0.000000 0.000000 0.000000 0.041631 0.000000 0.010125
# 5 0.006497 -0.001906 0.002142 0.000000 0.035295 0.000000
# 6 0.000000 0.000000 0.000000 0.010125 0.000000 0.052334
#
#
# Mechanical properties :
#
#
# Convention : Reuss Voigt Hill
#
# Bulk Modulus (GPa) = 55.75100 60.33041 58.04071
# Shear Modulus (GPa) = 24.40671 27.40130 25.90401
#
# Velocity S-wave (km/s) = 3.63584 3.85244 3.74571
# Velocity P-wave (km/s) = 6.91536 7.24328 7.08122
#
# Compressibility (1/GPa) = 0.01793690
#
# Stress axis : x y z
#
# Youngs Moduli (GPa) = 60.70979 59.43845 95.38173
#
# Poissons Ratio (x) = 0.49131 0.21956
# Poissons Ratio (y) = 0.50182 0.22452
# Poissons Ratio (z) = 0.13975 0.13991
#
# Static dielectric constant tensor:
#      x y z
#    x 3.539150 0.000000 -0.070280 
#    y 0.000000 3.369130 0.000000 
#    z -0.070280 0.000000 3.641800 
# 
# 
# High freq. dielectric constant tensor:
#      x y z
#    x 1.705890 0.000000 0.001930 
#    y 0.000000 1.667030 0.000000 
#    z 0.001930 0.000000 1.743050 
# 
# From -- ./inp_files/12661.got.cif
#   From: 2010.06.25/outbox.cif.g09.slc.cpg/sg12_7_cif.got.tgz:12661.got - 2010.06.28 00:19:55.
