data_PCOD8094301
_publ_section_title
;
Structure prediction by ZEFSAII (Michael W. Deem and Ramdas Pophale) SiO2 
 PCOD8094301
Probable space group: C 2/M
;
_chemical_formula_sum "Si O2"
_cell_formula_units_Z 56
_cell_length_a 20.073582
_cell_length_b 8.920402
_cell_length_c 19.026279
_cell_angle_alpha 90.000000
_cell_angle_beta 120.112716
_cell_angle_gamma 90.000000
_cell_volume 2947.130737
_symmetry_space_group_name_H-M "C 2/M"
_symmetry_group_IT_number 12
_symmetry_cell_setting 'monoclinic'
loop_
_space_group_symop_operation_xyz
x,y,z
-x,y,-z
-x,-y,-z
x,-y,z
1/2+x,1/2+y,z
1/2-x,1/2+y,-z
1/2-x,1/2-y,-z
1/2+x,1/2-y,z
loop_
_atom_site_type_symbol
_atom_site_label
_atom_site_fract_x
_atom_site_fract_y
_atom_site_fract_z
Si Si1 0.391009 0.676956 0.263003
Si Si2 0.443770 0.677854 0.140857
Si Si3 0.718991 0.175079 0.189018
Si Si4 0.683244 0.176661 0.010771
Si Si5 0.329108 0.677761 0.566220
Si Si6 0.617638 0.322795 0.252990
Si Si7 0.019946 0.821516 0.433847
O O1 0.401351 0.500000 0.267379
O O2 0.401415 0.733361 0.189128
O O3 0.307554 0.722563 0.247307
O O4 0.456475 0.747392 0.347407
O O5 0.437936 0.500000 0.126648
O O6 0.400595 0.760562 0.054416
O O7 0.531573 0.734271 0.191303
O O8 0.671614 0.268321 0.219681
O O9 0.706430 0.000000 0.196585
O O10 0.693718 0.219446 0.097502
O O11 0.687890 0.000000 0.001813
O O12 0.750000 0.250000 0.000000
O O13 0.319500 0.500000 0.561408
O O14 0.250000 0.750000 0.500000
O O15 0.352507 0.737945 0.655979
O O16 0.395288 0.728406 0.546343
O O17 0.617468 0.500000 0.255672
O O18 0.000000 0.756179 0.500000
O O19 0.014508 0.000000 0.431282
#
# Coordination Sequence:
#
# PCOD8094301 Si02
#       7
#     8   8   8   8   8   8   8
#     4   9  16  32  55  79 108 144 186 229 273 325
#     4  10  19  37  61  81 110 151 192 234 281 335
#     4  10  22  37  57  84 113 146 186 237 284 331
#     4  11  22  37  58  86 116 147 188 238 287 337
#     4  10  21  37  57  83 115 150 185 230 284 337
#     4  10  22  39  58  81 115 155 190 230 282 342
#     4   9  17  30  54  85 109 137 186 234 270 321
#
# _framework density 19.001532000000001
#
# number of rings (size 3 to 8) (size 9 to 14) (size 15 to 20)
#    0.000    2.143    2.857    0.429    2.000    2.857 
#    0.000    2.857    0.000    1.286    0.000    0.000 
#    0.000    0.000    0.000    0.000    0.000    0.000 
#
# Total GULP energy -347193.001618 kJ/mol
# GULP energy per Si atom -12399.750058 kJ/mol
# Density = 1.895828 g / cm^3
# Si number density = 19.001532 Si / 1000 Ang^3
#
#
#
# Elastic Constant Matrix: (Units=GPa)
#
#
# Indices 1 2 3 4 5 6 
#
# 1 136.0529 21.8358 72.8646 0.0000 6.2093 0.0000
# 2 21.8358 23.1578 29.1662 0.0000 3.4231 0.0000
# 3 72.8646 29.1662 139.5274 0.0000 16.0875 0.0000
# 4 0.0000 0.0000 0.0000 24.9354 0.0000 2.7012
# 5 6.2093 3.4231 16.0875 0.0000 39.5631 0.0000
# 6 0.0000 0.0000 0.0000 2.7012 0.0000 31.7893
#
#
#
# Elastic Compliance Matrix: (Units=1/GPa)
#
#
# Indices 1 2 3 4 5 6 
#
# 1 0.010492 -0.004064 -0.004701 0.000000 0.000616 0.000000
# 2 -0.004064 0.060187 -0.010421 0.000000 -0.000332 0.000000
# 3 -0.004701 -0.010421 0.012182 0.000000 -0.003314 0.000000
# 4 0.000000 0.000000 0.000000 0.040476 0.000000 -0.003439
# 5 0.000616 -0.000332 -0.003314 0.000000 0.026556 0.000000
# 6 0.000000 0.000000 0.000000 -0.003439 0.000000 0.031749
#
#
# Mechanical properties :
#
#
# Convention : Reuss Voigt Hill
#
# Bulk Modulus (GPa) = 22.47645 60.71903 41.59774
# Shear Modulus (GPa) = 21.29084 30.91566 26.10325
#
# Velocity S-wave (km/s) = 3.35099 4.03800 3.71043
# Velocity P-wave (km/s) = 5.17944 7.33244 6.34789
#
# Compressibility (1/GPa) = 0.04449100
#
# Stress axis : x y z
#
# Youngs Moduli (GPa) = 95.31434 16.61484 82.08635
#
# Poissons Ratio (x) = 0.06752 0.38586
# Poissons Ratio (y) = 0.38732 0.85541
# Poissons Ratio (z) = 0.44804 0.17314
#
# Static dielectric constant tensor:
#      x y z
#    x 3.602650 0.000000 0.106760 
#    y 0.000000 3.081800 0.000000 
#    z 0.106760 0.000000 3.855100 
# 
# 
# High freq. dielectric constant tensor:
#      x y z
#    x 1.749910 0.000000 0.006480 
#    y 0.000000 1.696990 0.000000 
#    z 0.006480 0.000000 1.754330 
# 
# From -- ./inp_files/275636.got.cif
#   From: 2010.06.25/outbox.cif.g09.slc.cpg/sg12_138_cif.got.tgz:275636.got - 2010.06.28 00:19:55.
