data_PCOD8094472
_publ_section_title
;
Structure prediction by ZEFSAII (Michael W. Deem and Ramdas Pophale) SiO2 
 PCOD8094472
Probable space group: C 2/M
;
_chemical_formula_sum "Si O2"
_cell_formula_units_Z 56
_cell_length_a 19.799872
_cell_length_b 8.955054
_cell_length_c 14.978747
_cell_angle_alpha 90.000000
_cell_angle_beta 73.254092
_cell_angle_gamma 90.000000
_cell_volume 2543.235397
_symmetry_space_group_name_H-M "C 2/M"
_symmetry_group_IT_number 12
_symmetry_cell_setting 'monoclinic'
loop_
_space_group_symop_operation_xyz
x,y,z
-x,y,-z
-x,-y,-z
x,-y,z
1/2+x,1/2+y,z
1/2-x,1/2+y,-z
1/2-x,1/2-y,-z
1/2+x,1/2-y,z
loop_
_atom_site_type_symbol
_atom_site_label
_atom_site_fract_x
_atom_site_fract_y
_atom_site_fract_z
Si Si1 0.095689 0.674714 0.300502
Si Si2 0.323554 0.324799 0.088335
Si Si3 0.952998 0.827493 0.351237
Si Si4 0.234551 0.173181 0.266890
Si Si5 0.035660 0.169976 0.861908
Si Si6 0.604075 0.173130 0.089030
Si Si7 0.690187 0.826494 0.580204
O O1 0.092243 0.500000 0.322416
O O2 0.161621 0.749100 0.326410
O O3 0.107625 0.709979 0.191839
O O4 0.023391 0.749450 0.362796
O O5 0.307988 0.500000 0.089576
O O6 0.259476 0.249316 0.165459
O O7 0.394779 0.282429 0.112758
O O8 0.331733 0.258030 0.985482
O O9 0.949543 0.805253 0.247198
O O10 0.884152 0.747940 0.417551
O O11 0.953064 0.000000 0.379774
O O12 0.292398 0.197586 0.321940
O O13 0.220063 0.000000 0.254404
O O14 0.971007 0.270612 0.920319
O O15 0.014359 0.000000 0.890649
O O16 0.612076 0.000000 0.065452
O O17 0.750000 0.750000 0.500000
O O18 0.686497 0.000000 0.557102
#
# Coordination Sequence:
#
# PCOD8094472 Si02
#       7
#     8   8   8   8   8   8   8
#     4  10  22  40  61  86 122 165 206 246 295 353
#     4  11  21  34  54  81 116 158 203 249 299 352
#     4  10  19  37  64  91 122 159 198 243 296 354
#     4  11  24  41  62  89 120 156 199 248 300 354
#     4   9  18  32  52  80 114 154 199 244 294 350
#     4  10  21  34  51  80 116 158 204 250 295 343
#     4  11  24  42  67  97 125 152 190 241 298 360
#
# _framework density 22.019196999999998
#
# number of rings (size 3 to 8) (size 9 to 14) (size 15 to 20)
#    0.000    1.714    1.429    3.000    0.000    7.429 
#    0.000    0.714    0.000    4.286    0.000    0.000 
#    0.000    0.000    0.000    0.000    0.000    0.000 
#
# Total GULP energy -347320.931247 kJ/mol
# GULP energy per Si atom -12404.318973 kJ/mol
# Density = 2.196908 g / cm^3
# Si number density = 22.019197 Si / 1000 Ang^3
#
#
#
# Elastic Constant Matrix: (Units=GPa)
#
#
# Indices 1 2 3 4 5 6 
#
# 1 87.7706 52.6669 9.3023 0.0000 -36.4048 0.0000
# 2 52.6669 143.6075 40.6261 0.0000 -27.3636 0.0000
# 3 9.3023 40.6261 61.8194 0.0000 -32.7465 0.0000
# 4 0.0000 0.0000 0.0000 34.8072 0.0000 -11.6479
# 5 -36.4048 -27.3636 -32.7465 0.0000 33.9232 0.0000
# 6 0.0000 0.0000 0.0000 -11.6479 0.0000 37.9023
#
#
#
# Elastic Compliance Matrix: (Units=1/GPa)
#
#
# Indices 1 2 3 4 5 6 
#
# 1 0.063886 -0.019724 0.063925 0.000000 0.114357 0.000000
# 2 -0.019724 0.014796 -0.023832 0.000000 -0.032237 0.000000
# 3 0.063925 -0.023832 0.098994 0.000000 0.144938 0.000000
# 4 0.000000 0.000000 0.000000 0.032023 0.000000 0.009841
# 5 0.114357 -0.032237 0.144938 0.000000 0.266109 0.000000
# 6 0.000000 0.000000 0.000000 0.009841 0.000000 0.029408
#
#
# Mechanical properties :
#
#
# Convention : Reuss Voigt Hill
#
# Bulk Modulus (GPa) = 4.57844 55.37645 29.97744
# Shear Modulus (GPa) = 9.30609 34.03336 21.66973
#
# Velocity S-wave (km/s) = 2.05804 3.93571 3.14049
# Velocity P-wave (km/s) = 2.78050 6.77177 5.17629
#
# Compressibility (1/GPa) = 0.21841507
#
# Stress axis : x y z
#
# Youngs Moduli (GPa) = 15.65295 67.58409 10.10161
#
# Poissons Ratio (x) = 1.33300 -0.64574
# Poissons Ratio (y) = 0.30873 0.24074
# Poissons Ratio (z) = -1.00061 1.61066
#
# Static dielectric constant tensor:
#      x y z
#    x 4.030740 0.000000 -0.103380 
#    y 0.000000 3.919270 0.000000 
#    z -0.103380 0.000000 3.865960 
# 
# 
# High freq. dielectric constant tensor:
#      x y z
#    x 1.869490 0.000000 -0.014920 
#    y 0.000000 1.870860 0.000000 
#    z -0.014920 0.000000 1.855470 
# 
# From -- ./inp_files/280978.got.cif
#   From: 2010.06.25/outbox.cif.g09.slc.cpg/sg12_141_cif.got.tgz:280978.got - 2010.06.28 00:19:55.
