data_PCOD8094259
_publ_section_title
;
Structure prediction by ZEFSAII (Michael W. Deem and Ramdas Pophale) SiO2 
 PCOD8094259
Probable space group: C 2/M
;
_chemical_formula_sum "Si O2"
_cell_formula_units_Z 64
_cell_length_a 20.464535
_cell_length_b 9.088821
_cell_length_c 22.619602
_cell_angle_alpha 90.000000
_cell_angle_beta 125.302497
_cell_angle_gamma 90.000000
_cell_volume 3433.557858
_symmetry_space_group_name_H-M "C 2/M"
_symmetry_group_IT_number 12
_symmetry_cell_setting 'monoclinic'
loop_
_space_group_symop_operation_xyz
x,y,z
-x,y,-z
-x,-y,-z
x,-y,z
1/2+x,1/2+y,z
1/2-x,1/2+y,-z
1/2-x,1/2-y,-z
1/2+x,1/2-y,z
loop_
_atom_site_type_symbol
_atom_site_label
_atom_site_fract_x
_atom_site_fract_y
_atom_site_fract_z
Si Si1 0.977302 0.674177 0.164702
Si Si2 0.296341 0.826329 0.076260
Si Si3 0.407682 0.171204 0.444386
Si Si4 0.981143 0.674249 0.684960
Si Si5 0.167287 0.327501 0.470183
Si Si6 0.450068 0.173934 0.918038
Si Si7 0.730547 0.832158 0.152602
Si Si8 0.621619 0.668401 0.688486
O O1 0.978216 0.500000 0.160688
O O2 0.886939 0.732115 0.121802
O O3 0.023632 0.722811 0.248722
O O4 0.017546 0.742363 0.126831
O O5 0.257371 0.780714 0.117105
O O6 0.291434 0.000000 0.066093
O O7 0.250000 0.750000 0.000000
O O8 0.500000 0.213641 0.500000
O O9 0.360753 0.214752 0.478955
O O10 0.370476 0.265301 0.372449
O O11 0.398527 0.000000 0.424307
O O12 0.992248 0.500000 0.683570
O O13 0.058071 0.745485 0.694845
O O14 0.899947 0.728175 0.611119
O O15 0.180046 0.500000 0.469990
O O16 0.250000 0.250000 0.500000
O O17 0.357540 0.217689 0.873792
O O18 0.461735 0.000000 0.922836
O O19 0.500000 0.238714 0.000000
O O20 0.789682 0.817855 0.238698
O O21 0.729552 0.000000 0.127652
O O22 0.593624 0.500000 0.670171
#
# Coordination Sequence:
#
# PCOD8094259 Si02
#       8
#     8   8   8   8   8   8   8   8
#     4   9  18  32  56  83 103 144 197 232 272 329
#     4  11  21  34  56  83 111 144 186 234 279 332
#     4  10  20  38  61  82 110 153 200 234 275 340
#     4  10  19  37  60  81 110 151 198 237 276 342
#     4  10  22  38  59  85 115 151 188 240 289 335
#     4   9  17  32  54  79 110 145 187 234 273 326
#     4  10  21  36  55  83 115 144 181 233 288 335
#     4  11  22  34  55  88 120 147 182 242 302 337
#
# _framework density 18.639555999999999
#
# number of rings (size 3 to 8) (size 9 to 14) (size 15 to 20)
#    0.000    2.000    2.500    1.500    0.000    4.750 
#    0.000    2.500    0.000    4.875    0.000    0.000 
#    0.000    0.000    0.000    0.000    0.000    0.000 
#
# Total GULP energy -396835.393897 kJ/mol
# GULP energy per Si atom -12401.106059 kJ/mol
# Density = 1.859713 g / cm^3
# Si number density = 18.639556 Si / 1000 Ang^3
#
#
#
# Elastic Constant Matrix: (Units=GPa)
#
#
# Indices 1 2 3 4 5 6 
#
# 1 159.0472 36.2544 84.8694 0.0000 -0.6882 0.0000
# 2 36.2544 44.9467 40.9130 0.0000 0.0867 0.0000
# 3 84.8694 40.9130 156.9500 0.0000 -5.2771 0.0000
# 4 0.0000 0.0000 0.0000 24.3834 0.0000 1.2948
# 5 -0.6882 0.0867 -5.2771 0.0000 37.8073 0.0000
# 6 0.0000 0.0000 0.0000 1.2948 0.0000 27.5511
#
#
#
# Elastic Compliance Matrix: (Units=1/GPa)
#
#
# Indices 1 2 3 4 5 6 
#
# 1 0.009323 -0.003826 -0.004057 0.000000 -0.000388 0.000000
# 2 -0.003826 0.030789 -0.005990 0.000000 -0.000976 0.000000
# 3 -0.004057 -0.005990 0.010172 0.000000 0.001360 0.000000
# 4 0.000000 0.000000 0.000000 0.041114 0.000000 -0.001932
# 5 -0.000388 -0.000976 0.001360 0.000000 0.026635 0.000000
# 6 0.000000 0.000000 0.000000 -0.001932 0.000000 0.036387
#
#
# Mechanical properties :
#
#
# Convention : Reuss Voigt Hill
#
# Bulk Modulus (GPa) = 44.36895 76.11304 60.24100
# Shear Modulus (GPa) = 26.36041 31.20882 28.78461
#
# Velocity S-wave (km/s) = 3.76469 4.09630 3.93399
# Velocity P-wave (km/s) = 6.53854 7.95586 7.28177
#
# Compressibility (1/GPa) = 0.02253828
#
# Stress axis : x y z
#
# Youngs Moduli (GPa) = 107.26494 32.47915 98.30699
#
# Poissons Ratio (x) = 0.12428 0.39881
# Poissons Ratio (y) = 0.41043 0.58883
# Poissons Ratio (z) = 0.43515 0.19454
#
# Static dielectric constant tensor:
#      x y z
#    x 3.536050 0.000000 -0.128470 
#    y 0.000000 3.167770 0.000000 
#    z -0.128470 0.000000 3.811910 
# 
# 
# High freq. dielectric constant tensor:
#      x y z
#    x 1.727740 0.000000 -0.003930 
#    y 0.000000 1.694230 0.000000 
#    z -0.003930 0.000000 1.741590 
# 
# From -- ./inp_files/346184.got.cif
#   From: 2010.06.25/outbox.cif.g09.slc.cpg/sg12_174_cif.got.tgz:346184.got - 2010.06.28 00:19:55.
