data_PCOD8094863
_publ_section_title
;
Structure prediction by ZEFSAII (Michael W. Deem and Ramdas Pophale) SiO2 
 PCOD8094863
Probable space group: C 2/M
;
_chemical_formula_sum "Si O2"
_cell_formula_units_Z 44
_cell_length_a 19.367645
_cell_length_b 15.283328
_cell_length_c 10.673090
_cell_angle_alpha 90.000000
_cell_angle_beta 134.646676
_cell_angle_gamma 90.000000
_cell_volume 2247.665219
_symmetry_space_group_name_H-M "C 2/M"
_symmetry_group_IT_number 12
_symmetry_cell_setting 'monoclinic'
loop_
_space_group_symop_operation_xyz
x,y,z
-x,y,-z
-x,-y,-z
x,-y,z
1/2+x,1/2+y,z
1/2-x,1/2+y,-z
1/2-x,1/2-y,-z
1/2+x,1/2-y,z
loop_
_atom_site_type_symbol
_atom_site_label
_atom_site_fract_x
_atom_site_fract_y
_atom_site_fract_z
Si Si1 0.202786 0.500000 0.773196
Si Si2 0.972755 0.898536 0.831681
Si Si3 0.334967 0.348595 0.029223
Si Si4 0.907168 0.500000 0.112405
Si Si5 0.635832 0.000000 0.409702
Si Si6 0.765135 0.846162 0.469045
Si Si7 0.719189 0.841130 0.125324
O O1 0.121496 0.500000 0.777705
O O2 0.146347 0.500000 0.571859
O O3 0.270435 0.414290 0.863718
O O4 0.868918 0.872686 0.650705
O O5 0.052314 0.873040 0.829947
O O6 0.972293 0.000000 0.853630
O O7 0.000000 0.852976 0.000000
O O8 0.304736 0.357826 0.135012
O O9 0.326261 0.252715 0.960473
O O10 0.021752 0.500000 0.235385
O O11 0.864449 0.413760 0.992120
O O12 0.682984 0.912694 0.412347
O O13 0.750000 0.750000 0.500000
O O14 0.766972 0.845870 0.321725
#
# Coordination Sequence:
#
# PCOD8094863 Si02
#       7
#     4   8   8   4   4   8   8
#     4  10  19  41  67  91 119 155 206 249 303 355
#     4  11  22  39  63  93 120 157 203 246 305 361
#     4  10  21  41  68  88 121 161 197 257 298 359
#     4  10  24  40  64  89 121 166 198 248 302 361
#     4  12  24  41  61  91 125 161 203 252 295 359
#     4  12  26  41  62  90 124 162 201 255 300 356
#     4  10  23  43  61  91 123 158 207 243 305 361
#
# _framework density 19.575868
#
# number of rings (size 3 to 8) (size 9 to 14) (size 15 to 20)
#    0.000    1.273    1.818    4.091    2.545    2.182 
#    0.000    0.909    0.000    0.000    0.000    0.000 
#    0.000    0.000    0.000    0.000    0.000    0.000 
#
# Total GULP energy -272846.257388 kJ/mol
# GULP energy per Si atom -12402.102609 kJ/mol
# Density = 1.953131 g / cm^3
# Si number density = 19.575868 Si / 1000 Ang^3
#
#
#
# Elastic Constant Matrix: (Units=GPa)
#
#
# Indices 1 2 3 4 5 6 
#
# 1 126.6261 56.9255 88.1050 0.0000 14.9587 0.0000
# 2 56.9255 149.6364 62.2460 0.0000 7.7522 0.0000
# 3 88.1050 62.2460 184.5030 0.0000 -1.3061 0.0000
# 4 0.0000 0.0000 0.0000 16.2299 0.0000 8.9709
# 5 14.9587 7.7522 -1.3061 0.0000 49.3798 0.0000
# 6 0.0000 0.0000 0.0000 8.9709 0.0000 7.0411
#
#
#
# Elastic Compliance Matrix: (Units=1/GPa)
#
#
# Indices 1 2 3 4 5 6 
#
# 1 0.013356 -0.002583 -0.005533 0.000000 -0.003787 0.000000
# 2 -0.002583 0.008356 -0.001590 0.000000 -0.000571 0.000000
# 3 -0.005533 -0.001590 0.008614 0.000000 0.002154 0.000000
# 4 0.000000 0.000000 0.000000 0.208317 0.000000 -0.265409
# 5 -0.003787 -0.000571 0.002154 0.000000 0.021545 0.000000
# 6 0.000000 0.000000 0.000000 -0.265409 0.000000 0.480172
#
#
# Mechanical properties :
#
#
# Convention : Reuss Voigt Hill
#
# Bulk Modulus (GPa) = 91.62462 97.25762 94.44112
# Shear Modulus (GPa) = 6.54957 31.42943 18.98950
#
# Velocity S-wave (km/s) = 1.83112 4.01124 3.11794
# Velocity P-wave (km/s) = 7.16779 8.44060 7.83010
#
# Compressibility (1/GPa) = 0.01091410
#
# Stress axis : x y z
#
# Youngs Moduli (GPa) = 74.87479 119.66811 116.09357
#
# Poissons Ratio (x) = 0.30910 0.64235
# Poissons Ratio (y) = 0.19340 0.18457
# Poissons Ratio (z) = 0.41429 0.19025
#
# Static dielectric constant tensor:
#      x y z
#    x 3.716730 0.000000 -0.110350 
#    y 0.000000 3.808760 0.000000 
#    z -0.110350 0.000000 3.316160 
# 
# 
# High freq. dielectric constant tensor:
#      x y z
#    x 1.776240 0.000000 -0.004300 
#    y 0.000000 1.779290 0.000000 
#    z -0.004300 0.000000 1.759560 
# 
# From -- ./inp_files/167446.got.cif
#   From: 2010.06.25/outbox.cif.g09.slc.cpg/sg12_84_cif.got.tgz:167446.got - 2010.06.28 00:19:55.
