data_PCOD8094997
_publ_section_title
;
Structure prediction by ZEFSAII (Michael W. Deem and Ramdas Pophale) SiO2 
 PCOD8094997
Probable space group: C 2/M
;
_chemical_formula_sum "Si O2"
_cell_formula_units_Z 64
_cell_length_a 28.387678
_cell_length_b 8.978610
_cell_length_c 16.677295
_cell_angle_alpha 90.000000
_cell_angle_beta 63.804980
_cell_angle_gamma 90.000000
_cell_volume 3814.175563
_symmetry_space_group_name_H-M "C 2/M"
_symmetry_group_IT_number 12
_symmetry_cell_setting 'monoclinic'
loop_
_space_group_symop_operation_xyz
x,y,z
-x,y,-z
-x,-y,-z
x,-y,z
1/2+x,1/2+y,z
1/2-x,1/2+y,-z
1/2-x,1/2-y,-z
1/2+x,1/2-y,z
loop_
_atom_site_type_symbol
_atom_site_label
_atom_site_fract_x
_atom_site_fract_y
_atom_site_fract_z
Si Si1 0.662325 0.827855 0.728040
Si Si2 0.136837 0.170009 0.458116
Si Si3 0.968589 0.827151 0.904124
Si Si4 0.530726 0.831134 0.253960
Si Si5 0.954033 0.171656 0.592383
Si Si6 0.257811 0.823320 0.581102
Si Si7 0.921197 0.173541 0.107138
Si Si8 0.589005 0.833901 0.632990
O O1 0.715549 0.734909 0.676957
O O2 0.629600 0.766121 0.827736
O O3 0.629531 0.803331 0.672670
O O4 0.675978 0.000000 0.733175
O O5 0.103632 0.192035 0.402205
O O6 0.186039 0.280388 0.423971
O O7 0.097303 0.209301 0.559778
O O8 0.155994 0.000000 0.453213
O O9 0.945449 0.743799 0.843673
O O10 0.026842 0.771219 0.884897
O O11 0.971497 0.000000 0.881289
O O12 0.928696 0.797023 0.007024
O O13 0.549372 0.754547 0.321059
O O14 0.468687 0.816360 0.289208
O O15 0.550174 0.000000 0.242949
O O16 0.000000 0.238541 0.500000
O O17 0.967443 0.000000 0.598551
O O18 0.250000 0.750000 0.500000
O O19 0.253887 0.000000 0.574116
O O20 0.911543 0.000000 0.131747
O O21 0.597481 0.000000 0.590770
#
# Coordination Sequence:
#
# PCOD8094997 Si02
#       8
#     8   8   8   8   8   8   8   8
#     4  11  21  34  51  75 105 138 174 210 255 305
#     4  11  22  36  54  73  99 135 175 216 256 299
#     4   9  18  32  50  72 103 138 173 211 253 306
#     4  11  21  32  49  75 104 138 176 212 256 301
#     4  10  21  36  52  74 101 135 175 211 254 306
#     4  12  24  37  53  74 102 135 174 214 255 303
#     4   9  18  32  50  74 102 137 174 210 255 303
#     4  10  20  31  46  71 105 139 171 210 253 298
#
# _framework density 16.779512
#
# number of rings (size 3 to 8) (size 9 to 14) (size 15 to 20)
#    0.000    1.625    3.750    3.000    0.000    2.750 
#    0.000    1.250    0.000    0.000    0.000    0.875 
#    0.000    0.000    0.000    0.000    0.000    0.000 
#
# Total GULP energy -396833.468303 kJ/mol
# GULP energy per Si atom -12401.045884 kJ/mol
# Density = 1.674132 g / cm^3
# Si number density = 16.779512 Si / 1000 Ang^3
#
#
#
# Elastic Constant Matrix: (Units=GPa)
#
#
# Indices 1 2 3 4 5 6 
#
# 1 57.1212 39.6623 32.0387 0.0000 5.5626 0.0000
# 2 39.6623 101.7926 58.4805 0.0000 6.1288 0.0001
# 3 32.0387 58.4805 108.3045 0.0000 7.5372 0.0000
# 4 0.0000 0.0000 0.0000 28.2337 0.0000 -1.4231
# 5 5.5626 6.1288 7.5372 0.0000 26.1161 0.0000
# 6 0.0000 0.0001 0.0000 -1.4231 0.0000 25.1036
#
#
#
# Elastic Compliance Matrix: (Units=1/GPa)
#
#
# Indices 1 2 3 4 5 6 
#
# 1 0.024850 -0.007838 -0.002938 0.000000 -0.002606 0.000000
# 2 -0.007838 0.016748 -0.006702 0.000000 -0.000327 0.000000
# 3 -0.002938 -0.006702 0.013846 0.000000 -0.001798 0.000000
# 4 0.000000 0.000000 0.000000 0.035520 0.000000 0.002014
# 5 -0.002606 -0.000327 -0.001798 0.000000 0.039441 0.000000
# 6 0.000000 0.000000 0.000000 0.002014 0.000000 0.039949
#
#
# Mechanical properties :
#
#
# Convention : Reuss Voigt Hill
#
# Bulk Modulus (GPa) = 48.80606 58.62015 53.71311
# Shear Modulus (GPa) = 23.56937 25.02645 24.29791
#
# Velocity S-wave (km/s) = 3.75193 3.86617 3.80948
# Velocity P-wave (km/s) = 6.92237 7.41223 7.17148
#
# Compressibility (1/GPa) = 0.02048926
#
# Stress axis : x y z
#
# Youngs Moduli (GPa) = 40.24064 59.70928 72.22262
#
# Poissons Ratio (x) = 0.46801 0.21216
# Poissons Ratio (y) = 0.31541 0.48402
# Poissons Ratio (z) = 0.11821 0.40016
#
# Static dielectric constant tensor:
#      x y z
#    x 2.985120 0.000000 -0.057070 
#    y 0.000000 3.231060 0.000000 
#    z -0.057070 0.000000 3.110210 
# 
# 
# High freq. dielectric constant tensor:
#      x y z
#    x 1.620480 0.000000 0.000130 
#    y 0.000000 1.655440 0.000000 
#    z 0.000130 0.000000 1.637060 
# 
# From -- ./inp_files/244161.got.cif
#   From: 2010.06.25/outbox.cif.g09.slc.cpg/sg12_123_cif.got.tgz:244161.got - 2010.06.28 00:19:55.
