data_PCOD8094003
_publ_section_title
;
Structure prediction by ZEFSAII (Michael W. Deem and Ramdas Pophale) SiO2 
 PCOD8094003
Probable space group: C 2/M
;
_chemical_formula_sum "Si O2"
_cell_formula_units_Z 48
_cell_length_a 8.811437
_cell_length_b 30.009088
_cell_length_c 16.062411
_cell_angle_alpha 90.000000
_cell_angle_beta 146.129282
_cell_angle_gamma 90.000000
_cell_volume 2367.094291
_symmetry_space_group_name_H-M "C 2/M"
_symmetry_group_IT_number 12
_symmetry_cell_setting 'monoclinic'
loop_
_space_group_symop_operation_xyz
x,y,z
-x,y,-z
-x,-y,-z
x,-y,z
1/2+x,1/2+y,z
1/2-x,1/2+y,-z
1/2-x,1/2-y,-z
1/2+x,1/2-y,z
loop_
_atom_site_type_symbol
_atom_site_label
_atom_site_fract_x
_atom_site_fract_y
_atom_site_fract_z
Si Si1 0.799941 0.631612 0.291336
Si Si2 0.910216 0.867597 0.625744
Si Si3 0.166792 0.949537 0.660140
Si Si4 0.263429 0.214580 0.169308
Si Si5 0.714356 0.049868 0.825336
Si Si6 0.679333 0.714770 0.663584
O O1 0.609437 0.638972 0.284464
O O2 0.696028 0.665563 0.173778
O O3 0.772570 0.581018 0.248983
O O4 0.115904 0.640145 0.452257
O O5 0.035269 0.916501 0.667442
O O6 0.105473 0.831537 0.673299
O O7 0.478805 0.935651 0.783092
O O8 0.000000 0.944519 0.500000
O O9 0.149728 0.000000 0.687641
O O10 0.361550 0.245423 0.289997
O O11 0.504706 0.211724 0.213438
O O12 0.000000 0.233073 0.000000
O O13 0.648762 0.000000 0.763166
O O14 0.000000 0.052084 0.000000
O O15 0.500000 0.724622 0.500000
#
# Coordination Sequence:
#
# PCOD8094003 Si02
#       6
#     8   8   8   8   8   8
#     4  11  23  39  61  91 125 159 203 252 306 360
#     4  11  23  38  62  93 122 159 205 253 302 362
#     4  10  19  36  61  89 120 156 203 250 296 354
#     4  12  26  43  65  93 125 159 205 257 308 363
#     4  10  21  39  62  88 122 163 202 245 305 367
#     4  12  24  43  67  90 122 164 206 250 306 371
#
# _framework density 20.278026000000001
#
# number of rings (size 3 to 8) (size 9 to 14) (size 15 to 20)
#    0.000    1.000    3.333    4.000    2.333    0.667 
#    0.000    4.167    0.000    3.000    0.000    0.000 
#    0.000    0.000    0.000    0.000    0.000    0.000 
#
# Total GULP energy -297711.769989 kJ/mol
# GULP energy per Si atom -12404.657083 kJ/mol
# Density = 2.023187 g / cm^3
# Si number density = 20.278026 Si / 1000 Ang^3
#
#
#
# Elastic Constant Matrix: (Units=GPa)
#
#
# Indices 1 2 3 4 5 6 
#
# 1 123.7851 56.8860 43.6447 0.0000 16.6673 0.0000
# 2 56.8860 112.3557 20.6961 0.0000 0.0621 0.0000
# 3 43.6447 20.6961 81.4860 0.0000 20.7570 0.0000
# 4 0.0000 0.0000 0.0000 24.0540 0.0000 4.3685
# 5 16.6673 0.0621 20.7570 0.0000 29.5779 0.0000
# 6 0.0000 0.0000 0.0000 4.3685 0.0000 36.1853
#
#
#
# Elastic Compliance Matrix: (Units=1/GPa)
#
#
# Indices 1 2 3 4 5 6 
#
# 1 0.012771 -0.005662 -0.004349 0.000000 -0.004132 0.000000
# 2 -0.005662 0.011946 -0.000984 0.000000 0.003856 0.000000
# 3 -0.004349 -0.000984 0.017323 0.000000 -0.009704 0.000000
# 4 0.000000 0.000000 0.000000 0.042505 0.000000 -0.005132
# 5 -0.004132 0.003856 -0.009704 0.000000 0.042940 0.000000
# 6 0.000000 0.000000 0.000000 -0.005132 0.000000 0.028255
#
#
# Mechanical properties :
#
#
# Convention : Reuss Voigt Hill
#
# Bulk Modulus (GPa) = 49.87603 62.23115 56.05359
# Shear Modulus (GPa) = 27.11299 31.05677 29.08488
#
# Velocity S-wave (km/s) = 3.66055 3.91775 3.79133
# Velocity P-wave (km/s) = 6.52041 7.15685 6.84603
#
# Compressibility (1/GPa) = 0.02004971
#
# Stress axis : x y z
#
# Youngs Moduli (GPa) = 78.30518 83.70864 57.72555
#
# Poissons Ratio (x) = 0.47399 0.25107
# Poissons Ratio (y) = 0.44339 0.05678
# Poissons Ratio (z) = 0.34057 0.08233
#
# Static dielectric constant tensor:
#      x y z
#    x 4.753100 0.000000 -0.373920 
#    y 0.000000 3.894840 0.000000 
#    z -0.373920 0.000000 3.940840 
# 
# 
# High freq. dielectric constant tensor:
#      x y z
#    x 1.792870 0.000000 0.017970 
#    y 0.000000 1.804710 0.000000 
#    z 0.017970 0.000000 1.786850 
# 
# From -- ./inp_files/80555.got.cif
#   From: 2010.06.25/outbox.cif.g09.slc.cpg/sg12_41_cif.got.tgz:80555.got - 2010.06.28 00:19:55.
