data_PCOD8094890
_publ_section_title
;
Structure prediction by ZEFSAII (Michael W. Deem and Ramdas Pophale) SiO2 
 PCOD8094890
Probable space group: C 2/M
;
_chemical_formula_sum "Si O2"
_cell_formula_units_Z 56
_cell_length_a 12.817918
_cell_length_b 22.810106
_cell_length_c 22.482756
_cell_angle_alpha 90.000000
_cell_angle_beta 32.425898
_cell_angle_gamma 90.000000
_cell_volume 3524.746901
_symmetry_space_group_name_H-M "C 2/M"
_symmetry_group_IT_number 12
_symmetry_cell_setting 'monoclinic'
loop_
_space_group_symop_operation_xyz
x,y,z
-x,y,-z
-x,-y,-z
x,-y,z
1/2+x,1/2+y,z
1/2-x,1/2+y,-z
1/2-x,1/2-y,-z
1/2+x,1/2-y,z
loop_
_atom_site_type_symbol
_atom_site_label
_atom_site_fract_x
_atom_site_fract_y
_atom_site_fract_z
Si Si1 0.654438 0.931767 0.977858
Si Si2 0.705864 0.644059 0.875216
Si Si3 0.372938 0.166491 0.917872
Si Si4 0.041354 0.215478 0.851688
Si Si5 0.424619 0.615654 0.248590
Si Si6 0.370773 0.933204 0.697815
Si Si7 0.673400 0.934794 0.462701
O O1 0.852767 0.904260 0.857584
O O2 0.678505 0.000000 0.984641
O O3 0.500000 0.924413 0.000000
O O4 0.581317 0.894975 0.070979
O O5 0.851708 0.660473 0.857510
O O6 0.664980 0.699060 0.851034
O O7 0.822199 0.595114 0.783915
O O8 0.500000 0.619955 0.000000
O O9 0.546281 0.213986 0.844170
O O10 0.176718 0.192278 0.038807
O O11 0.116782 0.181961 0.755854
O O12 0.313094 0.572247 0.257539
O O13 0.339138 0.608640 0.356750
O O14 0.572082 0.908234 0.571273
O O15 0.409842 0.000000 0.692742
O O16 0.500000 0.941375 0.500000
O O17 0.762837 0.000000 0.430764
#
# Coordination Sequence:
#
# PCOD8094890 Si02
#       7
#     8   8   8   8   8   8   8
#     4  10  20  30  41  62  88 115 149 182 212 248
#     4   9  17  27  41  63  87 113 144 171 209 264
#     4   9  17  29  43  58  84 114 139 174 212 250
#     4   8  16  27  41  62  82 108 144 175 210 256
#     4   9  15  26  43  62  88 115 141 179 218 251
#     4   9  16  25  40  66  94 115 139 172 211 259
#     4   8  13  22  39  62  87 115 142 170 212 258
#
# _framework density 15.887665999999999
#
# number of rings (size 3 to 8) (size 9 to 14) (size 15 to 20)
#    0.000    3.143    0.000    3.000    0.000    4.857 
#    0.000    0.000    0.000    0.857    0.000    5.000 
#    0.000    4.571    0.000    0.000    0.000    0.000 
#
# Total GULP energy -346868.393668 kJ/mol
# GULP energy per Si atom -12388.156917 kJ/mol
# Density = 1.585150 g / cm^3
# Si number density = 15.887666 Si / 1000 Ang^3
#
#
#
# Elastic Constant Matrix: (Units=GPa)
#
#
# Indices 1 2 3 4 5 6 
#
# 1 70.0897 37.6473 31.8632 0.0051 9.0682 0.0006
# 2 37.6473 89.6880 45.5353 -0.0281 9.1768 -0.0037
# 3 31.8632 45.5353 99.4977 -0.0570 19.2257 0.0169
# 4 0.0051 -0.0281 -0.0570 14.6035 0.0169 -1.0985
# 5 9.0682 9.1768 19.2257 0.0169 17.7807 -0.0017
# 6 0.0006 -0.0037 0.0169 -1.0985 -0.0017 14.9927
#
#
#
# Elastic Compliance Matrix: (Units=1/GPa)
#
#
# Indices 1 2 3 4 5 6 
#
# 1 0.019377 -0.006470 -0.002503 -0.000025 -0.003837 -0.000002
# 2 -0.006470 0.016687 -0.005737 0.000012 0.000891 0.000012
# 3 -0.002503 -0.005737 0.016002 0.000066 -0.013065 -0.000016
# 4 -0.000025 0.000012 0.000066 0.068857 -0.000130 0.005045
# 5 -0.003837 0.000891 -0.013065 -0.000130 0.071865 0.000014
# 6 -0.000002 0.000012 -0.000016 0.005045 0.000014 0.067069
#
#
# Mechanical properties :
#
#
# Convention : Reuss Voigt Hill
#
# Bulk Modulus (GPa) = 44.15758 54.37412 49.26585
# Shear Modulus (GPa) = 16.84485 19.09067 17.96776
#
# Velocity S-wave (km/s) = 3.25968 3.47018 3.36657
# Velocity P-wave (km/s) = 6.48238 7.09610 6.79617
#
# Compressibility (1/GPa) = 0.02264617
#
# Stress axis : x y z
#
# Youngs Moduli (GPa) = 51.60739 59.92543 62.49162
#
# Poissons Ratio (x) = 0.38774 0.15640
# Poissons Ratio (y) = 0.33392 0.35852
# Poissons Ratio (z) = 0.12916 0.34379
#
# Static dielectric constant tensor:
#      x y z
#    x 2.777130 -0.000070 0.186760 
#    y -0.000070 3.140510 0.000210 
#    z 0.186760 0.000210 3.260120 
# 
# 
# High freq. dielectric constant tensor:
#      x y z
#    x 1.581130 -0.000010 0.015270 
#    y -0.000010 1.597540 0.000020 
#    z 0.015270 0.000020 1.594910 
# 
# From -- ./inp_files/307013.got.cif
#   From: 2010.06.25/outbox.cif.g09.slc.cpg/sg12_154_cif.got.tgz:307013.got - 2010.06.28 00:19:55.
