data_PCOD8094813
_publ_section_title
;
Structure prediction by ZEFSAII (Michael W. Deem and Ramdas Pophale) SiO2 
 PCOD8094813
Probable space group: C 2/M
;
_chemical_formula_sum "Si O2"
_cell_formula_units_Z 64
_cell_length_a 25.288720
_cell_length_b 17.243985
_cell_length_c 15.121404
_cell_angle_alpha 90.000000
_cell_angle_beta 27.865618
_cell_angle_gamma 90.000000
_cell_volume 3082.085996
_symmetry_space_group_name_H-M "C 2/M"
_symmetry_group_IT_number 12
_symmetry_cell_setting 'monoclinic'
loop_
_space_group_symop_operation_xyz
x,y,z
-x,y,-z
-x,-y,-z
x,-y,z
1/2+x,1/2+y,z
1/2-x,1/2+y,-z
1/2-x,1/2-y,-z
1/2+x,1/2-y,z
loop_
_atom_site_type_symbol
_atom_site_label
_atom_site_fract_x
_atom_site_fract_y
_atom_site_fract_z
Si Si1 0.741185 0.337611 0.044977
Si Si2 0.767564 0.168233 0.247771
Si Si3 0.740656 0.591023 0.561319
Si Si4 0.008466 0.088534 0.131550
Si Si5 0.731194 0.657675 0.261712
Si Si6 0.876181 0.589844 0.194075
Si Si7 0.871272 0.409824 0.700697
Si Si8 0.504258 0.590100 0.346088
O O1 0.777052 0.342558 0.094059
O O2 0.615455 0.368833 0.217595
O O3 0.750000 0.250000 0.000000
O O4 0.829707 0.390584 0.860693
O O5 0.716612 0.132268 0.412736
O O6 0.750141 0.259549 0.279158
O O7 0.703194 0.136965 0.257881
O O8 0.899206 0.146674 0.044137
O O9 0.761292 0.500000 0.540643
O O10 0.608844 0.609181 0.741706
O O11 0.811598 0.626315 0.374191
O O12 0.994331 0.100064 0.256375
O O13 0.045429 0.000000 0.055877
O O14 0.803567 0.597623 0.212233
O O15 0.600520 0.633126 0.453507
O O16 0.891532 0.500000 0.191463
O O17 0.000000 0.629133 0.000000
O O18 0.855293 0.500000 0.704765
O O19 0.000000 0.383135 0.500000
O O20 0.505202 0.500000 0.372307
#
# Coordination Sequence:
#
# PCOD8094813 Si02
#       8
#     8   8   8   8   8   8   8   8
#     4  12  25  44  68  98 135 175 215 276 340 391
#     4  12  24  40  63  98 135 171 210 272 336 400
#     4  10  21  40  68  97 127 171 222 277 329 392
#     4  10  19  39  69  97 130 167 216 277 326 386
#     4  12  26  42  66  98 134 176 212 280 339 395
#     4  10  23  45  66  91 131 175 224 277 328 391
#     4  11  25  44  66  92 130 179 226 267 318 399
#     4  11  23  43  72  99 129 173 228 274 325 396
#
# _framework density 20.765158
#
# number of rings (size 3 to 8) (size 9 to 14) (size 15 to 20)
#    0.000    1.000    3.750    2.625    1.750    6.000 
#    2.250    2.500    0.000    0.000    0.000    0.000 
#    0.000    0.000    0.000    0.000    0.000    0.000 
#
# Total GULP energy -396978.622202 kJ/mol
# GULP energy per Si atom -12405.581944 kJ/mol
# Density = 2.071790 g / cm^3
# Si number density = 20.765158 Si / 1000 Ang^3
#
#
#
# Elastic Constant Matrix: (Units=GPa)
#
#
# Indices 1 2 3 4 5 6 
#
# 1 99.2906 17.7380 47.6180 0.0000 22.4946 0.0000
# 2 17.7380 72.0731 40.9192 0.0000 -3.7724 0.0000
# 3 47.6180 40.9192 142.2335 0.0000 -1.2009 0.0000
# 4 0.0000 0.0000 0.0000 17.6020 0.0000 6.2624
# 5 22.4946 -3.7724 -1.2009 0.0000 34.7520 0.0000
# 6 0.0000 0.0000 0.0000 6.2624 0.0000 29.1085
#
#
#
# Elastic Compliance Matrix: (Units=1/GPa)
#
#
# Indices 1 2 3 4 5 6 
#
# 1 0.014794 -0.001554 -0.004589 0.000000 -0.009903 0.000000
# 2 -0.001554 0.016840 -0.004302 0.000000 0.002685 0.000000
# 3 -0.004589 -0.004302 0.009829 0.000000 0.002843 0.000000
# 4 0.000000 0.000000 0.000000 0.061521 0.000000 -0.013236
# 5 -0.009903 0.002685 0.002843 0.000000 0.035575 0.000000
# 6 0.000000 0.000000 0.000000 -0.013236 0.000000 0.037202
#
#
# Mechanical properties :
#
#
# Convention : Reuss Voigt Hill
#
# Bulk Modulus (GPa) = 48.60827 58.46084 53.53456
# Shear Modulus (GPa) = 24.56916 30.11397 27.34157
#
# Velocity S-wave (km/s) = 3.44349 3.81230 3.63258
# Velocity P-wave (km/s) = 6.26654 6.89874 6.59023
#
# Compressibility (1/GPa) = 0.02057263
#
# Stress axis : x y z
#
# Youngs Moduli (GPa) = 67.59723 59.38212 101.74217
#
# Poissons Ratio (x) = 0.09226 0.46693
# Poissons Ratio (y) = 0.10502 0.43769
# Poissons Ratio (z) = 0.31023 0.25546
#
# Static dielectric constant tensor:
#      x y z
#    x 3.935780 0.000000 -0.079020 
#    y 0.000000 3.737940 0.000000 
#    z -0.079020 0.000000 4.351040 
# 
# 
# High freq. dielectric constant tensor:
#      x y z
#    x 1.822890 0.000000 0.008310 
#    y 0.000000 1.805460 0.000000 
#    z 0.008310 0.000000 1.822280 
# 
# From -- ./inp_files/241471.got.cif
#   From: 2010.06.25/outbox.cif.g09.slc.cpg/sg12_121_cif.got.tgz:241471.got - 2010.06.28 00:19:55.
