data_PCOD8094855
_publ_section_title
;
Structure prediction by ZEFSAII (Michael W. Deem and Ramdas Pophale) SiO2 
 PCOD8094855
Probable space group: C 2/M
;
_chemical_formula_sum "Si O2"
_cell_formula_units_Z 48
_cell_length_a 14.293780
_cell_length_b 14.119358
_cell_length_c 12.366629
_cell_angle_alpha 90.000000
_cell_angle_beta 82.446674
_cell_angle_gamma 90.000000
_cell_volume 2474.164299
_symmetry_space_group_name_H-M "C 2/M"
_symmetry_group_IT_number 12
_symmetry_cell_setting 'monoclinic'
loop_
_space_group_symop_operation_xyz
x,y,z
-x,y,-z
-x,-y,-z
x,-y,z
1/2+x,1/2+y,z
1/2-x,1/2+y,-z
1/2-x,1/2-y,-z
1/2+x,1/2-y,z
loop_
_atom_site_type_symbol
_atom_site_label
_atom_site_fract_x
_atom_site_fract_y
_atom_site_fract_z
Si Si1 0.473761 0.687033 0.295048
Si Si2 0.715504 0.500000 0.450397
Si Si3 0.625627 0.183776 0.291378
Si Si4 0.896804 0.500000 0.560193
Si Si5 0.347400 0.299572 0.508568
Si Si6 0.109400 0.000000 0.014885
Si Si7 0.096019 0.000000 0.268003
Si Si8 0.310759 0.393308 0.177302
O O1 0.535212 0.776940 0.237584
O O2 0.431185 0.728109 0.414253
O O3 0.533738 0.591730 0.303451
O O4 0.389591 0.667091 0.225638
O O5 0.825966 0.500000 0.467608
O O6 0.664977 0.410629 0.511020
O O7 0.693052 0.500000 0.324434
O O8 0.614302 0.091016 0.363885
O O9 0.631700 0.274454 0.370815
O O10 0.714284 0.167159 0.199104
O O11 0.000000 0.500000 0.500000
O O12 0.250000 0.250000 0.500000
O O13 0.128100 0.000000 0.138477
O O14 0.158033 0.093319 0.952953
O O15 0.000000 0.000000 0.000000
O O16 0.299248 0.500000 0.230902
#
# Coordination Sequence:
#
# PCOD8094855 Si02
#       8
#     8   4   8   4   8   4   4   8
#     4  12  22  36  62  95 126 167 210 261 315 389
#     4  12  25  37  56  87 134 167 217 264 319 366
#     4  12  24  38  58  93 129 168 216 254 316 390
#     4  12  23  38  57  81 127 186 216 236 304 399
#     4  12  23  36  57  87 131 170 212 254 307 385
#     4  10  19  40  74  95 112 160 224 285 327 377
#     4  12  23  39  65  97 123 156 219 279 334 359
#     4  10  21  41  68  87 122 168 213 273 326 372
#
# _framework density 19.400490999999999
#
# number of rings (size 3 to 8) (size 9 to 14) (size 15 to 20)
#    0.500    0.000    8.333    2.000    0.000    0.667 
#    0.000    0.833    0.000    0.000    0.000    1.167 
#    0.000    0.000    0.000    0.000    0.000    0.000 
#
# Total GULP energy -297332.211825 kJ/mol
# GULP energy per Si atom -12388.842159 kJ/mol
# Density = 1.935633 g / cm^3
# Si number density = 19.400491 Si / 1000 Ang^3
#
#
#
# Elastic Constant Matrix: (Units=GPa)
#
#
# Indices 1 2 3 4 5 6 
#
# 1 133.1369 51.7902 53.8423 0.0000 -21.3756 0.0000
# 2 51.7902 100.9409 26.0895 0.0000 -12.3403 0.0000
# 3 53.8423 26.0895 90.5169 0.0000 -17.1109 0.0000
# 4 0.0000 0.0000 0.0000 24.4113 0.0000 -7.7519
# 5 -21.3756 -12.3403 -17.1109 0.0000 29.3665 0.0000
# 6 0.0000 0.0000 0.0000 -7.7519 0.0000 27.6739
#
#
#
# Elastic Compliance Matrix: (Units=1/GPa)
#
#
# Indices 1 2 3 4 5 6 
#
# 1 0.011860 -0.004298 -0.005085 0.000000 0.003863 0.000000
# 2 -0.004298 0.012508 -0.000726 0.000000 0.001704 0.000000
# 3 -0.005085 -0.000726 0.015199 0.000000 0.004849 0.000000
# 4 0.000000 0.000000 0.000000 0.044964 0.000000 0.012595
# 5 0.003863 0.001704 0.004849 0.000000 0.040406 0.000000
# 6 0.000000 0.000000 0.000000 0.012595 0.000000 0.039663
#
#
# Mechanical properties :
#
#
# Convention : Reuss Voigt Hill
#
# Bulk Modulus (GPa) = 51.68851 65.33763 58.51307
# Shear Modulus (GPa) = 26.14111 29.14852 27.64482
#
# Velocity S-wave (km/s) = 3.67474 3.88037 3.77895
# Velocity P-wave (km/s) = 6.68623 7.33674 7.01903
#
# Compressibility (1/GPa) = 0.01934666
#
# Stress axis : x y z
#
# Youngs Moduli (GPa) = 84.31671 79.94743 65.79542
#
# Poissons Ratio (x) = 0.34364 0.33460
# Poissons Ratio (y) = 0.36242 0.04778
# Poissons Ratio (z) = 0.42879 0.05806
#
# Static dielectric constant tensor:
#      x y z
#    x -0.514050 0.000000 -1.849640 
#    y 0.000000 3.728250 0.000000 
#    z -1.849640 0.000000 2.663440 
# 
# 
# High freq. dielectric constant tensor:
#      x y z
#    x 1.768090 0.000000 -0.009730 
#    y 0.000000 1.759150 0.000000 
#    z -0.009730 0.000000 1.720740 
# 
# From -- ./inp_files/142950.got.cif
#   From: 2010.06.25/outbox.cif.g09.slc.cpg/sg12_72_cif.got.tgz:142950.got - 2010.06.28 00:19:55.
