data_PCOD8094449
_publ_section_title
;
Structure prediction by ZEFSAII (Michael W. Deem and Ramdas Pophale) SiO2 
 PCOD8094449
Probable space group: C 2/M
;
_chemical_formula_sum "Si O2"
_cell_formula_units_Z 48
_cell_length_a 30.984038
_cell_length_b 12.027471
_cell_length_c 15.815785
_cell_angle_alpha 90.000000
_cell_angle_beta 154.114950
_cell_angle_gamma 90.000000
_cell_volume 2573.084487
_symmetry_space_group_name_H-M "C 2/M"
_symmetry_group_IT_number 12
_symmetry_cell_setting 'monoclinic'
loop_
_space_group_symop_operation_xyz
x,y,z
-x,y,-z
-x,-y,-z
x,-y,z
1/2+x,1/2+y,z
1/2-x,1/2+y,-z
1/2-x,1/2-y,-z
1/2+x,1/2-y,z
loop_
_atom_site_type_symbol
_atom_site_label
_atom_site_fract_x
_atom_site_fract_y
_atom_site_fract_z
Si Si1 0.947016 0.500000 0.167571
Si Si2 0.576306 0.377185 0.565482
Si Si3 0.884798 0.721301 0.791977
Si Si4 0.886762 0.500000 0.329388
Si Si5 0.586654 0.000000 0.084445
Si Si6 0.756069 0.500000 0.932963
Si Si7 0.285147 0.869657 0.456997
Si Si8 0.099099 0.332227 0.504294
O O1 0.832478 0.500000 0.989822
O O2 0.998643 0.389902 0.295298
O O3 0.960398 0.500000 0.090964
O O4 0.500000 0.328035 0.500000
O O5 0.539102 0.500000 0.469374
O O6 0.578566 0.296644 0.488521
O O7 0.686041 0.390603 0.800364
O O8 0.852646 0.613576 0.792134
O O9 0.826306 0.827116 0.724886
O O10 0.858469 0.697031 0.648151
O O11 0.000000 0.749843 0.000000
O O12 0.812944 0.500000 0.121054
O O13 0.864102 0.390720 0.344786
O O14 0.000000 0.500000 0.500000
O O15 0.500000 0.000000 0.000000
O O16 0.315719 0.843808 0.415084
O O17 0.290300 0.000000 0.485506
#
# Coordination Sequence:
#
# PCOD8094449 Si02
#       8
#     4   8   8   4   4   4   8   8
#     4  11  22  35  65  93 117 154 208 262 297 356
#     4   9  22  43  60  82 123 165 195 250 309 371
#     4  10  22  38  66  89 124 165 205 248 302 363
#     4  11  20  37  59  92 117 157 202 260 307 342
#     4  10  19  37  63  91 117 155 210 249 293 360
#     4  10  22  40  58  95 112 159 217 236 307 366
#     4  11  22  41  60  95 124 162 204 252 309 361
#     4  11  21  38  62  89 126 153 199 261 305 355
#
# _framework density 18.654654000000001
#
# number of rings (size 3 to 8) (size 9 to 14) (size 15 to 20)
#    0.500    1.167    4.167    2.500    2.333    1.000 
#    0.000    0.000    0.000    0.000    0.000    0.000 
#    0.000    0.000    0.000    0.000    0.000    0.000 
#
# Total GULP energy -297553.526840 kJ/mol
# GULP energy per Si atom -12398.063618 kJ/mol
# Density = 1.861220 g / cm^3
# Si number density = 18.654654 Si / 1000 Ang^3
#
#
#
# Elastic Constant Matrix: (Units=GPa)
#
#
# Indices 1 2 3 4 5 6 
#
# 1 130.8465 55.6747 59.9640 0.0000 6.6492 0.0000
# 2 55.6747 89.5995 29.2679 0.0000 4.7870 0.0000
# 3 59.9640 29.2679 112.4850 0.0000 10.2575 0.0000
# 4 0.0000 0.0000 0.0000 18.9252 0.0000 1.4086
# 5 6.6492 4.7870 10.2575 0.0000 36.4251 0.0000
# 6 0.0000 0.0000 0.0000 1.4086 0.0000 31.0032
#
#
#
# Elastic Compliance Matrix: (Units=1/GPa)
#
#
# Indices 1 2 3 4 5 6 
#
# 1 0.012611 -0.006163 -0.005115 0.000000 -0.000052 0.000000
# 2 -0.006163 0.015228 -0.000613 0.000000 -0.000704 0.000000
# 3 -0.005115 -0.000613 0.011991 0.000000 -0.002363 0.000000
# 4 0.000000 0.000000 0.000000 0.053019 0.000000 -0.002409
# 5 -0.000052 -0.000704 -0.002363 0.000000 0.028221 0.000000
# 6 0.000000 0.000000 0.000000 -0.002409 0.000000 0.032364
#
#
# Mechanical properties :
#
#
# Convention : Reuss Voigt Hill
#
# Bulk Modulus (GPa) = 62.30399 69.19381 65.74890
# Shear Modulus (GPa) = 27.38743 29.80566 28.59654
#
# Velocity S-wave (km/s) = 3.83577 4.00154 3.91953
# Velocity P-wave (km/s) = 7.28620 7.64998 7.47030
#
# Compressibility (1/GPa) = 0.01605034
#
# Stress axis : x y z
#
# Youngs Moduli (GPa) = 79.29342 65.66865 83.39246
#
# Poissons Ratio (x) = 0.40471 0.42652
# Poissons Ratio (y) = 0.48868 0.05110
# Poissons Ratio (z) = 0.40556 0.04024
#
# Static dielectric constant tensor:
#      x y z
#    x 3.487640 0.000000 -0.006580 
#    y 0.000000 3.620080 0.000000 
#    z -0.006580 0.000000 3.329580 
# 
# 
# High freq. dielectric constant tensor:
#      x y z
#    x 1.730500 0.000000 0.001170 
#    y 0.000000 1.720660 0.000000 
#    z 0.001170 0.000000 1.708840 
# 
# From -- ./inp_files/246049.got.cif
#   From: 2010.06.25/outbox.cif.g09.slc.cpg/sg12_124_cif.got.tgz:246049.got - 2010.06.28 00:19:55.
