data_PCOD8094392
_publ_section_title
;
Structure prediction by ZEFSAII (Michael W. Deem and Ramdas Pophale) SiO2 
 PCOD8094392
Probable space group: C 2/M
;
_chemical_formula_sum "Si O2"
_cell_formula_units_Z 56
_cell_length_a 23.114300
_cell_length_b 8.950568
_cell_length_c 15.048000
_cell_angle_alpha 90.000000
_cell_angle_beta 63.842972
_cell_angle_gamma 90.000000
_cell_volume 2794.394811
_symmetry_space_group_name_H-M "C 2/M"
_symmetry_group_IT_number 12
_symmetry_cell_setting 'monoclinic'
loop_
_space_group_symop_operation_xyz
x,y,z
-x,y,-z
-x,-y,-z
x,-y,z
1/2+x,1/2+y,z
1/2-x,1/2+y,-z
1/2-x,1/2-y,-z
1/2+x,1/2-y,z
loop_
_atom_site_type_symbol
_atom_site_label
_atom_site_fract_x
_atom_site_fract_y
_atom_site_fract_z
Si Si1 0.476846 0.671920 0.111396
Si Si2 0.990443 0.824631 0.404211
Si Si3 0.938368 0.677292 0.799758
Si Si4 0.729607 0.174053 0.647404
Si Si5 0.347344 0.325356 0.450535
Si Si6 0.166678 0.169062 0.839402
Si Si7 0.818701 0.176995 0.969313
O O1 0.499024 0.500000 0.110971
O O2 0.507344 0.772627 0.167019
O O3 0.400162 0.687957 0.167956
O O4 0.500000 0.729367 0.000000
O O5 0.918777 0.774145 0.426298
O O6 0.000000 0.782915 0.500000
O O7 0.041301 0.731893 0.311812
O O8 0.001409 0.000000 0.379550
O O9 0.931423 0.500000 0.806059
O O10 0.869711 0.751256 0.867515
O O11 0.674288 0.242865 0.623390
O O12 0.800448 0.218052 0.564210
O O13 0.721256 0.233860 0.753291
O O14 0.718876 0.000000 0.655382
O O15 0.343654 0.500000 0.432948
O O16 0.191197 0.000000 0.820050
O O17 0.158218 0.218830 0.946953
O O18 0.815421 0.000000 0.955717
O O19 0.750000 0.250000 0.000000
#
# Coordination Sequence:
#
# PCOD8094392 Si02
#       7
#     8   8   8   8   8   8   8
#     4  10  19  37  62  87 118 160 203 246 298 358
#     4  10  22  41  64  86 112 155 208 253 299 360
#     4  12  25  40  61  93 127 159 197 251 312 364
#     4  10  20  33  55  86 118 150 191 241 293 350
#     4   9  19  37  57  81 114 152 193 239 297 357
#     4  10  21  37  59  86 118 156 197 238 295 359
#     4  11  24  44  64  86 118 160 204 246 295 357
#
# _framework density 20.040116999999999
#
# number of rings (size 3 to 8) (size 9 to 14) (size 15 to 20)
#    0.000    1.714    1.429    3.000    0.000    8.000 
#    0.000    1.429    0.000    0.000    0.000    0.000 
#    0.000    0.000    0.000    0.000    0.000    0.000 
#
# Total GULP energy -347304.692623 kJ/mol
# GULP energy per Si atom -12403.739022 kJ/mol
# Density = 1.999450 g / cm^3
# Si number density = 20.040117 Si / 1000 Ang^3
#
#
#
# Elastic Constant Matrix: (Units=GPa)
#
#
# Indices 1 2 3 4 5 6 
#
# 1 99.9122 52.3101 49.9599 0.0000 -11.7160 0.0000
# 2 52.3101 87.4689 64.0793 0.0000 -4.7943 0.0000
# 3 49.9599 64.0793 153.2908 0.0000 -11.0644 0.0000
# 4 0.0000 0.0000 0.0000 36.4085 0.0000 -3.6180
# 5 -11.7160 -4.7943 -11.0644 0.0000 26.0657 0.0000
# 6 0.0000 0.0000 0.0000 -3.6180 0.0000 25.7878
#
#
#
# Elastic Compliance Matrix: (Units=1/GPa)
#
#
# Indices 1 2 3 4 5 6 
#
# 1 0.015430 -0.007977 -0.001341 0.000000 0.004899 0.000000
# 2 -0.007977 0.020604 -0.006188 0.000000 -0.002423 0.000000
# 3 -0.001341 -0.006188 0.009719 0.000000 0.002385 0.000000
# 4 0.000000 0.000000 0.000000 0.027854 0.000000 0.003908
# 5 0.004899 -0.002423 0.002385 0.000000 0.041133 0.000000
# 6 0.000000 0.000000 0.000000 0.003908 0.000000 0.039326
#
#
# Mechanical properties :
#
#
# Convention : Reuss Voigt Hill
#
# Bulk Modulus (GPa) = 67.83415 74.81896 71.32656
# Shear Modulus (GPa) = 26.31677 29.27390 27.79534
#
# Velocity S-wave (km/s) = 3.62775 3.82614 3.72826
# Velocity P-wave (km/s) = 7.17426 7.54551 7.36223
#
# Compressibility (1/GPa) = 0.01474184
#
# Stress axis : x y z
#
# Youngs Moduli (GPa) = 64.80783 48.53487 102.88814
#
# Poissons Ratio (x) = 0.38717 0.13794
# Poissons Ratio (y) = 0.51699 0.63665
# Poissons Ratio (z) = 0.08689 0.30032
#
# Static dielectric constant tensor:
#      x y z
#    x 3.634000 0.000000 -0.096440 
#    y 0.000000 3.571860 0.000000 
#    z -0.096440 0.000000 3.931370 
# 
# 
# High freq. dielectric constant tensor:
#      x y z
#    x 1.774070 0.000000 -0.008390 
#    y 0.000000 1.773260 0.000000 
#    z -0.008390 0.000000 1.799520 
# 
# From -- ./inp_files/238238.got.cif
#   From: 2010.06.25/outbox.cif.g09.slc.cpg/sg12_120_cif.got.tgz:238238.got - 2010.06.28 00:19:55.
