data_PCOD8094567
_publ_section_title
;
Structure prediction by ZEFSAII (Michael W. Deem and Ramdas Pophale) SiO2 
 PCOD8094567
Probable space group: C 2/M
;
_chemical_formula_sum "Si O2"
_cell_formula_units_Z 48
_cell_length_a 25.606318
_cell_length_b 11.747717
_cell_length_c 13.161428
_cell_angle_alpha 90.000000
_cell_angle_beta 137.136209
_cell_angle_gamma 90.000000
_cell_volume 2693.252968
_symmetry_space_group_name_H-M "C 2/M"
_symmetry_group_IT_number 12
_symmetry_cell_setting 'monoclinic'
loop_
_space_group_symop_operation_xyz
x,y,z
-x,y,-z
-x,-y,-z
x,-y,z
1/2+x,1/2+y,z
1/2-x,1/2+y,-z
1/2-x,1/2-y,-z
1/2+x,1/2-y,z
loop_
_atom_site_type_symbol
_atom_site_label
_atom_site_fract_x
_atom_site_fract_y
_atom_site_fract_z
Si Si1 0.552330 0.500000 0.410131
Si Si2 0.762324 0.367659 0.714840
Si Si3 0.702050 0.714320 0.836623
Si Si4 0.080231 0.368397 0.169020
Si Si5 0.608700 0.500000 0.710730
Si Si6 0.112145 0.772485 0.414467
Si Si7 0.920363 0.366208 0.437130
O O1 0.609175 0.500000 0.587984
O O2 0.470198 0.500000 0.343468
O O3 0.565248 0.389776 0.358934
O O4 0.740667 0.500000 0.673192
O O5 0.756296 0.326176 0.822104
O O6 0.850098 0.345866 0.808955
O O7 0.703164 0.297081 0.559013
O O8 0.651132 0.612344 0.806472
O O9 0.649207 0.819321 0.728745
O O10 0.750000 0.750000 0.000000
O O11 0.080056 0.500000 0.206040
O O12 0.093737 0.282462 0.280489
O O13 0.000000 0.338638 0.000000
O O14 0.081504 0.684436 0.453514
O O15 0.911559 0.500000 0.431751
O O16 0.000000 0.328434 0.500000
#
# Coordination Sequence:
#
# PCOD8094567 Si02
#       7
#     4   8   8   8   4   8   8
#     4  11  20  34  67  84 112 148 199 236 279 334
#     4  10  19  38  60  83 108 150 194 234 278 337
#     4  11  22  35  58  84 120 151 187 234 283 343
#     4  10  23  39  59  83 113 147 189 236 290 340
#     4  11  20  38  56  90 113 154 194 234 280 342
#     4  11  19  37  59  86 110 148 192 238 277 340
#     4  10  21  35  55  83 115 148 188 234 283 335
#
# _framework density 17.822313999999999
#
# number of rings (size 3 to 8) (size 9 to 14) (size 15 to 20)
#    0.000    1.500    5.000    2.000    1.167    2.667 
#    0.000    3.750    1.833    0.000    0.000    0.000 
#    0.000    0.000    0.000    0.000    0.000    0.000 
#
# Total GULP energy -297608.371878 kJ/mol
# GULP energy per Si atom -12400.348828 kJ/mol
# Density = 1.778175 g / cm^3
# Si number density = 17.822314 Si / 1000 Ang^3
#
#
#
# Elastic Constant Matrix: (Units=GPa)
#
#
# Indices 1 2 3 4 5 6 
#
# 1 116.8565 53.0793 59.2853 0.0000 10.5445 0.0000
# 2 53.0793 86.9022 52.4716 0.0000 -0.7252 0.0000
# 3 59.2853 52.4716 119.1340 0.0000 -6.1999 0.0000
# 4 0.0000 0.0000 0.0000 26.4422 0.0000 -4.3793
# 5 10.5445 -0.7252 -6.1999 0.0000 22.9479 0.0000
# 6 0.0000 0.0000 0.0000 -4.3793 0.0000 29.2577
#
#
#
# Elastic Compliance Matrix: (Units=1/GPa)
#
#
# Indices 1 2 3 4 5 6 
#
# 1 0.014553 -0.005893 -0.005076 0.000000 -0.008245 0.000000
# 2 -0.005893 0.018106 -0.004941 0.000000 0.001945 0.000000
# 3 -0.005076 -0.004941 0.013398 0.000000 0.005796 0.000000
# 4 0.000000 0.000000 0.000000 0.038780 0.000000 0.005804
# 5 -0.008245 0.001945 0.005796 0.000000 0.048993 0.000000
# 6 0.000000 0.000000 0.000000 0.005804 0.000000 0.035048
#
#
# Mechanical properties :
#
#
# Convention : Reuss Voigt Hill
#
# Bulk Modulus (GPa) = 70.23648 72.50722 71.37185
# Shear Modulus (GPa) = 24.33764 26.26665 25.30215
#
# Velocity S-wave (km/s) = 3.69937 3.84318 3.77196
# Velocity P-wave (km/s) = 7.59882 7.77593 7.68788
#
# Compressibility (1/GPa) = 0.01423762
#
# Stress axis : x y z
#
# Youngs Moduli (GPa) = 68.71234 55.22968 74.64036
#
# Poissons Ratio (x) = 0.32548 0.37886
# Poissons Ratio (y) = 0.40493 0.36879
# Poissons Ratio (z) = 0.34877 0.27288
#
# Static dielectric constant tensor:
#      x y z
#    x 3.433500 0.000000 0.094290 
#    y 0.000000 3.380240 0.000000 
#    z 0.094290 0.000000 3.099650 
# 
# 
# High freq. dielectric constant tensor:
#      x y z
#    x 1.702350 0.000000 0.010790 
#    y 0.000000 1.700770 0.000000 
#    z 0.010790 0.000000 1.673920 
# 
# From -- ./inp_files/174889.got.cif
#   From: 2010.06.25/outbox.cif.g09.slc.cpg/sg12_88_cif.got.tgz:174889.got - 2010.06.28 00:19:55.
