data_PCOD8094950
_publ_section_title
;
Structure prediction by ZEFSAII (Michael W. Deem and Ramdas Pophale) SiO2 
 PCOD8094950
Probable space group: C 2/M
;
_chemical_formula_sum "Si O2"
_cell_formula_units_Z 56
_cell_length_a 31.943810
_cell_length_b 9.276843
_cell_length_c 16.270938
_cell_angle_alpha 90.000000
_cell_angle_beta 48.749784
_cell_angle_gamma 90.000000
_cell_volume 3625.128383
_symmetry_space_group_name_H-M "C 2/M"
_symmetry_group_IT_number 12
_symmetry_cell_setting 'monoclinic'
loop_
_space_group_symop_operation_xyz
x,y,z
-x,y,-z
-x,-y,-z
x,-y,z
1/2+x,1/2+y,z
1/2-x,1/2+y,-z
1/2-x,1/2-y,-z
1/2+x,1/2-y,z
loop_
_atom_site_type_symbol
_atom_site_label
_atom_site_fract_x
_atom_site_fract_y
_atom_site_fract_z
Si Si1 0.987307 0.667217 0.885302
Si Si2 0.554997 0.670198 0.390455
Si Si3 0.310781 0.832859 0.510101
Si Si4 0.610238 0.667183 0.478071
Si Si5 0.990676 0.833188 0.714232
Si Si6 0.318072 0.667080 0.335879
Si Si7 0.089058 0.668062 0.866395
O O1 0.990262 0.500000 0.861247
O O2 0.978439 0.748584 0.812408
O O3 0.044314 0.715247 0.855525
O O4 0.935392 0.700975 0.011994
O O5 0.500000 0.742771 0.500000
O O6 0.546663 0.500000 0.402659
O O7 0.606087 0.709060 0.385564
O O8 0.556582 0.716698 0.292140
O O9 0.341712 0.768237 0.548728
O O10 0.331487 0.748698 0.403058
O O11 0.245377 0.810489 0.609134
O O12 0.326177 0.000000 0.479126
O O13 0.627054 0.500000 0.466883
O O14 0.552122 0.698620 0.599308
O O15 0.984287 0.000000 0.743858
O O16 0.332742 0.500000 0.329228
O O17 0.355945 0.735798 0.215699
O O18 0.104026 0.500000 0.838153
#
# Coordination Sequence:
#
# PCOD8094950 Si02
#       7
#     8   8   8   8   8   8   8
#     4   9  18  30  43  62  87 114 141 169 209 255
#     4   7  12  24  40  59  85 113 139 170 207 244
#     4  10  20  31  43  62  88 114 139 171 212 251
#     4   9  16  27  44  64  86 114 146 174 202 245
#     4   9  16  26  42  64  88 114 143 174 206 242
#     4  10  20  32  45  62  84 111 144 177 207 244
#     4   9  18  32  46  60  84 115 142 172 210 249
#
# _framework density 15.447729000000001
#
# number of rings (size 3 to 8) (size 9 to 14) (size 15 to 20)
#    0.000    3.000    0.000    4.286    0.000    5.714 
#    0.000    2.143    0.000    2.571    0.000    1.000 
#    0.000    0.000    0.000    0.000    0.000    0.000 
#
# Total GULP energy -346977.542356 kJ/mol
# GULP energy per Si atom -12392.055084 kJ/mol
# Density = 1.541257 g / cm^3
# Si number density = 15.447729 Si / 1000 Ang^3
#
#
#
# Elastic Constant Matrix: (Units=GPa)
#
#
# Indices 1 2 3 4 5 6 
#
# 1 102.1688 50.0382 46.5161 0.0000 24.9023 -0.0001
# 2 50.0382 71.7469 45.1954 0.0001 5.9330 -0.0003
# 3 46.5161 45.1954 79.1248 0.0000 12.8135 0.0000
# 4 0.0000 0.0001 0.0000 23.3108 0.0000 -0.6923
# 5 24.9023 5.9330 12.8135 0.0000 27.0468 0.0000
# 6 -0.0001 -0.0003 0.0000 -0.6923 0.0000 24.7910
#
#
#
# Elastic Compliance Matrix: (Units=1/GPa)
#
#
# Indices 1 2 3 4 5 6 
#
# 1 0.020111 -0.010716 -0.003341 0.000000 -0.014583 0.000000
# 2 -0.010716 0.027518 -0.010873 0.000000 0.008981 0.000000
# 3 -0.003341 -0.010873 0.021584 0.000000 -0.004765 0.000000
# 4 0.000000 0.000000 0.000000 0.042934 0.000000 0.001199
# 5 -0.014583 0.008981 -0.004765 0.000000 0.050687 0.000000
# 6 0.000000 0.000000 0.000000 0.001199 0.000000 0.040371
#
#
# Mechanical properties :
#
#
# Convention : Reuss Voigt Hill
#
# Bulk Modulus (GPa) = 51.66627 59.61552 55.64090
# Shear Modulus (GPa) = 19.26668 22.44912 20.85790
#
# Velocity S-wave (km/s) = 3.53543 3.81626 3.67853
# Velocity P-wave (km/s) = 7.08408 7.62194 7.35793
#
# Compressibility (1/GPa) = 0.01935499
#
# Stress axis : x y z
#
# Youngs Moduli (GPa) = 49.72292 36.34021 46.33043
#
# Poissons Ratio (x) = 0.38942 0.15478
# Poissons Ratio (y) = 0.53283 0.50373
# Poissons Ratio (z) = 0.16611 0.39511
#
# Static dielectric constant tensor:
#      x y z
#    x 3.050620 0.000000 0.168740 
#    y 0.000000 2.829610 0.000000 
#    z 0.168740 0.000000 2.783390 
# 
# 
# High freq. dielectric constant tensor:
#      x y z
#    x 1.587060 0.000000 0.014750 
#    y 0.000000 1.584860 0.000000 
#    z 0.014750 0.000000 1.567400 
# 
# From -- ./inp_files/248923.got.cif
#   From: 2010.06.25/outbox.cif.g09.slc.cpg/sg12_125_cif.got.tgz:248923.got - 2010.06.28 00:19:55.
