data_PCOD8094372
_publ_section_title
;
Structure prediction by ZEFSAII (Michael W. Deem and Ramdas Pophale) SiO2 
 PCOD8094372
Probable space group: C 2/M
;
_chemical_formula_sum "Si O2"
_cell_formula_units_Z 56
_cell_length_a 20.492875
_cell_length_b 8.799859
_cell_length_c 17.705871
_cell_angle_alpha 90.000000
_cell_angle_beta 116.686924
_cell_angle_gamma 90.000000
_cell_volume 2852.842362
_symmetry_space_group_name_H-M "C 2/M"
_symmetry_group_IT_number 12
_symmetry_cell_setting 'monoclinic'
loop_
_space_group_symop_operation_xyz
x,y,z
-x,y,-z
-x,-y,-z
x,-y,z
1/2+x,1/2+y,z
1/2-x,1/2+y,-z
1/2-x,1/2-y,-z
1/2+x,1/2-y,z
loop_
_atom_site_type_symbol
_atom_site_label
_atom_site_fract_x
_atom_site_fract_y
_atom_site_fract_z
Si Si1 0.815935 0.320954 0.309441
Si Si2 0.438901 0.680304 0.662064
Si Si3 0.651498 0.320302 0.244454
Si Si4 0.080686 0.323243 0.063780
Si Si5 0.917583 0.175828 0.482975
Si Si6 0.170722 0.322028 0.962218
Si Si7 0.899811 0.819507 0.217217
O O1 0.818676 0.500000 0.296495
O O2 0.734283 0.261700 0.283173
O O3 0.865027 0.280108 0.406562
O O4 0.841368 0.236042 0.247653
O O5 0.442632 0.500000 0.666421
O O6 0.384984 0.745912 0.698054
O O7 0.409596 0.732104 0.565121
O O8 0.520618 0.742589 0.717880
O O9 0.649458 0.500000 0.245927
O O10 0.604879 0.267982 0.149313
O O11 0.079729 0.500000 0.083775
O O12 0.136755 0.287152 0.025946
O O13 0.000000 0.266815 0.000000
O O14 0.000000 0.200854 0.500000
O O15 0.895101 0.000000 0.460937
O O16 0.176633 0.500000 0.949174
O O17 0.118143 0.247434 0.873531
O O18 0.250000 0.250000 0.000000
O O19 0.896707 0.000000 0.211591
#
# Coordination Sequence:
#
# PCOD8094372 Si02
#       7
#     8   8   8   8   8   8   8
#     4  11  23  37  56  86 122 153 186 235 290 342
#     4   9  19  37  60  84 111 146 192 238 279 335
#     4  10  22  39  58  83 116 152 190 233 283 341
#     4  10  22  40  60  83 115 151 189 236 287 339
#     4  10  19  37  62  86 112 150 195 236 282 339
#     4  11  23  38  57  84 116 150 189 237 288 339
#     4  11  21  37  61  85 110 148 195 239 284 335
#
# _framework density 19.629546000000001
#
# number of rings (size 3 to 8) (size 9 to 14) (size 15 to 20)
#    0.000    1.714    1.429    3.000    0.000    5.714 
#    0.000    1.429    0.000    0.000    0.000    0.000 
#    0.000    0.000    0.000    0.000    0.000    0.000 
#
# Total GULP energy -347314.865162 kJ/mol
# GULP energy per Si atom -12404.102327 kJ/mol
# Density = 1.958487 g / cm^3
# Si number density = 19.629546 Si / 1000 Ang^3
#
#
#
# Elastic Constant Matrix: (Units=GPa)
#
#
# Indices 1 2 3 4 5 6 
#
# 1 112.7379 27.6638 24.1753 0.0000 -13.4638 0.0000
# 2 27.6638 43.6106 15.8236 0.0000 -4.7608 0.0000
# 3 24.1753 15.8236 93.9105 0.0000 -12.4677 0.0000
# 4 0.0000 0.0000 0.0000 34.8418 0.0000 1.1660
# 5 -13.4638 -4.7608 -12.4677 0.0000 35.7841 0.0000
# 6 0.0000 0.0000 0.0000 1.1660 0.0000 23.9663
#
#
#
# Elastic Compliance Matrix: (Units=1/GPa)
#
#
# Indices 1 2 3 4 5 6 
#
# 1 0.011027 -0.006170 -0.001423 0.000000 0.002832 0.000000
# 2 -0.006170 0.027999 -0.003086 0.000000 0.000329 0.000000
# 3 -0.001423 -0.003086 0.011963 0.000000 0.003222 0.000000
# 4 0.000000 0.000000 0.000000 0.028748 0.000000 -0.001399
# 5 0.002832 0.000329 0.003222 0.000000 0.030177 0.000000
# 6 0.000000 0.000000 0.000000 -0.001399 0.000000 0.041793
#
#
# Mechanical properties :
#
#
# Convention : Reuss Voigt Hill
#
# Bulk Modulus (GPa) = 33.74732 42.84269 38.29500
# Shear Modulus (GPa) = 27.33096 31.09153 29.21125
#
# Velocity S-wave (km/s) = 3.73545 3.98416 3.86181
# Velocity P-wave (km/s) = 5.98617 6.56031 6.27981
#
# Compressibility (1/GPa) = 0.02963198
#
# Stress axis : x y z
#
# Youngs Moduli (GPa) = 90.68265 35.71510 83.59438
#
# Poissons Ratio (x) = 0.22035 0.11897
# Poissons Ratio (y) = 0.55947 0.25797
# Poissons Ratio (z) = 0.12906 0.11021
#
# Static dielectric constant tensor:
#      x y z
#    x 3.965180 0.000000 -0.034090 
#    y 0.000000 3.399390 0.000000 
#    z -0.034090 0.000000 3.716880 
# 
# 
# High freq. dielectric constant tensor:
#      x y z
#    x 1.778250 0.000000 -0.003420 
#    y 0.000000 1.748880 0.000000 
#    z -0.003420 0.000000 1.780020 
# 
# From -- ./inp_files/275569.got.cif
#   From: 2010.06.25/outbox.cif.g09.slc.cpg/sg12_138_cif.got.tgz:275569.got - 2010.06.28 00:19:55.
