data_PCOD8094698
_publ_section_title
;
Structure prediction by ZEFSAII (Michael W. Deem and Ramdas Pophale) SiO2 
 PCOD8094698
Probable space group: C 2/M
;
_chemical_formula_sum "Si O2"
_cell_formula_units_Z 52
_cell_length_a 12.191995
_cell_length_b 22.049901
_cell_length_c 11.502105
_cell_angle_alpha 90.000000
_cell_angle_beta 50.280645
_cell_angle_gamma 90.000000
_cell_volume 2378.421582
_symmetry_space_group_name_H-M "C 2/M"
_symmetry_group_IT_number 12
_symmetry_cell_setting 'monoclinic'
loop_
_space_group_symop_operation_xyz
x,y,z
-x,y,-z
-x,-y,-z
x,-y,z
1/2+x,1/2+y,z
1/2-x,1/2+y,-z
1/2-x,1/2-y,-z
1/2+x,1/2-y,z
loop_
_atom_site_type_symbol
_atom_site_label
_atom_site_fract_x
_atom_site_fract_y
_atom_site_fract_z
Si Si1 0.637783 0.000000 0.599844
Si Si2 0.373546 0.366988 0.317973
Si Si3 0.326674 0.000000 0.871183
Si Si4 0.680691 0.500000 0.730922
Si Si5 0.893993 0.371124 0.887140
Si Si6 0.781759 0.379724 0.343425
Si Si7 0.333545 0.677459 0.796879
Si Si8 0.638196 0.189807 0.325567
O O1 0.470387 0.000000 0.700697
O O2 0.672562 0.000000 0.439866
O O3 0.705984 0.051329 0.631465
O O4 0.394561 0.437487 0.262672
O O5 0.291670 0.350631 0.493566
O O6 0.531160 0.340173 0.217812
O O7 0.285568 0.327324 0.286622
O O8 0.200538 0.000000 0.858352
O O9 0.332125 0.060129 0.949428
O O10 0.878441 0.360658 0.761098
O O11 0.060052 0.357629 0.801725
O O12 0.804400 0.325234 0.026721
O O13 0.680062 0.368843 0.302034
O O14 0.347860 0.744382 0.738192
O O15 0.500000 0.185534 0.500000
#
# Coordination Sequence:
#
# PCOD8094698 Si02
#       8
#     4   8   4   4   8   8   8   8
#     4   8  19  32  68 100 130 167 228 278 322 402
#     4  11  24  43  71 103 131 177 230 281 347 393
#     4  10  19  38  68  98 133 172 219 283 339 399
#     4  10  19  38  66 102 135 166 219 295 345 389
#     4  11  24  44  68 103 132 176 225 276 345 397
#     4  10  21  43  68  97 132 179 223 273 333 402
#     4  12  28  43  63  98 142 183 222 273 336 414
#     4  12  25  45  72  95 133 178 233 288 322 396
#
# _framework density 21.863240000000001
#
# number of rings (size 3 to 8) (size 9 to 14) (size 15 to 20)
#    0.000    1.231    3.077    2.538    2.154    3.692 
#    2.769    5.385    0.000    0.000    0.000    0.000 
#    0.000    0.000    0.000    0.000    0.000    0.000 
#
# Total GULP energy -322173.588815 kJ/mol
# GULP energy per Si atom -12391.291878 kJ/mol
# Density = 2.181348 g / cm^3
# Si number density = 21.863240 Si / 1000 Ang^3
#
#
#
# Elastic Constant Matrix: (Units=GPa)
#
#
# Indices 1 2 3 4 5 6 
#
# 1 105.8791 35.5590 -7.5328 0.0000 -6.5018 0.0000
# 2 35.5590 69.7889 30.2546 0.0000 -1.4697 0.0000
# 3 -7.5328 30.2546 40.3995 0.0000 -2.7945 0.0000
# 4 0.0000 0.0000 0.0000 49.3187 0.0000 10.0445
# 5 -6.5018 -1.4697 -2.7945 0.0000 28.3341 0.0000
# 6 0.0000 0.0000 0.0000 10.0445 0.0000 23.9967
#
#
#
# Elastic Compliance Matrix: (Units=1/GPa)
#
#
# Indices 1 2 3 4 5 6 
#
# 1 0.015055 -0.013214 0.012983 0.000000 0.004050 0.000000
# 2 -0.013214 0.032821 -0.027321 0.000000 -0.004024 0.000000
# 3 0.012983 -0.027321 0.048070 0.000000 0.006303 0.000000
# 4 0.000000 0.000000 0.000000 0.022166 0.000000 -0.009278
# 5 0.004050 -0.004024 0.006303 0.000000 0.036635 0.000000
# 6 0.000000 0.000000 0.000000 -0.009278 0.000000 0.045556
#
#
# Mechanical properties :
#
#
# Convention : Reuss Voigt Hill
#
# Bulk Modulus (GPa) = 24.48504 36.95878 30.72191
# Shear Modulus (GPa) = 18.58586 30.84901 24.71743
#
# Velocity S-wave (km/s) = 2.91880 3.76040 3.36601
# Velocity P-wave (km/s) = 4.75213 5.98292 5.40269
#
# Compressibility (1/GPa) = 0.04084127
#
# Stress axis : x y z
#
# Youngs Moduli (GPa) = 66.42386 30.46821 20.80300
#
# Poissons Ratio (x) = 0.40260 -0.27008
# Poissons Ratio (y) = 0.87771 0.56837
# Poissons Ratio (z) = -0.86236 0.83243
#
# Static dielectric constant tensor:
#      x y z
#    x 3.901470 0.000000 0.003220 
#    y 0.000000 4.111590 0.000000 
#    z 0.003220 0.000000 3.949170 
# 
# 
# High freq. dielectric constant tensor:
#      x y z
#    x 1.860210 0.000000 0.002180 
#    y 0.000000 1.864690 0.000000 
#    z 0.002180 0.000000 1.858470 
# 
# From -- ./inp_files/135895.got.cif
#   From: 2010.06.25/outbox.cif.g09.slc.cpg/sg12_68_cif.got.tgz:135895.got - 2010.06.28 00:19:55.
