data_PCOD8094713
_publ_section_title
;
Structure prediction by ZEFSAII (Michael W. Deem and Ramdas Pophale) SiO2 
 PCOD8094713
Probable space group: C 2/M
;
_chemical_formula_sum "Si O2"
_cell_formula_units_Z 44
_cell_length_a 9.195043
_cell_length_b 30.194479
_cell_length_c 11.453897
_cell_angle_alpha 90.000000
_cell_angle_beta 40.571335
_cell_angle_gamma 90.000000
_cell_volume 2068.289309
_symmetry_space_group_name_H-M "C 2/M"
_symmetry_group_IT_number 12
_symmetry_cell_setting 'monoclinic'
loop_
_space_group_symop_operation_xyz
x,y,z
-x,y,-z
-x,-y,-z
x,-y,z
1/2+x,1/2+y,z
1/2-x,1/2+y,-z
1/2-x,1/2-y,-z
1/2+x,1/2-y,z
loop_
_atom_site_type_symbol
_atom_site_label
_atom_site_fract_x
_atom_site_fract_y
_atom_site_fract_z
Si Si1 0.259506 0.548526 0.850127
Si Si2 0.000000 0.095683 0.500000
Si Si3 0.606462 0.666001 0.617147
Si Si4 0.046580 0.305505 0.267527
Si Si5 0.301788 0.226621 0.200816
Si Si6 0.134479 0.876444 0.030483
O O1 0.369199 0.500000 0.807284
O O2 0.335374 0.565859 0.677327
O O3 0.307855 0.581043 0.927878
O O4 0.000000 0.542620 0.000000
O O5 0.137225 0.125037 0.509217
O O6 0.859593 0.683521 0.478997
O O7 0.423445 0.698286 0.670727
O O8 0.528645 0.654444 0.794343
O O9 0.249262 0.277377 0.198417
O O10 0.902394 0.274285 0.268465
O O11 0.146104 0.348639 0.141356
O O12 0.500000 0.206835 0.000000
O O13 0.000000 0.893178 0.000000
#
# Coordination Sequence:
#
# PCOD8094713 Si02
#       6
#     8   4   8   8   8   8
#     4  10  22  41  72 104 128 162 209 264 328 396
#     4  10  19  38  66  98 128 160 208 266 317 380
#     4  11  23  40  66  89 124 177 221 264 326 373
#     4  12  25  43  61  91 128 174 225 275 318 380
#     4  12  24  41  62  89 126 173 223 277 322 367
#     4  11  26  44  64  93 134 174 214 267 325 388
#
# _framework density 21.273617999999999
#
# number of rings (size 3 to 8) (size 9 to 14) (size 15 to 20)
#    0.000    0.909    3.636    3.000    5.091    1.091 
#    0.000    0.000    0.000    0.000    0.000   10.182 
#    0.000    0.000    0.000    0.000    0.000    0.000 
#
# Total GULP energy -272748.888192 kJ/mol
# GULP energy per Si atom -12397.676736 kJ/mol
# Density = 2.122520 g / cm^3
# Si number density = 21.273618 Si / 1000 Ang^3
#
#
#
# Elastic Constant Matrix: (Units=GPa)
#
#
# Indices 1 2 3 4 5 6 
#
# 1 87.0777 33.1906 29.2140 0.0000 0.2828 0.0000
# 2 33.1906 110.0680 42.9571 0.0000 -6.3111 0.0000
# 3 29.2140 42.9571 138.5367 0.0000 -17.4794 0.0000
# 4 0.0000 0.0000 0.0000 68.3449 0.0000 21.7710
# 5 0.2828 -6.3111 -17.4794 0.0000 25.0336 0.0000
# 6 0.0000 0.0000 0.0000 21.7710 0.0000 33.2619
#
#
#
# Elastic Compliance Matrix: (Units=1/GPa)
#
#
# Indices 1 2 3 4 5 6 
#
# 1 0.013490 -0.003388 -0.002107 0.000000 -0.002478 0.000000
# 2 -0.003388 0.011191 -0.002626 0.000000 0.001026 0.000000
# 3 -0.002107 -0.002626 0.009208 0.000000 0.005791 0.000000
# 4 0.000000 0.000000 0.000000 0.018486 0.000000 -0.012100
# 5 -0.002478 0.001026 0.005791 0.000000 0.044276 0.000000
# 6 0.000000 0.000000 0.000000 -0.012100 0.000000 0.037984
#
#
# Mechanical properties :
#
#
# Convention : Reuss Voigt Hill
#
# Bulk Modulus (GPa) = 56.66745 60.71176 58.68961
# Shear Modulus (GPa) = 31.89627 40.68280 36.28953
#
# Velocity S-wave (km/s) = 3.87632 4.37780 4.13467
# Velocity P-wave (km/s) = 6.83592 7.35894 7.10224
#
# Compressibility (1/GPa) = 0.01764681
#
# Stress axis : x y z
#
# Youngs Moduli (GPa) = 74.12819 89.36085 108.60676
#
# Poissons Ratio (x) = 0.30273 0.22882
# Poissons Ratio (y) = 0.25112 0.28522
# Poissons Ratio (z) = 0.15618 0.23467
#
# Static dielectric constant tensor:
#      x y z
#    x 4.225450 0.000000 0.616490 
#    y 0.000000 3.977800 0.000000 
#    z 0.616490 0.000000 4.724300 
# 
# 
# High freq. dielectric constant tensor:
#      x y z
#    x 1.827380 0.000000 0.004430 
#    y 0.000000 1.819040 0.000000 
#    z 0.004430 0.000000 1.860540 
# 
# From -- ./inp_files/125088.got.cif
#   From: 2010.06.25/outbox.cif.g09.slc.cpg/sg12_63_cif.got.tgz:125088.got - 2010.06.28 00:19:55.
