data_PCOD8094896
_publ_section_title
;
Structure prediction by ZEFSAII (Michael W. Deem and Ramdas Pophale) SiO2 
 PCOD8094896
Probable space group: C 2/M
;
_chemical_formula_sum "Si O2"
_cell_formula_units_Z 56
_cell_length_a 22.820065
_cell_length_b 9.001468
_cell_length_c 14.931987
_cell_angle_alpha 90.000000
_cell_angle_beta 102.909680
_cell_angle_gamma 90.000000
_cell_volume 2989.711227
_symmetry_space_group_name_H-M "C 2/M"
_symmetry_group_IT_number 12
_symmetry_cell_setting 'monoclinic'
loop_
_space_group_symop_operation_xyz
x,y,z
-x,y,-z
-x,-y,-z
x,-y,z
1/2+x,1/2+y,z
1/2-x,1/2+y,-z
1/2-x,1/2-y,-z
1/2+x,1/2-y,z
loop_
_atom_site_type_symbol
_atom_site_label
_atom_site_fract_x
_atom_site_fract_y
_atom_site_fract_z
Si Si1 0.114360 0.823815 0.854635
Si Si2 0.279574 0.323952 0.233543
Si Si3 0.432192 0.323230 0.974982
Si Si4 0.970536 0.823246 0.328695
Si Si5 0.345316 0.676207 0.789327
Si Si6 0.634105 0.323707 0.583139
Si Si7 0.395161 0.677092 0.619341
O O1 0.177935 0.771950 0.834401
O O2 0.059288 0.767612 0.774112
O O3 0.113550 0.000000 0.854613
O O4 0.104513 0.761234 0.951355
O O5 0.270335 0.500000 0.230741
O O6 0.216529 0.244993 0.198164
O O7 0.309776 0.268950 0.337574
O O8 0.434737 0.500000 0.979443
O O9 0.398248 0.270131 0.873862
O O10 0.500000 0.258953 0.000000
O O11 0.929058 0.766648 0.396746
O O12 0.037356 0.756477 0.359083
O O13 0.974061 0.000000 0.331319
O O14 0.339178 0.500000 0.788923
O O15 0.360382 0.736241 0.694939
O O16 0.633134 0.500000 0.585875
O O17 0.639310 0.267044 0.482239
O O18 0.398025 0.500000 0.623226
#
# Coordination Sequence:
#
# PCOD8094896 Si02
#       7
#     8   8   8   8   8   8   8
#     4   8  14  25  42  62  85 114 144 174 210 254
#     4   9  18  32  46  61  85 118 151 176 203 246
#     4   9  16  27  44  67  92 112 133 171 223 265
#     4   8  12  20  37  62  88 110 136 175 221 259
#     4  10  20  30  43  66  91 113 141 177 213 252
#     4   8  14  24  40  61  84 112 144 176 212 255
#     4   9  15  23  37  61  91 114 135 175 224 256
#
# _framework density 18.730905
#
# number of rings (size 3 to 8) (size 9 to 14) (size 15 to 20)
#    0.000    3.286    0.000    3.000    0.000    6.286 
#    0.000    0.000    0.000    0.429    0.000    8.000 
#    0.000    5.714    0.000    0.000    0.000    0.000 
#
# Total GULP energy -346976.762377 kJ/mol
# GULP energy per Si atom -12392.027228 kJ/mol
# Density = 1.868827 g / cm^3
# Si number density = 18.730905 Si / 1000 Ang^3
#
#
#
# Elastic Constant Matrix: (Units=GPa)
#
#
# Indices 1 2 3 4 5 6 
#
# 1 135.3825 14.6894 75.0244 0.0000 3.1811 0.0000
# 2 14.6894 7.2761 13.4598 0.0000 1.9096 0.0000
# 3 75.0244 13.4598 144.3966 0.0000 -17.5783 0.0000
# 4 0.0000 0.0000 0.0000 5.9738 0.0000 0.8320
# 5 3.1811 1.9096 -17.5783 0.0000 32.5481 0.0000
# 6 0.0000 0.0000 0.0000 0.8320 0.0000 18.1143
#
#
#
# Elastic Compliance Matrix: (Units=1/GPa)
#
#
# Indices 1 2 3 4 5 6 
#
# 1 0.011844 -0.013221 -0.005318 0.000000 -0.003254 0.000000
# 2 -0.013221 0.193093 -0.013221 0.000000 -0.017177 0.000000
# 3 -0.005318 -0.013221 0.011858 0.000000 0.007700 0.000000
# 4 0.000000 0.000000 0.000000 0.168475 0.000000 -0.007738
# 5 -0.003254 -0.017177 0.007700 0.000000 0.036208 0.000000
# 6 0.000000 0.000000 0.000000 -0.007738 0.000000 0.055561
#
#
# Mechanical properties :
#
#
# Convention : Reuss Voigt Hill
#
# Bulk Modulus (GPa) = 6.52417 54.82250 30.67333
# Shear Modulus (GPa) = 8.45095 23.58602 16.01848
#
# Velocity S-wave (km/s) = 2.12640 3.55237 2.92754
# Velocity P-wave (km/s) = 3.08535 6.79396 5.27623
#
# Compressibility (1/GPa) = 0.15327631
#
# Stress axis : x y z
#
# Youngs Moduli (GPa) = 84.42831 5.17885 84.33141
#
# Poissons Ratio (x) = 0.06847 0.44845
# Poissons Ratio (y) = 1.11624 1.11492
# Poissons Ratio (z) = 0.44897 0.06847
#
# Static dielectric constant tensor:
#      x y z
#    x 3.552930 0.000000 -0.136490 
#    y 0.000000 2.592790 0.000000 
#    z -0.136490 0.000000 3.871540 
# 
# 
# High freq. dielectric constant tensor:
#      x y z
#    x 1.732320 0.000000 -0.004220 
#    y 0.000000 1.635880 0.000000 
#    z -0.004220 0.000000 1.741510 
# 
# From -- ./inp_files/223347.got.cif
#   From: 2010.06.25/outbox.cif.g09.slc.cpg/sg12_112_cif.got.tgz:223347.got - 2010.06.28 00:19:55.
