data_PCOD8094166
_publ_section_title
;
Structure prediction by ZEFSAII (Michael W. Deem and Ramdas Pophale) SiO2 
 PCOD8094166
Probable space group: C 2/M
;
_chemical_formula_sum "Si O2"
_cell_formula_units_Z 56
_cell_length_a 14.466024
_cell_length_b 29.230961
_cell_length_c 14.091997
_cell_angle_alpha 90.000000
_cell_angle_beta 150.032029
_cell_angle_gamma 90.000000
_cell_volume 2976.555947
_symmetry_space_group_name_H-M "C 2/M"
_symmetry_group_IT_number 12
_symmetry_cell_setting 'monoclinic'
loop_
_space_group_symop_operation_xyz
x,y,z
-x,y,-z
-x,-y,-z
x,-y,z
1/2+x,1/2+y,z
1/2-x,1/2+y,-z
1/2-x,1/2-y,-z
1/2+x,1/2-y,z
loop_
_atom_site_type_symbol
_atom_site_label
_atom_site_fract_x
_atom_site_fract_y
_atom_site_fract_z
Si Si1 0.407727 0.181101 0.512690
Si Si2 0.858952 0.640041 0.120980
Si Si3 0.422027 0.286020 0.529893
Si Si4 0.567366 0.947173 0.914838
Si Si5 0.497801 0.787425 0.885025
Si Si6 0.009298 0.191132 0.815368
Si Si7 0.703784 0.447432 0.695577
O O1 0.500000 0.160716 0.500000
O O2 0.477898 0.151018 0.661686
O O3 0.476995 0.232969 0.587858
O O4 0.185869 0.178540 0.310212
O O5 0.868377 0.585639 0.112626
O O6 0.883763 0.669542 0.046108
O O7 0.656724 0.653269 0.981503
O O8 0.500000 0.306654 0.500000
O O9 0.502112 0.310652 0.694013
O O10 0.204344 0.292725 0.338335
O O11 0.366108 0.928496 0.771071
O O12 0.556534 0.000000 0.871621
O O13 0.725243 0.941850 0.134686
O O14 0.580553 0.740120 0.917841
O O15 0.500000 0.786777 0.000000
O O16 0.500000 0.423621 0.500000
O O17 0.681997 0.500000 0.648630
#
# Coordination Sequence:
#
# PCOD8094166 Si02
#       7
#     8   8   8   8   8   8   8
#     4  10  22  38  58  79 108 141 189 234 278 328
#     4  12  23  35  57  82 110 149 188 227 279 336
#     4  10  19  37  54  77 115 154 179 226 273 319
#     4   9  20  36  52  80 115 144 186 235 277 327
#     4  11  22  34  53  82 118 151 185 225 271 328
#     4  11  22  38  55  81 112 150 186 230 270 335
#     4   8  15  33  58  77 104 148 186 221 274 334
#
# _framework density 18.813689
#
# number of rings (size 3 to 8) (size 9 to 14) (size 15 to 20)
#    0.000    1.857    2.857    3.000    8.000    1.143 
#    0.000    0.000    0.000    0.429    0.000    1.000 
#    0.000    0.000    0.000    0.000    0.000    0.000 
#
# Total GULP energy -347116.773892 kJ/mol
# GULP energy per Si atom -12397.027639 kJ/mol
# Density = 1.877087 g / cm^3
# Si number density = 18.813689 Si / 1000 Ang^3
#
#
#
# Elastic Constant Matrix: (Units=GPa)
#
#
# Indices 1 2 3 4 5 6 
#
# 1 84.8096 33.2395 14.7710 0.0000 2.5417 0.0000
# 2 33.2395 74.8816 30.7641 0.0000 6.1497 0.0000
# 3 14.7710 30.7641 83.4104 0.0001 12.7270 0.0001
# 4 0.0000 0.0000 0.0001 16.8336 0.0001 -0.8115
# 5 2.5417 6.1497 12.7270 0.0001 31.6462 0.0000
# 6 0.0000 0.0000 0.0001 -0.8115 0.0000 12.0796
#
#
#
# Elastic Compliance Matrix: (Units=1/GPa)
#
#
# Indices 1 2 3 4 5 6 
#
# 1 0.014279 -0.006250 -0.000249 0.000000 0.000168 0.000000
# 2 -0.006250 0.018493 -0.005585 0.000000 -0.000846 0.000000
# 3 -0.000249 -0.005585 0.014835 0.000000 -0.004861 0.000000
# 4 0.000000 0.000000 0.000000 0.059598 0.000000 0.004004
# 5 0.000168 -0.000846 -0.004861 0.000000 0.033705 0.000000
# 6 0.000000 0.000000 0.000000 0.004004 0.000000 0.083053
#
#
# Mechanical properties :
#
#
# Convention : Reuss Voigt Hill
#
# Bulk Modulus (GPa) = 42.66469 44.51676 43.59072
# Shear Modulus (GPa) = 19.53563 23.06701 21.30132
#
# Velocity S-wave (km/s) = 3.22588 3.50534 3.36850
# Velocity P-wave (km/s) = 6.04994 6.33217 6.19266
#
# Compressibility (1/GPa) = 0.02343859
#
# Stress axis : x y z
#
# Youngs Moduli (GPa) = 70.03311 54.07589 67.41041
#
# Poissons Ratio (x) = 0.33796 0.01680
# Poissons Ratio (y) = 0.43769 0.37647
# Poissons Ratio (z) = 0.01745 0.30200
#
# Static dielectric constant tensor:
#      x y z
#    x 3.493490 0.000000 0.182190 
#    y 0.000000 3.081990 0.000000 
#    z 0.182190 0.000000 3.700350 
# 
# 
# High freq. dielectric constant tensor:
#      x y z
#    x 1.718560 0.000000 0.014020 
#    y 0.000000 1.683310 0.000000 
#    z 0.014020 0.000000 1.745150 
# 
# From -- ./inp_files/219149.got.cif
#   From: 2010.06.25/outbox.cif.g09.slc.cpg/sg12_110_cif.got.tgz:219149.got - 2010.06.28 00:19:55.
