data_PCOD8094073
_publ_section_title
;
Structure prediction by ZEFSAII (Michael W. Deem and Ramdas Pophale) SiO2 
 PCOD8094073
Probable space group: C 2/M
;
_chemical_formula_sum "Si O2"
_cell_formula_units_Z 48
_cell_length_a 7.934215
_cell_length_b 27.313753
_cell_length_c 19.079146
_cell_angle_alpha 90.000000
_cell_angle_beta 147.602623
_cell_angle_gamma 90.000000
_cell_volume 2215.324603
_symmetry_space_group_name_H-M "C 2/M"
_symmetry_group_IT_number 12
_symmetry_cell_setting 'monoclinic'
loop_
_space_group_symop_operation_xyz
x,y,z
-x,y,-z
-x,-y,-z
x,-y,z
1/2+x,1/2+y,z
1/2-x,1/2+y,-z
1/2-x,1/2-y,-z
1/2+x,1/2-y,z
loop_
_atom_site_type_symbol
_atom_site_label
_atom_site_fract_x
_atom_site_fract_y
_atom_site_fract_z
Si Si1 0.206246 0.442141 0.138276
Si Si2 0.128285 0.791975 0.870545
Si Si3 0.649660 0.055692 0.848545
Si Si4 0.217093 0.886318 0.244078
Si Si5 0.230338 0.174802 0.526773
Si Si6 0.573012 0.729466 0.699953
O O1 0.207826 0.500000 0.141862
O O2 0.552863 0.422840 0.241644
O O3 0.073498 0.422807 0.166910
O O4 0.000000 0.423465 0.000000
O O5 0.981250 0.794231 0.741117
O O6 0.023000 0.843560 0.868150
O O7 0.945390 0.744643 0.838221
O O8 0.500000 0.783748 0.000000
O O9 0.635542 0.087494 0.772678
O O10 0.550004 0.000000 0.795008
O O11 0.000000 0.056164 0.000000
O O12 0.490461 0.863197 0.388287
O O13 0.360280 0.223627 0.610016
O O14 0.000000 0.148236 0.500000
O O15 0.017183 0.186597 0.384886
#
# Coordination Sequence:
#
# PCOD8094073 Si02
#       6
#     8   8   8   8   8   8
#     4  10  19  36  62  93 135 175 210 257 323 401
#     4  11  23  39  61  94 129 166 205 280 335 377
#     4  10  20  37  64  93 132 180 209 250 325 398
#     4  11  23  36  59  99 134 160 219 273 315 370
#     4  10  21  40  64  88 118 174 227 275 305 370
#     4  10  21  41  64  82 120 170 227 257 322 397
#
# _framework density 21.667252000000001
#
# number of rings (size 3 to 8) (size 9 to 14) (size 15 to 20)
#    0.000    1.667    3.333    1.500    0.000    1.333 
#    0.000    1.667    0.000    2.000    0.000   11.667 
#    0.000    0.000    0.000    0.000    0.000    0.000 
#
# Total GULP energy -297370.566934 kJ/mol
# GULP energy per Si atom -12390.440289 kJ/mol
# Density = 2.161794 g / cm^3
# Si number density = 21.667252 Si / 1000 Ang^3
#
#
#
# Elastic Constant Matrix: (Units=GPa)
#
#
# Indices 1 2 3 4 5 6 
#
# 1 166.2376 46.8474 21.5347 0.0006 0.0067 0.0000
# 2 46.8474 54.4632 26.7955 0.0015 -6.4827 0.0001
# 3 21.5347 26.7955 39.6826 -0.0071 12.1749 0.0000
# 4 0.0006 0.0015 -0.0071 16.4697 -0.0012 11.6621
# 5 0.0067 -6.4827 12.1749 -0.0012 34.7801 -0.0001
# 6 0.0000 0.0001 0.0000 11.6621 -0.0001 31.2436
#
#
#
# Elastic Compliance Matrix: (Units=1/GPa)
#
#
# Indices 1 2 3 4 5 6 
#
# 1 0.008052 -0.007990 0.001662 0.000001 -0.002073 0.000000
# 2 -0.007990 0.041936 -0.029554 -0.000020 0.018164 0.000008
# 3 0.001662 -0.029554 0.051473 0.000031 -0.023527 -0.000012
# 4 0.000001 -0.000020 0.000031 0.082530 -0.000012 -0.030806
# 5 -0.002073 0.018164 -0.023527 -0.000012 0.040374 0.000005
# 6 0.000000 0.000008 -0.000012 -0.030806 0.000005 0.043505
#
#
# Mechanical properties :
#
#
# Convention : Reuss Voigt Hill
#
# Bulk Modulus (GPa) = 33.67462 50.08207 41.87835
# Shear Modulus (GPa) = 14.30476 27.51240 20.90858
#
# Velocity S-wave (km/s) = 2.57223 3.56725 3.10979
# Velocity P-wave (km/s) = 4.93936 6.33493 5.68017
#
# Compressibility (1/GPa) = 0.02969595
#
# Stress axis : x y z
#
# Youngs Moduli (GPa) = 124.19163 23.84570 19.42780
#
# Poissons Ratio (x) = 0.19054 -0.03228
# Poissons Ratio (y) = 0.99233 0.57417
# Poissons Ratio (z) = -0.20636 0.70473
#
# Static dielectric constant tensor:
#      x y z
#    x 4.341340 0.000000 0.148250 
#    y 0.000000 3.803370 0.000000 
#    z 0.148250 0.000000 3.739320 
# 
# 
# High freq. dielectric constant tensor:
#      x y z
#    x 1.872150 0.000000 0.011570 
#    y 0.000000 1.832960 0.000000 
#    z 0.011570 0.000000 1.827640 
# 
# From -- ./inp_files/302795.got.cif
#   From: 2010.06.25/outbox.cif.g09.slc.cpg/sg12_152_cif.got.tgz:302795.got - 2010.06.28 00:19:55.
