data_PCOD8094226
_publ_section_title
;
Structure prediction by ZEFSAII (Michael W. Deem and Ramdas Pophale) SiO2 
 PCOD8094226
Probable space group: C 2/M
;
_chemical_formula_sum "Si O2"
_cell_formula_units_Z 40
_cell_length_a 30.756560
_cell_length_b 16.885588
_cell_length_c 10.091123
_cell_angle_alpha 90.000000
_cell_angle_beta 157.795315
_cell_angle_gamma 90.000000
_cell_volume 1980.565882
_symmetry_space_group_name_H-M "C 2/M"
_symmetry_group_IT_number 12
_symmetry_cell_setting 'monoclinic'
loop_
_space_group_symop_operation_xyz
x,y,z
-x,y,-z
-x,-y,-z
x,-y,z
1/2+x,1/2+y,z
1/2-x,1/2+y,-z
1/2-x,1/2-y,-z
1/2+x,1/2-y,z
loop_
_atom_site_type_symbol
_atom_site_label
_atom_site_fract_x
_atom_site_fract_y
_atom_site_fract_z
Si Si1 0.232008 0.842476 0.970412
Si Si2 0.153758 0.312738 0.198681
Si Si3 0.366917 0.090554 0.110348
Si Si4 0.749659 0.905961 0.691068
Si Si5 0.018973 0.181830 0.704189
O O1 0.096053 0.862055 0.570004
O O2 0.250000 0.750000 0.000000
O O3 0.302406 0.893269 0.064855
O O4 0.275771 0.868092 0.238390
O O5 0.250000 0.250000 0.500000
O O6 0.148758 0.374437 0.307236
O O7 0.188843 0.358170 0.163815
O O8 0.037862 0.261265 0.846733
O O9 0.500000 0.112152 0.500000
O O10 0.350236 0.000000 0.023392
O O11 0.744751 0.000000 0.685574
O O12 0.874557 0.879248 0.987841
O O13 0.000000 0.211244 0.500000
#
# Coordination Sequence:
#
# PCOD8094226 Si02
#       5
#     8   8   8   8   8
#     4  11  21  37  60  84 112 150 195 234 276 336
#     4  10  19  37  59  82 115 150 185 228 280 335
#     4  11  23  39  59  83 114 151 190 234 283 337
#     4  10  21  37  59  88 118 147 184 235 289 334
#     4   9  19  35  60  86 111 148 192 236 277 331
#
# _framework density 20.196249000000002
#
# number of rings (size 3 to 8) (size 9 to 14) (size 15 to 20)
#    0.000    1.800    0.000    6.600    0.000    4.400 
#    0.000   14.000    0.000   13.200    0.000    0.000 
#    0.000    0.000    0.000    0.000    0.000    0.000 
#
# Total GULP energy -247953.557510 kJ/mol
# GULP energy per Si atom -12397.677876 kJ/mol
# Density = 2.015028 g / cm^3
# Si number density = 20.196249 Si / 1000 Ang^3
#
#
#
# Elastic Constant Matrix: (Units=GPa)
#
#
# Indices 1 2 3 4 5 6 
#
# 1 133.8525 46.7624 60.5409 0.0000 -5.9464 0.0000
# 2 46.7624 131.2146 44.9817 0.0000 -20.1759 0.0000
# 3 60.5409 44.9817 88.9045 0.0000 -10.5002 0.0000
# 4 0.0000 0.0000 0.0000 23.9420 0.0000 -5.3930
# 5 -5.9464 -20.1759 -10.5002 0.0000 33.1289 0.0000
# 6 0.0000 0.0000 0.0000 -5.3930 0.0000 33.9265
#
#
#
# Elastic Compliance Matrix: (Units=1/GPa)
#
#
# Indices 1 2 3 4 5 6 
#
# 1 0.011131 -0.001830 -0.006804 0.000000 -0.001273 0.000000
# 2 -0.001830 0.010150 -0.003322 0.000000 0.004800 0.000000
# 3 -0.006804 -0.003322 0.017848 0.000000 0.002412 0.000000
# 4 0.000000 0.000000 0.000000 0.043319 0.000000 0.006886
# 5 -0.001273 0.004800 0.002412 0.000000 0.033644 0.000000
# 6 0.000000 0.000000 0.000000 0.006886 0.000000 0.030570
#
#
# Mechanical properties :
#
#
# Convention : Reuss Voigt Hill
#
# Bulk Modulus (GPa) = 65.72402 73.17129 69.44765
# Shear Modulus (GPa) = 28.46595 31.64524 30.05559
#
# Velocity S-wave (km/s) = 3.75836 3.96269 3.86187
# Velocity P-wave (km/s) = 7.17266 7.56611 7.37201
#
# Compressibility (1/GPa) = 0.01521514
#
# Stress axis : x y z
#
# Youngs Moduli (GPa) = 89.83629 98.51843 56.03013
#
# Poissons Ratio (x) = 0.18030 0.38126
# Poissons Ratio (y) = 0.16441 0.18616
# Poissons Ratio (z) = 0.61129 0.32732
#
# Static dielectric constant tensor:
#      x y z
#    x 5.194410 0.000000 -0.267150 
#    y 0.000000 3.880620 0.000000 
#    z -0.267150 0.000000 4.312590 
# 
# 
# High freq. dielectric constant tensor:
#      x y z
#    x 1.776530 0.000000 -0.014710 
#    y 0.000000 1.797820 0.000000 
#    z -0.014710 0.000000 1.790710 
# 
# From -- ./inp_files/60848.got.cif
#   From: 2010.06.25/outbox.cif.g09.slc.cpg/sg12_31_cif.got.tgz:60848.got - 2010.06.28 00:19:55.
