data_PCOD8094444
_publ_section_title
;
Structure prediction by ZEFSAII (Michael W. Deem and Ramdas Pophale) SiO2 
 PCOD8094444
Probable space group: C 2/M
;
_chemical_formula_sum "Si O2"
_cell_formula_units_Z 48
_cell_length_a 24.309522
_cell_length_b 8.749205
_cell_length_c 11.480965
_cell_angle_alpha 90.000000
_cell_angle_beta 69.622494
_cell_angle_gamma 90.000000
_cell_volume 2289.059321
_symmetry_space_group_name_H-M "C 2/M"
_symmetry_group_IT_number 12
_symmetry_cell_setting 'monoclinic'
loop_
_space_group_symop_operation_xyz
x,y,z
-x,y,-z
-x,-y,-z
x,-y,z
1/2+x,1/2+y,z
1/2-x,1/2+y,-z
1/2-x,1/2-y,-z
1/2+x,1/2-y,z
loop_
_atom_site_type_symbol
_atom_site_label
_atom_site_fract_x
_atom_site_fract_y
_atom_site_fract_z
Si Si1 0.943731 0.321269 0.978867
Si Si2 0.374698 0.176390 0.638636
Si Si3 0.164035 0.318842 0.795574
Si Si4 0.764086 0.321600 0.865018
Si Si5 0.485945 0.823893 0.698887
Si Si6 0.611511 0.322105 0.607044
O O1 0.943585 0.500000 0.006534
O O2 0.946517 0.286073 0.840634
O O3 0.884635 0.253814 0.078251
O O4 0.000000 0.245201 0.000000
O O5 0.331070 0.214673 0.777708
O O6 0.442536 0.208637 0.623331
O O7 0.359811 0.279893 0.538179
O O8 0.367530 0.000000 0.607809
O O9 0.170571 0.500000 0.795982
O O10 0.224753 0.244390 0.789873
O O11 0.146714 0.270413 0.678574
O O12 0.753025 0.500000 0.885430
O O13 0.750000 0.250000 0.000000
O O14 0.542755 0.718631 0.654933
O O15 0.507159 0.000000 0.685172
O O16 0.619104 0.500000 0.626193
#
# Coordination Sequence:
#
# PCOD8094444 Si02
#       6
#     8   8   8   8   8   8
#     4   9  16  31  59  90 117 152 199 245 294 359
#     4  10  23  42  64  87 118 166 214 249 295 367
#     4  11  22  40  66  92 123 164 208 253 303 361
#     4  11  24  44  68  95 125 158 202 252 304 362
#     4  10  19  37  63  89 119 160 208 252 298 365
#     4  12  25  39  58  90 128 161 201 257 317 366
#
# _framework density 20.969313
#
# number of rings (size 3 to 8) (size 9 to 14) (size 15 to 20)
#    0.000    1.500    1.667    4.000    0.000    7.333 
#    0.000    4.167    0.000    0.000    0.000    0.000 
#    0.000    0.000    0.000    0.000    0.000    0.000 
#
# Total GULP energy -297636.302958 kJ/mol
# GULP energy per Si atom -12401.512623 kJ/mol
# Density = 2.092159 g / cm^3
# Si number density = 20.969313 Si / 1000 Ang^3
#
#
#
# Elastic Constant Matrix: (Units=GPa)
#
#
# Indices 1 2 3 4 5 6 
#
# 1 102.5603 35.6788 27.5732 0.0000 2.6063 0.0000
# 2 35.6788 79.5469 33.3213 0.0000 -4.5449 0.0000
# 3 27.5732 33.3213 98.8312 0.0000 7.0103 0.0000
# 4 0.0000 0.0000 0.0000 29.0217 0.0000 3.1037
# 5 2.6063 -4.5449 7.0103 0.0000 29.1155 0.0000
# 6 0.0000 0.0000 0.0000 3.1037 0.0000 31.5543
#
#
#
# Elastic Compliance Matrix: (Units=1/GPa)
#
#
# Indices 1 2 3 4 5 6 
#
# 1 0.011865 -0.004725 -0.001617 0.000000 -0.001410 0.000000
# 2 -0.004725 0.016886 -0.004672 0.000000 0.004184 0.000000
# 3 -0.001617 -0.004672 0.012398 0.000000 -0.003570 0.000000
# 4 0.000000 0.000000 0.000000 0.034823 0.000000 -0.003425
# 5 -0.001410 0.004184 -0.003570 0.000000 0.035985 0.000000
# 6 0.000000 0.000000 0.000000 -0.003425 0.000000 0.032028
#
#
# Mechanical properties :
#
#
# Convention : Reuss Voigt Hill
#
# Bulk Modulus (GPa) = 52.29794 52.67610 52.48702
# Shear Modulus (GPa) = 29.00456 30.22928 29.61692
#
# Velocity S-wave (km/s) = 3.72316 3.80095 3.76226
# Velocity P-wave (km/s) = 6.59371 6.66619 6.63005
#
# Compressibility (1/GPa) = 0.01912121
#
# Stress axis : x y z
#
# Youngs Moduli (GPa) = 84.28413 59.21909 80.65951
#
# Poissons Ratio (x) = 0.27980 0.13044
# Poissons Ratio (y) = 0.39822 0.37683
# Poissons Ratio (z) = 0.13630 0.27667
#
# Static dielectric constant tensor:
#      x y z
#    x 3.906590 0.000000 -0.052220 
#    y 0.000000 3.534020 0.000000 
#    z -0.052220 0.000000 3.892260 
# 
# 
# High freq. dielectric constant tensor:
#      x y z
#    x 1.826740 0.000000 0.003000 
#    y 0.000000 1.794140 0.000000 
#    z 0.003000 0.000000 1.835280 
# 
# From -- ./inp_files/172888.got.cif
#   From: 2010.06.25/outbox.cif.g09.slc.cpg/sg12_87_cif.got.tgz:172888.got - 2010.06.28 00:19:55.
