data_PCOD8094318
_publ_section_title
;
Structure prediction by ZEFSAII (Michael W. Deem and Ramdas Pophale) SiO2 
 PCOD8094318
Probable space group: C 2/M
;
_chemical_formula_sum "Si O2"
_cell_formula_units_Z 56
_cell_length_a 29.672383
_cell_length_b 9.316871
_cell_length_c 10.974627
_cell_angle_alpha 90.000000
_cell_angle_beta 66.719911
_cell_angle_gamma 90.000000
_cell_volume 2786.962024
_symmetry_space_group_name_H-M "C 2/M"
_symmetry_group_IT_number 12
_symmetry_cell_setting 'monoclinic'
loop_
_space_group_symop_operation_xyz
x,y,z
-x,y,-z
-x,-y,-z
x,-y,z
1/2+x,1/2+y,z
1/2-x,1/2+y,-z
1/2-x,1/2-y,-z
1/2+x,1/2-y,z
loop_
_atom_site_type_symbol
_atom_site_label
_atom_site_fract_x
_atom_site_fract_y
_atom_site_fract_z
Si Si1 0.873039 0.167647 0.281584
Si Si2 0.018989 0.829188 0.847768
Si Si3 0.533380 0.669492 0.347363
Si Si4 0.666773 0.664935 0.930784
Si Si5 0.723902 0.160755 0.212772
Si Si6 0.211315 0.168117 0.461034
Si Si7 0.123921 0.336446 0.180285
O O1 0.926702 0.239117 0.225852
O O2 0.839981 0.213579 0.201707
O O3 0.843226 0.209356 0.434481
O O4 0.882412 0.000000 0.265731
O O5 0.988936 0.779206 0.759491
O O6 0.018865 0.000000 0.849667
O O7 0.000000 0.771820 0.000000
O O8 0.500000 0.711806 0.500000
O O9 0.543235 0.500000 0.338210
O O10 0.585157 0.752446 0.307027
O O11 0.651572 0.500000 0.968128
O O12 0.723631 0.690454 0.908020
O O13 0.627527 0.759250 0.046236
O O14 0.714886 0.283909 0.319509
O O15 0.679347 0.172398 0.168214
O O16 0.725774 0.000000 0.269352
O O17 0.250000 0.250000 0.500000
O O18 0.221517 0.000000 0.461793
O O19 0.106293 0.500000 0.184956
#
# Coordination Sequence:
#
# PCOD8094318 Si02
#       7
#     8   8   8   8   8   8   8
#     4   9  18  32  56  86 113 146 186 236 292 339
#     4   9  17  32  57  86 112 142 188 244 297 342
#     4  10  22  39  61  87 114 149 203 255 290 348
#     4  10  19  37  61  84 115 150 192 240 286 347
#     4  10  22  39  57  83 118 155 196 240 288 348
#     4  11  21  35  57  84 119 156 194 239 288 349
#     4  11  24  39  58  84 119 155 192 239 299 358
#
# _framework density 20.093565000000002
#
# number of rings (size 3 to 8) (size 9 to 14) (size 15 to 20)
#    0.000    2.000    1.429    2.143    2.000    4.286 
#    0.000    0.000    0.000    3.857    0.000    0.000 
#    0.000    0.000    0.000    0.000    0.000    0.000 
#
# Total GULP energy -347055.582731 kJ/mol
# GULP energy per Si atom -12394.842240 kJ/mol
# Density = 2.004783 g / cm^3
# Si number density = 20.093565 Si / 1000 Ang^3
#
#
#
# Elastic Constant Matrix: (Units=GPa)
#
#
# Indices 1 2 3 4 5 6 
#
# 1 78.7109 22.9976 24.8908 0.0000 -16.6157 0.0000
# 2 22.9976 71.4175 49.0062 0.0000 -11.8451 0.0000
# 3 24.8908 49.0062 123.0165 0.0000 -13.9390 0.0000
# 4 0.0000 0.0000 0.0000 29.4891 0.0000 -3.4348
# 5 -16.6157 -11.8451 -13.9390 0.0000 35.9917 0.0000
# 6 0.0000 0.0000 0.0000 -3.4348 0.0000 24.0556
#
#
#
# Elastic Compliance Matrix: (Units=1/GPa)
#
#
# Indices 1 2 3 4 5 6 
#
# 1 0.015164 -0.003155 -0.001188 0.000000 0.005502 0.000000
# 2 -0.003155 0.020363 -0.007195 0.000000 0.002458 0.000000
# 3 -0.001188 -0.007195 0.011406 0.000000 0.001501 0.000000
# 4 0.000000 0.000000 0.000000 0.034484 0.000000 0.004924
# 5 0.005502 0.002458 0.001501 0.000000 0.031715 0.000000
# 6 0.000000 0.000000 0.000000 0.004924 0.000000 0.042273
#
#
# Mechanical properties :
#
#
# Convention : Reuss Voigt Hill
#
# Bulk Modulus (GPa) = 41.91793 51.88158 46.89975
# Shear Modulus (GPa) = 26.81921 29.65730 28.23826
#
# Velocity S-wave (km/s) = 3.65734 3.84599 3.75285
# Velocity P-wave (km/s) = 6.22427 6.75265 6.49383
#
# Compressibility (1/GPa) = 0.02385614
#
# Stress axis : x y z
#
# Youngs Moduli (GPa) = 65.94698 49.10804 87.67537
#
# Poissons Ratio (x) = 0.15496 0.10413
# Poissons Ratio (y) = 0.20809 0.63083
# Poissons Ratio (z) = 0.07833 0.35334
#
# Static dielectric constant tensor:
#      x y z
#    x 3.901860 0.000000 -0.093680 
#    y 0.000000 6.095560 0.000000 
#    z -0.093680 0.000000 2.565130 
# 
# 
# High freq. dielectric constant tensor:
#      x y z
#    x 1.789910 0.000000 -0.011680 
#    y 0.000000 1.747890 0.000000 
#    z -0.011680 0.000000 1.791640 
# 
# From -- ./inp_files/180655.got.cif
#   From: 2010.06.25/outbox.cif.g09.slc.cpg/sg12_91_cif.got.tgz:180655.got - 2010.06.28 00:19:55.
