data_PCOD8094829
_publ_section_title
;
Structure prediction by ZEFSAII (Michael W. Deem and Ramdas Pophale) SiO2 
 PCOD8094829
Probable space group: C 2/M
;
_chemical_formula_sum "Si O2"
_cell_formula_units_Z 52
_cell_length_a 23.010575
_cell_length_b 12.887231
_cell_length_c 11.430932
_cell_angle_alpha 90.000000
_cell_angle_beta 48.103129
_cell_angle_gamma 90.000000
_cell_volume 2523.159825
_symmetry_space_group_name_H-M "C 2/M"
_symmetry_group_IT_number 12
_symmetry_cell_setting 'monoclinic'
loop_
_space_group_symop_operation_xyz
x,y,z
-x,y,-z
-x,-y,-z
x,-y,z
1/2+x,1/2+y,z
1/2-x,1/2+y,-z
1/2-x,1/2-y,-z
1/2+x,1/2-y,z
loop_
_atom_site_type_symbol
_atom_site_label
_atom_site_fract_x
_atom_site_fract_y
_atom_site_fract_z
Si Si1 0.382256 0.229683 0.836101
Si Si2 0.500000 0.689068 0.500000
Si Si3 0.405385 0.383948 0.420848
Si Si4 0.737763 0.764932 0.347795
Si Si5 0.011965 0.728976 0.846833
Si Si6 0.742740 0.379543 0.921420
Si Si7 0.163790 0.381677 0.648115
O O1 0.438234 0.235612 0.647862
O O2 0.431714 0.203411 0.886410
O O3 0.318323 0.138856 0.902202
O O4 0.336056 0.339202 0.910436
O O5 0.538471 0.614012 0.542892
O O6 0.379680 0.500000 0.422411
O O7 0.330983 0.317869 0.555719
O O8 0.451363 0.336467 0.248877
O O9 0.747015 0.813027 0.209104
O O10 0.815772 0.700676 0.276450
O O11 0.720731 0.857886 0.461896
O O12 0.072932 0.635784 0.737604
O O13 0.000000 0.740683 0.000000
O O14 0.733376 0.500000 0.905592
O O15 0.176467 0.500000 0.670876
#
# Coordination Sequence:
#
# PCOD8094829 Si02
#       7
#     8   4   8   8   8   8   8
#     4  10  23  42  63  93 130 161 210 262 311 370
#     4  10  19  40  61  88 130 160 201 266 301 378
#     4  10  20  34  60  90 121 165 207 252 313 367
#     4  10  20  39  59  89 129 157 207 265 303 371
#     4  10  22  40  59  86 126 164 207 263 305 369
#     4  11  23  42  66  93 125 166 207 257 320 376
#     4  10  21  37  61  89 121 168 212 252 312 370
#
# _framework density 20.609078
#
# number of rings (size 3 to 8) (size 9 to 14) (size 15 to 20)
#    0.000    1.846    1.538    2.077    0.000    4.308 
#    0.000    9.615    0.000    0.000    0.000    0.000 
#    0.000    0.000    0.000    0.000    0.000    0.000 
#
# Total GULP energy -322392.656488 kJ/mol
# GULP energy per Si atom -12399.717557 kJ/mol
# Density = 2.056217 g / cm^3
# Si number density = 20.609078 Si / 1000 Ang^3
#
#
#
# Elastic Constant Matrix: (Units=GPa)
#
#
# Indices 1 2 3 4 5 6 
#
# 1 126.0167 43.0293 48.2523 0.0000 -6.5204 0.0000
# 2 43.0293 108.5032 27.7190 0.0000 3.2054 0.0000
# 3 48.2523 27.7190 107.0313 0.0000 8.4482 0.0000
# 4 0.0000 0.0000 0.0000 17.3640 0.0000 2.9156
# 5 -6.5204 3.2054 8.4482 0.0000 36.9672 0.0000
# 6 0.0000 0.0000 0.0000 2.9156 0.0000 15.4505
#
#
#
# Elastic Compliance Matrix: (Units=1/GPa)
#
#
# Indices 1 2 3 4 5 6 
#
# 1 0.010876 -0.003309 -0.004298 0.000000 0.003187 0.000000
# 2 -0.003309 0.010879 -0.001227 0.000000 -0.001247 0.000000
# 3 -0.004298 -0.001227 0.011864 0.000000 -0.003363 0.000000
# 4 0.000000 0.000000 0.000000 0.059475 0.000000 -0.011223
# 5 0.003187 -0.001247 -0.003363 0.000000 0.028490 0.000000
# 6 0.000000 0.000000 0.000000 -0.011223 0.000000 0.066840
#
#
# Mechanical properties :
#
#
# Convention : Reuss Voigt Hill
#
# Bulk Modulus (GPa) = 62.69403 64.39473 63.54438
# Shear Modulus (GPa) = 23.65082 28.79306 26.22194
#
# Velocity S-wave (km/s) = 3.39129 3.74184 3.57087
# Velocity P-wave (km/s) = 6.76913 7.06981 6.92110
#
# Compressibility (1/GPa) = 0.01595048
#
# Stress axis : x y z
#
# Youngs Moduli (GPa) = 91.94573 91.91996 84.28999
#
# Poissons Ratio (x) = 0.30420 0.36225
# Poissons Ratio (y) = 0.30428 0.10343
# Poissons Ratio (z) = 0.39515 0.11280
#
# Static dielectric constant tensor:
#      x y z
#    x 4.086760 0.000000 -0.129660 
#    y 0.000000 3.411250 0.000000 
#    z -0.129660 0.000000 3.741770 
# 
# 
# High freq. dielectric constant tensor:
#      x y z
#    x 1.824080 0.000000 -0.006740 
#    y 0.000000 1.780150 0.000000 
#    z -0.006740 0.000000 1.809750 
# 
# From -- ./inp_files/175186.got.cif
#   From: 2010.06.25/outbox.cif.g09.slc.cpg/sg12_88_cif.got.tgz:175186.got - 2010.06.28 00:19:55.
