data_PCOD8094659
_publ_section_title
;
Structure prediction by ZEFSAII (Michael W. Deem and Ramdas Pophale) SiO2 
 PCOD8094659
Probable space group: C 2/M
;
_chemical_formula_sum "Si O2"
_cell_formula_units_Z 36
_cell_length_a 13.120405
_cell_length_b 20.287817
_cell_length_c 13.320501
_cell_angle_alpha 90.000000
_cell_angle_beta 150.004086
_cell_angle_gamma 90.000000
_cell_volume 1772.635634
_symmetry_space_group_name_H-M "C 2/M"
_symmetry_group_IT_number 12
_symmetry_cell_setting 'monoclinic'
loop_
_space_group_symop_operation_xyz
x,y,z
-x,y,-z
-x,-y,-z
x,-y,z
1/2+x,1/2+y,z
1/2-x,1/2+y,-z
1/2-x,1/2-y,-z
1/2+x,1/2-y,z
loop_
_atom_site_type_symbol
_atom_site_label
_atom_site_fract_x
_atom_site_fract_y
_atom_site_fract_z
Si Si1 0.078178 0.077049 0.364099
Si Si2 0.551632 0.837605 0.353427
Si Si3 0.168516 0.745989 0.278098
Si Si4 0.500000 0.344653 0.500000
Si Si5 0.404488 0.367896 0.014266
O O1 0.309606 0.097052 0.536728
O O2 0.004790 0.112332 0.402923
O O3 0.062158 0.000000 0.368490
O O4 0.937734 0.097214 0.149452
O O5 0.653937 0.784707 0.512893
O O6 0.529897 0.801613 0.228378
O O7 0.334487 0.859774 0.210164
O O8 0.294833 0.699152 0.310034
O O9 0.012377 0.796639 0.096559
O O10 0.500000 0.408285 0.000000
#
# Coordination Sequence:
#
# PCOD8094659 Si02
#       5
#     8   8   8   4   8
#     4  10  23  41  59  82 114 155 198 233 274 332
#     4   9  19  36  57  83 116 152 187 234 284 336
#     4   9  18  33  56  87 118 145 182 231 293 349
#     4  10  19  38  64  86 115 148 182 238 294 338
#     4  11  22  35  57  85 115 150 188 234 285 337
#
# _framework density 20.308741999999999
#
# number of rings (size 3 to 8) (size 9 to 14) (size 15 to 20)
#    0.000    2.222    0.000    3.667    0.000    5.778 
#    0.000    4.444    0.000    6.667    0.000    0.000 
#    0.000    0.000    0.000    0.000    0.000    0.000 
#
# Total GULP energy -223080.384901 kJ/mol
# GULP energy per Si atom -12393.354717 kJ/mol
# Density = 2.026252 g / cm^3
# Si number density = 20.308742 Si / 1000 Ang^3
#
#
#
# Elastic Constant Matrix: (Units=GPa)
#
#
# Indices 1 2 3 4 5 6 
#
# 1 133.5178 34.2148 38.4539 0.0000 11.7572 0.0000
# 2 34.2148 101.8134 11.2310 0.0000 6.5373 0.0000
# 3 38.4539 11.2310 69.2374 0.0000 16.4121 0.0000
# 4 0.0000 0.0000 0.0000 5.1576 0.0000 4.5134
# 5 11.7572 6.5373 16.4121 0.0000 40.5080 0.0000
# 6 0.0000 0.0000 0.0000 4.5134 0.0000 19.1554
#
#
#
# Elastic Compliance Matrix: (Units=1/GPa)
#
#
# Indices 1 2 3 4 5 6 
#
# 1 0.009591 -0.002668 -0.004797 0.000000 -0.000410 0.000000
# 2 -0.002668 0.010784 -0.000043 0.000000 -0.000949 0.000000
# 3 -0.004797 -0.000043 0.018565 0.000000 -0.006123 0.000000
# 4 0.000000 0.000000 0.000000 0.244255 0.000000 -0.057552
# 5 -0.000410 -0.000949 -0.006123 0.000000 0.027439 0.000000
# 6 0.000000 0.000000 0.000000 -0.057552 0.000000 0.065765
#
#
# Mechanical properties :
#
#
# Convention : Reuss Voigt Hill
#
# Bulk Modulus (GPa) = 41.79592 52.48534 47.14063
# Shear Modulus (GPa) = 12.51913 27.67547 20.09730
#
# Velocity S-wave (km/s) = 2.48552 3.69553 3.14919
# Velocity P-wave (km/s) = 5.37234 6.64147 6.04033
#
# Compressibility (1/GPa) = 0.02392578
#
# Stress axis : x y z
#
# Youngs Moduli (GPa) = 104.26636 92.73011 53.86341
#
# Poissons Ratio (x) = 0.24737 0.25837
# Poissons Ratio (y) = 0.27814 0.00231
# Poissons Ratio (z) = 0.50015 0.00397
#
# Static dielectric constant tensor:
#      x y z
#    x 3.927720 0.000000 -0.006110 
#    y 0.000000 3.558650 0.000000 
#    z -0.006110 0.000000 3.489350 
# 
# 
# High freq. dielectric constant tensor:
#      x y z
#    x 1.814540 0.000000 -0.000920 
#    y 0.000000 1.771210 0.000000 
#    z -0.000920 0.000000 1.784310 
# 
# From -- ./inp_files/216564.got.cif
#   From: 2010.06.25/outbox.cif.g09.slc.cpg/sg12_109_cif.got.tgz:216564.got - 2010.06.28 00:19:55.
