data_PCOD8094583
_publ_section_title
;
Structure prediction by ZEFSAII (Michael W. Deem and Ramdas Pophale) SiO2 
 PCOD8094583
Probable space group: C 2/M
;
_chemical_formula_sum "Si O2"
_cell_formula_units_Z 48
_cell_length_a 18.083997
_cell_length_b 14.025831
_cell_length_c 11.042811
_cell_angle_alpha 90.000000
_cell_angle_beta 67.076939
_cell_angle_gamma 90.000000
_cell_volume 2579.739398
_symmetry_space_group_name_H-M "C 2/M"
_symmetry_group_IT_number 12
_symmetry_cell_setting 'monoclinic'
loop_
_space_group_symop_operation_xyz
x,y,z
-x,y,-z
-x,-y,-z
x,-y,z
1/2+x,1/2+y,z
1/2-x,1/2+y,-z
1/2-x,1/2-y,-z
1/2+x,1/2-y,z
loop_
_atom_site_type_symbol
_atom_site_label
_atom_site_fract_x
_atom_site_fract_y
_atom_site_fract_z
Si Si1 0.604180 0.500000 0.251523
Si Si2 0.427764 0.699691 0.631354
Si Si3 0.305853 0.679318 0.119509
Si Si4 0.914930 0.500000 0.991616
Si Si5 0.406722 0.500000 0.027403
Si Si6 0.363481 0.821101 0.879653
Si Si7 0.773311 0.500000 0.273568
Si Si8 0.744038 0.701844 0.374759
O O1 0.557211 0.593057 0.327989
O O2 0.695885 0.500000 0.236551
O O3 0.607340 0.500000 0.105964
O O4 0.500000 0.731557 0.500000
O O5 0.423034 0.774599 0.743790
O O6 0.347789 0.703044 0.604449
O O7 0.363908 0.591628 0.113343
O O8 0.218859 0.642936 0.130109
O O9 0.298847 0.741324 0.245064
O O10 0.345805 0.741359 0.989790
O O11 0.909102 0.408545 0.909915
O O12 0.848166 0.500000 0.136925
O O13 0.000000 0.500000 0.000000
O O14 0.500000 0.500000 0.000000
O O15 0.775085 0.592668 0.358695
O O16 0.750000 0.750000 0.500000
#
# Coordination Sequence:
#
# PCOD8094583 Si02
#       8
#     4   8   8   4   4   8   4   8
#     4  10  19  38  61  85 116 160 205 226 290 382
#     4  10  21  37  61  88 118 156 193 246 297 353
#     4  10  20  39  63  84 116 158 200 236 294 360
#     4  12  24  36  58  90 118 153 202 255 296 333
#     4  12  24  34  56  98 130 149 180 261 320 343
#     4  10  20  39  64  84 110 158 208 242 279 352
#     4  10  20  40  62  81 114 162 214 238 280 370
#     4  10  22  38  61  88 117 159 198 247 298 351
#
# _framework density 18.606531
#
# number of rings (size 3 to 8) (size 9 to 14) (size 15 to 20)
#    0.000    1.667    3.333    1.750    0.000    4.000 
#    0.000    1.250    0.000    0.000    0.000    0.000 
#    0.000    0.000    0.000    0.000    0.000    0.000 
#
# Total GULP energy -297686.003687 kJ/mol
# GULP energy per Si atom -12403.583487 kJ/mol
# Density = 1.856418 g / cm^3
# Si number density = 18.606531 Si / 1000 Ang^3
#
#
#
# Elastic Constant Matrix: (Units=GPa)
#
#
# Indices 1 2 3 4 5 6 
#
# 1 70.3882 68.7818 45.1142 0.0000 -6.0955 0.0000
# 2 68.7818 153.5098 71.8724 0.0000 -2.4799 0.0000
# 3 45.1142 71.8724 152.7086 0.0000 -10.6685 0.0000
# 4 0.0000 0.0000 0.0000 23.8652 0.0000 -3.3175
# 5 -6.0955 -2.4799 -10.6685 0.0000 32.9728 0.0000
# 6 0.0000 0.0000 0.0000 -3.3175 0.0000 9.9220
#
#
#
# Elastic Compliance Matrix: (Units=1/GPa)
#
#
# Indices 1 2 3 4 5 6 
#
# 1 0.026537 -0.010612 -0.002617 0.000000 0.003261 0.000000
# 2 -0.010612 0.012613 -0.002939 0.000000 -0.001964 0.000000
# 3 -0.002617 -0.002939 0.008856 0.000000 0.002160 0.000000
# 4 0.000000 0.000000 0.000000 0.043945 0.000000 0.014693
# 5 0.003261 -0.001964 0.002160 0.000000 0.031482 0.000000
# 6 0.000000 0.000000 0.000000 0.014693 0.000000 0.105699
#
#
# Mechanical properties :
#
#
# Convention : Reuss Voigt Hill
#
# Bulk Modulus (GPa) = 63.81724 83.12704 73.47214
# Shear Modulus (GPa) = 18.74837 26.07453 22.41145
#
# Velocity S-wave (km/s) = 3.17775 3.74754 3.47435
# Velocity P-wave (km/s) = 6.91642 7.96861 7.46108
#
# Compressibility (1/GPa) = 0.01566975
#
# Stress axis : x y z
#
# Youngs Moduli (GPa) = 37.68390 79.28262 112.92299
#
# Poissons Ratio (x) = 0.84134 0.29555
# Poissons Ratio (y) = 0.39990 0.33183
# Poissons Ratio (z) = 0.09863 0.23297
#
# Static dielectric constant tensor:
#      x y z
#    x 3.280770 0.000000 -0.006810 
#    y 0.000000 3.652970 0.000000 
#    z -0.006810 0.000000 3.426130 
# 
# 
# High freq. dielectric constant tensor:
#      x y z
#    x 1.706810 0.000000 -0.003260 
#    y 0.000000 1.733540 0.000000 
#    z -0.003260 0.000000 1.725350 
# 
# From -- ./inp_files/164748.got.cif
#   From: 2010.06.25/outbox.cif.g09.slc.cpg/sg12_83_cif.got.tgz:164748.got - 2010.06.28 00:19:55.
