data_PCOD8094611
_publ_section_title
;
Structure prediction by ZEFSAII (Michael W. Deem and Ramdas Pophale) SiO2 
 PCOD8094611
Probable space group: C 2/M
;
_chemical_formula_sum "Si O2"
_cell_formula_units_Z 56
_cell_length_a 25.282020
_cell_length_b 17.946407
_cell_length_c 9.203870
_cell_angle_alpha 90.000000
_cell_angle_beta 140.214706
_cell_angle_gamma 90.000000
_cell_volume 2672.270038
_symmetry_space_group_name_H-M "C 2/M"
_symmetry_group_IT_number 12
_symmetry_cell_setting 'monoclinic'
loop_
_space_group_symop_operation_xyz
x,y,z
-x,y,-z
-x,-y,-z
x,-y,z
1/2+x,1/2+y,z
1/2-x,1/2+y,-z
1/2-x,1/2-y,-z
1/2+x,1/2-y,z
loop_
_atom_site_type_symbol
_atom_site_label
_atom_site_fract_x
_atom_site_fract_y
_atom_site_fract_z
Si Si1 0.195744 0.654288 0.467226
Si Si2 0.679904 0.718941 0.056006
Si Si3 0.250329 0.142382 0.950848
Si Si4 0.415245 0.289199 0.737085
Si Si5 0.003126 0.722087 0.669468
Si Si6 0.794392 0.916922 0.434806
Si Si7 0.895392 0.412926 0.460659
O O1 0.281984 0.680880 0.721019
O O2 0.142182 0.726361 0.311409
O O3 0.214704 0.612599 0.356300
O O4 0.147033 0.598882 0.472281
O O5 0.679996 0.657123 0.925495
O O6 0.740339 0.783666 0.127621
O O7 0.592535 0.753993 0.918308
O O8 0.336293 0.118109 0.207814
O O9 0.222183 0.081200 0.774024
O O10 0.431669 0.264654 0.605649
O O11 0.374054 0.369469 0.646259
O O12 0.500000 0.295084 0.000000
O O13 0.000000 0.751121 0.500000
O O14 0.982100 0.633203 0.635790
O O15 0.814056 0.000000 0.527412
O O16 0.914732 0.500000 0.478976
#
# Coordination Sequence:
#
# PCOD8094611 Si02
#       7
#     8   8   8   8   8   8   8
#     4  10  22  40  65  82 114 159 203 240 278 349
#     4  10  19  38  62  87 113 148 206 239 281 336
#     4  10  20  36  61  88 114 151 196 250 277 335
#     4  11  24  39  61  86 116 154 196 248 288 340
#     4  11  21  35  59  88 116 154 193 240 283 346
#     4  12  24  39  61  90 120 153 196 245 297 344
#     4  10  21  38  57  88 127 158 185 231 298 353
#
# _framework density 20.955966
#
# number of rings (size 3 to 8) (size 9 to 14) (size 15 to 20)
#    0.000    1.429    2.857    3.000    2.000    0.571 
#    0.000    0.000    0.000    6.857    0.000    0.000 
#    0.000    0.000    0.000    0.000    0.000    0.000 
#
# Total GULP energy -347165.854120 kJ/mol
# GULP energy per Si atom -12398.780504 kJ/mol
# Density = 2.090827 g / cm^3
# Si number density = 20.955966 Si / 1000 Ang^3
#
#
#
# Elastic Constant Matrix: (Units=GPa)
#
#
# Indices 1 2 3 4 5 6 
#
# 1 97.4533 63.0007 39.4301 0.0000 -4.5281 0.0000
# 2 63.0007 106.1771 35.1974 0.0000 22.1344 0.0000
# 3 39.4301 35.1974 83.5100 0.0000 7.2043 0.0000
# 4 0.0000 0.0000 0.0000 19.8567 0.0000 -0.5382
# 5 -4.5281 22.1344 7.2043 0.0000 25.8410 0.0000
# 6 0.0000 0.0000 0.0000 -0.5382 0.0000 22.6904
#
#
#
# Elastic Compliance Matrix: (Units=1/GPa)
#
#
# Indices 1 2 3 4 5 6 
#
# 1 0.024603 -0.016765 -0.006313 0.000000 0.020431 0.000000
# 2 -0.016765 0.024431 -0.000331 0.000000 -0.023772 0.000000
# 3 -0.006313 -0.000331 0.015540 0.000000 -0.005155 0.000000
# 4 0.000000 0.000000 0.000000 0.050393 0.000000 0.001195
# 5 0.020431 -0.023772 -0.005155 0.000000 0.064078 0.000000
# 6 0.000000 0.000000 0.000000 0.001195 0.000000 0.044100
#
#
# Mechanical properties :
#
#
# Convention : Reuss Voigt Hill
#
# Bulk Modulus (GPa) = 56.31776 62.48853 59.40314
# Shear Modulus (GPa) = 18.12384 23.64507 20.88446
#
# Velocity S-wave (km/s) = 2.94403 3.36269 3.16030
# Velocity P-wave (km/s) = 6.20396 6.70527 6.45948
#
# Compressibility (1/GPa) = 0.01775639
#
# Stress axis : x y z
#
# Youngs Moduli (GPa) = 40.64578 40.93188 64.35190
#
# Poissons Ratio (x) = 0.68621 0.40626
# Poissons Ratio (y) = 0.68141 0.02128
# Poissons Ratio (z) = 0.25660 0.01353
#
# Static dielectric constant tensor:
#      x y z
#    x 4.072270 0.000000 -0.174150 
#    y 0.000000 3.603370 0.000000 
#    z -0.174150 0.000000 3.659790 
# 
# 
# High freq. dielectric constant tensor:
#      x y z
#    x 1.837220 0.000000 -0.018830 
#    y 0.000000 1.796230 0.000000 
#    z -0.018830 0.000000 1.814720 
# 
# From -- ./inp_files/106053.got.cif
#   From: 2010.06.25/outbox.cif.g09.slc.cpg/sg12_54_cif.got.tgz:106053.got - 2010.06.28 00:19:55.
