data_PCOD8094578
_publ_section_title
;
Structure prediction by ZEFSAII (Michael W. Deem and Ramdas Pophale) SiO2 
 PCOD8094578
Probable space group: C 2/M
;
_chemical_formula_sum "Si O2"
_cell_formula_units_Z 64
_cell_length_a 19.828231
_cell_length_b 28.555609
_cell_length_c 12.612615
_cell_angle_alpha 90.000000
_cell_angle_beta 26.348880
_cell_angle_gamma 90.000000
_cell_volume 3169.588641
_symmetry_space_group_name_H-M "C 2/M"
_symmetry_group_IT_number 12
_symmetry_cell_setting 'monoclinic'
loop_
_space_group_symop_operation_xyz
x,y,z
-x,y,-z
-x,-y,-z
x,-y,z
1/2+x,1/2+y,z
1/2-x,1/2+y,-z
1/2-x,1/2-y,-z
1/2+x,1/2-y,z
loop_
_atom_site_type_symbol
_atom_site_label
_atom_site_fract_x
_atom_site_fract_y
_atom_site_fract_z
Si Si1 0.281614 0.697543 0.488319
Si Si2 0.082890 0.705906 0.284216
Si Si3 0.525316 0.554016 0.139366
Si Si4 0.420342 0.697182 0.819799
Si Si5 0.640859 0.860754 0.863218
Si Si6 0.742738 0.554159 0.641763
Si Si7 0.036878 0.108123 0.563864
Si Si8 0.068193 0.359741 0.652053
O O1 0.250000 0.750000 0.500000
O O2 0.463497 0.689616 0.245200
O O3 0.194142 0.685624 0.722579
O O4 0.222343 0.663402 0.480149
O O5 0.083431 0.747636 0.199162
O O6 0.000000 0.728903 0.500000
O O7 0.978617 0.662921 0.392698
O O8 0.245888 0.684943 0.089632
O O9 0.537277 0.500000 0.153190
O O10 0.365966 0.564144 0.305501
O O11 0.542931 0.582132 0.224842
O O12 0.659836 0.567646 0.868724
O O13 0.478477 0.662165 0.645050
O O14 0.781794 0.896006 0.674543
O O15 0.500000 0.885642 0.000000
O O16 0.578165 0.848510 0.067813
O O17 0.792422 0.500000 0.573263
O O18 0.894926 0.585390 0.415598
O O19 0.000000 0.086089 0.500000
#
# Coordination Sequence:
#
# PCOD8094578 Si02
#       8
#     8   8   8   8   8   8   8   8
#     4  10  19  38  60  90 117 158 205 257 300 351
#     4  11  24  39  55  82 120 165 201 245 297 373
#     4   9  19  37  62  93 124 158 205 264 321 377
#     4  10  22  40  58  79 123 162 210 239 303 364
#     4   9  20  36  59  83 121 157 197 250 309 357
#     4   9  19  38  65  91 122 161 208 265 321 380
#     4  11  21  36  62  89 122 166 205 251 309 377
#     4  11  21  39  61  92 122 158 202 262 312 362
#
# _framework density 20.191894000000001
#
# number of rings (size 3 to 8) (size 9 to 14) (size 15 to 20)
#    0.000    2.000    1.250    4.125    1.750    3.250 
#    2.250    0.625    0.000    7.875    0.000    0.000 
#    0.000    0.000    0.000    0.000    0.000    0.000 
#
# Total GULP energy -396569.522766 kJ/mol
# GULP energy per Si atom -12392.797586 kJ/mol
# Density = 2.014594 g / cm^3
# Si number density = 20.191894 Si / 1000 Ang^3
#
#
#
# Elastic Constant Matrix: (Units=GPa)
#
#
# Indices 1 2 3 4 5 6 
#
# 1 113.0113 42.1803 60.7572 -0.0629 -3.6109 0.0407
# 2 42.1803 94.8434 40.1919 -0.0211 -2.0610 -0.0027
# 3 60.7572 40.1919 101.4360 -0.1254 -16.8430 0.0628
# 4 -0.0629 -0.0211 -0.1254 26.8594 0.0817 0.2213
# 5 -3.6109 -2.0610 -16.8430 0.0817 35.9203 -0.0631
# 6 0.0407 -0.0027 0.0628 0.2213 -0.0631 19.9528
#
#
#
# Elastic Compliance Matrix: (Units=1/GPa)
#
#
# Indices 1 2 3 4 5 6 
#
# 1 0.013972 -0.003071 -0.007535 0.000002 -0.002305 -0.000013
# 2 -0.003071 0.013450 -0.003701 -0.000010 -0.001272 0.000016
# 3 -0.007535 -0.003701 0.017001 0.000038 0.007002 -0.000017
# 4 0.000002 -0.000010 0.000038 0.037235 -0.000068 -0.000413
# 5 -0.002305 -0.001272 0.007002 -0.000068 0.030818 0.000081
# 6 -0.000013 0.000016 -0.000017 -0.000413 0.000081 0.050123
#
#
# Mechanical properties :
#
#
# Convention : Reuss Voigt Hill
#
# Bulk Modulus (GPa) = 63.25455 66.17218 64.71336
# Shear Modulus (GPa) = 25.44751 27.62393 26.53572
#
# Velocity S-wave (km/s) = 3.55390 3.70276 3.62909
# Velocity P-wave (km/s) = 6.94514 7.15006 7.04834
#
# Compressibility (1/GPa) = 0.01580914
#
# Stress axis : x y z
#
# Youngs Moduli (GPa) = 71.57131 74.34769 58.82091
#
# Poissons Ratio (x) = 0.22832 0.44320
# Poissons Ratio (y) = 0.21979 0.21771
# Poissons Ratio (z) = 0.53927 0.27518
#
# Static dielectric constant tensor:
#      x y z
#    x 3.704290 -0.000100 -0.114910 
#    y -0.000100 3.425570 0.000120 
#    z -0.114910 0.000120 3.688990 
# 
# 
# High freq. dielectric constant tensor:
#      x y z
#    x 1.786650 -0.000010 -0.005910 
#    y -0.000010 1.766370 0.000010 
#    z -0.005910 0.000010 1.782970 
# 
# From -- ./inp_files/161200.got.cif
#   From: 2010.06.25/outbox.cif.g09.slc.cpg/sg12_81_cif.got.tgz:161200.got - 2010.06.28 00:19:55.
