data_PCOD8094363
_publ_section_title
;
Structure prediction by ZEFSAII (Michael W. Deem and Ramdas Pophale) SiO2 
 PCOD8094363
Probable space group: C 2/M
;
_chemical_formula_sum "Si O2"
_cell_formula_units_Z 48
_cell_length_a 24.755445
_cell_length_b 8.694874
_cell_length_c 12.561929
_cell_angle_alpha 90.000000
_cell_angle_beta 109.395169
_cell_angle_gamma 90.000000
_cell_volume 2550.453931
_symmetry_space_group_name_H-M "C 2/M"
_symmetry_group_IT_number 12
_symmetry_cell_setting 'monoclinic'
loop_
_space_group_symop_operation_xyz
x,y,z
-x,y,-z
-x,-y,-z
x,-y,z
1/2+x,1/2+y,z
1/2-x,1/2+y,-z
1/2-x,1/2-y,-z
1/2+x,1/2-y,z
loop_
_atom_site_type_symbol
_atom_site_label
_atom_site_fract_x
_atom_site_fract_y
_atom_site_fract_z
Si Si1 0.690781 0.680012 0.637404
Si Si2 0.809097 0.678466 0.999912
Si Si3 0.809631 0.818870 0.777654
Si Si4 0.372724 0.317649 0.611646
Si Si5 0.389406 0.821233 0.247131
Si Si6 0.496159 0.681041 0.621810
O O1 0.705749 0.500000 0.651310
O O2 0.744370 0.778468 0.709972
O O3 0.672485 0.735478 0.507797
O O4 0.638096 0.714202 0.680735
O O5 0.797415 0.500000 0.978483
O O6 0.859513 0.714381 0.115363
O O7 0.750000 0.750000 0.000000
O O8 0.829720 0.745567 0.901078
O O9 0.850808 0.755132 0.710981
O O10 0.814785 0.000000 0.791417
O O11 0.375105 0.500000 0.611360
O O12 0.436015 0.254877 0.627867
O O13 0.455578 0.773202 0.281647
O O14 0.382869 0.000000 0.273374
O O15 0.500000 0.720948 0.500000
O O16 0.503595 0.500000 0.646540
#
# Coordination Sequence:
#
# PCOD8094363 Si02
#       6
#     8   8   8   8   8   8
#     4  11  20  35  59  85 117 153 189 230 287 347
#     4  11  23  39  59  82 114 151 193 237 287 339
#     4  11  22  37  57  85 120 151 190 238 286 341
#     4   9  20  37  57  85 118 153 190 234 283 341
#     4  11  23  37  56  87 117 144 187 243 290 332
#     4  10  19  37  62  84 112 152 193 231 278 341
#
# _framework density 18.820179
#
# number of rings (size 3 to 8) (size 9 to 14) (size 15 to 20)
#    0.000    1.500    3.333    2.500    0.000    2.333 
#    0.000    5.000    0.000    5.000    0.000    0.000 
#    0.000    0.000    0.000    0.000    0.000    0.000 
#
# Total GULP energy -297686.655447 kJ/mol
# GULP energy per Si atom -12403.610644 kJ/mol
# Density = 1.877734 g / cm^3
# Si number density = 18.820179 Si / 1000 Ang^3
#
#
#
# Elastic Constant Matrix: (Units=GPa)
#
#
# Indices 1 2 3 4 5 6 
#
# 1 75.9356 12.4186 45.5782 0.0000 0.0546 0.0000
# 2 12.4186 57.8320 44.4965 0.0000 1.4419 0.0000
# 3 45.5782 44.4965 138.7810 0.0000 -6.4175 0.0000
# 4 0.0000 0.0000 0.0000 31.3592 0.0000 3.2966
# 5 0.0546 1.4419 -6.4175 0.0000 37.7815 0.0000
# 6 0.0000 0.0000 0.0000 3.2966 0.0000 24.3441
#
#
#
# Elastic Compliance Matrix: (Units=1/GPa)
#
#
# Indices 1 2 3 4 5 6 
#
# 1 0.016472 0.000913 -0.005750 0.000000 -0.001035 0.000000
# 2 0.000913 0.023178 -0.007834 0.000000 -0.002217 0.000000
# 3 -0.005750 -0.007834 0.011712 0.000000 0.002297 0.000000
# 4 0.000000 0.000000 0.000000 0.032349 0.000000 -0.004381
# 5 -0.001035 -0.002217 0.002297 0.000000 0.026944 0.000000
# 6 0.000000 0.000000 0.000000 -0.004381 0.000000 0.041671
#
#
# Mechanical properties :
#
#
# Convention : Reuss Voigt Hill
#
# Bulk Modulus (GPa) = 38.43215 53.05947 45.74581
# Shear Modulus (GPa) = 26.83246 30.03398 28.43322
#
# Velocity S-wave (km/s) = 3.77998 3.99913 3.89110
# Velocity P-wave (km/s) = 6.28618 7.04117 6.67436
#
# Compressibility (1/GPa) = 0.02601988
#
# Stress axis : x y z
#
# Youngs Moduli (GPa) = 60.70936 43.14422 85.38259
#
# Poissons Ratio (x) = -0.03939 0.49097
# Poissons Ratio (y) = -0.05543 0.66887
# Poissons Ratio (z) = 0.34910 0.33798
#
# Static dielectric constant tensor:
#      x y z
#    x 3.574320 0.000000 -0.097590 
#    y 0.000000 3.334640 0.000000 
#    z -0.097590 0.000000 3.649370 
# 
# 
# High freq. dielectric constant tensor:
#      x y z
#    x 1.728710 0.000000 0.001880 
#    y 0.000000 1.723880 0.000000 
#    z 0.001880 0.000000 1.736160 
# 
# From -- ./inp_files/172124.got.cif
#   From: 2010.06.25/outbox.cif.g09.slc.cpg/sg12_87_cif.got.tgz:172124.got - 2010.06.28 00:19:55.
