data_PCOD8094155
_publ_section_title
;
Structure prediction by ZEFSAII (Michael W. Deem and Ramdas Pophale) SiO2 
 PCOD8094155
Probable space group: C 2/M
;
_chemical_formula_sum "Si O2"
_cell_formula_units_Z 48
_cell_length_a 26.680362
_cell_length_b 10.149548
_cell_length_c 17.930298
_cell_angle_alpha 90.000000
_cell_angle_beta 32.712447
_cell_angle_gamma 90.000000
_cell_volume 2623.975927
_symmetry_space_group_name_H-M "C 2/M"
_symmetry_group_IT_number 12
_symmetry_cell_setting 'monoclinic'
loop_
_space_group_symop_operation_xyz
x,y,z
-x,y,-z
-x,-y,-z
x,-y,z
1/2+x,1/2+y,z
1/2-x,1/2+y,-z
1/2-x,1/2-y,-z
1/2+x,1/2-y,z
loop_
_atom_site_type_symbol
_atom_site_label
_atom_site_fract_x
_atom_site_fract_y
_atom_site_fract_z
Si Si1 0.393335 0.000000 0.606539
Si Si2 0.731882 0.154127 0.591240
Si Si3 0.607877 0.500000 0.373434
Si Si4 0.846018 0.252116 0.037508
Si Si5 0.260493 0.000000 0.067808
Si Si6 0.307848 0.255913 0.650828
Si Si7 0.764825 0.000000 0.074050
Si Si8 0.982153 0.650888 0.104535
O O1 0.500000 0.000000 0.500000
O O2 0.369995 0.874620 0.583924
O O3 0.329780 0.000000 0.759938
O O4 0.750000 0.250000 0.500000
O O5 0.791282 0.212600 0.585065
O O6 0.624018 0.165192 0.742668
O O7 0.758496 0.000000 0.542673
O O8 0.500000 0.500000 0.500000
O O9 0.656275 0.500000 0.231530
O O10 0.634719 0.372902 0.385880
O O11 0.955380 0.263858 0.917116
O O12 0.814600 0.373409 0.027507
O O13 0.791182 0.243670 0.184427
O O14 0.829270 0.123908 0.009708
O O15 0.262290 0.000000 0.977419
O O16 0.016609 0.500000 0.065654
O O17 0.000000 0.706973 0.000000
#
# Coordination Sequence:
#
# PCOD8094155 Si02
#       8
#     4   8   4   8   4   8   4   8
#     4  10  22  40  60  82 118 162 202 234 291 366
#     4  11  24  42  61  89 125 157 195 246 305 352
#     4  10  20  36  60  84 106 148 204 242 289 350
#     4  10  19  37  60  88 113 152 197 239 297 347
#     4  10  20  36  60  79 114 150 192 247 291 342
#     4  10  20  38  62  83 116 157 195 246 293 351
#     4  10  22  38  54  85 126 148 182 253 307 338
#     4  10  19  36  67  90 110 149 206 242 274 359
#
# _framework density 18.292850999999999
#
# number of rings (size 3 to 8) (size 9 to 14) (size 15 to 20)
#    0.000    1.833    3.333    1.000    1.167    0.000 
#    7.500    0.417    0.000    0.000    0.000    0.000 
#    0.000    0.000    0.000    0.000    0.000    0.000 
#
# Total GULP energy -297598.868095 kJ/mol
# GULP energy per Si atom -12399.952837 kJ/mol
# Density = 1.825122 g / cm^3
# Si number density = 18.292851 Si / 1000 Ang^3
#
#
#
# Elastic Constant Matrix: (Units=GPa)
#
#
# Indices 1 2 3 4 5 6 
#
# 1 124.9592 64.1497 57.1645 0.0001 2.4178 -0.0007
# 2 64.1497 149.7662 39.3231 -0.0012 2.5761 -0.0105
# 3 57.1645 39.3231 66.7154 -0.0006 2.0197 -0.0038
# 4 0.0001 -0.0012 -0.0006 25.8557 0.0005 -32.2563
# 5 2.4178 2.5761 2.0197 0.0005 40.6403 0.0026
# 6 -0.0007 -0.0105 -0.0038 -32.2563 0.0026 -295.1306
#
#
#
# Elastic Compliance Matrix: (Units=1/GPa)
#
#
# Indices 1 2 3 4 5 6 
#
# 1 0.014567 -0.003503 -0.010413 0.000000 -0.000127 0.000000
# 2 -0.003503 0.008745 -0.002145 0.000000 -0.000239 0.000000
# 3 -0.010413 -0.002145 0.025191 0.000000 -0.000496 0.000000
# 4 0.000000 0.000000 0.000000 0.034035 0.000000 -0.003720
# 5 -0.000127 -0.000239 -0.000496 0.000000 0.024654 0.000000
# 6 0.000000 0.000000 0.000000 -0.003720 0.000000 -0.002982
#
#
# Mechanical properties :
#
#
# Convention : Reuss Voigt Hill
#
# Bulk Modulus (GPa) = 61.05139 73.63505 67.34322
# Shear Modulus (GPa) = 35.26248 -33.67337 0.79456
#
# Velocity S-wave (km/s) = 4.39528 -4.29510 0.65977
# Velocity P-wave (km/s) = 7.69447 3.96783 6.12162
#
# Compressibility (1/GPa) = 0.01637964
#
# Stress axis : x y z
#
# Youngs Moduli (GPa) = 68.64766 114.34981 39.69684
#
# Poissons Ratio (x) = 0.40061 0.41336
# Poissons Ratio (y) = 0.24050 0.08517
# Poissons Ratio (z) = 0.71483 0.24533
#
# Static dielectric constant tensor:
#      x y z
#    x 3.365590 0.000000 -0.019660 
#    y 0.000000 3.467460 0.000000 
#    z -0.019660 0.000000 3.150600 
# 
# 
# High freq. dielectric constant tensor:
#      x y z
#    x 1.719520 0.000000 -0.004590 
#    y 0.000000 1.719520 0.000000 
#    z -0.004590 0.000000 1.691970 
# 
# From -- ./inp_files/295432.got.cif
#   From: 2010.06.25/outbox.cif.g09.slc.cpg/sg12_148_cif.got.tgz:295432.got - 2010.06.28 00:19:55.
