data_PCOD8094835
_publ_section_title
;
Structure prediction by ZEFSAII (Michael W. Deem and Ramdas Pophale) SiO2 
 PCOD8094835
Probable space group: C 2/M
;
_chemical_formula_sum "Si O2"
_cell_formula_units_Z 64
_cell_length_a 16.821229
_cell_length_b 16.663813
_cell_length_c 19.896641
_cell_angle_alpha 90.000000
_cell_angle_beta 34.694016
_cell_angle_gamma 90.000000
_cell_volume 3174.475071
_symmetry_space_group_name_H-M "C 2/M"
_symmetry_group_IT_number 12
_symmetry_cell_setting 'monoclinic'
loop_
_space_group_symop_operation_xyz
x,y,z
-x,y,-z
-x,-y,-z
x,-y,z
1/2+x,1/2+y,z
1/2-x,1/2+y,-z
1/2-x,1/2-y,-z
1/2+x,1/2-y,z
loop_
_atom_site_type_symbol
_atom_site_label
_atom_site_fract_x
_atom_site_fract_y
_atom_site_fract_z
Si Si1 0.666789 0.682915 0.517997
Si Si2 0.633187 0.167943 0.143614
Si Si3 0.100527 0.694192 0.870548
Si Si4 0.887022 0.264434 0.700925
Si Si5 0.153925 0.588688 0.367690
Si Si6 0.874774 0.591281 0.276405
Si Si7 0.928925 0.807729 0.908489
Si Si8 0.383415 0.593039 0.314416
O O1 0.750000 0.750000 0.500000
O O2 0.528529 0.719798 0.577521
O O3 0.761736 0.645839 0.393492
O O4 0.628428 0.615344 0.599237
O O5 0.580385 0.214664 0.245225
O O6 0.526724 0.093683 0.207590
O O7 0.619771 0.223126 0.087439
O O8 0.798073 0.145582 0.034609
O O9 0.257159 0.704221 0.788892
O O10 0.107881 0.624510 0.810403
O O11 0.045298 0.781500 0.882278
O O12 0.000000 0.663801 0.000000
O O13 0.845676 0.345211 0.690458
O O14 0.205379 0.500000 0.305585
O O15 0.245943 0.617284 0.367436
O O16 0.000000 0.578068 0.500000
O O17 0.822096 0.500000 0.311370
O O18 0.985863 0.863556 0.810241
O O19 0.413647 0.500000 0.289344
#
# Coordination Sequence:
#
# PCOD8094835 Si02
#       8
#     8   8   8   8   8   8   8   8
#     4  12  23  41  64  93 121 167 219 264 307 371
#     4  10  21  37  66  91 119 163 214 258 302 362
#     4  11  23  41  68  93 126 170 211 262 315 375
#     4  12  22  37  66  95 121 167 218 261 308 378
#     4  10  23  37  56  90 129 164 199 252 319 381
#     4  11  26  45  63  93 133 167 209 265 321 375
#     4  10  19  40  62  93 126 159 212 255 301 370
#     4  11  22  39  61  89 131 167 198 252 324 379
#
# _framework density 20.160813000000001
#
# number of rings (size 3 to 8) (size 9 to 14) (size 15 to 20)
#    0.000    1.125    5.000    1.875    1.750    1.250 
#    0.000    1.875    0.000    2.250    0.000    0.000 
#    0.000    0.000    0.000    0.000    0.000    0.000 
#
# Total GULP energy -396708.644525 kJ/mol
# GULP energy per Si atom -12397.145141 kJ/mol
# Density = 2.011493 g / cm^3
# Si number density = 20.160813 Si / 1000 Ang^3
#
#
#
# Elastic Constant Matrix: (Units=GPa)
#
#
# Indices 1 2 3 4 5 6 
#
# 1 85.0169 33.7936 32.3757 -0.0006 -5.4018 0.0002
# 2 33.7936 89.7824 45.5875 -0.0017 -1.4448 0.0007
# 3 32.3757 45.5875 124.7340 -0.0028 -0.2394 0.0016
# 4 -0.0006 -0.0017 -0.0028 21.6956 0.0018 3.8764
# 5 -5.4018 -1.4448 -0.2394 0.0018 38.1475 -0.0009
# 6 0.0002 0.0007 0.0016 3.8764 -0.0009 23.2305
#
#
#
# Elastic Compliance Matrix: (Units=1/GPa)
#
#
# Indices 1 2 3 4 5 6 
#
# 1 0.014413 -0.004294 -0.002168 0.000000 0.001865 0.000000
# 2 -0.004294 0.014964 -0.004355 0.000001 -0.000069 0.000000
# 3 -0.002168 -0.004355 0.010171 0.000001 -0.000408 -0.000001
# 4 0.000000 0.000001 0.000001 0.047509 -0.000002 -0.007928
# 5 0.001865 -0.000069 -0.000408 -0.000002 0.026473 0.000001
# 6 0.000000 0.000000 -0.000001 -0.007928 0.000001 0.044370
#
#
# Mechanical properties :
#
#
# Convention : Reuss Voigt Hill
#
# Bulk Modulus (GPa) = 55.82125 58.11631 56.96878
# Shear Modulus (GPa) = 26.95343 29.13316 28.04329
#
# Velocity S-wave (km/s) = 3.66036 3.80549 3.73363
# Velocity P-wave (km/s) = 6.75370 6.94248 6.84874
#
# Compressibility (1/GPa) = 0.01791433
#
# Stress axis : x y z
#
# Youngs Moduli (GPa) = 69.37971 66.82532 98.32310
#
# Poissons Ratio (x) = 0.28697 0.21317
# Poissons Ratio (y) = 0.29794 0.42816
# Poissons Ratio (z) = 0.15042 0.29100
#
# Static dielectric constant tensor:
#      x y z
#    x 3.832040 0.000000 -0.155460 
#    y 0.000000 3.585610 0.000000 
#    z -0.155460 0.000000 3.832200 
# 
# 
# High freq. dielectric constant tensor:
#      x y z
#    x 1.790240 0.000000 -0.008830 
#    y 0.000000 1.763520 0.000000 
#    z -0.008830 0.000000 1.798370 
# 
# From -- ./inp_files/271723.got.cif
#   From: 2010.06.25/outbox.cif.g09.slc.cpg/sg12_136_cif.got.tgz:271723.got - 2010.06.28 00:19:55.
