data_PCOD8094839
_publ_section_title
;
Structure prediction by ZEFSAII (Michael W. Deem and Ramdas Pophale) SiO2 
 PCOD8094839
Probable space group: C 2/M
;
_chemical_formula_sum "Si O2"
_cell_formula_units_Z 56
_cell_length_a 12.118843
_cell_length_b 26.336331
_cell_length_c 9.406764
_cell_angle_alpha 90.000000
_cell_angle_beta 65.715657
_cell_angle_gamma 90.000000
_cell_volume 2736.659914
_symmetry_space_group_name_H-M "C 2/M"
_symmetry_group_IT_number 12
_symmetry_cell_setting 'monoclinic'
loop_
_space_group_symop_operation_xyz
x,y,z
-x,y,-z
-x,-y,-z
x,-y,z
1/2+x,1/2+y,z
1/2-x,1/2+y,-z
1/2-x,1/2-y,-z
1/2+x,1/2-y,z
loop_
_atom_site_type_symbol
_atom_site_label
_atom_site_fract_x
_atom_site_fract_y
_atom_site_fract_z
Si Si1 0.632645 0.708666 0.896327
Si Si2 0.594038 0.558372 0.180711
Si Si3 0.512992 0.907078 0.145647
Si Si4 0.143344 0.873999 0.673602
Si Si5 0.180098 0.318835 0.960192
Si Si6 0.238029 0.556878 0.173981
Si Si7 0.256114 0.609603 0.681575
O O1 0.654930 0.683363 0.729485
O O2 0.632069 0.769531 0.901335
O O3 0.500000 0.687580 0.000000
O O4 0.733065 0.690962 0.953844
O O5 0.548361 0.500000 0.191838
O O6 0.484559 0.598051 0.237208
O O7 0.671509 0.562451 0.285938
O O8 0.677763 0.573612 0.002386
O O9 0.598133 0.939379 0.202657
O O10 0.381646 0.903739 0.288732
O O11 0.500000 0.935475 0.000000
O O12 0.567818 0.851059 0.082270
O O13 0.243157 0.907482 0.701286
O O14 0.172835 0.870225 0.492341
O O15 0.258907 0.347756 0.801286
O O16 0.267412 0.500000 0.205686
#
# Coordination Sequence:
#
# PCOD8094839 Si02
#       7
#     8   8   8   8   8   8   8
#     4  11  21  37  67  90 119 160 212 257 308 359
#     4  11  23  41  65  90 122 168 212 253 307 370
#     4  10  19  40  64  85 117 156 209 252 297 362
#     4  12  24  38  58  92 130 160 194 255 313 373
#     4  10  21  41  63  91 118 161 213 259 298 369
#     4  11  22  39  63  89 114 155 208 255 297 354
#     4  11  23  39  61  87 129 162 198 249 313 369
#
# _framework density 20.462900999999999
#
# number of rings (size 3 to 8) (size 9 to 14) (size 15 to 20)
#    0.000    1.143    4.286    4.286    0.000    4.857 
#    0.000    0.714    0.000    0.000    0.000    0.000 
#    0.000    0.000    0.000    0.000    0.000    0.000 
#
# Total GULP energy -347079.622346 kJ/mol
# GULP energy per Si atom -12395.700798 kJ/mol
# Density = 2.041633 g / cm^3
# Si number density = 20.462901 Si / 1000 Ang^3
#
#
#
# Elastic Constant Matrix: (Units=GPa)
#
#
# Indices 1 2 3 4 5 6 
#
# 1 92.4010 13.8955 -3.9079 0.0000 2.0822 0.0000
# 2 13.8955 74.8547 22.7183 0.0000 4.0232 0.0000
# 3 -3.9079 22.7183 63.8846 0.0000 10.2367 0.0000
# 4 0.0000 0.0000 0.0000 17.9726 0.0000 2.6679
# 5 2.0822 4.0232 10.2367 0.0000 22.0217 0.0000
# 6 0.0000 0.0000 0.0000 2.6679 0.0000 26.8951
#
#
#
# Elastic Compliance Matrix: (Units=1/GPa)
#
#
# Indices 1 2 3 4 5 6 
#
# 1 0.011322 -0.002583 0.001844 0.000000 -0.001456 0.000000
# 2 -0.002583 0.015566 -0.005702 0.000000 0.000051 0.000000
# 3 0.001844 -0.005702 0.019076 0.000000 -0.008000 0.000000
# 4 0.000000 0.000000 0.000000 0.056472 0.000000 -0.005602
# 5 -0.001456 0.000051 -0.008000 0.000000 0.049257 0.000000
# 6 0.000000 0.000000 0.000000 -0.005602 0.000000 0.037737
#
#
# Mechanical properties :
#
#
# Convention : Reuss Voigt Hill
#
# Bulk Modulus (GPa) = 30.22735 32.95024 31.58879
# Shear Modulus (GPa) = 23.43694 26.60683 25.02189
#
# Velocity S-wave (km/s) = 3.38796 3.60981 3.50064
# Velocity P-wave (km/s) = 5.48709 5.78892 5.64003
#
# Compressibility (1/GPa) = 0.03308262
#
# Stress axis : x y z
#
# Youngs Moduli (GPa) = 88.32608 64.24053 52.42306
#
# Poissons Ratio (x) = 0.16595 -0.09669
# Poissons Ratio (y) = 0.22817 0.29891
# Poissons Ratio (z) = -0.16292 0.36629
#
# Static dielectric constant tensor:
#      x y z
#    x 4.030220 0.000000 0.124980 
#    y 0.000000 3.786400 0.000000 
#    z 0.124980 0.000000 3.432530 
# 
# 
# High freq. dielectric constant tensor:
#      x y z
#    x 1.825080 0.000000 0.007730 
#    y 0.000000 1.796860 0.000000 
#    z 0.007730 0.000000 1.770140 
# 
# From -- ./inp_files/53154.got.cif
#   From: 2010.06.25/outbox.cif.g09.slc.cpg/sg12_27_cif.got.tgz:53154.got - 2010.06.28 00:19:55.
