data_PCOD8094587
_publ_section_title
;
Structure prediction by ZEFSAII (Michael W. Deem and Ramdas Pophale) SiO2 
 PCOD8094587
Probable space group: C 2/M
;
_chemical_formula_sum "Si O2"
_cell_formula_units_Z 64
_cell_length_a 16.973583
_cell_length_b 16.686155
_cell_length_c 19.877215
_cell_angle_alpha 90.000000
_cell_angle_beta 35.060969
_cell_angle_gamma 90.000000
_cell_volume 3233.969293
_symmetry_space_group_name_H-M "C 2/M"
_symmetry_group_IT_number 12
_symmetry_cell_setting 'monoclinic'
loop_
_space_group_symop_operation_xyz
x,y,z
-x,y,-z
-x,-y,-z
x,-y,z
1/2+x,1/2+y,z
1/2-x,1/2+y,-z
1/2-x,1/2-y,-z
1/2+x,1/2-y,z
loop_
_atom_site_type_symbol
_atom_site_label
_atom_site_fract_x
_atom_site_fract_y
_atom_site_fract_z
Si Si1 0.508858 0.356376 0.600822
Si Si2 0.130928 0.404325 0.174131
Si Si3 0.141774 0.813049 0.052777
Si Si4 0.573118 0.803643 0.777766
Si Si5 0.775407 0.331366 0.621937
Si Si6 0.699587 0.409738 0.352006
Si Si7 0.034986 0.911067 0.728768
Si Si8 0.564639 0.177700 0.355532
O O1 0.626411 0.356164 0.461245
O O2 0.385727 0.410783 0.657443
O O3 0.568271 0.391386 0.627938
O O4 0.445763 0.269465 0.660267
O O5 0.115140 0.500000 0.172908
O O6 0.108317 0.383799 0.267451
O O7 0.020491 0.352816 0.209303
O O8 0.287698 0.376587 0.046928
O O9 0.015614 0.757615 0.112623
O O10 0.087084 0.856404 0.157908
O O11 0.250000 0.750000 0.000000
O O12 0.689276 0.748362 0.659841
O O13 0.652373 0.870148 0.766546
O O14 0.673979 0.404748 0.675723
O O15 0.816963 0.328604 0.671066
O O16 0.913267 0.346471 0.484417
O O17 0.717175 0.500000 0.366320
O O18 0.978800 0.000000 0.773876
#
# Coordination Sequence:
#
# PCOD8094587 Si02
#       8
#     8   8   8   8   8   8   8   8
#     4  11  20  36  58  88 128 165 195 230 295 372
#     4  11  24  39  62  91 119 154 205 260 301 340
#     4   9  20  41  63  83 110 155 207 249 293 353
#     4  10  19  38  61  86 118 154 198 240 299 356
#     4  10  21  39  59  87 123 160 202 235 291 364
#     4  11  20  33  57  93 133 157 190 247 301 354
#     4  11  23  37  60  88 121 157 194 244 300 355
#     4  11  21  39  62  86 121 169 198 238 292 360
#
# _framework density 19.789921
#
# number of rings (size 3 to 8) (size 9 to 14) (size 15 to 20)
#    0.000    1.500    2.500    5.250    1.750    2.000 
#    0.000    3.750    2.750    3.750    0.000    5.250 
#    0.000    0.000    0.000    0.000    0.000    0.000 
#
# Total GULP energy -396453.007312 kJ/mol
# GULP energy per Si atom -12389.156478 kJ/mol
# Density = 1.974488 g / cm^3
# Si number density = 19.789921 Si / 1000 Ang^3
#
#
#
# Elastic Constant Matrix: (Units=GPa)
#
#
# Indices 1 2 3 4 5 6 
#
# 1 100.4921 46.0994 49.9398 0.0005 -13.1155 -0.0002
# 2 46.0994 106.1334 43.4825 0.0009 -2.2717 -0.0004
# 3 49.9398 43.4825 87.1804 0.0020 -9.4348 -0.0008
# 4 0.0005 0.0009 0.0020 25.6311 -0.0011 0.3166
# 5 -13.1155 -2.2717 -9.4348 -0.0011 20.0965 0.0003
# 6 -0.0002 -0.0004 -0.0008 0.3166 0.0003 27.7040
#
#
#
# Elastic Compliance Matrix: (Units=1/GPa)
#
#
# Indices 1 2 3 4 5 6 
#
# 1 0.015892 -0.004189 -0.006261 0.000001 0.006959 0.000000
# 2 -0.004189 0.012990 -0.004442 0.000000 -0.003351 0.000000
# 3 -0.006261 -0.004442 0.017674 -0.000001 0.003709 0.000000
# 4 0.000001 0.000000 -0.000001 0.039021 0.000002 -0.000446
# 5 0.006959 -0.003351 0.003709 0.000002 0.055664 -0.000001
# 6 0.000000 0.000000 0.000000 -0.000446 -0.000001 0.036101
#
#
# Mechanical properties :
#
#
# Convention : Reuss Voigt Hill
#
# Bulk Modulus (GPa) = 59.62333 63.64994 61.63664
# Shear Modulus (GPa) = 23.50549 24.97194 24.23872
#
# Velocity S-wave (km/s) = 3.45011 3.55611 3.50351
# Velocity P-wave (km/s) = 6.78709 7.00670 6.89777
#
# Compressibility (1/GPa) = 0.01677196
#
# Stress axis : x y z
#
# Youngs Moduli (GPa) = 62.92341 76.98461 56.57994
#
# Poissons Ratio (x) = 0.32246 0.35427
# Poissons Ratio (y) = 0.26357 0.25133
# Poissons Ratio (z) = 0.39399 0.34196
#
# Static dielectric constant tensor:
#      x y z
#    x 3.740600 0.000000 -0.453780 
#    y 0.000000 3.785310 0.000000 
#    z -0.453780 0.000000 3.875670 
# 
# 
# High freq. dielectric constant tensor:
#      x y z
#    x 1.757860 0.000000 -0.024890 
#    y 0.000000 1.783330 0.000000 
#    z -0.024890 0.000000 1.756540 
# 
# From -- ./inp_files/271701.got.cif
#   From: 2010.06.25/outbox.cif.g09.slc.cpg/sg12_136_cif.got.tgz:271701.got - 2010.06.28 00:19:55.
