data_PCOD8094452
_publ_section_title
;
Structure prediction by ZEFSAII (Michael W. Deem and Ramdas Pophale) SiO2 
 PCOD8094452
Probable space group: C 2/M
;
_chemical_formula_sum "Si O2"
_cell_formula_units_Z 36
_cell_length_a 16.477824
_cell_length_b 18.488025
_cell_length_c 7.423034
_cell_angle_alpha 90.000000
_cell_angle_beta 50.582434
_cell_angle_gamma 90.000000
_cell_volume 1746.997196
_symmetry_space_group_name_H-M "C 2/M"
_symmetry_group_IT_number 12
_symmetry_cell_setting 'monoclinic'
loop_
_space_group_symop_operation_xyz
x,y,z
-x,y,-z
-x,-y,-z
x,-y,z
1/2+x,1/2+y,z
1/2-x,1/2+y,-z
1/2-x,1/2-y,-z
1/2+x,1/2-y,z
loop_
_atom_site_type_symbol
_atom_site_label
_atom_site_fract_x
_atom_site_fract_y
_atom_site_fract_z
Si Si1 0.219740 0.120913 0.448816
Si Si2 0.378066 0.716657 0.707191
Si Si3 0.248038 0.845855 0.808047
Si Si4 0.898238 0.000000 0.525126
Si Si5 0.778116 0.500000 0.920929
Si Si6 0.119702 0.500000 0.883591
O O1 0.204341 0.179771 0.314245
O O2 0.223942 0.163232 0.630984
O O3 0.114899 0.070139 0.583616
O O4 0.324373 0.072735 0.272049
O O5 0.500000 0.701474 0.500000
O O6 0.351901 0.801882 0.725517
O O7 0.352454 0.684581 0.940601
O O8 0.267619 0.930605 0.810340
O O9 0.000000 0.000000 0.500000
O O10 0.805870 0.000000 0.800407
O O11 0.884197 0.500000 0.890874
O O12 0.000000 0.500000 0.000000
#
# Coordination Sequence:
#
# PCOD8094452 Si02
#       6
#     8   8   8   4   4   4
#     4  10  21  41  62  92 129 169 214 265 316 389
#     4  11  24  43  64  93 134 170 212 275 330 376
#     4  11  23  42  67  91 132 169 218 266 320 396
#     4  10  19  37  63  92 133 162 205 270 317 379
#     4  10  20  40  62  90 126 163 203 267 317 371
#     4  10  21  39  65  95 134 171 210 267 323 381
#
# _framework density 20.606788000000002
#
# number of rings (size 3 to 8) (size 9 to 14) (size 15 to 20)
#    0.000    1.778    4.444    2.667    0.000    2.667 
#    0.000    2.778    0.000    0.000    0.000    0.000 
#    0.000    0.000    0.000    0.000    0.000    0.000 
#
# Total GULP energy -223085.137558 kJ/mol
# GULP energy per Si atom -12393.618753 kJ/mol
# Density = 2.055989 g / cm^3
# Si number density = 20.606788 Si / 1000 Ang^3
#
#
#
# Elastic Constant Matrix: (Units=GPa)
#
#
# Indices 1 2 3 4 5 6 
#
# 1 111.4272 22.2096 49.0083 0.0000 -11.3251 0.0000
# 2 22.2096 113.0611 23.6322 0.0000 -4.7277 0.0000
# 3 49.0083 23.6322 88.3208 0.0000 0.8009 0.0000
# 4 0.0000 0.0000 0.0000 22.9686 0.0000 7.4672
# 5 -11.3251 -4.7277 0.8009 0.0000 42.5158 0.0000
# 6 0.0000 0.0000 0.0000 7.4672 0.0000 28.1427
#
#
#
# Elastic Compliance Matrix: (Units=1/GPa)
#
#
# Indices 1 2 3 4 5 6 
#
# 1 0.012436 -0.000905 -0.006689 0.000000 0.003338 0.000000
# 2 -0.000905 0.009485 -0.002043 0.000000 0.000852 0.000000
# 3 -0.006689 -0.002043 0.015601 0.000000 -0.002303 0.000000
# 4 0.000000 0.000000 0.000000 0.047648 0.000000 -0.012643
# 5 0.003338 0.000852 -0.002303 0.000000 0.024548 0.000000
# 6 0.000000 0.000000 0.000000 -0.012643 0.000000 0.038888
#
#
# Mechanical properties :
#
#
# Convention : Reuss Voigt Hill
#
# Bulk Modulus (GPa) = 54.80009 55.83436 55.31723
# Shear Modulus (GPa) = 28.74162 33.25601 30.99881
#
# Velocity S-wave (km/s) = 3.73871 4.02162 3.88274
# Velocity P-wave (km/s) = 6.72965 6.97986 6.85590
#
# Compressibility (1/GPa) = 0.01824814
#
# Stress axis : x y z
#
# Youngs Moduli (GPa) = 80.41177 105.42567 64.09659
#
# Poissons Ratio (x) = 0.09544 0.42872
# Poissons Ratio (y) = 0.07279 0.13098
# Poissons Ratio (z) = 0.53785 0.21543
#
# Static dielectric constant tensor:
#      x y z
#    x 2.886550 0.000000 0.230510 
#    y 0.000000 4.001690 0.000000 
#    z 0.230510 0.000000 3.503160 
# 
# 
# High freq. dielectric constant tensor:
#      x y z
#    x 1.803950 0.000000 0.018720 
#    y 0.000000 1.822930 0.000000 
#    z 0.018720 0.000000 1.782290 
# 
# From -- ./inp_files/74322.got.cif
#   From: 2010.06.25/outbox.cif.g09.slc.cpg/sg12_38_cif.got.tgz:74322.got - 2010.06.28 00:19:55.
