data_PCOD8094005
_publ_section_title
;
Structure prediction by ZEFSAII (Michael W. Deem and Ramdas Pophale) SiO2 
 PCOD8094005
Probable space group: C 2/M
;
_chemical_formula_sum "Si O2"
_cell_formula_units_Z 52
_cell_length_a 20.157013
_cell_length_b 17.681930
_cell_length_c 9.785437
_cell_angle_alpha 90.000000
_cell_angle_beta 128.990171
_cell_angle_gamma 90.000000
_cell_volume 2710.809400
_symmetry_space_group_name_H-M "C 2/M"
_symmetry_group_IT_number 12
_symmetry_cell_setting 'monoclinic'
loop_
_space_group_symop_operation_xyz
x,y,z
-x,y,-z
-x,-y,-z
x,-y,z
1/2+x,1/2+y,z
1/2-x,1/2+y,-z
1/2-x,1/2-y,-z
1/2+x,1/2-y,z
loop_
_atom_site_type_symbol
_atom_site_label
_atom_site_fract_x
_atom_site_fract_y
_atom_site_fract_z
Si Si1 0.997428 0.734692 0.265670
Si Si2 0.769748 0.638807 0.469757
Si Si3 0.677127 0.691965 0.879326
Si Si4 0.841108 0.915502 0.899336
Si Si5 0.500000 0.678090 0.000000
Si Si6 0.169059 0.793256 0.567207
Si Si7 0.044296 0.587118 0.205442
O O1 0.909204 0.762200 0.209339
O O2 0.024056 0.766528 0.152988
O O3 0.070781 0.768619 0.456367
O O4 0.997406 0.642826 0.253088
O O5 0.737724 0.582027 0.309984
O O6 0.777556 0.717966 0.398571
O O7 0.694669 0.645201 0.485993
O O8 0.855153 0.610272 0.658217
O O9 0.689434 0.667060 0.738321
O O10 0.750000 0.750000 0.000000
O O11 0.685067 0.620755 0.989695
O O12 0.869959 0.000000 0.970513
O O13 0.919516 0.872581 0.932658
O O14 0.033832 0.500000 0.238886
O O15 0.000000 0.598092 0.000000
#
# Coordination Sequence:
#
# PCOD8094005 Si02
#       7
#     8   8   8   8   4   8   8
#     4  10  20  35  62  83 116 158 198 243 290 346
#     4  10  20  35  64  86 116 153 200 245 289 344
#     4  11  23  37  60  87 118 156 198 244 289 353
#     4  11  22  39  60  88 121 153 190 245 304 351
#     4  10  19  36  61  90 108 150 204 242 283 354
#     4  10  20  37  60  89 112 151 205 244 283 345
#     4  10  21  35  55  89 125 151 189 245 299 348
#
# _framework density 19.182462000000001
#
# number of rings (size 3 to 8) (size 9 to 14) (size 15 to 20)
#    0.000    1.692    3.846    1.154    2.154    0.000 
#    0.000    2.308    0.000    3.692    0.000    0.000 
#    0.000    0.000    0.000    0.000    0.000    0.000 
#
# Total GULP energy -322217.975342 kJ/mol
# GULP energy per Si atom -12392.999052 kJ/mol
# Density = 1.913880 g / cm^3
# Si number density = 19.182462 Si / 1000 Ang^3
#
#
#
# Elastic Constant Matrix: (Units=GPa)
#
#
# Indices 1 2 3 4 5 6 
#
# 1 90.3782 29.8885 39.0213 0.0000 -9.4484 0.0000
# 2 29.8885 101.9121 33.2540 0.0000 -9.4752 0.0000
# 3 39.0213 33.2540 117.9104 0.0000 -12.8290 0.0000
# 4 0.0000 0.0000 0.0000 23.7411 0.0000 0.3399
# 5 -9.4484 -9.4752 -12.8290 0.0000 34.3656 0.0000
# 6 0.0000 0.0000 0.0000 0.3399 0.0000 6.1875
#
#
#
# Elastic Compliance Matrix: (Units=1/GPa)
#
#
# Indices 1 2 3 4 5 6 
#
# 1 0.013676 -0.002685 -0.003586 0.000000 0.001681 0.000000
# 2 -0.002685 0.011457 -0.002167 0.000000 0.001612 0.000000
# 3 -0.003586 -0.002167 0.010535 0.000000 0.002349 0.000000
# 4 0.000000 0.000000 0.000000 0.042154 0.000000 -0.002316
# 5 0.001681 0.001612 0.002349 0.000000 0.030882 0.000000
# 6 0.000000 0.000000 0.000000 -0.002316 0.000000 0.161744
#
#
# Mechanical properties :
#
#
# Convention : Reuss Voigt Hill
#
# Bulk Modulus (GPa) = 53.21425 57.16983 55.19204
# Shear Modulus (GPa) = 17.03064 26.72795 21.87930
#
# Velocity S-wave (km/s) = 2.98287 3.73681 3.38092
# Velocity P-wave (km/s) = 6.29799 6.96321 6.63894
#
# Compressibility (1/GPa) = 0.01879196
#
# Stress axis : x y z
#
# Youngs Moduli (GPa) = 73.11831 87.28482 94.92503
#
# Poissons Ratio (x) = 0.23432 0.34041
# Poissons Ratio (y) = 0.19629 0.20574
# Poissons Ratio (z) = 0.26221 0.18918
#
# Static dielectric constant tensor:
#      x y z
#    x 3.511710 0.000000 0.290960 
#    y 0.000000 3.386860 0.000000 
#    z 0.290960 0.000000 3.377820 
# 
# 
# High freq. dielectric constant tensor:
#      x y z
#    x 1.738980 0.000000 0.006460 
#    y 0.000000 1.728400 0.000000 
#    z 0.006460 0.000000 1.762380 
# 
# From -- ./inp_files/88490.got.cif
#   From: 2010.06.25/outbox.cif.g09.slc.cpg/sg12_45_cif.got.tgz:88490.got - 2010.06.28 00:19:55.
