data_PCOD8094278
_publ_section_title
;
Structure prediction by ZEFSAII (Michael W. Deem and Ramdas Pophale) SiO2 
 PCOD8094278
Probable space group: C 2/M
;
_chemical_formula_sum "Si O2"
_cell_formula_units_Z 48
_cell_length_a 16.883838
_cell_length_b 18.329356
_cell_length_c 13.871196
_cell_angle_alpha 90.000000
_cell_angle_beta 148.332264
_cell_angle_gamma 90.000000
_cell_volume 2253.644250
_symmetry_space_group_name_H-M "C 2/M"
_symmetry_group_IT_number 12
_symmetry_cell_setting 'monoclinic'
loop_
_space_group_symop_operation_xyz
x,y,z
-x,y,-z
-x,-y,-z
x,-y,z
1/2+x,1/2+y,z
1/2-x,1/2+y,-z
1/2-x,1/2-y,-z
1/2+x,1/2-y,z
loop_
_atom_site_type_symbol
_atom_site_label
_atom_site_fract_x
_atom_site_fract_y
_atom_site_fract_z
Si Si1 0.091036 0.917326 0.688688
Si Si2 0.366593 0.786716 0.694167
Si Si3 0.689573 0.829018 0.958790
Si Si4 0.641829 0.365643 0.245596
Si Si5 0.295582 0.418951 0.489551
Si Si6 0.193070 0.083469 0.098614
O O1 0.228450 0.865032 0.862431
O O2 0.000000 0.889025 0.500000
O O3 0.974520 0.917346 0.657019
O O4 0.150894 0.000000 0.731407
O O5 0.250000 0.750000 0.500000
O O6 0.400733 0.720993 0.803481
O O7 0.287961 0.857802 0.663514
O O8 0.513829 0.819528 0.796319
O O9 0.750000 0.750000 0.000000
O O10 0.715340 0.877143 0.890816
O O11 0.740094 0.392560 0.438471
O O12 0.738332 0.384388 0.250398
O O13 0.486794 0.409754 0.094415
O O14 0.230384 0.500000 0.402059
O O15 0.241106 0.000000 0.141753
#
# Coordination Sequence:
#
# PCOD8094278 Si02
#       6
#     8   8   8   8   8   8
#     4  10  22  41  64  91 125 170 226 282 335 391
#     4  10  22  40  60  89 132 179 220 266 335 402
#     4  12  22  40  64  93 129 167 220 275 332 399
#     4  10  19  37  60  92 131 168 212 267 334 406
#     4  10  19  37  60  85 124 170 215 270 335 399
#     4  11  21  35  64  99 126 163 216 274 332 395
#
# _framework density 21.298836000000001
#
# number of rings (size 3 to 8) (size 9 to 14) (size 15 to 20)
#    0.000    1.500    3.333    3.500    0.000    2.667 
#    0.000    3.333    0.000    8.000    0.000    0.000 
#    0.000    0.000    0.000    0.000    0.000    0.000 
#
# Total GULP energy -297391.759390 kJ/mol
# GULP energy per Si atom -12391.323308 kJ/mol
# Density = 2.125036 g / cm^3
# Si number density = 21.298836 Si / 1000 Ang^3
#
#
#
# Elastic Constant Matrix: (Units=GPa)
#
#
# Indices 1 2 3 4 5 6 
#
# 1 82.2383 59.6232 43.5807 0.0000 -11.3196 0.0000
# 2 59.6232 186.8406 42.7298 0.0000 4.6762 0.0000
# 3 43.5807 42.7298 86.1981 0.0000 2.6828 0.0000
# 4 0.0000 0.0000 0.0000 36.7116 0.0000 4.3193
# 5 -11.3196 4.6762 2.6828 0.0000 37.7350 0.0000
# 6 0.0000 0.0000 0.0000 4.3193 0.0000 28.4426
#
#
#
# Elastic Compliance Matrix: (Units=1/GPa)
#
#
# Indices 1 2 3 4 5 6 
#
# 1 0.021427 -0.005072 -0.008557 0.000000 0.007665 0.000000
# 2 -0.005072 0.007248 -0.000955 0.000000 -0.002352 0.000000
# 3 -0.008557 -0.000955 0.016514 0.000000 -0.003623 0.000000
# 4 0.000000 0.000000 0.000000 0.027735 0.000000 -0.004212
# 5 0.007665 -0.002352 -0.003623 0.000000 0.029349 0.000000
# 6 0.000000 0.000000 0.000000 -0.004212 0.000000 0.035798
#
#
# Mechanical properties :
#
#
# Convention : Reuss Voigt Hill
#
# Bulk Modulus (GPa) = 62.42539 71.90496 67.16518
# Shear Modulus (GPa) = 28.97190 34.53407 31.75298
#
# Velocity S-wave (km/s) = 3.69217 4.03104 3.86532
# Velocity P-wave (km/s) = 6.89558 7.44977 7.17802
#
# Compressibility (1/GPa) = 0.01601912
#
# Stress axis : x y z
#
# Youngs Moduli (GPa) = 46.66973 137.96575 60.55477
#
# Poissons Ratio (x) = 0.69983 0.51819
# Poissons Ratio (y) = 0.23673 0.05785
# Poissons Ratio (z) = 0.39937 0.13179
#
# Static dielectric constant tensor:
#      x y z
#    x 4.869900 0.000000 0.526870 
#    y 0.000000 14.832710 0.000000 
#    z 0.526870 0.000000 4.262120 
# 
# 
# High freq. dielectric constant tensor:
#      x y z
#    x 1.822510 0.000000 -0.009580 
#    y 0.000000 1.859140 0.000000 
#    z -0.009580 0.000000 1.807610 
# 
# From -- ./inp_files/226927.got.cif
#   From: 2010.06.25/outbox.cif.g09.slc.cpg/sg12_114_cif.got.tgz:226927.got - 2010.06.28 00:19:55.
