data_PCOD8094192
_publ_section_title
;
Structure prediction by ZEFSAII (Michael W. Deem and Ramdas Pophale) SiO2 
 PCOD8094192
Probable space group: C 2/M
;
_chemical_formula_sum "Si O2"
_cell_formula_units_Z 64
_cell_length_a 19.822440
_cell_length_b 23.249321
_cell_length_c 9.183294
_cell_angle_alpha 90.000000
_cell_angle_beta 128.310868
_cell_angle_gamma 90.000000
_cell_volume 3320.830592
_symmetry_space_group_name_H-M "C 2/M"
_symmetry_group_IT_number 12
_symmetry_cell_setting 'monoclinic'
loop_
_space_group_symop_operation_xyz
x,y,z
-x,y,-z
-x,-y,-z
x,-y,z
1/2+x,1/2+y,z
1/2-x,1/2+y,-z
1/2-x,1/2-y,-z
1/2+x,1/2-y,z
loop_
_atom_site_type_symbol
_atom_site_label
_atom_site_fract_x
_atom_site_fract_y
_atom_site_fract_z
Si Si1 0.788694 0.111788 0.410477
Si Si2 0.741152 0.732874 0.739923
Si Si3 0.976319 0.933087 0.630001
Si Si4 0.261512 0.147918 0.351175
Si Si5 0.369134 0.762420 0.137955
Si Si6 0.627928 0.634264 0.926956
Si Si7 0.773160 0.566647 0.954519
Si Si8 0.090315 0.626352 0.672884
O O1 0.807057 0.177219 0.383509
O O2 0.879418 0.080389 0.544046
O O3 0.741985 0.112591 0.503871
O O4 0.725171 0.077132 0.217323
O O5 0.740553 0.783253 0.617348
O O6 0.701779 0.764362 0.829250
O O7 0.834646 0.716353 0.932395
O O8 0.000000 0.910946 0.500000
O O9 0.041239 0.902262 0.828532
O O10 0.993364 0.000000 0.666148
O O11 0.348033 0.129646 0.384806
O O12 0.175411 0.134691 0.144601
O O13 0.403902 0.697433 0.170116
O O14 0.434057 0.812103 0.282008
O O15 0.692962 0.605792 0.898031
O O16 0.755372 0.500000 0.966886
O O17 0.862963 0.585570 0.146367
O O18 0.000000 0.598994 0.500000
#
# Coordination Sequence:
#
# PCOD8094192 Si02
#       8
#     8   8   8   8   8   8   8   8
#     4  12  20  35  56  83 118 154 189 235 288 340
#     4   9  15  31  55  81 114 148 186 232 286 346
#     4  11  22  35  56  86 116 153 204 237 259 328
#     4   9  22  35  56  86 116 148 187 234 299 353
#     4   9  15  31  58  89 109 146 194 234 285 344
#     4  10  19  37  57  85 121 153 192 235 276 340
#     4  11  21  37  61  81 109 156 199 236 283 342
#     4  10  21  39  62  86 112 144 196 251 294 354
#
# _framework density 19.272286999999999
#
# number of rings (size 3 to 8) (size 9 to 14) (size 15 to 20)
#    0.000    1.875    3.750    2.625    0.000    3.250 
#    0.000    7.500    0.000    2.250    0.000    0.000 
#    0.000    0.000    0.000    0.000    0.000    0.000 
#
# Total GULP energy -396545.968827 kJ/mol
# GULP energy per Si atom -12392.061526 kJ/mol
# Density = 1.922842 g / cm^3
# Si number density = 19.272287 Si / 1000 Ang^3
#
#
#
# Elastic Constant Matrix: (Units=GPa)
#
#
# Indices 1 2 3 4 5 6 
#
# 1 57.1202 14.7283 41.7194 0.0000 1.8683 0.0000
# 2 14.7283 85.5959 34.1223 0.0000 0.8981 0.0000
# 3 41.7194 34.1223 99.5094 0.0000 12.5048 0.0000
# 4 0.0000 0.0000 0.0000 24.6499 0.0000 1.9265
# 5 1.8683 0.8981 12.5048 0.0000 31.8468 0.0000
# 6 0.0000 0.0000 0.0000 1.9265 0.0000 20.1139
#
#
#
# Elastic Compliance Matrix: (Units=1/GPa)
#
#
# Indices 1 2 3 4 5 6 
#
# 1 0.025476 -0.000015 -0.011032 0.000000 0.002838 0.000000
# 2 -0.000015 0.013603 -0.004849 0.000000 0.001521 0.000000
# 3 -0.011032 -0.004849 0.017082 0.000000 -0.005923 0.000000
# 4 0.000000 0.000000 0.000000 0.040874 0.000000 -0.003915
# 5 0.002838 0.001521 -0.005923 0.000000 0.033517 0.000000
# 6 0.000000 0.000000 0.000000 -0.003915 0.000000 0.050092
#
#
# Mechanical properties :
#
#
# Convention : Reuss Voigt Hill
#
# Bulk Modulus (GPa) = 41.03960 47.04063 44.04012
# Shear Modulus (GPa) = 22.66979 25.43248 24.05113
#
# Velocity S-wave (km/s) = 3.43343 3.63663 3.53649
# Velocity P-wave (km/s) = 6.08759 6.48805 6.29101
#
# Compressibility (1/GPa) = 0.02436671
#
# Stress axis : x y z
#
# Youngs Moduli (GPa) = 39.25319 73.51558 58.54257
#
# Poissons Ratio (x) = 0.00114 0.64584
# Poissons Ratio (y) = 0.00061 0.28388
# Poissons Ratio (z) = 0.43304 0.35648
#
# Static dielectric constant tensor:
#      x y z
#    x 3.029720 0.000000 -0.078360 
#    y 0.000000 3.569690 0.000000 
#    z -0.078360 0.000000 3.609980 
# 
# 
# High freq. dielectric constant tensor:
#      x y z
#    x 1.697260 0.000000 -0.005140 
#    y 0.000000 1.753770 0.000000 
#    z -0.005140 0.000000 1.754570 
# 
# From -- ./inp_files/90670.got.cif
#   From: 2010.06.25/outbox.cif.g09.slc.cpg/sg12_46_cif.got.tgz:90670.got - 2010.06.28 00:19:55.
