data_PCOD8094294
_publ_section_title
;
Structure prediction by ZEFSAII (Michael W. Deem and Ramdas Pophale) SiO2 
 PCOD8094294
Probable space group: C 2/M
;
_chemical_formula_sum "Si O2"
_cell_formula_units_Z 48
_cell_length_a 12.898182
_cell_length_b 27.511485
_cell_length_c 10.935285
_cell_angle_alpha 90.000000
_cell_angle_beta 145.305317
_cell_angle_gamma 90.000000
_cell_volume 2208.716592
_symmetry_space_group_name_H-M "C 2/M"
_symmetry_group_IT_number 12
_symmetry_cell_setting 'monoclinic'
loop_
_space_group_symop_operation_xyz
x,y,z
-x,y,-z
-x,-y,-z
x,-y,z
1/2+x,1/2+y,z
1/2-x,1/2+y,-z
1/2-x,1/2-y,-z
1/2+x,1/2-y,z
loop_
_atom_site_type_symbol
_atom_site_label
_atom_site_fract_x
_atom_site_fract_y
_atom_site_fract_z
Si Si1 0.493936 0.599183 0.638503
Si Si2 0.138478 0.390423 0.419254
Si Si3 0.269224 0.056008 0.078692
Si Si4 0.581434 0.803415 0.829097
Si Si5 0.437078 0.292953 0.301474
Si Si6 0.299693 0.358110 0.828708
O O1 0.500000 0.594721 0.500000
O O2 0.302154 0.581548 0.509180
O O3 0.499236 0.655207 0.689683
O O4 0.664349 0.567633 0.850174
O O5 0.187116 0.366569 0.596230
O O6 0.982082 0.430869 0.278097
O O7 0.064035 0.343961 0.268763
O O8 0.170257 0.088308 0.084809
O O9 0.248700 0.000000 0.093574
O O10 0.483054 0.752529 0.698334
O O11 0.690421 0.823333 0.815196
O O12 0.716999 0.792747 0.073856
O O13 0.500000 0.286265 0.500000
O O14 0.500000 0.335530 0.000000
#
# Coordination Sequence:
#
# PCOD8094294 Si02
#       6
#     8   8   8   8   8   8
#     4  11  24  44  64  88 129 165 211 264 312 365
#     4  11  22  41  65  91 126 168 204 261 320 371
#     4  11  24  43  65  96 124 160 214 260 320 381
#     4  10  20  36  62  95 130 168 213 249 310 382
#     4  10  19  37  60  91 132 170 210 257 302 371
#     4  11  20  39  65  95 132 165 200 258 322 372
#
# _framework density 21.732077
#
# number of rings (size 3 to 8) (size 9 to 14) (size 15 to 20)
#    0.000    1.333    5.000    3.000    0.000    4.000 
#    0.000    7.500    0.000    0.000    0.000    0.000 
#    0.000    0.000    0.000    0.000    0.000    0.000 
#
# Total GULP energy -297492.610578 kJ/mol
# GULP energy per Si atom -12395.525441 kJ/mol
# Density = 2.168261 g / cm^3
# Si number density = 21.732077 Si / 1000 Ang^3
#
#
#
# Elastic Constant Matrix: (Units=GPa)
#
#
# Indices 1 2 3 4 5 6 
#
# 1 66.9714 -13.2883 33.0094 0.0000 7.7978 0.0000
# 2 -13.2883 86.8825 14.3722 0.0000 -5.7262 0.0000
# 3 33.0094 14.3722 125.4773 0.0000 -3.5045 0.0000
# 4 0.0000 0.0000 0.0000 17.5535 0.0000 -2.9367
# 5 7.7978 -5.7262 -3.5045 0.0000 31.9183 0.0000
# 6 0.0000 0.0000 0.0000 -2.9367 0.0000 15.4949
#
#
#
# Elastic Compliance Matrix: (Units=1/GPa)
#
#
# Indices 1 2 3 4 5 6 
#
# 1 0.018865 0.003491 -0.005491 0.000000 -0.004585 0.000000
# 2 0.003491 0.012502 -0.002319 0.000000 0.001135 0.000000
# 3 -0.005491 -0.002319 0.009735 0.000000 0.001994 0.000000
# 4 0.000000 0.000000 0.000000 0.058834 0.000000 0.011151
# 5 -0.004585 0.001135 0.001994 0.000000 0.032873 0.000000
# 6 0.000000 0.000000 0.000000 0.011151 0.000000 0.066651
#
#
# Mechanical properties :
#
#
# Convention : Reuss Voigt Hill
#
# Bulk Modulus (GPa) = 30.80152 38.61308 34.70730
# Shear Modulus (GPa) = 22.83956 29.34252 26.09104
#
# Velocity S-wave (km/s) = 3.24537 3.67848 3.46869
# Velocity P-wave (km/s) = 5.31482 5.98732 5.66107
#
# Compressibility (1/GPa) = 0.03246593
#
# Stress axis : x y z
#
# Youngs Moduli (GPa) = 53.00911 79.98600 102.71894
#
# Poissons Ratio (x) = -0.27926 0.56400
# Poissons Ratio (y) = -0.18507 0.23818
# Poissons Ratio (z) = 0.29106 0.18547
#
# Static dielectric constant tensor:
#      x y z
#    x 3.452000 0.000000 0.031190 
#    y 0.000000 3.899910 0.000000 
#    z 0.031190 0.000000 4.300950 
# 
# 
# High freq. dielectric constant tensor:
#      x y z
#    x 1.816280 0.000000 -0.000810 
#    y 0.000000 1.843590 0.000000 
#    z -0.000810 0.000000 1.881730 
# 
# From -- ./inp_files/150334.got.cif
#   From: 2010.06.25/outbox.cif.g09.slc.cpg/sg12_76_cif.got.tgz:150334.got - 2010.06.28 00:19:55.
