data_PCOD8094224
_publ_section_title
;
Structure prediction by ZEFSAII (Michael W. Deem and Ramdas Pophale) SiO2 
 PCOD8094224
Probable space group: C 2/M
;
_chemical_formula_sum "Si O2"
_cell_formula_units_Z 52
_cell_length_a 19.063610
_cell_length_b 14.692758
_cell_length_c 17.158202
_cell_angle_alpha 90.000000
_cell_angle_beta 145.854714
_cell_angle_gamma 90.000000
_cell_volume 2697.553784
_symmetry_space_group_name_H-M "C 2/M"
_symmetry_group_IT_number 12
_symmetry_cell_setting 'monoclinic'
loop_
_space_group_symop_operation_xyz
x,y,z
-x,y,-z
-x,-y,-z
x,-y,z
1/2+x,1/2+y,z
1/2-x,1/2+y,-z
1/2-x,1/2-y,-z
1/2+x,1/2-y,z
loop_
_atom_site_type_symbol
_atom_site_label
_atom_site_fract_x
_atom_site_fract_y
_atom_site_fract_z
Si Si1 0.500000 0.663101 0.000000
Si Si2 0.037439 0.897650 0.739345
Si Si3 0.614315 0.898089 0.467663
Si Si4 0.767726 0.233407 0.704460
Si Si5 0.757296 0.844658 0.463371
Si Si6 0.663112 0.601267 0.015412
Si Si7 0.125305 0.726751 0.730844
O O1 0.407532 0.727574 0.865936
O O2 0.578826 0.599666 0.015132
O O3 0.076749 0.872377 0.863238
O O4 0.105071 0.827728 0.744382
O O5 0.888877 0.893406 0.595959
O O6 0.080659 0.000000 0.757338
O O7 0.733721 0.857881 0.624254
O O8 0.649031 0.903571 0.406871
O O9 0.500904 0.830832 0.381007
O O10 0.583199 0.000000 0.468574
O O11 0.764795 0.325072 0.648738
O O12 0.666618 0.240664 0.680217
O O13 0.750000 0.750000 0.500000
O O14 0.721062 0.500000 0.059263
O O15 0.772617 0.674882 0.123135
#
# Coordination Sequence:
#
# PCOD8094224 Si02
#       7
#     4   8   8   8   8   8   8
#     4  10  21  34  60  88 115 156 189 238 292 358
#     4  11  22  38  60  85 114 155 204 243 283 343
#     4  11  22  36  61  90 119 154 191 241 300 357
#     4  10  22  38  58  84 123 155 196 237 296 351
#     4  10  19  37  59  81 117 152 195 237 289 344
#     4  10  21  36  57  89 121 153 192 237 292 355
#     4  11  22  38  58  86 124 158 191 241 299 347
#
# _framework density 19.276724999999999
#
# number of rings (size 3 to 8) (size 9 to 14) (size 15 to 20)
#    0.000    1.538    3.077    3.923    0.000    5.538 
#    0.000    2.308    0.000    0.000    0.000    4.308 
#    0.000    0.000    0.000    0.000    0.000    0.000 
#
# Total GULP energy -322332.346056 kJ/mol
# GULP energy per Si atom -12397.397925 kJ/mol
# Density = 1.923285 g / cm^3
# Si number density = 19.276725 Si / 1000 Ang^3
#
#
#
# Elastic Constant Matrix: (Units=GPa)
#
#
# Indices 1 2 3 4 5 6 
#
# 1 104.7268 42.0683 44.2621 0.0000 -3.0897 0.0000
# 2 42.0683 103.0888 41.8405 0.0000 -2.8900 0.0000
# 3 44.2621 41.8405 123.4218 0.0000 -3.8267 0.0000
# 4 0.0000 0.0000 0.0000 25.6155 0.0000 -2.1149
# 5 -3.0897 -2.8900 -3.8267 0.0000 31.3240 0.0000
# 6 0.0000 0.0000 0.0000 -2.1149 0.0000 18.0911
#
#
#
# Elastic Compliance Matrix: (Units=1/GPa)
#
#
# Indices 1 2 3 4 5 6 
#
# 1 0.012412 -0.003770 -0.003158 0.000000 0.000491 0.000000
# 2 -0.003770 0.012403 -0.002840 0.000000 0.000426 0.000000
# 3 -0.003158 -0.002840 0.010218 0.000000 0.000675 0.000000
# 4 0.000000 0.000000 0.000000 0.039419 0.000000 0.004608
# 5 0.000491 0.000426 0.000675 0.000000 0.032094 0.000000
# 6 0.000000 0.000000 0.000000 0.004608 0.000000 0.055814
#
#
# Mechanical properties :
#
#
# Convention : Reuss Voigt Hill
#
# Bulk Modulus (GPa) = 64.52061 65.28657 64.90359
# Shear Modulus (GPa) = 26.72897 28.54391 27.63644
#
# Velocity S-wave (km/s) = 3.72774 3.85222 3.79049
# Velocity P-wave (km/s) = 7.21605 7.32992 7.27321
#
# Compressibility (1/GPa) = 0.01549892
#
# Stress axis : x y z
#
# Youngs Moduli (GPa) = 80.56637 80.62501 97.86197
#
# Poissons Ratio (x) = 0.30392 0.30907
# Poissons Ratio (y) = 0.30370 0.27789
# Poissons Ratio (z) = 0.25444 0.22895
#
# Static dielectric constant tensor:
#      x y z
#    x 3.996020 0.000000 -0.128040 
#    y 0.000000 3.405200 0.000000 
#    z -0.128040 0.000000 3.616060 
# 
# 
# High freq. dielectric constant tensor:
#      x y z
#    x 1.757290 0.000000 -0.001060 
#    y 0.000000 1.736360 0.000000 
#    z -0.001060 0.000000 1.748410 
# 
# From -- ./inp_files/284300.got.cif
#   From: 2010.06.25/outbox.cif.g09.slc.cpg/sg12_143_cif.got.tgz:284300.got - 2010.06.28 00:19:55.
