data_PCOD8094761
_publ_section_title
;
Structure prediction by ZEFSAII (Michael W. Deem and Ramdas Pophale) SiO2 
 PCOD8094761
Probable space group: C 2/M
;
_chemical_formula_sum "Si O2"
_cell_formula_units_Z 64
_cell_length_a 24.188469
_cell_length_b 21.022763
_cell_length_c 17.504348
_cell_angle_alpha 90.000000
_cell_angle_beta 160.234442
_cell_angle_gamma 90.000000
_cell_volume 3010.108207
_symmetry_space_group_name_H-M "C 2/M"
_symmetry_group_IT_number 12
_symmetry_cell_setting 'monoclinic'
loop_
_space_group_symop_operation_xyz
x,y,z
-x,y,-z
-x,-y,-z
x,-y,z
1/2+x,1/2+y,z
1/2-x,1/2+y,-z
1/2-x,1/2-y,-z
1/2+x,1/2-y,z
loop_
_atom_site_type_symbol
_atom_site_label
_atom_site_fract_x
_atom_site_fract_y
_atom_site_fract_z
Si Si1 0.666107 0.671292 0.552199
Si Si2 0.446844 0.072234 0.696950
Si Si3 0.636005 0.267289 0.782146
Si Si4 0.139704 0.759328 0.284096
Si Si5 0.745644 0.071836 0.825732
Si Si6 0.012371 0.367066 0.409760
Si Si7 0.389393 0.387554 0.684133
Si Si8 0.354176 0.163170 0.941439
O O1 0.481883 0.677832 0.340760
O O2 0.749838 0.741311 0.646186
O O3 0.665794 0.632916 0.472708
O O4 0.763826 0.636848 0.747950
O O5 0.461731 0.120877 0.645856
O O6 0.258639 0.068601 0.479465
O O7 0.501581 0.000000 0.748983
O O8 0.567734 0.101414 0.917537
O O9 0.531924 0.205112 0.625070
O O10 0.731764 0.296150 0.835115
O O11 0.750000 0.250000 0.000000
O O12 0.250000 0.750000 0.500000
O O13 0.083146 0.832150 0.216454
O O14 0.990137 0.711719 0.090774
O O15 0.640130 0.088825 0.763328
O O16 0.680861 0.115846 0.672342
O O17 0.709898 0.000000 0.754700
O O18 0.937730 0.077237 0.093910
#
# Coordination Sequence:
#
# PCOD8094761 Si02
#       8
#     8   8   8   8   8   8   8   8
#     4  11  24  40  64  96 136 168 210 279 338 390
#     4  12  25  45  68  93 134 185 229 270 324 392
#     4  12  23  41  68 101 133 165 211 277 342 403
#     4  10  19  39  62  91 131 167 209 273 339 386
#     4  11  24  44  67  95 135 177 224 272 324 400
#     4  11  24  43  68 100 132 172 220 275 340 396
#     4  11  24  43  65  99 132 177 224 274 330 393
#     4  12  24  41  65 100 137 170 220 272 334 399
#
# _framework density 21.261695
#
# number of rings (size 3 to 8) (size 9 to 14) (size 15 to 20)
#    0.000    0.750    3.750    6.375    5.250    0.500 
#    2.250    3.125    0.000    1.500    0.000    0.000 
#    0.000    0.000    0.000    0.000    0.000    0.000 
#
# Total GULP energy -396654.313146 kJ/mol
# GULP energy per Si atom -12395.447286 kJ/mol
# Density = 2.121330 g / cm^3
# Si number density = 21.261695 Si / 1000 Ang^3
#
#
#
# Elastic Constant Matrix: (Units=GPa)
#
#
# Indices 1 2 3 4 5 6 
#
# 1 43.2396 -3.8509 76.9456 0.0000 -26.7533 0.0000
# 2 -3.8509 72.0519 20.5138 0.0000 -3.5111 0.0000
# 3 76.9456 20.5138 105.9387 0.0000 12.6883 0.0000
# 4 0.0000 0.0000 0.0000 23.2659 0.0000 1.3981
# 5 -26.7533 -3.5111 12.6883 0.0000 29.0696 0.0000
# 6 0.0000 0.0000 0.0000 1.3981 0.0000 24.0209
#
#
#
# Elastic Compliance Matrix: (Units=1/GPa)
#
#
# Indices 1 2 3 4 5 6 
#
# 1 -0.014254 -0.005665 0.013825 0.000000 -0.019837 0.000000
# 2 -0.005665 0.012722 0.002207 0.000000 -0.004640 0.000000
# 3 0.013825 0.002207 -0.002728 0.000000 0.014181 0.000000
# 4 0.000000 0.000000 0.000000 0.043132 0.000000 -0.002510
# 5 -0.019837 -0.004640 0.014181 0.000000 0.009394 0.000000
# 6 0.000000 0.000000 0.000000 -0.002510 0.000000 0.041776
#
#
# Mechanical properties :
#
#
# Convention : Reuss Voigt Hill
#
# Bulk Modulus (GPa) = 60.69808 45.38302 53.04055
# Shear Modulus (GPa) = 66.84565 23.77941 45.31253
#
# Velocity S-wave (km/s) = 5.61317 3.34790 4.62148
# Velocity P-wave (km/s) = 8.40359 6.02793 7.31287
#
# Compressibility (1/GPa) = 0.01647499
#
# Stress axis : x y z
#
# Youngs Moduli (GPa) = -70.15750 78.60548 -366.55305
#
# Poissons Ratio (x) = 0.44527 5.06777
# Poissons Ratio (y) = -0.39742 0.80887
# Poissons Ratio (z) = 0.96996 -0.17346
#
# Static dielectric constant tensor:
#      x y z
#    x 4.119260 0.000000 0.213830 
#    y 0.000000 3.829520 0.000000 
#    z 0.213830 0.000000 3.846800 
# 
# 
# High freq. dielectric constant tensor:
#      x y z
#    x 1.843830 0.000000 0.006320 
#    y 0.000000 1.807040 0.000000 
#    z 0.006320 0.000000 1.849490 
# 
# From -- ./inp_files/290949.got.cif
#   From: 2010.06.25/outbox.cif.g09.slc.cpg/sg12_146_cif.got.tgz:290949.got - 2010.06.28 00:19:55.
