data_PCOD8094045
_publ_section_title
;
Structure prediction by ZEFSAII (Michael W. Deem and Ramdas Pophale) SiO2 
 PCOD8094045
Probable space group: C 2/M
;
_chemical_formula_sum "Si O2"
_cell_formula_units_Z 64
_cell_length_a 28.628505
_cell_length_b 8.817441
_cell_length_c 18.318319
_cell_angle_alpha 90.000000
_cell_angle_beta 43.312369
_cell_angle_gamma 90.000000
_cell_volume 3172.016383
_symmetry_space_group_name_H-M "C 2/M"
_symmetry_group_IT_number 12
_symmetry_cell_setting 'monoclinic'
loop_
_space_group_symop_operation_xyz
x,y,z
-x,y,-z
-x,-y,-z
x,-y,z
1/2+x,1/2+y,z
1/2-x,1/2+y,-z
1/2-x,1/2-y,-z
1/2+x,1/2-y,z
loop_
_atom_site_type_symbol
_atom_site_label
_atom_site_fract_x
_atom_site_fract_y
_atom_site_fract_z
Si Si1 0.788378 0.320324 0.023941
Si Si2 0.944026 0.320377 0.357915
Si Si3 0.820342 0.680060 0.395640
Si Si4 0.820277 0.321106 0.232765
Si Si5 0.703896 0.322686 0.261825
Si Si6 0.567691 0.178953 0.462032
Si Si7 0.555547 0.172904 0.998772
Si Si8 0.436811 0.321326 0.863886
O O1 0.791458 0.500000 0.013150
O O2 0.747937 0.270276 0.142387
O O3 0.750000 0.250000 0.000000
O O4 0.864145 0.256948 0.939095
O O5 0.954644 0.500000 0.339514
O O6 0.881366 0.265198 0.378578
O O7 0.928974 0.268182 0.457670
O O8 0.013106 0.237967 0.255788
O O9 0.813726 0.500000 0.404569
O O10 0.750000 0.750000 0.500000
O O11 0.833215 0.742734 0.299108
O O12 0.831449 0.500000 0.221664
O O13 0.745347 0.278743 0.288372
O O14 0.875412 0.256046 0.113146
O O15 0.689164 0.500000 0.275177
O O16 0.632203 0.238621 0.343931
O O17 0.500000 0.243856 0.500000
O O18 0.568593 0.000000 0.455946
O O19 0.531669 0.275174 0.093655
O O20 0.565982 0.000000 0.014705
O O21 0.500000 0.179428 0.000000
O O22 0.428774 0.500000 0.865602
#
# Coordination Sequence:
#
# PCOD8094045 Si02
#       8
#     8   8   8   8   8   8   8   8
#     4  11  24  43  66  93 125 163 208 255 312 377
#     4  10  22  41  61  86 123 166 209 255 309 373
#     4  10  20  35  59  87 117 156 203 250 305 366
#     4   9  17  33  56  84 114 150 195 239 290 357
#     4  10  21  39  63  89 120 154 196 250 302 365
#     4  10  23  41  61  87 117 155 202 253 310 363
#     4  10  19  36  62  87 119 166 210 248 301 367
#     4  12  25  40  61  93 130 166 208 260 315 367
#
# _framework density 20.176438999999998
#
# number of rings (size 3 to 8) (size 9 to 14) (size 15 to 20)
#    0.000    1.750    1.250    3.000    1.750    4.500 
#    0.000    0.625    0.000    0.000    0.000    0.000 
#    0.000    0.000    0.000    0.000    0.000    0.000 
#
# Total GULP energy -396853.283205 kJ/mol
# GULP energy per Si atom -12401.665100 kJ/mol
# Density = 2.013052 g / cm^3
# Si number density = 20.176439 Si / 1000 Ang^3
#
#
#
# Elastic Constant Matrix: (Units=GPa)
#
#
# Indices 1 2 3 4 5 6 
#
# 1 136.4455 33.8754 60.8366 -0.0013 0.7397 0.0041
# 2 33.8754 51.8470 43.0952 0.0423 -0.7199 -0.0276
# 3 60.8366 43.0952 136.5676 0.0165 -12.7666 -0.0131
# 4 -0.0013 0.0423 0.0165 33.1777 -0.0066 -2.6393
# 5 0.7397 -0.7199 -12.7666 -0.0066 38.7970 0.0021
# 6 0.0041 -0.0276 -0.0131 -2.6393 0.0021 20.7458
#
#
#
# Elastic Compliance Matrix: (Units=1/GPa)
#
#
# Indices 1 2 3 4 5 6 
#
# 1 0.009709 -0.003610 -0.003311 0.000006 -0.001342 -0.000008
# 2 -0.003610 0.027688 -0.007299 -0.000030 -0.001819 0.000029
# 3 -0.003311 -0.007299 0.011446 0.000004 0.003694 -0.000002
# 4 0.000006 -0.000030 0.000004 0.030449 0.000006 0.003874
# 5 -0.001342 -0.001819 0.003694 0.000006 0.026983 -0.000002
# 6 -0.000008 0.000029 -0.000002 0.003874 -0.000002 0.048695
#
#
# Mechanical properties :
#
#
# Convention : Reuss Voigt Hill
#
# Bulk Modulus (GPa) = 49.01408 66.71942 57.86675
# Shear Modulus (GPa) = 26.28658 31.01429 28.65043
#
# Velocity S-wave (km/s) = 3.61340 3.92491 3.77237
# Velocity P-wave (km/s) = 6.46176 7.32664 6.90775
#
# Compressibility (1/GPa) = 0.02040230
#
# Stress axis : x y z
#
# Youngs Moduli (GPa) = 102.99928 36.11686 87.36572
#
# Poissons Ratio (x) = 0.13037 0.28929
# Poissons Ratio (y) = 0.37180 0.63770
# Poissons Ratio (z) = 0.34106 0.26362
#
# Static dielectric constant tensor:
#      x y z
#    x 3.902810 -0.000010 0.079290 
#    y -0.000010 3.503140 0.000020 
#    z 0.079290 0.000020 3.808670 
# 
# 
# High freq. dielectric constant tensor:
#      x y z
#    x 1.803640 0.000000 -0.000020 
#    y 0.000000 1.759590 0.000000 
#    z -0.000020 0.000000 1.800920 
# 
# From -- ./inp_files/295561.got.cif
#   From: 2010.06.25/outbox.cif.g09.slc.cpg/sg12_148_cif.got.tgz:295561.got - 2010.06.28 00:19:55.
