data_PCOD8094820
_publ_section_title
;
Structure prediction by ZEFSAII (Michael W. Deem and Ramdas Pophale) SiO2 
 PCOD8094820
Probable space group: C 2/M
;
_chemical_formula_sum "Si O2"
_cell_formula_units_Z 52
_cell_length_a 7.636285
_cell_length_b 22.290832
_cell_length_c 14.938673
_cell_angle_alpha 90.000000
_cell_angle_beta 87.708791
_cell_angle_gamma 90.000000
_cell_volume 2540.815258
_symmetry_space_group_name_H-M "C 2/M"
_symmetry_group_IT_number 12
_symmetry_cell_setting 'monoclinic'
loop_
_space_group_symop_operation_xyz
x,y,z
-x,y,-z
-x,-y,-z
x,-y,z
1/2+x,1/2+y,z
1/2-x,1/2+y,-z
1/2-x,1/2-y,-z
1/2+x,1/2-y,z
loop_
_atom_site_type_symbol
_atom_site_label
_atom_site_fract_x
_atom_site_fract_y
_atom_site_fract_z
Si Si1 0.141911 0.201480 0.339439
Si Si2 0.673974 0.069380 0.892904
Si Si3 0.265147 0.432368 0.377836
Si Si4 0.284443 0.928477 0.908476
Si Si5 0.519047 0.173887 0.392433
Si Si6 0.500000 0.626447 0.500000
Si Si7 0.500326 0.611518 0.781434
O O1 0.338393 0.177831 0.343395
O O2 0.142494 0.272884 0.352490
O O3 0.051347 0.179460 0.248291
O O4 0.029259 0.170873 0.418327
O O5 0.478209 0.091299 0.869606
O O6 0.816737 0.082365 0.814758
O O7 0.650914 0.000000 0.910051
O O8 0.735073 0.093818 0.988660
O O9 0.192963 0.500000 0.378985
O O10 0.104142 0.388545 0.359483
O O11 0.337038 0.415927 0.475767
O O12 0.422707 0.426519 0.303136
O O13 0.142244 0.889291 0.857496
O O14 0.247143 0.000000 0.895702
O O15 0.500000 0.178764 0.500000
#
# Coordination Sequence:
#
# PCOD8094820 Si02
#       7
#     8   8   8   8   8   4   8
#     4  11  23  39  64  92 112 160 212 264 310 364
#     4   9  18  34  58  88 125 173 218 247 300 373
#     4  11  24  38  58  89 126 163 198 252 319 378
#     4   9  18  34  58  88 126 172 214 254 298 368
#     4  12  23  44  68  85 116 159 219 269 311 365
#     4  10  19  40  58  84 117 160 208 244 306 370
#     4  11  22  35  56  90 131 162 201 257 313 356
#
# _framework density 20.465872999999998
#
# number of rings (size 3 to 8) (size 9 to 14) (size 15 to 20)
#    0.000    1.538    2.308    5.308    2.154    1.538 
#    0.000    1.538    0.000    0.000    0.000   17.231 
#    0.000    0.000    0.000    0.000    0.000    0.000 
#
# Total GULP energy -322266.582435 kJ/mol
# GULP energy per Si atom -12394.868555 kJ/mol
# Density = 2.041929 g / cm^3
# Si number density = 20.465873 Si / 1000 Ang^3
#
#
#
# Elastic Constant Matrix: (Units=GPa)
#
#
# Indices 1 2 3 4 5 6 
#
# 1 131.7214 55.6180 39.0613 0.0000 8.0643 0.0000
# 2 55.6180 127.1121 30.1755 0.0000 10.4431 0.0000
# 3 39.0613 30.1755 65.1129 0.0000 6.6987 0.0000
# 4 0.0000 0.0000 0.0000 18.5344 0.0000 -5.3609
# 5 8.0643 10.4431 6.6987 0.0000 26.4137 0.0000
# 6 0.0000 0.0000 0.0000 -5.3609 0.0000 8.6055
#
#
#
# Elastic Compliance Matrix: (Units=1/GPa)
#
#
# Indices 1 2 3 4 5 6 
#
# 1 0.010444 -0.003420 -0.004612 0.000000 -0.000667 0.000000
# 2 -0.003420 0.010126 -0.002399 0.000000 -0.002351 0.000000
# 3 -0.004612 -0.002399 0.019503 0.000000 -0.002589 0.000000
# 4 0.000000 0.000000 0.000000 0.065812 0.000000 0.040999
# 5 -0.000667 -0.002351 -0.002589 0.000000 0.039649 0.000000
# 6 0.000000 0.000000 0.000000 0.040999 0.000000 0.141746
#
#
# Mechanical properties :
#
#
# Convention : Reuss Voigt Hill
#
# Bulk Modulus (GPa) = 52.05403 63.73956 57.89679
# Shear Modulus (GPa) = 15.89585 23.98350 19.93968
#
# Velocity S-wave (km/s) = 2.78996 3.42698 3.12475
# Velocity P-wave (km/s) = 5.98901 6.84623 6.43192
#
# Compressibility (1/GPa) = 0.01921081
#
# Stress axis : x y z
#
# Youngs Moduli (GPa) = 95.74455 98.75245 51.27449
#
# Poissons Ratio (x) = 0.33777 0.23647
# Poissons Ratio (y) = 0.32748 0.12302
# Poissons Ratio (z) = 0.44157 0.23692
#
# Static dielectric constant tensor:
#      x y z
#    x 3.848260 0.000000 0.063540 
#    y 0.000000 3.592600 0.000000 
#    z 0.063540 0.000000 3.920750 
# 
# 
# High freq. dielectric constant tensor:
#      x y z
#    x 1.816700 0.000000 0.005350 
#    y 0.000000 1.766700 0.000000 
#    z 0.005350 0.000000 1.791010 
# 
# From -- ./inp_files/197991.got.cif
#   From: 2010.06.25/outbox.cif.g09.slc.cpg/sg12_99_cif.got.tgz:197991.got - 2010.06.28 00:19:55.
