data_PCOD8094171
_publ_section_title
;
Structure prediction by ZEFSAII (Michael W. Deem and Ramdas Pophale) SiO2 
 PCOD8094171
Probable space group: C 2/M
;
_chemical_formula_sum "Si O2"
_cell_formula_units_Z 52
_cell_length_a 17.163501
_cell_length_b 14.348672
_cell_length_c 19.332233
_cell_angle_alpha 90.000000
_cell_angle_beta 35.492502
_cell_angle_gamma 90.000000
_cell_volume 2764.228599
_symmetry_space_group_name_H-M "C 2/M"
_symmetry_group_IT_number 12
_symmetry_cell_setting 'monoclinic'
loop_
_space_group_symop_operation_xyz
x,y,z
-x,y,-z
-x,-y,-z
x,-y,z
1/2+x,1/2+y,z
1/2-x,1/2+y,-z
1/2-x,1/2-y,-z
1/2+x,1/2-y,z
loop_
_atom_site_type_symbol
_atom_site_label
_atom_site_fract_x
_atom_site_fract_y
_atom_site_fract_z
Si Si1 0.476463 0.319617 0.682554
Si Si2 0.256594 0.106218 0.499363
Si Si3 0.147391 0.500000 0.058653
Si Si4 0.834192 0.316070 0.298972
Si Si5 0.860943 0.500000 0.202490
Si Si6 0.876963 0.299473 0.875387
Si Si7 0.400729 0.192361 0.515695
Si Si8 0.302092 0.500000 0.810842
O O1 0.610585 0.354052 0.625607
O O2 0.396902 0.242568 0.784731
O O3 0.518001 0.276410 0.579206
O O4 0.384847 0.408015 0.732983
O O5 0.319969 0.165917 0.391624
O O6 0.355147 0.114737 0.493708
O O7 0.246457 0.000000 0.483179
O O8 0.151288 0.410652 0.106537
O O9 0.018902 0.500000 0.101743
O O10 0.269993 0.500000 0.915910
O O11 0.796443 0.408309 0.283669
O O12 0.731055 0.235197 0.351262
O O13 0.988611 0.283488 0.175253
O O14 0.829156 0.500000 0.143609
O O15 0.750000 0.250000 0.000000
O O16 0.500000 0.145597 0.500000
#
# Coordination Sequence:
#
# PCOD8094171 Si02
#       8
#     8   8   4   8   4   8   8   4
#     4  11  21  37  57  84 116 150 188 235 283 344
#     4  11  20  36  59  80 111 147 193 235 281 334
#     4  10  23  34  56  82 113 154 192 234 277 332
#     4  10  19  37  55  81 112 150 183 229 279 349
#     4  10  21  33  54  83 120 145 177 225 294 349
#     4  11  20  36  59  83 111 154 200 233 273 326
#     4  11  22  35  55  82 115 148 187 233 291 339
#     4  12  21  35  54  87 122 143 182 234 291 346
#
# _framework density 18.811758999999999
#
# number of rings (size 3 to 8) (size 9 to 14) (size 15 to 20)
#    0.000    1.231    6.154    2.077    0.000    0.308 
#    0.000    2.308    0.000    0.000    0.000    0.000 
#    0.000    9.846    0.000    0.000    0.000    0.000 
#
# Total GULP energy -322379.948745 kJ/mol
# GULP energy per Si atom -12399.228798 kJ/mol
# Density = 1.876894 g / cm^3
# Si number density = 18.811759 Si / 1000 Ang^3
#
#
#
# Elastic Constant Matrix: (Units=GPa)
#
#
# Indices 1 2 3 4 5 6 
#
# 1 89.0189 17.5787 16.2813 0.0001 -11.4072 0.0000
# 2 17.5787 81.9886 28.7599 0.0001 -10.6350 0.0000
# 3 16.2813 28.7599 90.3043 0.0003 -14.5403 0.0000
# 4 0.0001 0.0001 0.0003 24.0071 0.0000 -1.2900
# 5 -11.4072 -10.6350 -14.5403 0.0000 16.6712 -0.0001
# 6 0.0000 0.0000 0.0000 -1.2900 -0.0001 21.1974
#
#
#
# Elastic Compliance Matrix: (Units=1/GPa)
#
#
# Indices 1 2 3 4 5 6 
#
# 1 0.012560 -0.001556 -0.000634 0.000000 0.007048 0.000000
# 2 -0.001556 0.014415 -0.003491 0.000000 0.005086 0.000000
# 3 -0.000634 -0.003491 0.013811 0.000000 0.009385 0.000000
# 4 0.000000 0.000000 0.000000 0.041791 0.000000 0.002543
# 5 0.007048 0.005086 0.009385 0.000000 0.076236 0.000000
# 6 0.000000 0.000000 0.000000 0.002543 0.000000 0.047330
#
#
# Mechanical properties :
#
#
# Convention : Reuss Voigt Hill
#
# Bulk Modulus (GPa) = 33.98735 42.95017 38.46876
# Shear Modulus (GPa) = 21.99599 25.62126 23.80862
#
# Velocity S-wave (km/s) = 3.42317 3.69451 3.56142
# Velocity P-wave (km/s) = 5.80779 6.40939 6.11599
#
# Compressibility (1/GPa) = 0.02942271
#
# Stress axis : x y z
#
# Youngs Moduli (GPa) = 79.61742 69.37285 72.40627
#
# Poissons Ratio (x) = 0.10796 0.04590
# Poissons Ratio (y) = 0.12391 0.25280
# Poissons Ratio (z) = 0.05047 0.24221
#
# Static dielectric constant tensor:
#      x y z
#    x 3.196560 0.000000 -0.181720 
#    y 0.000000 3.462850 0.000000 
#    z -0.181720 0.000000 3.556600 
# 
# 
# High freq. dielectric constant tensor:
#      x y z
#    x 1.704310 0.000000 -0.013550 
#    y 0.000000 1.728470 0.000000 
#    z -0.013550 0.000000 1.733720 
# 
# From -- ./inp_files/155405.got.cif
#   From: 2010.06.25/outbox.cif.g09.slc.cpg/sg12_78_cif.got.tgz:155405.got - 2010.06.28 00:19:55.
