data_PCOD8094466
_publ_section_title
;
Structure prediction by ZEFSAII (Michael W. Deem and Ramdas Pophale) SiO2 
 PCOD8094466
Probable space group: C 2/M
;
_chemical_formula_sum "Si O2"
_cell_formula_units_Z 56
_cell_length_a 10.924489
_cell_length_b 30.216003
_cell_length_c 9.699408
_cell_angle_alpha 90.000000
_cell_angle_beta 116.133703
_cell_angle_gamma 90.000000
_cell_volume 2874.403967
_symmetry_space_group_name_H-M "C 2/M"
_symmetry_group_IT_number 12
_symmetry_cell_setting 'monoclinic'
loop_
_space_group_symop_operation_xyz
x,y,z
-x,y,-z
-x,-y,-z
x,-y,z
1/2+x,1/2+y,z
1/2-x,1/2+y,-z
1/2-x,1/2-y,-z
1/2+x,1/2-y,z
loop_
_atom_site_type_symbol
_atom_site_label
_atom_site_fract_x
_atom_site_fract_y
_atom_site_fract_z
Si Si1 0.275641 0.674754 0.590797
Si Si2 0.324417 0.127116 0.197682
Si Si3 0.201238 0.840668 0.866292
Si Si4 0.922121 0.325138 0.752688
Si Si5 0.979407 0.900925 0.640885
Si Si6 0.504166 0.269740 0.162667
Si Si7 0.628936 0.448691 0.157340
O O1 0.187791 0.650215 0.661863
O O2 0.175210 0.689514 0.420308
O O3 0.383142 0.641487 0.575823
O O4 0.351228 0.716357 0.698282
O O5 0.484167 0.131767 0.235013
O O6 0.267010 0.076960 0.180366
O O7 0.232572 0.152265 0.041485
O O8 0.339306 0.835943 0.849081
O O9 0.122065 0.883932 0.773092
O O10 0.114540 0.795485 0.813895
O O11 0.018747 0.282664 0.828972
O O12 0.911389 0.937464 0.705568
O O13 0.000000 0.922455 0.500000
O O14 0.500000 0.282870 0.000000
O O15 0.663660 0.500000 0.160001
O O16 0.500000 0.434686 0.000000
#
# Coordination Sequence:
#
# PCOD8094466 Si02
#       7
#     8   8   8   8   8   8   8
#     4  10  22  39  58  84 120 162 208 253 304 349
#     4  11  22  40  63  84 122 159 198 244 307 373
#     4  11  22  39  59  87 116 163 211 250 295 353
#     4  12  25  38  57  87 123 167 202 253 308 361
#     4  10  19  37  64  89 121 156 197 251 301 355
#     4  11  23  38  60  82 119 164 219 264 293 338
#     4  10  21  39  69  99 118 149 200 254 303 366
#
# _framework density 19.482301
#
# number of rings (size 3 to 8) (size 9 to 14) (size 15 to 20)
#    0.000    1.286    4.286    2.143    2.000    1.429 
#    2.571    0.000    0.000    9.429    0.000    0.000 
#    0.000    0.000    0.000    0.000    0.000    0.000 
#
# Total GULP energy -347194.479720 kJ/mol
# GULP energy per Si atom -12399.802847 kJ/mol
# Density = 1.943796 g / cm^3
# Si number density = 19.482301 Si / 1000 Ang^3
#
#
#
# Elastic Constant Matrix: (Units=GPa)
#
#
# Indices 1 2 3 4 5 6 
#
# 1 112.9247 47.1205 18.6091 0.0000 -8.6739 0.0000
# 2 47.1205 84.4401 16.3095 0.0000 -3.1300 0.0000
# 3 18.6091 16.3095 87.8055 0.0000 -11.5196 0.0000
# 4 0.0000 0.0000 0.0000 21.4608 0.0000 1.7651
# 5 -8.6739 -3.1300 -11.5196 0.0000 29.1024 0.0000
# 6 0.0000 0.0000 0.0000 1.7651 0.0000 24.7513
#
#
#
# Elastic Compliance Matrix: (Units=1/GPa)
#
#
# Indices 1 2 3 4 5 6 
#
# 1 0.011851 -0.006326 -0.001015 0.000000 0.002450 0.000000
# 2 -0.006326 0.015666 -0.001683 0.000000 -0.000867 0.000000
# 3 -0.001015 -0.001683 0.012502 0.000000 0.004465 0.000000
# 4 0.000000 0.000000 0.000000 0.046871 0.000000 -0.003343
# 5 0.002450 -0.000867 0.004465 0.000000 0.036766 0.000000
# 6 0.000000 0.000000 0.000000 -0.003343 0.000000 0.040640
#
#
# Mechanical properties :
#
#
# Convention : Reuss Voigt Hill
#
# Bulk Modulus (GPa) = 45.51536 49.91648 47.71592
# Shear Modulus (GPa) = 26.36181 28.60499 27.48340
#
# Velocity S-wave (km/s) = 3.68246 3.83594 3.75998
# Velocity P-wave (km/s) = 6.44157 6.73025 6.58749
#
# Compressibility (1/GPa) = 0.02197061
#
# Stress axis : x y z
#
# Youngs Moduli (GPa) = 84.38342 63.83302 79.98500
#
# Poissons Ratio (x) = 0.40382 0.08119
# Poissons Ratio (y) = 0.53383 0.13460
# Poissons Ratio (z) = 0.08566 0.10742
#
# Static dielectric constant tensor:
#      x y z
#    x 3.527710 0.000000 -0.006510 
#    y 0.000000 3.208090 0.000000 
#    z -0.006510 0.000000 3.666280 
# 
# 
# High freq. dielectric constant tensor:
#      x y z
#    x 1.756930 0.000000 -0.006660 
#    y 0.000000 1.722300 0.000000 
#    z -0.006660 0.000000 1.776510 
# 
# From -- ./inp_files/54821.got.cif
#   From: 2010.06.25/outbox.cif.g09.slc.cpg/sg12_28_cif.got.tgz:54821.got - 2010.06.28 00:19:55.
