data_PCOD8094788
_publ_section_title
;
Structure prediction by ZEFSAII (Michael W. Deem and Ramdas Pophale) SiO2 
 PCOD8094788
Probable space group: C 2/M
;
_chemical_formula_sum "Si O2"
_cell_formula_units_Z 56
_cell_length_a 14.025046
_cell_length_b 25.519689
_cell_length_c 8.277375
_cell_angle_alpha 90.000000
_cell_angle_beta 57.986863
_cell_angle_gamma 90.000000
_cell_volume 2512.063122
_symmetry_space_group_name_H-M "C 2/M"
_symmetry_group_IT_number 12
_symmetry_cell_setting 'monoclinic'
loop_
_space_group_symop_operation_xyz
x,y,z
-x,y,-z
-x,-y,-z
x,-y,z
1/2+x,1/2+y,z
1/2-x,1/2+y,-z
1/2-x,1/2-y,-z
1/2+x,1/2-y,z
loop_
_atom_site_type_symbol
_atom_site_label
_atom_site_fract_x
_atom_site_fract_y
_atom_site_fract_z
Si Si1 0.126645 0.061595 0.438517
Si Si2 0.893631 0.561721 0.701609
Si Si3 0.373555 0.211060 0.842935
Si Si4 0.670818 0.722719 0.831397
Si Si5 0.175358 0.383776 0.928832
Si Si6 0.710330 0.619272 0.669919
Si Si7 0.890445 0.678769 0.308533
O O1 0.213114 0.086990 0.234255
O O2 0.141897 0.084546 0.604487
O O3 0.000000 0.074187 0.500000
O O4 0.150880 0.000000 0.422390
O O5 0.892307 0.500000 0.695980
O O6 0.775602 0.581789 0.734701
O O7 0.000000 0.582469 0.500000
O O8 0.898742 0.579029 0.885378
O O9 0.307196 0.227302 0.741127
O O10 0.490905 0.181840 0.703302
O O11 0.393945 0.259571 0.946749
O O12 0.289644 0.168385 0.003659
O O13 0.631618 0.662620 0.829510
O O14 0.642152 0.762627 0.714792
O O15 0.099100 0.362954 0.848211
O O16 0.797578 0.658713 0.511224
#
# Coordination Sequence:
#
# PCOD8094788 Si02
#       7
#     8   8   8   8   8   8   8
#     4  10  23  45  66  87 120 165 215 263 313 366
#     4  11  23  38  62  98 129 157 200 259 318 371
#     4  10  20  38  62  89 126 165 196 250 310 374
#     4  10  20  36  57  88 125 160 200 245 298 366
#     4  10  19  39  65  89 122 164 206 248 309 374
#     4  11  22  40  62  92 121 161 208 258 308 368
#     4  10  22  39  63  92 124 167 207 246 309 377
#
# _framework density 22.292432000000002
#
# number of rings (size 3 to 8) (size 9 to 14) (size 15 to 20)
#    0.000    1.714    1.429    3.857    0.000    1.143 
#   12.857    0.714    0.000   11.143    0.000    0.000 
#    0.000    0.000    0.000    0.000    0.000    0.000 
#
# Total GULP energy -346959.595585 kJ/mol
# GULP energy per Si atom -12391.414128 kJ/mol
# Density = 2.224169 g / cm^3
# Si number density = 22.292432 Si / 1000 Ang^3
#
#
#
# Elastic Constant Matrix: (Units=GPa)
#
#
# Indices 1 2 3 4 5 6 
#
# 1 97.0515 36.6890 17.6134 0.0000 -8.7579 0.0000
# 2 36.6890 118.2104 35.0635 0.0000 -6.9420 0.0000
# 3 17.6134 35.0635 63.0758 0.0000 -1.4285 0.0000
# 4 0.0000 0.0000 0.0000 39.5640 0.0000 1.6832
# 5 -8.7579 -6.9420 -1.4285 0.0000 27.3333 0.0000
# 6 0.0000 0.0000 0.0000 1.6832 0.0000 26.7592
#
#
#
# Elastic Compliance Matrix: (Units=1/GPa)
#
#
# Indices 1 2 3 4 5 6 
#
# 1 0.012027 -0.003091 -0.001573 0.000000 0.002986 0.000000
# 2 -0.003091 0.011068 -0.005255 0.000000 0.001546 0.000000
# 3 -0.001573 -0.005255 0.019195 0.000000 -0.000835 0.000000
# 4 0.000000 0.000000 0.000000 0.025343 0.000000 -0.001594
# 5 0.002986 0.001546 -0.000835 0.000000 0.037891 0.000000
# 6 0.000000 0.000000 0.000000 -0.001594 0.000000 0.037471
#
#
# Mechanical properties :
#
#
# Convention : Reuss Voigt Hill
#
# Bulk Modulus (GPa) = 44.53515 50.78550 47.66032
# Shear Modulus (GPa) = 29.35697 31.32940 30.34319
#
# Velocity S-wave (km/s) = 3.63285 3.75291 3.69337
# Velocity P-wave (km/s) = 6.13334 6.45059 6.29396
#
# Compressibility (1/GPa) = 0.02245417
#
# Stress axis : x y z
#
# Youngs Moduli (GPa) = 83.14461 90.34826 52.09641
#
# Poissons Ratio (x) = 0.27927 0.08193
# Poissons Ratio (y) = 0.25701 0.27375
# Poissons Ratio (z) = 0.13075 0.47475
#
# Static dielectric constant tensor:
#      x y z
#    x 3.936780 0.000000 0.222770 
#    y 0.000000 4.218470 0.000000 
#    z 0.222770 0.000000 4.222380 
# 
# 
# High freq. dielectric constant tensor:
#      x y z
#    x 1.871860 0.000000 0.015060 
#    y 0.000000 1.888180 0.000000 
#    z 0.015060 0.000000 1.867260 
# 
# From -- ./inp_files/65728.got.cif
#   From: 2010.06.25/outbox.cif.g09.slc.cpg/sg12_33_cif.got.tgz:65728.got - 2010.06.28 00:19:55.
