data_PCOD8094482
_publ_section_title
;
Structure prediction by ZEFSAII (Michael W. Deem and Ramdas Pophale) SiO2 
 PCOD8094482
Probable space group: C 2/M
;
_chemical_formula_sum "Si O2"
_cell_formula_units_Z 64
_cell_length_a 17.457722
_cell_length_b 15.734099
_cell_length_c 13.630822
_cell_angle_alpha 90.000000
_cell_angle_beta 127.077616
_cell_angle_gamma 90.000000
_cell_volume 2987.144004
_symmetry_space_group_name_H-M "C 2/M"
_symmetry_group_IT_number 12
_symmetry_cell_setting 'monoclinic'
loop_
_space_group_symop_operation_xyz
x,y,z
-x,y,-z
-x,-y,-z
x,-y,z
1/2+x,1/2+y,z
1/2-x,1/2+y,-z
1/2-x,1/2-y,-z
1/2+x,1/2-y,z
loop_
_atom_site_type_symbol
_atom_site_label
_atom_site_fract_x
_atom_site_fract_y
_atom_site_fract_z
Si Si1 0.309480 0.099130 0.057727
Si Si2 0.826292 0.403231 0.293307
Si Si3 0.253762 0.590581 0.568535
Si Si4 0.558080 0.659948 0.350627
Si Si5 0.859451 0.772283 0.395668
Si Si6 0.341321 0.193409 0.662667
Si Si7 0.497387 0.900005 0.889002
Si Si8 0.853913 0.900212 0.213724
O O1 0.287512 0.118448 0.154958
O O2 0.413289 0.137277 0.105973
O O3 0.310732 0.000000 0.039411
O O4 0.224084 0.135941 0.924175
O O5 0.875019 0.500000 0.330545
O O6 0.741405 0.402649 0.308821
O O7 0.891049 0.320839 0.375650
O O8 0.207615 0.500000 0.504998
O O9 0.358205 0.591211 0.599741
O O10 0.184843 0.661060 0.467034
O O11 0.560228 0.697330 0.463776
O O12 0.579021 0.733782 0.288182
O O13 0.458534 0.615142 0.247974
O O14 0.753342 0.766882 0.362162
O O15 0.846878 0.845373 0.305795
O O16 0.392701 0.120415 0.764460
O O17 0.507253 0.000000 0.901287
O O18 0.500000 0.860695 0.000000
O O19 0.839604 0.000000 0.227154
#
# Coordination Sequence:
#
# PCOD8094482 Si02
#       8
#     8   8   8   8   8   8   8   8
#     4   9  21  42  63  88 123 162 212 261 306 373
#     4  10  20  39  64  90 124 168 211 255 314 376
#     4  10  19  37  65  88 120 167 207 254 319 373
#     4  11  22  40  58  93 131 158 207 264 306 378
#     4  11  22  40  65  91 129 162 208 260 319 374
#     4  11  21  38  58  94 125 159 206 261 314 377
#     4  10  21  39  62  88 121 158 206 265 315 369
#     4  11  25  43  65  92 125 169 213 262 322 375
#
# _framework density 21.425148
#
# number of rings (size 3 to 8) (size 9 to 14) (size 15 to 20)
#    0.000    1.625    2.500    2.625    1.750    5.000 
#    2.250    1.250    0.000    7.500    0.000    0.000 
#    0.000    0.000    0.000    0.000    0.000    0.000 
#
# Total GULP energy -396444.763780 kJ/mol
# GULP energy per Si atom -12388.898868 kJ/mol
# Density = 2.137638 g / cm^3
# Si number density = 21.425148 Si / 1000 Ang^3
#
#
#
# Elastic Constant Matrix: (Units=GPa)
#
#
# Indices 1 2 3 4 5 6 
#
# 1 59.3743 30.6160 49.4128 0.0000 -13.4966 0.0000
# 2 30.6160 95.6509 24.0503 0.0000 -7.2654 0.0000
# 3 49.4128 24.0503 109.2284 0.0000 0.5073 0.0000
# 4 0.0000 0.0000 0.0000 29.5425 0.0000 1.3230
# 5 -13.4966 -7.2654 0.5073 0.0000 34.8195 0.0000
# 6 0.0000 0.0000 0.0000 1.3230 0.0000 19.6782
#
#
#
# Elastic Compliance Matrix: (Units=1/GPa)
#
#
# Indices 1 2 3 4 5 6 
#
# 1 0.035186 -0.006668 -0.014507 0.000000 0.012459 0.000000
# 2 -0.006668 0.012526 0.000259 0.000000 0.000025 0.000000
# 3 -0.014507 0.000259 0.015688 0.000000 -0.005798 0.000000
# 4 0.000000 0.000000 0.000000 0.033952 0.000000 -0.002283
# 5 0.012459 0.000025 -0.005798 0.000000 0.033638 0.000000
# 6 0.000000 0.000000 0.000000 -0.002283 0.000000 0.050971
#
#
# Mechanical properties :
#
#
# Convention : Reuss Voigt Hill
#
# Bulk Modulus (GPa) = 46.36936 52.49020 49.42978
# Shear Modulus (GPa) = 21.64656 27.48634 24.56645
#
# Velocity S-wave (km/s) = 3.18202 3.58565 3.38985
# Velocity P-wave (km/s) = 5.93210 6.45717 6.20020
#
# Compressibility (1/GPa) = 0.02156597
#
# Stress axis : x y z
#
# Youngs Moduli (GPa) = 28.42046 79.83389 63.74365
#
# Poissons Ratio (x) = 0.53236 0.92473
# Poissons Ratio (y) = 0.18952 -0.01648
# Poissons Ratio (z) = 0.41230 -0.02064
#
# Static dielectric constant tensor:
#      x y z
#    x 3.995020 0.000000 -0.089080 
#    y 0.000000 4.028170 0.000000 
#    z -0.089080 0.000000 3.765620 
# 
# 
# High freq. dielectric constant tensor:
#      x y z
#    x 1.842030 0.000000 -0.016570 
#    y 0.000000 1.848720 0.000000 
#    z -0.016570 0.000000 1.821460 
# 
# From -- ./inp_files/225769.got.cif
#   From: 2010.06.25/outbox.cif.g09.slc.cpg/sg12_113_cif.got.tgz:225769.got - 2010.06.28 00:19:55.
