data_PCOD8094645
_publ_section_title
;
Structure prediction by ZEFSAII (Michael W. Deem and Ramdas Pophale) SiO2 
 PCOD8094645
Probable space group: C 2/M
;
_chemical_formula_sum "Si O2"
_cell_formula_units_Z 40
_cell_length_a 17.816246
_cell_length_b 16.943797
_cell_length_c 13.055986
_cell_angle_alpha 90.000000
_cell_angle_beta 28.763262
_cell_angle_gamma 90.000000
_cell_volume 1896.508235
_symmetry_space_group_name_H-M "C 2/M"
_symmetry_group_IT_number 12
_symmetry_cell_setting 'monoclinic'
loop_
_space_group_symop_operation_xyz
x,y,z
-x,y,-z
-x,-y,-z
x,-y,z
1/2+x,1/2+y,z
1/2-x,1/2+y,-z
1/2-x,1/2-y,-z
1/2+x,1/2-y,z
loop_
_atom_site_type_symbol
_atom_site_label
_atom_site_fract_x
_atom_site_fract_y
_atom_site_fract_z
Si Si1 0.046972 0.827106 0.056913
Si Si2 0.754808 0.158112 0.516798
Si Si3 0.649146 0.092120 0.252911
Si Si4 0.414753 0.838321 0.883879
Si Si5 0.318293 0.911439 0.193482
O O1 0.080062 0.753734 0.092721
O O2 0.901389 0.877174 0.278345
O O3 0.195631 0.884424 0.870203
O O4 0.000000 0.795920 0.000000
O O5 0.750000 0.250000 0.500000
O O6 0.588393 0.121892 0.680443
O O7 0.778266 0.141251 0.609821
O O8 0.500000 0.112526 0.500000
O O9 0.649556 0.147214 0.152233
O O10 0.652327 0.000000 0.219294
O O11 0.294875 0.880012 0.106215
O O12 0.254825 0.000000 0.277819
O O13 0.500000 0.904808 0.000000
#
# Coordination Sequence:
#
# PCOD8094645 Si02
#       5
#     8   8   8   8   8
#     4  11  22  39  63  89 117 153 200 250 297 351
#     4   9  18  33  57  88 118 150 191 241 296 354
#     4  11  25  42  59  84 122 165 203 242 294 356
#     4  10  19  38  63  88 115 150 197 247 299 351
#     4   9  17  30  53  84 114 145 184 233 289 346
#
# _framework density 21.091393
#
# number of rings (size 3 to 8) (size 9 to 14) (size 15 to 20)
#    0.000    2.000    0.000    5.400    0.000    3.600 
#    0.000    1.000    0.000    2.400    0.000    0.000 
#    0.000    0.000    0.000    0.000    0.000    0.000 
#
# Total GULP energy -247931.064521 kJ/mol
# GULP energy per Si atom -12396.553226 kJ/mol
# Density = 2.104339 g / cm^3
# Si number density = 21.091393 Si / 1000 Ang^3
#
#
#
# Elastic Constant Matrix: (Units=GPa)
#
#
# Indices 1 2 3 4 5 6 
#
# 1 96.1090 31.9256 44.0042 -0.0007 19.5538 0.0006
# 2 31.9256 78.3321 45.2845 -0.0006 15.3955 0.0005
# 3 44.0042 45.2845 145.4449 -0.0005 9.0025 0.0005
# 4 -0.0007 -0.0006 -0.0005 26.4262 0.0006 2.9798
# 5 19.5538 15.3955 9.0025 0.0006 40.2701 -0.0005
# 6 0.0006 0.0005 0.0005 2.9798 -0.0005 23.2425
#
#
#
# Elastic Compliance Matrix: (Units=1/GPa)
#
#
# Indices 1 2 3 4 5 6 
#
# 1 0.013716 -0.002935 -0.002934 0.000000 -0.004882 0.000000
# 2 -0.002935 0.017228 -0.004215 0.000000 -0.004219 0.000000
# 3 -0.002934 -0.004215 0.009012 0.000000 0.001021 0.000000
# 4 0.000000 0.000000 0.000000 0.038396 -0.000001 -0.004923
# 5 -0.004882 -0.004219 0.001021 -0.000001 0.028588 0.000001
# 6 0.000000 0.000000 0.000000 -0.004923 0.000001 0.043656
#
#
# Mechanical properties :
#
#
# Convention : Reuss Voigt Hill
#
# Bulk Modulus (GPa) = 50.53147 62.47940 56.50544
# Shear Modulus (GPa) = 28.19119 31.23253 29.71186
#
# Velocity S-wave (km/s) = 3.65995 3.85232 3.75736
# Velocity P-wave (km/s) = 6.47075 7.03382 6.75815
#
# Compressibility (1/GPa) = 0.01978965
#
# Stress axis : x y z
#
# Youngs Moduli (GPa) = 72.90566 58.04443 110.95991
#
# Poissons Ratio (x) = 0.17034 0.32555
# Poissons Ratio (y) = 0.21395 0.46770
# Poissons Ratio (z) = 0.21390 0.24466
#
# Static dielectric constant tensor:
#      x y z
#    x 3.626310 0.000000 0.011940 
#    y 0.000000 3.486980 0.000000 
#    z 0.011940 0.000000 4.510510 
# 
# 
# High freq. dielectric constant tensor:
#      x y z
#    x 1.805240 0.000000 0.018220 
#    y 0.000000 1.805120 0.000000 
#    z 0.018220 0.000000 1.838710 
# 
# From -- ./inp_files/158434.got.cif
#   From: 2010.06.25/outbox.cif.g09.slc.cpg/sg12_80_cif.got.tgz:158434.got - 2010.06.28 00:19:55.
