data_PCOD8094795
_publ_section_title
;
Structure prediction by ZEFSAII (Michael W. Deem and Ramdas Pophale) SiO2 
 PCOD8094795
Probable space group: C 2/M
;
_chemical_formula_sum "Si O2"
_cell_formula_units_Z 48
_cell_length_a 13.061211
_cell_length_b 26.686104
_cell_length_c 10.670734
_cell_angle_alpha 90.000000
_cell_angle_beta 144.997381
_cell_angle_gamma 90.000000
_cell_volume 2133.450470
_symmetry_space_group_name_H-M "C 2/M"
_symmetry_group_IT_number 12
_symmetry_cell_setting 'monoclinic'
loop_
_space_group_symop_operation_xyz
x,y,z
-x,y,-z
-x,-y,-z
x,-y,z
1/2+x,1/2+y,z
1/2-x,1/2+y,-z
1/2-x,1/2-y,-z
1/2+x,1/2-y,z
loop_
_atom_site_type_symbol
_atom_site_label
_atom_site_fract_x
_atom_site_fract_y
_atom_site_fract_z
Si Si1 0.600906 0.892952 0.217151
Si Si2 0.048168 0.942316 0.407615
Si Si3 0.480027 0.627237 0.115654
Si Si4 0.135261 0.667786 0.857634
Si Si5 0.721721 0.211434 0.581240
Si Si6 0.290706 0.698908 0.273233
O O1 0.742700 0.933668 0.406150
O O2 0.462293 0.882595 0.189697
O O3 0.687336 0.839922 0.260367
O O4 0.500000 0.918639 0.000000
O O5 0.000000 0.923075 0.500000
O O6 0.949470 0.910728 0.200857
O O7 0.995143 0.000000 0.338329
O O8 0.648458 0.663800 0.306698
O O9 0.500000 0.600053 0.000000
O O10 0.292547 0.656483 0.916999
O O11 0.988194 0.698162 0.632573
O O12 0.226235 0.695878 0.065965
O O13 0.750000 0.250000 0.500000
O O14 0.759792 0.243656 0.744235
O O15 0.500000 0.687193 0.500000
#
# Coordination Sequence:
#
# PCOD8094795 Si02
#       6
#     8   8   8   8   8   8
#     4  10  19  39  66 100 139 177 226 286 350 405
#     4  11  23  46  79 109 135 172 231 294 356 427
#     4  12  29  47  70 102 144 190 233 290 360 418
#     4  11  24  44  66  90 140 192 230 285 339 408
#     4  12  25  41  63  99 142 189 246 282 340 407
#     4  11  23  38  65  97 139 187 235 293 338 396
#
# _framework density 22.498764999999999
#
# number of rings (size 3 to 8) (size 9 to 14) (size 15 to 20)
#    0.000    0.833    3.333    4.500    4.667    2.000 
#    0.000    0.833    0.000    1.000    0.000    0.000 
#    0.000    0.000    0.000    0.000    0.000    0.000 
#
# Total GULP energy -297537.093832 kJ/mol
# GULP energy per Si atom -12397.378910 kJ/mol
# Density = 2.244756 g / cm^3
# Si number density = 22.498765 Si / 1000 Ang^3
#
#
#
# Elastic Constant Matrix: (Units=GPa)
#
#
# Indices 1 2 3 4 5 6 
#
# 1 120.5436 35.8273 42.9777 0.0000 -8.9612 0.0000
# 2 35.8273 79.2024 26.1386 0.0000 -5.7495 0.0000
# 3 42.9777 26.1386 97.3245 0.0000 21.1970 0.0000
# 4 0.0000 0.0000 0.0000 28.8734 0.0000 -5.8212
# 5 -8.9612 -5.7495 21.1970 0.0000 39.2722 0.0000
# 6 0.0000 0.0000 0.0000 -5.8212 0.0000 22.1091
#
#
#
# Elastic Compliance Matrix: (Units=1/GPa)
#
#
# Indices 1 2 3 4 5 6 
#
# 1 0.011492 -0.003064 -0.005355 0.000000 0.005064 0.000000
# 2 -0.003064 0.015436 -0.003550 0.000000 0.003477 0.000000
# 3 -0.005355 -0.003550 0.015834 0.000000 -0.010288 0.000000
# 4 0.000000 0.000000 0.000000 0.036575 0.000000 0.009630
# 5 0.005064 0.003477 -0.010288 0.000000 0.032681 0.000000
# 6 0.000000 0.000000 0.000000 0.009630 0.000000 0.047766
#
#
# Mechanical properties :
#
#
# Convention : Reuss Voigt Hill
#
# Bulk Modulus (GPa) = 53.12259 56.32864 54.72562
# Shear Modulus (GPa) = 26.31650 30.85939 28.58794
#
# Velocity S-wave (km/s) = 3.42378 3.70753 3.56848
# Velocity P-wave (km/s) = 6.26835 6.58927 6.43081
#
# Compressibility (1/GPa) = 0.01882438
#
# Stress axis : x y z
#
# Youngs Moduli (GPa) = 87.01745 64.78511 63.15656
#
# Poissons Ratio (x) = 0.19847 0.33820
# Poissons Ratio (y) = 0.26658 0.22421
# Poissons Ratio (z) = 0.46597 0.22999
#
# Static dielectric constant tensor:
#      x y z
#    x 4.989870 0.000000 0.401300 
#    y 0.000000 3.722500 0.000000 
#    z 0.401300 0.000000 4.536020 
# 
# 
# High freq. dielectric constant tensor:
#      x y z
#    x 1.899010 0.000000 0.005600 
#    y 0.000000 1.842130 0.000000 
#    z 0.005600 0.000000 1.904150 
# 
# From -- ./inp_files/149849.got.cif
#   From: 2010.06.25/outbox.cif.g09.slc.cpg/sg12_75_cif.got.tgz:149849.got - 2010.06.28 00:19:55.
