data_PCOD8094260
_publ_section_title
;
Structure prediction by ZEFSAII (Michael W. Deem and Ramdas Pophale) SiO2 
 PCOD8094260
Probable space group: C 2/M
;
_chemical_formula_sum "Si O2"
_cell_formula_units_Z 64
_cell_length_a 23.841852
_cell_length_b 9.325951
_cell_length_c 30.483227
_cell_angle_alpha 90.000000
_cell_angle_beta 151.354569
_cell_angle_gamma 90.000000
_cell_volume 3249.234870
_symmetry_space_group_name_H-M "C 2/M"
_symmetry_group_IT_number 12
_symmetry_cell_setting 'monoclinic'
loop_
_space_group_symop_operation_xyz
x,y,z
-x,y,-z
-x,-y,-z
x,-y,z
1/2+x,1/2+y,z
1/2-x,1/2+y,-z
1/2-x,1/2-y,-z
1/2+x,1/2-y,z
loop_
_atom_site_type_symbol
_atom_site_label
_atom_site_fract_x
_atom_site_fract_y
_atom_site_fract_z
Si Si1 0.853396 0.342177 0.808763
Si Si2 0.248212 0.667403 0.910058
Si Si3 0.341827 0.159272 0.359877
Si Si4 0.869381 0.663306 0.917685
Si Si5 0.081091 0.336643 0.488094
Si Si6 0.738862 0.172595 0.445784
Si Si7 0.006831 0.665739 0.236559
Si Si8 0.419768 0.166738 0.083556
O O1 0.829742 0.500000 0.773994
O O2 0.778136 0.241092 0.727122
O O3 0.811538 0.330226 0.830072
O O4 0.991591 0.310025 0.896637
O O5 0.278741 0.500000 0.932886
O O6 0.295959 0.733992 0.898179
O O7 0.108922 0.693703 0.813971
O O8 0.304515 0.742627 0.991709
O O9 0.367036 0.162414 0.428132
O O10 0.447528 0.219649 0.402067
O O11 0.319703 0.000000 0.328034
O O12 0.870452 0.500000 0.937168
O O13 0.000000 0.720991 0.000000
O O14 0.086883 0.500000 0.472871
O O15 0.148925 0.223662 0.504681
O O16 0.750000 0.250000 0.500000
O O17 0.620717 0.229439 0.339771
O O18 0.740168 0.000000 0.452265
O O19 0.033587 0.500000 0.248930
O O20 0.981605 0.727885 0.170281
O O21 0.383784 0.000000 0.065329
#
# Coordination Sequence:
#
# PCOD8094260 Si02
#       8
#     8   8   8   8   8   8   8   8
#     4  10  20  33  55  83 110 144 192 235 273 329
#     4  11  22  36  56  85 115 147 189 235 279 331
#     4   9  19  35  57  84 116 149 182 229 288 339
#     4  10  20  38  56  73 105 150 188 220 268 328
#     4   9  19  38  59  82 114 150 185 227 284 344
#     4  11  23  41  63  85 113 151 193 238 287 341
#     4   9  21  39  59  83 113 148 187 230 283 339
#     4  10  19  37  60  81 112 153 188 228 281 333
#
# _framework density 19.696943999999998
#
# number of rings (size 3 to 8) (size 9 to 14) (size 15 to 20)
#    0.000    2.125    1.250    2.625    0.000    4.250 
#    0.000    9.375    0.000    0.000    0.000    0.000 
#    0.000    0.000    0.000    0.000    0.000    0.000 
#
# Total GULP energy -396635.463263 kJ/mol
# GULP energy per Si atom -12394.858227 kJ/mol
# Density = 1.965211 g / cm^3
# Si number density = 19.696944 Si / 1000 Ang^3
#
#
#
# Elastic Constant Matrix: (Units=GPa)
#
#
# Indices 1 2 3 4 5 6 
#
# 1 99.4279 36.4320 10.1801 0.0002 1.6086 0.0000
# 2 36.4320 72.6890 25.4614 0.0004 3.7814 0.0001
# 3 10.1801 25.4614 57.6256 -0.0003 -0.7484 0.0002
# 4 0.0002 0.0004 -0.0003 30.4352 -0.0002 -2.4347
# 5 1.6086 3.7814 -0.7484 -0.0002 20.5008 0.0001
# 6 0.0000 0.0001 0.0002 -2.4347 0.0001 29.8070
#
#
#
# Elastic Compliance Matrix: (Units=1/GPa)
#
#
# Indices 1 2 3 4 5 6 
#
# 1 0.012342 -0.006431 0.000664 0.000000 0.000242 0.000000
# 2 -0.006431 0.019849 -0.007679 0.000000 -0.003437 0.000000
# 3 0.000664 -0.007679 0.020656 0.000000 0.002118 0.000000
# 4 0.000000 0.000000 0.000000 0.033073 0.000000 0.002701
# 5 0.000242 -0.003437 0.002118 0.000000 0.049471 0.000000
# 6 0.000000 0.000000 0.000000 0.002701 0.000000 0.033770
#
#
# Mechanical properties :
#
#
# Convention : Reuss Voigt Hill
#
# Bulk Modulus (GPa) = 38.52604 41.54328 40.03466
# Shear Modulus (GPa) = 24.42553 26.65989 25.54271
#
# Velocity S-wave (km/s) = 3.52528 3.68299 3.60500
# Velocity P-wave (km/s) = 6.01431 6.26282 6.13982
#
# Compressibility (1/GPa) = 0.02595647
#
# Stress axis : x y z
#
# Youngs Moduli (GPa) = 81.02350 50.38023 48.41144
#
# Poissons Ratio (x) = 0.32401 -0.03216
# Poissons Ratio (y) = 0.52108 0.37173
# Poissons Ratio (z) = -0.05383 0.38685
#
# Static dielectric constant tensor:
#      x y z
#    x 3.474940 0.000000 -0.260760 
#    y 0.000000 3.482270 0.000000 
#    z -0.260760 0.000000 3.190670 
# 
# 
# High freq. dielectric constant tensor:
#      x y z
#    x 1.776840 0.000000 0.000730 
#    y 0.000000 1.747910 0.000000 
#    z 0.000730 0.000000 1.766630 
# 
# From -- ./inp_files/382405.got.cif
#   From: 2010.06.25/outbox.cif.g09.slc.cpg/sg12_192_cif.got.tgz:382405.got - 2010.06.28 00:19:55.
