data_PCOD8094388
_publ_section_title
;
Structure prediction by ZEFSAII (Michael W. Deem and Ramdas Pophale) SiO2 
 PCOD8094388
Probable space group: C 2/M
;
_chemical_formula_sum "Si O2"
_cell_formula_units_Z 64
_cell_length_a 9.815062
_cell_length_b 19.555140
_cell_length_c 26.019659
_cell_angle_alpha 90.000000
_cell_angle_beta 137.930084
_cell_angle_gamma 90.000000
_cell_volume 3346.218722
_symmetry_space_group_name_H-M "C 2/M"
_symmetry_group_IT_number 12
_symmetry_cell_setting 'monoclinic'
loop_
_space_group_symop_operation_xyz
x,y,z
-x,y,-z
-x,-y,-z
x,-y,z
1/2+x,1/2+y,z
1/2-x,1/2+y,-z
1/2-x,1/2-y,-z
1/2+x,1/2-y,z
loop_
_atom_site_type_symbol
_atom_site_label
_atom_site_fract_x
_atom_site_fract_y
_atom_site_fract_z
Si Si1 0.664344 0.576216 0.772819
Si Si2 0.733633 0.423300 0.678476
Si Si3 0.569664 0.783955 0.667607
Si Si4 0.864441 0.202602 0.411944
Si Si5 0.272585 0.422986 0.731800
Si Si6 0.699463 0.076900 0.826022
Si Si7 0.367861 0.214325 0.829860
Si Si8 0.802204 0.795879 0.912449
O O1 0.751563 0.500000 0.809649
O O2 0.606581 0.579973 0.696182
O O3 0.471338 0.591809 0.754083
O O4 0.832380 0.633769 0.830451
O O5 0.733676 0.500000 0.655773
O O6 0.628894 0.374533 0.607823
O O7 0.965934 0.399052 0.753362
O O8 0.363499 0.772676 0.640883
O O9 0.542206 0.754359 0.603153
O O10 0.608378 0.865258 0.672007
O O11 0.749704 0.742656 0.746681
O O12 0.000000 0.205465 0.500000
O O13 0.188083 0.500000 0.696689
O O14 0.321225 0.416617 0.806238
O O15 0.803760 0.124010 0.898146
O O16 0.706615 0.000000 0.849383
O O17 0.607718 0.225388 0.891338
O O18 0.287821 0.254802 0.855945
O O19 0.000000 0.776415 0.000000
#
# Coordination Sequence:
#
# PCOD8094388 Si02
#       8
#     8   8   8   8   8   8   8   8
#     4  10  20  35  61  91 114 144 199 253 287 333
#     4  10  19  37  62  87 115 153 202 245 286 352
#     4  12  22  40  63  86 114 159 204 245 288 354
#     4  12  25  39  57  89 125 156 191 248 312 354
#     4  10  20  35  61  91 114 144 199 253 287 333
#     4  10  19  37  62  87 115 153 202 245 286 352
#     4  12  22  40  63  86 114 159 204 245 288 354
#     4  12  25  39  57  89 125 156 191 248 312 354
#
# _framework density 19.126066999999999
#
# number of rings (size 3 to 8) (size 9 to 14) (size 15 to 20)
#    0.000    1.000    5.000    3.000    0.000    0.500 
#    0.000    0.000    0.000    0.750    0.000    0.000 
#    0.000    0.000    0.000    0.000    0.000    0.000 
#
# Total GULP energy -396834.371283 kJ/mol
# GULP energy per Si atom -12401.074103 kJ/mol
# Density = 1.908254 g / cm^3
# Si number density = 19.126067 Si / 1000 Ang^3
#
#
#
# Elastic Constant Matrix: (Units=GPa)
#
#
# Indices 1 2 3 4 5 6 
#
# 1 108.9484 16.3393 3.6081 -0.0002 -1.5495 0.0014
# 2 16.3393 100.5144 16.0883 0.0000 1.5095 0.0005
# 3 3.6081 16.0883 54.0030 -0.0003 -0.6164 0.0012
# 4 -0.0002 0.0000 -0.0003 18.9104 -0.0002 -0.4629
# 5 -1.5495 1.5095 -0.6164 -0.0002 23.1621 0.0009
# 6 0.0014 0.0005 0.0012 -0.4629 0.0009 25.9198
#
#
#
# Elastic Compliance Matrix: (Units=1/GPa)
#
#
# Indices 1 2 3 4 5 6 
#
# 1 0.009422 -0.001515 -0.000170 0.000000 0.000725 0.000000
# 2 -0.001515 0.010704 -0.003098 0.000000 -0.000881 0.000000
# 3 -0.000170 -0.003098 0.019460 0.000000 0.000708 -0.000001
# 4 0.000000 0.000000 0.000000 0.052904 0.000000 0.000945
# 5 0.000725 -0.000881 0.000708 0.000000 0.043299 -0.000002
# 6 0.000000 0.000000 -0.000001 0.000945 -0.000002 0.038597
#
#
# Mechanical properties :
#
#
# Convention : Reuss Voigt Hill
#
# Bulk Modulus (GPa) = 33.31100 37.28192 35.29646
# Shear Modulus (GPa) = 25.77870 28.76046 27.26958
#
# Velocity S-wave (km/s) = 3.67526 3.88200 3.78005
# Velocity P-wave (km/s) = 5.95520 6.29510 6.12751
#
# Compressibility (1/GPa) = 0.03002012
#
# Stress axis : x y z
#
# Youngs Moduli (GPa) = 106.13640 93.42124 51.38802
#
# Poissons Ratio (x) = 0.14156 0.00873
# Poissons Ratio (y) = 0.16083 0.15919
# Poissons Ratio (z) = 0.01802 0.28940
#
# Static dielectric constant tensor:
#      x y z
#    x 3.774190 0.000000 -0.116270 
#    y 0.000000 3.812690 0.000000 
#    z -0.116270 0.000000 3.025410 
# 
# 
# High freq. dielectric constant tensor:
#      x y z
#    x 1.767980 0.000000 -0.013440 
#    y 0.000000 1.764660 0.000000 
#    z -0.013440 0.000000 1.689400 
# 
# From -- ./inp_files/333744.got.cif
#   From: 2010.06.25/outbox.cif.g09.slc.cpg/sg12_167_cif.got.tgz:333744.got - 2010.06.28 00:19:55.
