data_PCOD8094229
_publ_section_title
;
Structure prediction by ZEFSAII (Michael W. Deem and Ramdas Pophale) SiO2 
 PCOD8094229
Probable space group: C 2/M
;
_chemical_formula_sum "Si O2"
_cell_formula_units_Z 40
_cell_length_a 13.204539
_cell_length_b 17.731197
_cell_length_c 19.727236
_cell_angle_alpha 90.000000
_cell_angle_beta 152.330269
_cell_angle_gamma 90.000000
_cell_volume 2144.843715
_symmetry_space_group_name_H-M "C 2/M"
_symmetry_group_IT_number 12
_symmetry_cell_setting 'monoclinic'
loop_
_space_group_symop_operation_xyz
x,y,z
-x,y,-z
-x,-y,-z
x,-y,z
1/2+x,1/2+y,z
1/2-x,1/2+y,-z
1/2-x,1/2-y,-z
1/2+x,1/2-y,z
loop_
_atom_site_type_symbol
_atom_site_label
_atom_site_fract_x
_atom_site_fract_y
_atom_site_fract_z
Si Si1 0.873216 0.152659 0.626295
Si Si2 0.918140 0.196663 0.800202
Si Si3 0.885201 0.648663 0.116215
Si Si4 0.861938 0.000000 0.219054
Si Si5 0.482248 0.000000 0.101241
Si Si6 0.063979 0.307860 0.703081
O O1 0.807950 0.168378 0.665457
O O2 0.654951 0.152797 0.452864
O O3 0.987861 0.072983 0.685527
O O4 0.035700 0.218212 0.696715
O O5 0.758910 0.177386 0.766992
O O6 0.962375 0.285838 0.823745
O O7 0.143601 0.152578 0.942701
O O8 0.993103 0.571457 0.156734
O O9 0.870950 0.652154 0.188663
O O10 0.694778 0.000000 0.181376
O O11 0.736061 0.000000 0.073211
#
# Coordination Sequence:
#
# PCOD8094229 Si02
#       6
#     8   8   8   4   4   8
#     4  10  21  38  58  86 115 149 195 230 278 348
#     4  10  19  37  59  84 113 153 192 231 279 334
#     4  10  21  36  58  87 115 144 195 237 276 336
#     4  11  22  39  62  84 113 150 189 235 288 338
#     4  11  22  39  60  86 115 146 187 243 288 330
#     4  10  21  37  59  84 117 151 187 238 283 329
#
# _framework density 18.649376
#
# number of rings (size 3 to 8) (size 9 to 14) (size 15 to 20)
#    0.000    1.800    2.000    2.400    0.000    0.800 
#    0.000   10.000    0.000    0.000    0.000    0.000 
#    0.000    0.000    0.000    0.000    0.000    0.000 
#
# Total GULP energy -248091.692812 kJ/mol
# GULP energy per Si atom -12404.584641 kJ/mol
# Density = 1.860693 g / cm^3
# Si number density = 18.649376 Si / 1000 Ang^3
#
#
#
# Elastic Constant Matrix: (Units=GPa)
#
#
# Indices 1 2 3 4 5 6 
#
# 1 86.8214 42.5569 6.6411 -0.0002 -0.3369 -0.0018
# 2 42.5569 130.6361 38.6193 0.0093 10.2071 0.0017
# 3 6.6411 38.6193 44.3863 0.0129 -11.3619 0.0016
# 4 -0.0002 0.0093 0.0129 19.1986 0.0016 -1.1003
# 5 -0.3369 10.2071 -11.3619 0.0016 19.0835 -0.0009
# 6 -0.0018 0.0017 0.0016 -1.1003 -0.0009 13.3074
#
#
#
# Elastic Compliance Matrix: (Units=1/GPa)
#
#
# Indices 1 2 3 4 5 6 
#
# 1 0.014570 -0.007093 0.005932 -0.000001 0.007583 0.000003
# 2 -0.007093 0.017327 -0.019371 0.000006 -0.020926 -0.000002
# 3 0.005932 -0.019371 0.048579 -0.000026 0.039389 -0.000002
# 4 -0.000001 0.000006 -0.000026 0.052335 -0.000023 0.004327
# 5 0.007583 -0.020926 0.039389 -0.000023 0.087179 0.000003
# 6 0.000003 -0.000002 -0.000002 0.004327 0.000003 0.075504
#
#
# Mechanical properties :
#
#
# Convention : Reuss Voigt Hill
#
# Bulk Modulus (GPa) = 25.37254 48.60871 36.99062
# Shear Modulus (GPa) = 14.29814 21.91965 18.10889
#
# Velocity S-wave (km/s) = 2.77191 3.43207 3.11950
# Velocity P-wave (km/s) = 4.88663 6.46734 5.73174
#
# Compressibility (1/GPa) = 0.03941268
#
# Stress axis : x y z
#
# Youngs Moduli (GPa) = 68.63364 57.71315 20.58499
#
# Poissons Ratio (x) = 0.40934 -0.12211
# Poissons Ratio (y) = 0.48679 0.39876
# Poissons Ratio (z) = -0.40714 1.11798
#
# Static dielectric constant tensor:
#      x y z
#    x 3.366370 0.000000 -0.170650 
#    y 0.000000 3.329540 -0.000010 
#    z -0.170650 -0.000010 3.440510 
# 
# 
# High freq. dielectric constant tensor:
#      x y z
#    x 1.731630 0.000000 -0.009190 
#    y 0.000000 1.717150 0.000000 
#    z -0.009190 0.000000 1.728740 
# 
# From -- ./inp_files/47193.got.cif
#   From: 2010.06.25/outbox.cif.g09.slc.cpg/sg12_24_cif.got.tgz:47193.got - 2010.06.28 00:19:55.
