data_PCOD8094396
_publ_section_title
;
Structure prediction by ZEFSAII (Michael W. Deem and Ramdas Pophale) SiO2 
 PCOD8094396
Probable space group: C 2/M
;
_chemical_formula_sum "Si O2"
_cell_formula_units_Z 64
_cell_length_a 15.467950
_cell_length_b 8.666115
_cell_length_c 28.451164
_cell_angle_alpha 90.000000
_cell_angle_beta 57.311474
_cell_angle_gamma 90.000000
_cell_volume 3209.761427
_symmetry_space_group_name_H-M "C 2/M"
_symmetry_group_IT_number 12
_symmetry_cell_setting 'monoclinic'
loop_
_space_group_symop_operation_xyz
x,y,z
-x,y,-z
-x,-y,-z
x,-y,z
1/2+x,1/2+y,z
1/2-x,1/2+y,-z
1/2-x,1/2-y,-z
1/2+x,1/2-y,z
loop_
_atom_site_type_symbol
_atom_site_label
_atom_site_fract_x
_atom_site_fract_y
_atom_site_fract_z
Si Si1 0.856517 0.318575 0.176757
Si Si2 0.463905 0.681694 0.825691
Si Si3 0.277100 0.182834 0.441688
Si Si4 0.093403 0.317610 0.438981
Si Si5 0.365923 0.182078 0.762052
Si Si6 0.911444 0.317594 0.058823
Si Si7 0.491403 0.817387 0.634894
Si Si8 0.778944 0.181118 0.942090
O O1 0.832129 0.500000 0.184482
O O2 0.751829 0.225042 0.211597
O O3 0.917421 0.267644 0.111470
O O4 0.928830 0.271423 0.199134
O O5 0.484110 0.500000 0.819628
O O6 0.411722 0.728102 0.792596
O O7 0.390287 0.731436 0.890679
O O8 0.250000 0.250000 0.500000
O O9 0.198768 0.239299 0.424757
O O10 0.391508 0.242239 0.395229
O O11 0.273193 0.000000 0.445966
O O12 0.110490 0.500000 0.435094
O O13 0.064976 0.254748 0.395471
O O14 0.000000 0.268662 0.500000
O O15 0.428807 0.240337 0.698347
O O16 0.376982 0.000000 0.766792
O O17 0.919975 0.500000 0.052466
O O18 0.802410 0.257667 0.072116
O O19 0.000000 0.241768 0.000000
O O20 0.492018 0.000000 0.631507
O O21 0.771129 0.000000 0.949334
O O22 0.750000 0.250000 0.000000
#
# Coordination Sequence:
#
# PCOD8094396 Si02
#       8
#     8   8   8   8   8   8   8   8
#     4  11  22  40  64  89 120 159 204 253 308 364
#     4  11  23  41  62  88 123 162 206 254 303 362
#     4  11  21  37  60  90 124 159 201 247 298 356
#     4  10  19  37  62  87 121 162 197 241 302 357
#     4  11  23  42  65  89 122 164 208 252 302 361
#     4   9  17  32  55  82 115 151 189 238 300 361
#     4   9  21  40  61  87 123 162 200 245 299 359
#     4  10  20  35  55  84 120 155 194 248 305 365
#
# _framework density 19.939177999999998
#
# number of rings (size 3 to 8) (size 9 to 14) (size 15 to 20)
#    0.000    1.750    2.500    2.250    0.000    3.250 
#    0.000    6.250    0.000    2.625    0.000    0.000 
#    0.000    0.000    0.000    0.000    0.000    0.000 
#
# Total GULP energy -396799.395701 kJ/mol
# GULP energy per Si atom -12399.981116 kJ/mol
# Density = 1.989380 g / cm^3
# Si number density = 19.939178 Si / 1000 Ang^3
#
#
#
# Elastic Constant Matrix: (Units=GPa)
#
#
# Indices 1 2 3 4 5 6 
#
# 1 150.3512 21.3612 54.7207 0.0000 -9.1652 0.0000
# 2 21.3612 34.7898 25.3491 0.0000 -0.0945 -0.0001
# 3 54.7207 25.3491 134.6594 0.0000 -2.7236 0.0000
# 4 0.0000 0.0000 0.0000 21.3860 0.0000 0.5265
# 5 -9.1652 -0.0945 -2.7236 0.0000 31.2570 0.0000
# 6 0.0000 -0.0001 0.0000 0.5265 0.0000 34.9548
#
#
#
# Elastic Compliance Matrix: (Units=1/GPa)
#
#
# Indices 1 2 3 4 5 6 
#
# 1 0.008205 -0.003053 -0.002716 0.000000 0.002160 0.000000
# 2 -0.003053 0.034456 -0.005271 0.000000 -0.001250 0.000000
# 3 -0.002716 -0.005271 0.009522 0.000000 0.000017 0.000000
# 4 0.000000 0.000000 0.000000 0.046777 0.000000 -0.000705
# 5 0.002160 -0.001250 0.000017 0.000000 0.032624 0.000000
# 6 0.000000 0.000000 0.000000 -0.000705 0.000000 0.028619
#
#
# Mechanical properties :
#
#
# Convention : Reuss Voigt Hill
#
# Bulk Modulus (GPa) = 33.21859 58.07359 45.64609
# Shear Modulus (GPa) = 25.99876 32.07754 29.03815
#
# Velocity S-wave (km/s) = 3.61488 4.01530 3.82034
# Velocity P-wave (km/s) = 5.84117 7.11937 6.51171
#
# Compressibility (1/GPa) = 0.03010362
#
# Stress axis : x y z
#
# Youngs Moduli (GPa) = 121.87747 29.02262 105.01699
#
# Poissons Ratio (x) = 0.08861 0.28520
# Poissons Ratio (y) = 0.37212 0.55352
# Poissons Ratio (z) = 0.33099 0.15297
#
# Static dielectric constant tensor:
#      x y z
#    x 4.081950 0.000000 -0.083610 
#    y 0.000000 3.345310 0.000000 
#    z -0.083610 0.000000 3.828800 
# 
# 
# High freq. dielectric constant tensor:
#      x y z
#    x 1.795150 0.000000 -0.002620 
#    y 0.000000 1.755160 0.000000 
#    z -0.002620 0.000000 1.779510 
# 
# From -- ./inp_files/375475.got.cif
#   From: 2010.06.25/outbox.cif.g09.slc.cpg/sg12_188_cif.got.tgz:375475.got - 2010.06.28 00:19:55.
