data_PCOD8094854
_publ_section_title
;
Structure prediction by ZEFSAII (Michael W. Deem and Ramdas Pophale) SiO2 
 PCOD8094854
Probable space group: C 2/M
;
_chemical_formula_sum "Si O2"
_cell_formula_units_Z 32
_cell_length_a 11.828661
_cell_length_b 15.982498
_cell_length_c 13.480626
_cell_angle_alpha 90.000000
_cell_angle_beta 147.201047
_cell_angle_gamma 90.000000
_cell_volume 1380.522240
_symmetry_space_group_name_H-M "C 2/M"
_symmetry_group_IT_number 12
_symmetry_cell_setting 'monoclinic'
loop_
_space_group_symop_operation_xyz
x,y,z
-x,y,-z
-x,-y,-z
x,-y,z
1/2+x,1/2+y,z
1/2-x,1/2+y,-z
1/2-x,1/2-y,-z
1/2+x,1/2-y,z
loop_
_atom_site_type_symbol
_atom_site_label
_atom_site_fract_x
_atom_site_fract_y
_atom_site_fract_z
Si Si1 0.971386 0.906229 0.758965
Si Si2 0.686317 0.094889 0.714388
Si Si3 0.864770 0.663602 0.111362
Si Si4 0.311106 0.599930 0.433407
O O1 0.883485 0.867498 0.797719
O O2 0.880486 0.864429 0.592284
O O3 0.887057 0.000000 0.692381
O O4 0.222221 0.904289 0.949089
O O5 0.500000 0.097146 0.500000
O O6 0.636504 0.152600 0.771097
O O7 0.727599 0.000000 0.783070
O O8 0.101812 0.650742 0.247528
O O9 0.750000 0.750000 0.000000
O O10 0.500000 0.622960 0.500000
O O11 0.267342 0.500000 0.400546
#
# Coordination Sequence:
#
# PCOD8094854 Si02
#       4
#     8   8   8   8
#     4  10  21  41  71 100 127 174 237 297 343 394
#     4  10  19  40  74 101 127 172 236 298 340 392
#     4  12  25  41  62 102 145 179 215 281 363 428
#     4  10  22  44  71  98 133 183 237 283 334 410
#
# _framework density 23.179634
#
# number of rings (size 3 to 8) (size 9 to 14) (size 15 to 20)
#    0.000    1.500    2.500    3.000    0.000    4.000 
#    9.000    3.750    0.000    0.000    0.000    0.000 
#    0.000    0.000    0.000    0.000    0.000    0.000 
#
# Total GULP energy -198251.337992 kJ/mol
# GULP energy per Si atom -12390.708625 kJ/mol
# Density = 2.312688 g / cm^3
# Si number density = 23.179634 Si / 1000 Ang^3
#
#
#
# Elastic Constant Matrix: (Units=GPa)
#
#
# Indices 1 2 3 4 5 6 
#
# 1 150.9611 57.8120 69.2724 0.0029 20.3971 0.0022
# 2 57.8120 66.9989 39.4718 -0.0137 0.5809 -0.0042
# 3 69.2724 39.4718 162.4647 -0.0207 30.8818 -0.0072
# 4 0.0029 -0.0137 -0.0207 36.1005 -0.0054 3.2451
# 5 20.3971 0.5809 30.8818 -0.0054 45.8268 -0.0010
# 6 0.0022 -0.0042 -0.0072 3.2451 -0.0010 15.4550
#
#
#
# Elastic Compliance Matrix: (Units=1/GPa)
#
#
# Indices 1 2 3 4 5 6 
#
# 1 0.011314 -0.008501 -0.002090 -0.000006 -0.003520 -0.000004
# 2 -0.008501 0.024178 -0.003338 0.000008 0.005727 0.000005
# 3 -0.002090 -0.003338 0.008800 0.000003 -0.004957 0.000003
# 4 -0.000006 0.000008 0.000003 0.028233 0.000004 -0.005928
# 5 -0.003520 0.005727 -0.004957 0.000004 0.026656 0.000001
# 6 -0.000004 0.000005 0.000003 -0.005928 0.000001 0.065949
#
#
# Mechanical properties :
#
#
# Convention : Reuss Voigt Hill
#
# Bulk Modulus (GPa) = 60.84952 79.28192 70.06572
# Shear Modulus (GPa) = 25.19321 33.73435 29.46378
#
# Velocity S-wave (km/s) = 3.30035 3.81904 3.56913
# Velocity P-wave (km/s) = 6.38994 7.32968 6.87588
#
# Compressibility (1/GPa) = 0.01643398
#
# Stress axis : x y z
#
# Youngs Moduli (GPa) = 88.38288 41.35977 113.64255
#
# Poissons Ratio (x) = 0.35161 0.23749
# Poissons Ratio (y) = 0.75137 0.37933
# Poissons Ratio (z) = 0.18470 0.13806
#
# Static dielectric constant tensor:
#      x y z
#    x 4.478570 0.000000 0.231980 
#    y 0.000000 3.925480 -0.000010 
#    z 0.231980 -0.000010 4.491010 
# 
# 
# High freq. dielectric constant tensor:
#      x y z
#    x 1.917420 0.000000 0.003530 
#    y 0.000000 1.878350 0.000000 
#    z 0.003530 0.000000 1.939630 
# 
# From -- ./inp_files/205865.got.cif
#   From: 2010.06.25/outbox.cif.g09.slc.cpg/sg12_103_cif.got.tgz:205865.got - 2010.06.28 00:19:55.
