data_PCOD8094341
_publ_section_title
;
Structure prediction by ZEFSAII (Michael W. Deem and Ramdas Pophale) SiO2 
 PCOD8094341
Probable space group: C 2/M
;
_chemical_formula_sum "Si O2"
_cell_formula_units_Z 56
_cell_length_a 26.494576
_cell_length_b 8.825082
_cell_length_c 11.739428
_cell_angle_alpha 90.000000
_cell_angle_beta 76.623628
_cell_angle_gamma 90.000000
_cell_volume 2670.410830
_symmetry_space_group_name_H-M "C 2/M"
_symmetry_group_IT_number 12
_symmetry_cell_setting 'monoclinic'
loop_
_space_group_symop_operation_xyz
x,y,z
-x,y,-z
-x,-y,-z
x,-y,z
1/2+x,1/2+y,z
1/2-x,1/2+y,-z
1/2-x,1/2-y,-z
1/2+x,1/2-y,z
loop_
_atom_site_type_symbol
_atom_site_label
_atom_site_fract_x
_atom_site_fract_y
_atom_site_fract_z
Si Si1 0.746667 0.675933 0.878968
Si Si2 0.073065 0.173036 0.201108
Si Si3 0.354238 0.675086 0.210589
Si Si4 0.134955 0.678014 0.565522
Si Si5 0.026188 0.174067 0.602501
Si Si6 0.334592 0.678302 0.682377
Si Si7 0.440356 0.822702 0.023050
O O1 0.760529 0.500000 0.881793
O O2 0.688877 0.701697 0.862817
O O3 0.786090 0.753876 0.772963
O O4 0.750000 0.750000 0.000000
O O5 0.112429 0.221621 0.280103
O O6 0.014484 0.193040 0.274410
O O7 0.083933 0.000000 0.158331
O O8 0.082467 0.279912 0.088377
O O9 0.360898 0.500000 0.238759
O O10 0.337710 0.763479 0.333556
O O11 0.409161 0.735667 0.136876
O O12 0.141625 0.500000 0.552034
O O13 0.074545 0.720329 0.603589
O O14 0.163624 0.753427 0.444237
O O15 0.000000 0.229825 0.500000
O O16 0.044944 0.000000 0.579524
O O17 0.327507 0.500000 0.676630
O O18 0.433461 0.000000 0.047268
O O19 0.500000 0.771330 0.000000
#
# Coordination Sequence:
#
# PCOD8094341 Si02
#       7
#     8   8   8   8   8   8   8
#     4  11  25  45  69  98 126 160 208 262 319 376
#     4  10  21  37  61  90 122 164 212 255 304 372
#     4  11  25  45  67  90 124 169 212 254 310 381
#     4  12  25  40  62  95 131 166 210 262 318 373
#     4  10  19  37  61  88 126 171 213 254 304 371
#     4  11  23  42  66  93 125 165 211 258 312 376
#     4  11  24  40  60  91 128 162 204 259 315 367
#
# _framework density 20.970556999999999
#
# number of rings (size 3 to 8) (size 9 to 14) (size 15 to 20)
#    0.000    1.143    1.429    4.714    0.000   11.714 
#    0.000    0.000    0.000    0.000    0.000    0.000 
#    0.000    0.000    0.000    0.000    0.000    0.000 
#
# Total GULP energy -347410.167885 kJ/mol
# GULP energy per Si atom -12407.505996 kJ/mol
# Density = 2.092283 g / cm^3
# Si number density = 20.970557 Si / 1000 Ang^3
#
#
#
# Elastic Constant Matrix: (Units=GPa)
#
#
# Indices 1 2 3 4 5 6 
#
# 1 77.3093 55.0335 45.5525 0.0000 -4.7824 0.0000
# 2 55.0335 122.6036 60.9930 0.0000 0.2858 0.0000
# 3 45.5525 60.9930 149.9614 0.0000 1.3592 0.0000
# 4 0.0000 0.0000 0.0000 41.1083 0.0000 -1.8347
# 5 -4.7824 0.2858 1.3592 0.0000 39.2034 0.0000
# 6 0.0000 0.0000 0.0000 -1.8347 0.0000 31.3669
#
#
#
# Elastic Compliance Matrix: (Units=1/GPa)
#
#
# Indices 1 2 3 4 5 6 
#
# 1 0.020333 -0.007583 -0.003116 0.000000 0.002644 0.000000
# 2 -0.007583 0.013053 -0.002997 0.000000 -0.000916 0.000000
# 3 -0.003116 -0.002997 0.008840 0.000000 -0.000665 0.000000
# 4 0.000000 0.000000 0.000000 0.024390 0.000000 0.001427
# 5 0.002644 -0.000916 -0.000665 0.000000 0.025860 0.000000
# 6 0.000000 0.000000 0.000000 0.001427 0.000000 0.031964
#
#
# Mechanical properties :
#
#
# Convention : Reuss Voigt Hill
#
# Bulk Modulus (GPa) = 67.41547 74.78138 71.09843
# Shear Modulus (GPa) = 31.89241 34.88874 33.39057
#
# Velocity S-wave (km/s) = 3.90400 4.08327 3.99464
# Velocity P-wave (km/s) = 7.24838 7.61370 7.43329
#
# Compressibility (1/GPa) = 0.01483339
#
# Stress axis : x y z
#
# Youngs Moduli (GPa) = 49.18232 76.60862 113.12055
#
# Poissons Ratio (x) = 0.58090 0.35250
# Poissons Ratio (y) = 0.37293 0.33908
# Poissons Ratio (z) = 0.15326 0.22963
#
# Static dielectric constant tensor:
#      x y z
#    x 3.823840 0.000000 0.053510 
#    y 0.000000 3.795460 0.000000 
#    z 0.053510 0.000000 3.879900 
# 
# 
# High freq. dielectric constant tensor:
#      x y z
#    x 1.821520 0.000000 0.002880 
#    y 0.000000 1.822580 0.000000 
#    z 0.002880 0.000000 1.838940 
# 
# From -- ./inp_files/180740.got.cif
#   From: 2010.06.25/outbox.cif.g09.slc.cpg/sg12_91_cif.got.tgz:180740.got - 2010.06.28 00:19:55.
