data_PCOD8094987
_publ_section_title
;
Structure prediction by ZEFSAII (Michael W. Deem and Ramdas Pophale) SiO2 
 PCOD8094987
Probable space group: C 2/M
;
_chemical_formula_sum "Si O2"
_cell_formula_units_Z 64
_cell_length_a 23.143952
_cell_length_b 9.339613
_cell_length_c 17.475025
_cell_angle_alpha 90.000000
_cell_angle_beta 99.918088
_cell_angle_gamma 90.000000
_cell_volume 3720.871623
_symmetry_space_group_name_H-M "C 2/M"
_symmetry_group_IT_number 12
_symmetry_cell_setting 'monoclinic'
loop_
_space_group_symop_operation_xyz
x,y,z
-x,y,-z
-x,-y,-z
x,-y,z
1/2+x,1/2+y,z
1/2-x,1/2+y,-z
1/2-x,1/2-y,-z
1/2+x,1/2-y,z
loop_
_atom_site_type_symbol
_atom_site_label
_atom_site_fract_x
_atom_site_fract_y
_atom_site_fract_z
Si Si1 0.737182 0.662313 0.572073
Si Si2 0.135249 0.835337 0.652968
Si Si3 0.786887 0.668575 0.208668
Si Si4 0.807196 0.667988 0.738019
Si Si5 0.057912 0.332319 0.221789
Si Si6 0.016484 0.165076 0.916371
Si Si7 0.887673 0.658135 0.130766
Si Si8 0.958423 0.341483 0.304705
O O1 0.753457 0.500000 0.556785
O O2 0.750000 0.750000 0.500000
O O3 0.667916 0.676067 0.578402
O O4 0.778345 0.715596 0.651098
O O5 0.174223 0.744438 0.718909
O O6 0.069527 0.767540 0.639042
O O7 0.131665 0.000000 0.679088
O O8 0.781735 0.500000 0.225091
O O9 0.723004 0.743618 0.198893
O O10 0.819017 0.693890 0.133565
O O11 0.797179 0.500000 0.750647
O O12 0.874973 0.710876 0.751426
O O13 0.050019 0.500000 0.201371
O O14 0.031929 0.245392 0.144886
O O15 0.023975 0.294767 0.293611
O O16 0.082083 0.228235 0.918764
O O17 0.017414 0.000000 0.892370
O O18 0.000000 0.186841 0.000000
O O19 0.892536 0.500000 0.094677
O O20 0.920688 0.659512 0.219003
O O21 0.958809 0.500000 0.341614
#
# Coordination Sequence:
#
# PCOD8094987 Si02
#       8
#     8   8   8   8   8   8   8   8
#     4   9  18  30  45  66  91 118 149 185 224 267
#     4   9  16  26  41  63  89 116 147 185 225 263
#     4   9  16  26  42  66  91 114 146 187 225 263
#     4   9  18  32  48  68  93 120 150 186 227 268
#     4   9  18  32  49  68  92 121 152 185 223 270
#     4  10  20  31  45  69  97 121 149 187 226 264
#     4   8  15  27  43  64  89 117 150 186 223 264
#     4   8  14  25  42  65  88 111 144 186 225 261
#
# _framework density 17.200271000000001
#
# number of rings (size 3 to 8) (size 9 to 14) (size 15 to 20)
#    0.000    3.125    0.000    3.375    0.000    9.000 
#    0.000    0.000    0.000    1.500    0.000    5.250 
#    0.000    0.000    0.000    0.000    0.000    0.000 
#
# Total GULP energy -396475.112406 kJ/mol
# GULP energy per Si atom -12389.847263 kJ/mol
# Density = 1.716112 g / cm^3
# Si number density = 17.200271 Si / 1000 Ang^3
#
#
#
# Elastic Constant Matrix: (Units=GPa)
#
#
# Indices 1 2 3 4 5 6 
#
# 1 159.7450 73.1987 41.4642 0.0000 -24.4331 0.0000
# 2 73.1987 101.4415 40.1137 0.0000 -19.1834 0.0000
# 3 41.4642 40.1137 45.4542 0.0000 -14.8991 0.0000
# 4 0.0000 0.0000 0.0000 22.6123 0.0000 -9.0851
# 5 -24.4331 -19.1834 -14.8991 0.0000 20.5296 0.0000
# 6 0.0000 0.0000 0.0000 -9.0851 0.0000 31.5858
#
#
#
# Elastic Compliance Matrix: (Units=1/GPa)
#
#
# Indices 1 2 3 4 5 6 
#
# 1 0.010214 -0.005198 -0.003067 0.000000 0.005073 0.000000
# 2 -0.005198 0.018341 -0.010306 0.000000 0.003472 0.000000
# 3 -0.003067 -0.010306 0.038761 0.000000 0.014850 0.000000
# 4 0.000000 0.000000 0.000000 0.050002 0.000000 0.014382
# 5 0.005073 0.003472 0.014850 0.000000 0.068769 0.000000
# 6 0.000000 0.000000 0.000000 0.014382 0.000000 0.035797
#
#
# Mechanical properties :
#
#
# Convention : Reuss Voigt Hill
#
# Bulk Modulus (GPa) = 33.14239 68.46601 50.80420
# Shear Modulus (GPa) = 18.58165 25.06980 21.82573
#
# Velocity S-wave (km/s) = 3.29038 3.82189 3.56605
# Velocity P-wave (km/s) = 5.80911 7.70503 6.82324
#
# Compressibility (1/GPa) = 0.03017284
#
# Stress axis : x y z
#
# Youngs Moduli (GPa) = 97.90646 54.52375 25.79937
#
# Poissons Ratio (x) = 0.28341 0.07913
# Poissons Ratio (y) = 0.50891 0.26589
# Poissons Ratio (z) = 0.30030 0.56192
#
# Static dielectric constant tensor:
#      x y z
#    x 4.197310 0.000000 -0.470370 
#    y 0.000000 3.405990 0.000000 
#    z -0.470370 0.000000 2.734240 
# 
# 
# High freq. dielectric constant tensor:
#      x y z
#    x 1.676900 0.000000 -0.034100 
#    y 0.000000 1.670520 0.000000 
#    z -0.034100 0.000000 1.601820 
# 
# From -- ./inp_files/287724.got.cif
#   From: 2010.06.25/outbox.cif.g09.slc.cpg/sg12_144_cif.got.tgz:287724.got - 2010.06.28 00:19:55.
