data_PCOD8094237
_publ_section_title
;
Structure prediction by ZEFSAII (Michael W. Deem and Ramdas Pophale) SiO2 
 PCOD8094237
Probable space group: C 2/M
;
_chemical_formula_sum "Si O2"
_cell_formula_units_Z 64
_cell_length_a 10.140302
_cell_length_b 26.586952
_cell_length_c 12.653000
_cell_angle_alpha 90.000000
_cell_angle_beta 75.434395
_cell_angle_gamma 90.000000
_cell_volume 3301.608940
_symmetry_space_group_name_H-M "C 2/M"
_symmetry_group_IT_number 12
_symmetry_cell_setting 'monoclinic'
loop_
_space_group_symop_operation_xyz
x,y,z
-x,y,-z
-x,-y,-z
x,-y,z
1/2+x,1/2+y,z
1/2-x,1/2+y,-z
1/2-x,1/2-y,-z
1/2+x,1/2-y,z
loop_
_atom_site_type_symbol
_atom_site_label
_atom_site_fract_x
_atom_site_fract_y
_atom_site_fract_z
Si Si1 0.644610 0.231301 0.938395
Si Si2 0.840606 0.056646 0.508247
Si Si3 0.419297 0.719346 0.621298
Si Si4 0.820776 0.886369 0.714431
Si Si5 0.171123 0.779606 0.708979
Si Si6 0.848154 0.058399 0.066846
Si Si7 0.349759 0.112621 0.051860
Si Si8 0.375634 0.603029 0.284826
O O1 0.685478 0.251549 0.816497
O O2 0.644558 0.172071 0.947798
O O3 0.500000 0.254492 0.000000
O O4 0.750000 0.250000 0.000000
O O5 0.770093 0.086347 0.618189
O O6 0.801909 0.082802 0.405226
O O7 0.000000 0.058647 0.500000
O O8 0.785353 0.000000 0.516506
O O9 0.500000 0.701666 0.500000
O O10 0.335998 0.672782 0.687313
O O11 0.309538 0.763361 0.618475
O O12 0.534313 0.739497 0.678850
O O13 0.705853 0.902140 0.821647
O O14 0.963412 0.905688 0.733128
O O15 0.166472 0.839328 0.723405
O O16 0.827399 0.071008 0.194277
O O17 0.815054 0.000000 0.053711
O O18 0.747075 0.092804 0.020618
O O19 0.000000 0.072120 0.000000
O O20 0.500000 0.090001 0.000000
#
# Coordination Sequence:
#
# PCOD8094237 Si02
#       8
#     8   8   8   8   8   8   8   8
#     4  11  23  37  58  85 120 160 201 243 292 354
#     4   9  18  33  58  89 116 149 193 246 299 349
#     4  11  22  38  58  86 123 158 197 244 294 354
#     4  10  19  37  59  87 123 157 197 245 295 351
#     4  11  22  36  59  87 117 162 196 237 298 350
#     4  11  23  39  64  91 119 156 199 253 307 355
#     4  11  24  41  59  87 123 162 199 247 299 366
#     4  10  20  36  61  90 122 152 195 251 301 349
#
# _framework density 19.384488000000001
#
# number of rings (size 3 to 8) (size 9 to 14) (size 15 to 20)
#    0.000    1.500    2.500    4.125    1.750    3.250 
#    0.000    0.000    0.000    0.000    0.000    1.750 
#    0.000    0.000    0.000    0.000    0.000    0.000 
#
# Total GULP energy -396788.544245 kJ/mol
# GULP energy per Si atom -12399.642008 kJ/mol
# Density = 1.934037 g / cm^3
# Si number density = 19.384488 Si / 1000 Ang^3
#
#
#
# Elastic Constant Matrix: (Units=GPa)
#
#
# Indices 1 2 3 4 5 6 
#
# 1 97.0345 45.2802 59.9977 0.0000 4.1364 0.0000
# 2 45.2802 79.3829 42.5444 0.0000 9.6541 0.0000
# 3 59.9977 42.5444 157.3075 0.0000 7.8148 0.0000
# 4 0.0000 0.0000 0.0000 25.1485 0.0000 11.6626
# 5 4.1364 9.6541 7.8148 0.0000 31.2046 0.0000
# 6 0.0000 0.0000 0.0000 11.6626 0.0000 16.0811
#
#
#
# Elastic Compliance Matrix: (Units=1/GPa)
#
#
# Indices 1 2 3 4 5 6 
#
# 1 0.016241 -0.007076 -0.004336 0.000000 0.001122 0.000000
# 2 -0.007076 0.018228 -0.002022 0.000000 -0.004195 0.000000
# 3 -0.004336 -0.002022 0.008605 0.000000 -0.000955 0.000000
# 4 0.000000 0.000000 0.000000 0.059915 0.000000 -0.043453
# 5 0.001122 -0.004195 -0.000955 0.000000 0.033435 0.000000
# 6 0.000000 0.000000 0.000000 -0.043453 0.000000 0.093699
#
#
# Mechanical properties :
#
#
# Convention : Reuss Voigt Hill
#
# Bulk Modulus (GPa) = 61.71437 69.92998 65.82217
# Shear Modulus (GPa) = 19.05532 26.88035 22.96783
#
# Velocity S-wave (km/s) = 3.13871 3.72787 3.44591
# Velocity P-wave (km/s) = 6.71129 7.39479 7.06132
#
# Compressibility (1/GPa) = 0.01620368
#
# Stress axis : x y z
#
# Youngs Moduli (GPa) = 61.57196 54.86183 116.20823
#
# Poissons Ratio (x) = 0.38823 0.50392
# Poissons Ratio (y) = 0.43571 0.23501
# Poissons Ratio (z) = 0.26700 0.11095
#
# Static dielectric constant tensor:
#      x y z
#    x 3.545910 0.000000 -0.088790 
#    y 0.000000 3.499750 0.000000 
#    z -0.088790 0.000000 3.775680 
# 
# 
# High freq. dielectric constant tensor:
#      x y z
#    x 1.731770 0.000000 0.007440 
#    y 0.000000 1.751690 0.000000 
#    z 0.007440 0.000000 1.771630 
# 
# From -- ./inp_files/135909.got.cif
#   From: 2010.06.25/outbox.cif.g09.slc.cpg/sg12_68_cif.got.tgz:135909.got - 2010.06.28 00:19:55.
