data_PCOD8094593
_publ_section_title
;
Structure prediction by ZEFSAII (Michael W. Deem and Ramdas Pophale) SiO2 
 PCOD8094593
Probable space group: C 2/M
;
_chemical_formula_sum "Si O2"
_cell_formula_units_Z 56
_cell_length_a 17.002349
_cell_length_b 22.501865
_cell_length_c 7.536982
_cell_angle_alpha 90.000000
_cell_angle_beta 65.262604
_cell_angle_gamma 90.000000
_cell_volume 2618.926273
_symmetry_space_group_name_H-M "C 2/M"
_symmetry_group_IT_number 12
_symmetry_cell_setting 'monoclinic'
loop_
_space_group_symop_operation_xyz
x,y,z
-x,y,-z
-x,-y,-z
x,-y,z
1/2+x,1/2+y,z
1/2-x,1/2+y,-z
1/2-x,1/2-y,-z
1/2+x,1/2-y,z
loop_
_atom_site_type_symbol
_atom_site_label
_atom_site_fract_x
_atom_site_fract_y
_atom_site_fract_z
Si Si1 0.216883 0.567853 0.848903
Si Si2 0.081549 0.739300 0.320757
Si Si3 0.263610 0.734839 0.192323
Si Si4 0.520970 0.355894 0.176296
Si Si5 0.599274 0.174439 0.956897
Si Si6 0.360267 0.433442 0.430096
Si Si7 0.309865 0.399119 0.106994
O O1 0.190725 0.500000 0.835967
O O2 0.133377 0.608221 0.884610
O O3 0.295710 0.587803 0.646793
O O4 0.239995 0.576117 0.034705
O O5 0.167163 0.746461 0.366864
O O6 0.000000 0.713038 0.500000
O O7 0.055090 0.801671 0.259805
O O8 0.106402 0.688296 0.157976
O O9 0.337051 0.778512 0.205615
O O10 0.294380 0.667997 0.186056
O O11 0.250000 0.750000 0.000000
O O12 0.440359 0.387552 0.349036
O O13 0.500000 0.330734 0.000000
O O14 0.597299 0.404223 0.080039
O O15 0.500000 0.182072 0.000000
O O16 0.393949 0.500000 0.440450
O O17 0.310494 0.436608 0.287817
#
# Coordination Sequence:
#
# PCOD8094593 Si02
#       7
#     8   8   8   8   8   8   8
#     4  11  24  44  67  87 120 172 217 264 315 363
#     4  11  22  36  62  94 128 162 203 256 315 383
#     4  10  19  38  61  89 129 160 209 256 307 385
#     4  10  21  35  58  90 130 168 203 247 311 379
#     4  11  23  41  63  89 127 161 210 262 315 369
#     4  10  25  40  59  96 129 164 219 256 302 387
#     4  11  20  40  66  87 128 174 201 261 319 367
#
# _framework density 21.382809000000002
#
# number of rings (size 3 to 8) (size 9 to 14) (size 15 to 20)
#    0.000    1.429    5.714    0.857    6.000    4.571 
#    0.000    2.857    0.000    0.429    0.000    0.000 
#    0.000    0.000    0.000    0.000    0.000    0.000 
#
# Total GULP energy -347029.253167 kJ/mol
# GULP energy per Si atom -12393.901899 kJ/mol
# Density = 2.133414 g / cm^3
# Si number density = 21.382809 Si / 1000 Ang^3
#
#
#
# Elastic Constant Matrix: (Units=GPa)
#
#
# Indices 1 2 3 4 5 6 
#
# 1 123.7069 41.1617 33.5845 0.0000 -40.3804 0.0000
# 2 41.1617 117.7540 37.4603 0.0000 -23.3261 0.0000
# 3 33.5845 37.4603 80.8196 0.0000 -24.6632 0.0000
# 4 0.0000 0.0000 0.0000 26.2035 0.0000 -6.2281
# 5 -40.3804 -23.3261 -24.6632 0.0000 39.8344 0.0000
# 6 0.0000 0.0000 0.0000 -6.2281 0.0000 14.3068
#
#
#
# Elastic Compliance Matrix: (Units=1/GPa)
#
#
# Indices 1 2 3 4 5 6 
#
# 1 0.012585 -0.001901 -0.000980 0.000000 0.011038 0.000000
# 2 -0.001901 0.010702 -0.003509 0.000000 0.002167 0.000000
# 3 -0.000980 -0.003509 0.016616 0.000000 0.007239 0.000000
# 4 0.000000 0.000000 0.000000 0.042567 0.000000 0.018531
# 5 0.011038 0.002167 0.007239 0.000000 0.042044 0.000000
# 6 0.000000 0.000000 0.000000 0.018531 0.000000 0.077964
#
#
# Mechanical properties :
#
#
# Convention : Reuss Voigt Hill
#
# Bulk Modulus (GPa) = 36.86948 60.74371 48.80659
# Shear Modulus (GPa) = 22.29145 30.07386 26.18266
#
# Velocity S-wave (km/s) = 3.23227 3.75434 3.50304
# Velocity P-wave (km/s) = 5.58660 6.87479 6.26390
#
# Compressibility (1/GPa) = 0.02712270
#
# Stress axis : x y z
#
# Youngs Moduli (GPa) = 79.45871 93.43621 60.18170
#
# Poissons Ratio (x) = 0.17761 0.05900
# Poissons Ratio (y) = 0.15104 0.21120
# Poissons Ratio (z) = 0.07790 0.32790
#
# Static dielectric constant tensor:
#      x y z
#    x 5.182680 0.000000 -0.576570 
#    y 0.000000 3.817060 0.000000 
#    z -0.576570 0.000000 4.194810 
# 
# 
# High freq. dielectric constant tensor:
#      x y z
#    x 1.837470 0.000000 -0.012490 
#    y 0.000000 1.827480 0.000000 
#    z -0.012490 0.000000 1.828510 
# 
# From -- ./inp_files/77368.got.cif
#   From: 2010.06.25/outbox.cif.g09.slc.cpg/sg12_39_cif.got.tgz:77368.got - 2010.06.28 00:19:55.
