data_PCOD8094925
_publ_section_title
;
Structure prediction by ZEFSAII (Michael W. Deem and Ramdas Pophale) SiO2 
 PCOD8094925
Probable space group: C 2/M
;
_chemical_formula_sum "Si O2"
_cell_formula_units_Z 64
_cell_length_a 28.890258
_cell_length_b 19.002510
_cell_length_c 6.499401
_cell_angle_alpha 90.000000
_cell_angle_beta 70.085028
_cell_angle_gamma 90.000000
_cell_volume 3354.714588
_symmetry_space_group_name_H-M "C 2/M"
_symmetry_group_IT_number 12
_symmetry_cell_setting 'monoclinic'
loop_
_space_group_symop_operation_xyz
x,y,z
-x,y,-z
-x,-y,-z
x,-y,z
1/2+x,1/2+y,z
1/2-x,1/2+y,-z
1/2-x,1/2-y,-z
1/2+x,1/2-y,z
loop_
_atom_site_type_symbol
_atom_site_label
_atom_site_fract_x
_atom_site_fract_y
_atom_site_fract_z
Si Si1 0.820983 0.579542 0.521213
Si Si2 0.117837 0.917568 0.627785
Si Si3 0.773333 0.920034 0.616010
Si Si4 0.772562 0.350067 0.943914
Si Si5 0.609256 0.681988 0.281721
Si Si6 0.873111 0.280572 0.371013
Si Si7 0.190129 0.772759 0.873135
Si Si8 0.056247 0.808643 0.974227
O O1 0.841163 0.500000 0.461425
O O2 0.773512 0.594117 0.453907
O O3 0.803757 0.588994 0.784299
O O4 0.863897 0.635458 0.400534
O O5 0.176018 0.900177 0.579905
O O6 0.104947 0.889965 0.417692
O O7 0.085037 0.876675 0.842409
O O8 0.105963 0.000000 0.660518
O O9 0.776969 0.000000 0.679740
O O10 0.768421 0.877673 0.835558
O O11 0.744781 0.305574 0.805832
O O12 0.811291 0.301652 0.004799
O O13 0.618338 0.748495 0.416913
O O14 0.651899 0.675861 0.045623
O O15 0.559939 0.692517 0.217944
O O16 0.825625 0.241779 0.339078
O O17 0.920395 0.263354 0.156088
O O18 0.000000 0.813788 0.000000
#
# Coordination Sequence:
#
# PCOD8094925 Si02
#       8
#     8   8   8   8   8   8   8   8
#     4  11  23  35  53  83 123 160 193 234 278 335
#     4  10  22  38  59  85 117 158 194 230 280 339
#     4  10  21  35  50  77 121 162 193 226 270 328
#     4  11  20  31  52  78 112 154 194 233 272 318
#     4  10  20  38  59  81 109 147 184 240 290 338
#     4  10  21  38  59  83 113 148 196 236 290 343
#     4  10  20  30  52  80 109 149 195 236 268 321
#     4  10  24  42  62  88 111 139 188 248 300 349
#
# _framework density 19.077628000000001
#
# number of rings (size 3 to 8) (size 9 to 14) (size 15 to 20)
#    0.000    1.750    3.750    0.375    5.250    3.250 
#    0.000    0.625    0.000    0.375    0.000    0.875 
#    0.000    0.000    0.000    0.000    0.000    0.000 
#
# Total GULP energy -396614.291058 kJ/mol
# GULP energy per Si atom -12394.196596 kJ/mol
# Density = 1.903421 g / cm^3
# Si number density = 19.077628 Si / 1000 Ang^3
#
#
#
# Elastic Constant Matrix: (Units=GPa)
#
#
# Indices 1 2 3 4 5 6 
#
# 1 101.7940 51.2883 34.3794 0.0000 10.2533 0.0000
# 2 51.2883 128.6418 43.5813 0.0000 -0.2921 0.0000
# 3 34.3794 43.5813 77.7185 0.0000 10.8032 0.0000
# 4 0.0000 0.0000 0.0000 28.7850 0.0000 0.5663
# 5 10.2533 -0.2921 10.8032 0.0000 29.0943 0.0000
# 6 0.0000 0.0000 0.0000 0.5663 0.0000 13.8860
#
#
#
# Elastic Compliance Matrix: (Units=1/GPa)
#
#
# Indices 1 2 3 4 5 6 
#
# 1 0.013382 -0.004333 -0.002982 0.000000 -0.003652 0.000000
# 2 -0.004333 0.011136 -0.004804 0.000000 0.003423 0.000000
# 3 -0.002982 -0.004804 0.017651 0.000000 -0.005552 0.000000
# 4 0.000000 0.000000 0.000000 0.034768 0.000000 -0.001418
# 5 -0.003652 0.003423 -0.005552 0.000000 0.037754 0.000000
# 6 0.000000 0.000000 0.000000 -0.001418 0.000000 0.072073
#
#
# Mechanical properties :
#
#
# Convention : Reuss Voigt Hill
#
# Bulk Modulus (GPa) = 55.76681 62.96137 59.36409
# Shear Modulus (GPa) = 23.04357 26.28007 24.66182
#
# Velocity S-wave (km/s) = 3.47923 3.71554 3.59933
# Velocity P-wave (km/s) = 6.74055 7.17505 6.96119
#
# Compressibility (1/GPa) = 0.01793181
#
# Stress axis : x y z
#
# Youngs Moduli (GPa) = 74.72648 89.79602 56.65255
#
# Poissons Ratio (x) = 0.38912 0.16894
# Poissons Ratio (y) = 0.32382 0.27214
# Poissons Ratio (z) = 0.22284 0.43135
#
# Static dielectric constant tensor:
#      x y z
#    x 3.383920 0.000000 0.247690 
#    y 0.000000 3.491230 0.000000 
#    z 0.247690 0.000000 3.486460 
# 
# 
# High freq. dielectric constant tensor:
#      x y z
#    x 1.710610 0.000000 0.022460 
#    y 0.000000 1.734150 0.000000 
#    z 0.022460 0.000000 1.744860 
# 
# From -- ./inp_files/32338.got.cif
#   From: 2010.06.25/outbox.cif.g09.slc.cpg/sg12_17_cif.got.tgz:32338.got - 2010.06.28 00:19:55.
