data_PCOD8094184
_publ_section_title
;
Structure prediction by ZEFSAII (Michael W. Deem and Ramdas Pophale) SiO2 
 PCOD8094184
Probable space group: C 2/M
;
_chemical_formula_sum "Si O2"
_cell_formula_units_Z 56
_cell_length_a 10.714095
_cell_length_b 16.989456
_cell_length_c 18.401317
_cell_angle_alpha 90.000000
_cell_angle_beta 127.521159
_cell_angle_gamma 90.000000
_cell_volume 2656.607624
_symmetry_space_group_name_H-M "C 2/M"
_symmetry_group_IT_number 12
_symmetry_cell_setting 'monoclinic'
loop_
_space_group_symop_operation_xyz
x,y,z
-x,y,-z
-x,-y,-z
x,-y,z
1/2+x,1/2+y,z
1/2-x,1/2+y,-z
1/2-x,1/2-y,-z
1/2+x,1/2-y,z
loop_
_atom_site_type_symbol
_atom_site_label
_atom_site_fract_x
_atom_site_fract_y
_atom_site_fract_z
Si Si1 0.430378 0.910000 0.605420
Si Si2 0.856134 0.146232 0.404162
Si Si3 0.701557 0.168372 0.782458
Si Si4 0.207465 0.301508 0.553759
Si Si5 0.553347 0.660302 0.717126
Si Si6 0.512253 0.591037 0.849722
Si Si7 0.663406 0.685864 0.019849
O O1 0.304307 0.884369 0.620369
O O2 0.594756 0.894866 0.703260
O O3 0.413602 0.866475 0.521191
O O4 0.413155 0.000000 0.579463
O O5 0.867511 0.242964 0.412324
O O6 0.871070 0.118380 0.326416
O O7 0.000000 0.108778 0.500000
O O8 0.630550 0.254328 0.747515
O O9 0.870685 0.154244 0.805414
O O10 0.717991 0.155542 0.875239
O O11 0.250000 0.250000 0.500000
O O12 0.364507 0.339860 0.641977
O O13 0.597804 0.608974 0.803367
O O14 0.459204 0.500000 0.835422
O O15 0.629650 0.609689 0.957770
O O16 0.500000 0.717824 0.000000
O O17 0.750000 0.750000 0.000000
#
# Coordination Sequence:
#
# PCOD8094184 Si02
#       7
#     8   8   8   8   8   8   8
#     4  11  23  38  59  93 130 168 218 272 334 391
#     4  11  20  37  61  85 118 168 220 263 317 388
#     4  11  22  41  70  95 130 169 225 268 323 402
#     4  10  19  37  56  88 116 162 215 265 316 376
#     4  12  21  38  68  90 126 170 220 269 320 394
#     4  11  26  44  66 102 137 170 217 280 345 393
#     4  10  22  42  73 104 134 177 225 280 339 413
#
# _framework density 21.079514
#
# number of rings (size 3 to 8) (size 9 to 14) (size 15 to 20)
#    0.000    1.143    7.143    1.286    0.000    4.571 
#    0.000    0.000    0.000    3.429    0.000    0.000 
#    0.000    0.000    0.000    0.000    0.000    0.000 
#
# Total GULP energy -347026.922606 kJ/mol
# GULP energy per Si atom -12393.818665 kJ/mol
# Density = 2.103154 g / cm^3
# Si number density = 21.079514 Si / 1000 Ang^3
#
#
#
# Elastic Constant Matrix: (Units=GPa)
#
#
# Indices 1 2 3 4 5 6 
#
# 1 78.6855 19.5175 33.7874 0.0000 -21.5596 0.0000
# 2 19.5175 99.0230 42.9072 0.0000 -6.8335 0.0000
# 3 33.7874 42.9072 127.4012 0.0000 -13.0808 0.0000
# 4 0.0000 0.0000 0.0000 25.2915 0.0000 0.6091
# 5 -21.5596 -6.8335 -13.0808 0.0000 37.4452 0.0000
# 6 0.0000 0.0000 0.0000 0.6091 0.0000 5.8320
#
#
#
# Elastic Compliance Matrix: (Units=1/GPa)
#
#
# Indices 1 2 3 4 5 6 
#
# 1 0.016641 -0.001365 -0.003107 0.000000 0.008247 0.000000
# 2 -0.001365 0.011959 -0.003653 0.000000 0.000121 0.000000
# 3 -0.003107 -0.003653 0.010011 0.000000 0.001041 0.000000
# 4 0.000000 0.000000 0.000000 0.039639 0.000000 -0.004140
# 5 0.008247 0.000121 0.001041 0.000000 0.031840 0.000000
# 6 0.000000 0.000000 0.000000 -0.004140 0.000000 0.171899
#
#
# Mechanical properties :
#
#
# Convention : Reuss Voigt Hill
#
# Bulk Modulus (GPa) = 44.72123 55.28153 50.00138
# Shear Modulus (GPa) = 16.35637 27.64027 21.99832
#
# Velocity S-wave (km/s) = 2.78859 3.62503 3.23397
# Velocity P-wave (km/s) = 5.62404 6.61841 6.14138
#
# Compressibility (1/GPa) = 0.02236074
#
# Stress axis : x y z
#
# Youngs Moduli (GPa) = 60.09226 83.61933 99.89481
#
# Poissons Ratio (x) = 0.11411 0.31037
# Poissons Ratio (y) = 0.08200 0.36495
# Poissons Ratio (z) = 0.18670 0.30549
#
# Static dielectric constant tensor:
#      x y z
#    x 3.946300 0.000000 0.007860 
#    y 0.000000 3.737380 0.000000 
#    z 0.007860 0.000000 4.723430 
# 
# 
# High freq. dielectric constant tensor:
#      x y z
#    x 1.829390 0.000000 -0.013160 
#    y 0.000000 1.792910 0.000000 
#    z -0.013160 0.000000 1.843820 
# 
# From -- ./inp_files/264291.got.cif
#   From: 2010.06.25/outbox.cif.g09.slc.cpg/sg12_133_cif.got.tgz:264291.got - 2010.06.28 00:19:55.
