data_PCOD8094728
_publ_section_title
;
Structure prediction by ZEFSAII (Michael W. Deem and Ramdas Pophale) SiO2 
 PCOD8094728
Probable space group: C 2/M
;
_chemical_formula_sum "Si O2"
_cell_formula_units_Z 40
_cell_length_a 10.803797
_cell_length_b 23.580092
_cell_length_c 13.926952
_cell_angle_alpha 90.000000
_cell_angle_beta 32.476309
_cell_angle_gamma 90.000000
_cell_volume 1905.076891
_symmetry_space_group_name_H-M "C 2/M"
_symmetry_group_IT_number 12
_symmetry_cell_setting 'monoclinic'
loop_
_space_group_symop_operation_xyz
x,y,z
-x,y,-z
-x,-y,-z
x,-y,z
1/2+x,1/2+y,z
1/2-x,1/2+y,-z
1/2-x,1/2-y,-z
1/2+x,1/2-y,z
loop_
_atom_site_type_symbol
_atom_site_label
_atom_site_fract_x
_atom_site_fract_y
_atom_site_fract_z
Si Si1 0.426479 0.851030 0.275340
Si Si2 0.814623 0.759681 0.692862
Si Si3 0.536614 0.648862 0.664826
Si Si4 0.693938 0.935353 0.793980
Si Si5 0.949882 0.837349 0.935597
O O1 0.273949 0.813735 0.305655
O O2 0.307606 0.851134 0.458411
O O3 0.418632 0.913341 0.232213
O O4 0.678778 0.823908 0.116433
O O5 0.604649 0.718488 0.854082
O O6 0.000000 0.729380 0.500000
O O7 0.928246 0.788071 0.714858
O O8 0.417957 0.599409 0.680744
O O9 0.517880 0.634229 0.790322
O O10 0.770601 0.000000 0.729172
O O11 0.500000 0.928013 0.000000
O O12 0.000000 0.875334 0.000000
#
# Coordination Sequence:
#
# PCOD8094728 Si02
#       5
#     8   8   8   8   8
#     4  10  22  40  58  87 120 151 191 246 292 342
#     4   9  22  37  57  84 115 156 201 244 286 337
#     4  10  23  41  57  86 124 147 196 251 285 343
#     4  10  19  38  70  97 114 141 186 245 307 349
#     4  12  26  35  56  82 118 168 202 232 283 344
#
# _framework density 20.996528000000001
#
# number of rings (size 3 to 8) (size 9 to 14) (size 15 to 20)
#    0.000    1.800    2.000    2.400    8.400    3.200 
#    0.000    0.000    0.000    2.400    0.000    2.800 
#    0.000    0.000    0.000    0.000    0.000    0.000 
#
# Total GULP energy -247812.990803 kJ/mol
# GULP energy per Si atom -12390.649540 kJ/mol
# Density = 2.094874 g / cm^3
# Si number density = 20.996528 Si / 1000 Ang^3
#
#
#
# Elastic Constant Matrix: (Units=GPa)
#
#
# Indices 1 2 3 4 5 6 
#
# 1 107.3212 28.3164 58.7718 0.0026 27.3363 0.0006
# 2 28.3164 73.6730 34.9535 0.0012 -4.6022 0.0000
# 3 58.7718 34.9535 173.3066 0.0024 -0.5996 -0.0006
# 4 0.0026 0.0012 0.0024 14.5037 -0.0031 1.4580
# 5 27.3363 -4.6022 -0.5996 -0.0031 21.0710 -0.0003
# 6 0.0006 0.0000 -0.0006 1.4580 -0.0003 7.9109
#
#
#
# Elastic Compliance Matrix: (Units=1/GPa)
#
#
# Indices 1 2 3 4 5 6 
#
# 1 0.022828 -0.007759 -0.006285 -0.000009 -0.031489 -0.000002
# 2 -0.007759 0.017865 -0.000924 0.000003 0.013941 0.000001
# 3 -0.006285 -0.000924 0.008116 0.000001 0.008183 0.000001
# 4 -0.000009 0.000003 0.000001 0.070249 0.000022 -0.012947
# 5 -0.031489 0.013941 0.008183 0.000022 0.091588 0.000003
# 6 -0.000002 0.000001 0.000001 -0.012947 0.000003 0.128794
#
#
# Mechanical properties :
#
#
# Convention : Reuss Voigt Hill
#
# Bulk Modulus (GPa) = 52.98628 66.48714 59.73671
# Shear Modulus (GPa) = 13.30968 24.18108 18.74538
#
# Velocity S-wave (km/s) = 2.52047 3.39731 2.99119
# Velocity P-wave (km/s) = 5.81041 6.86465 6.35942
#
# Compressibility (1/GPa) = 0.01887281
#
# Stress axis : x y z
#
# Youngs Moduli (GPa) = 43.80664 55.97627 123.21002
#
# Poissons Ratio (x) = 0.43431 0.77442
# Poissons Ratio (y) = 0.33989 0.11380
# Poissons Ratio (z) = 0.27534 0.05170
#
# Static dielectric constant tensor:
#      x y z
#    x 3.919900 0.000000 0.198560 
#    y 0.000000 3.437000 0.000010 
#    z 0.198560 0.000010 4.562710 
# 
# 
# High freq. dielectric constant tensor:
#      x y z
#    x 1.817640 0.000000 0.008060 
#    y 0.000000 1.767000 0.000000 
#    z 0.008060 0.000000 1.853730 
# 
# From -- ./inp_files/208526.got.cif
#   From: 2010.06.25/outbox.cif.g09.slc.cpg/sg12_105_cif.got.tgz:208526.got - 2010.06.28 00:19:55.
