data_PCOD8094810
_publ_section_title
;
Structure prediction by ZEFSAII (Michael W. Deem and Ramdas Pophale) SiO2 
 PCOD8094810
Probable space group: C 2/M
;
_chemical_formula_sum "Si O2"
_cell_formula_units_Z 56
_cell_length_a 21.478529
_cell_length_b 17.305297
_cell_length_c 21.265775
_cell_angle_alpha 90.000000
_cell_angle_beta 159.633022
_cell_angle_gamma 90.000000
_cell_volume 2750.956521
_symmetry_space_group_name_H-M "C 2/M"
_symmetry_group_IT_number 12
_symmetry_cell_setting 'monoclinic'
loop_
_space_group_symop_operation_xyz
x,y,z
-x,y,-z
-x,-y,-z
x,-y,z
1/2+x,1/2+y,z
1/2-x,1/2+y,-z
1/2-x,1/2-y,-z
1/2+x,1/2-y,z
loop_
_atom_site_type_symbol
_atom_site_label
_atom_site_fract_x
_atom_site_fract_y
_atom_site_fract_z
Si Si1 0.592521 0.088613 0.876194
Si Si2 0.686051 0.168046 0.838122
Si Si3 0.207795 0.589247 0.206932
Si Si4 0.924165 0.589817 0.495274
Si Si5 0.150900 0.845838 0.782502
Si Si6 0.484201 0.590010 0.913528
Si Si7 0.779831 0.909085 0.416464
O O1 0.657644 0.144068 0.882824
O O2 0.393794 0.113625 0.707990
O O3 0.596065 0.000000 0.856662
O O4 0.722012 0.096525 0.058590
O O5 0.520940 0.137968 0.640636
O O6 0.697198 0.259460 0.845463
O O7 0.876221 0.135640 0.996399
O O8 0.260589 0.500000 0.247000
O O9 0.319123 0.640350 0.263252
O O10 0.256664 0.618093 0.322646
O O11 0.000000 0.602984 0.000000
O O12 0.967651 0.500000 0.547177
O O13 0.713453 0.606603 0.299827
O O14 0.000000 0.616749 0.500000
O O15 0.945200 0.864150 0.604174
O O16 0.533123 0.500000 0.956467
O O17 0.500000 0.619276 0.000000
O O18 0.815030 0.000000 0.452450
#
# Coordination Sequence:
#
# PCOD8094810 Si02
#       7
#     8   8   8   8   8   8   8
#     4  11  24  45  67  88 122 171 222 264 304 370
#     4  12  26  40  61  96 136 166 204 258 328 388
#     4  10  19  39  68  95 121 162 215 263 308 363
#     4  10  20  38  63  88 119 164 219 269 310 361
#     4  12  25  40  63  94 134 167 199 259 332 386
#     4  10  20  39  66  90 118 166 221 264 302 361
#     4  10  22  41  68  95 122 164 219 266 307 370
#
# _framework density 20.356556000000001
#
# number of rings (size 3 to 8) (size 9 to 14) (size 15 to 20)
#    0.000    1.286    2.857    3.429    0.000    5.714 
#    0.000    1.429    0.000    0.000    0.000    0.000 
#    0.000    0.000    0.000    0.000    0.000    0.000 
#
# Total GULP energy -347391.374652 kJ/mol
# GULP energy per Si atom -12406.834809 kJ/mol
# Density = 2.031022 g / cm^3
# Si number density = 20.356556 Si / 1000 Ang^3
#
#
#
# Elastic Constant Matrix: (Units=GPa)
#
#
# Indices 1 2 3 4 5 6 
#
# 1 119.3281 44.1172 32.8225 -0.0249 25.6868 0.0016
# 2 44.1172 70.3073 27.4593 -0.0645 16.3560 -0.0279
# 3 32.8225 27.4593 114.0572 -0.1705 26.0062 0.0231
# 4 -0.0249 -0.0645 -0.1705 24.2682 -0.0481 -15.1897
# 5 25.6868 16.3560 26.0062 -0.0481 29.4943 -0.0175
# 6 0.0016 -0.0279 0.0231 -15.1897 -0.0175 27.6139
#
#
#
# Elastic Compliance Matrix: (Units=1/GPa)
#
#
# Indices 1 2 3 4 5 6 
#
# 1 0.012162 -0.005821 -0.000525 -0.000041 -0.006901 -0.000033
# 2 -0.005821 0.019629 -0.002158 0.000054 -0.003912 0.000049
# 3 -0.000525 -0.002158 0.011341 0.000071 -0.008346 0.000022
# 4 -0.000041 0.000054 0.000071 0.062844 0.000066 0.034569
# 5 -0.006901 -0.003912 -0.008346 0.000066 0.049444 0.000071
# 6 -0.000033 0.000049 0.000022 0.034569 0.000071 0.055229
#
#
# Mechanical properties :
#
#
# Convention : Reuss Voigt Hill
#
# Bulk Modulus (GPa) = 38.27970 56.94338 47.61154
# Shear Modulus (GPa) = 21.15348 29.56150 25.35749
#
# Velocity S-wave (km/s) = 3.22708 3.81489 3.53323
# Velocity P-wave (km/s) = 5.72109 6.88754 6.33123
#
# Compressibility (1/GPa) = 0.02612351
#
# Stress axis : x y z
#
# Youngs Moduli (GPa) = 82.22009 50.94419 88.17354
#
# Poissons Ratio (x) = 0.29656 0.04629
# Poissons Ratio (y) = 0.47863 0.19032
# Poissons Ratio (z) = 0.04317 0.10996
#
# Static dielectric constant tensor:
#      x y z
#    x 3.680700 -0.000050 0.050840 
#    y -0.000050 3.466200 -0.000090 
#    z 0.050840 -0.000090 3.817140 
# 
# 
# High freq. dielectric constant tensor:
#      x y z
#    x 1.796320 0.000000 0.005660 
#    y 0.000000 1.779280 -0.000010 
#    z 0.005660 -0.000010 1.812600 
# 
# From -- ./inp_files/322635.got.cif
#   From: 2010.06.25/outbox.cif.g09.slc.cpg/sg12_162_cif.got.tgz:322635.got - 2010.06.28 00:19:55.
