data_PCOD8094462
_publ_section_title
;
Structure prediction by ZEFSAII (Michael W. Deem and Ramdas Pophale) SiO2 
 PCOD8094462
Probable space group: C 2/M
;
_chemical_formula_sum "Si O2"
_cell_formula_units_Z 56
_cell_length_a 11.309578
_cell_length_b 30.601533
_cell_length_c 9.531746
_cell_angle_alpha 90.000000
_cell_angle_beta 119.875938
_cell_angle_gamma 90.000000
_cell_volume 2860.449235
_symmetry_space_group_name_H-M "C 2/M"
_symmetry_group_IT_number 12
_symmetry_cell_setting 'monoclinic'
loop_
_space_group_symop_operation_xyz
x,y,z
-x,y,-z
-x,-y,-z
x,-y,z
1/2+x,1/2+y,z
1/2-x,1/2+y,-z
1/2-x,1/2-y,-z
1/2+x,1/2-y,z
loop_
_atom_site_type_symbol
_atom_site_label
_atom_site_fract_x
_atom_site_fract_y
_atom_site_fract_z
Si Si1 0.367063 0.050821 0.009177
Si Si2 0.290772 0.156710 0.619475
Si Si3 0.707113 0.828950 0.851970
Si Si4 0.475728 0.902841 0.332498
Si Si5 0.084941 0.827099 0.253331
Si Si6 0.823215 0.875220 0.171243
Si Si7 0.505897 0.768046 0.170990
O O1 0.399815 0.061610 0.190989
O O2 0.336419 0.000000 0.974163
O O3 0.500000 0.065508 0.000000
O O4 0.228610 0.074568 0.871516
O O5 0.385652 0.114142 0.657038
O O6 0.210378 0.166122 0.430713
O O7 0.183488 0.143602 0.676300
O O8 0.372708 0.200170 0.709329
O O9 0.618974 0.860358 0.699622
O O10 0.856089 0.824092 0.870818
O O11 0.634046 0.782854 0.835524
O O12 0.715595 0.849783 0.010922
O O13 0.500000 0.924186 0.500000
O O14 0.018719 0.780166 0.243626
O O15 0.977165 0.866925 0.206312
O O16 0.500000 0.768172 0.000000
#
# Coordination Sequence:
#
# PCOD8094462 Si02
#       7
#     8   8   8   8   8   8   8
#     4  10  21  39  69 100 118 146 200 255 301 362
#     4  11  22  40  57  88 119 164 206 251 296 355
#     4  10  22  38  59  85 115 162 211 252 294 354
#     4  10  19  37  64  88 121 157 195 250 303 353
#     4  12  25  38  57  86 124 167 202 251 302 361
#     4  11  22  40  63  85 121 159 199 243 307 370
#     4  11  23  38  61  82 120 164 216 264 296 333
#
# _framework density 19.577345000000001
#
# number of rings (size 3 to 8) (size 9 to 14) (size 15 to 20)
#    0.000    1.286    4.286    2.143    2.000    1.429 
#    2.571    0.000    0.000    9.429    0.000    0.000 
#    0.000    0.000    0.000    0.000    0.000    0.000 
#
# Total GULP energy -347171.273795 kJ/mol
# GULP energy per Si atom -12398.974064 kJ/mol
# Density = 1.953279 g / cm^3
# Si number density = 19.577345 Si / 1000 Ang^3
#
#
#
# Elastic Constant Matrix: (Units=GPa)
#
#
# Indices 1 2 3 4 5 6 
#
# 1 122.0729 43.4383 15.2267 0.0000 -2.5193 0.0000
# 2 43.4383 90.7614 24.0767 0.0000 5.2907 0.0000
# 3 15.2267 24.0767 65.7091 0.0000 -2.0111 0.0000
# 4 0.0000 0.0000 0.0000 22.2446 0.0000 3.8573
# 5 -2.5193 5.2907 -2.0111 0.0000 32.1417 0.0000
# 6 0.0000 0.0000 0.0000 3.8573 0.0000 22.2245
#
#
#
# Elastic Compliance Matrix: (Units=1/GPa)
#
#
# Indices 1 2 3 4 5 6 
#
# 1 0.009969 -0.004718 -0.000535 0.000000 0.001525 0.000000
# 2 -0.004718 0.014608 -0.004353 0.000000 -0.003047 0.000000
# 3 -0.000535 -0.004353 0.016991 0.000000 0.001738 0.000000
# 4 0.000000 0.000000 0.000000 0.046350 0.000000 -0.008045
# 5 0.001525 -0.003047 0.001738 0.000000 0.031842 0.000000
# 6 0.000000 0.000000 0.000000 -0.008045 0.000000 0.046392
#
#
# Mechanical properties :
#
#
# Convention : Reuss Voigt Hill
#
# Bulk Modulus (GPa) = 44.72887 49.33633 47.03260
# Shear Modulus (GPa) = 25.93173 28.37559 27.15366
#
# Velocity S-wave (km/s) = 3.64342 3.81124 3.72828
# Velocity P-wave (km/s) = 6.37152 6.68003 6.52760
#
# Compressibility (1/GPa) = 0.02235693
#
# Stress axis : x y z
#
# Youngs Moduli (GPa) = 100.31227 68.45457 58.85635
#
# Poissons Ratio (x) = 0.32298 0.03147
# Poissons Ratio (y) = 0.47329 0.25618
# Poissons Ratio (z) = 0.05363 0.29795
#
# Static dielectric constant tensor:
#      x y z
#    x 3.510330 0.000000 -0.003500 
#    y 0.000000 3.303220 0.000000 
#    z -0.003500 0.000000 3.585740 
# 
# 
# High freq. dielectric constant tensor:
#      x y z
#    x 1.762880 0.000000 -0.005800 
#    y 0.000000 1.733900 0.000000 
#    z -0.005800 0.000000 1.773210 
# 
# From -- ./inp_files/54795.got.cif
#   From: 2010.06.25/outbox.cif.g09.slc.cpg/sg12_28_cif.got.tgz:54795.got - 2010.06.28 00:19:55.
