data_PCOD8094928
_publ_section_title
;
Structure prediction by ZEFSAII (Michael W. Deem and Ramdas Pophale) SiO2 
 PCOD8094928
Probable space group: C 2/M
;
_chemical_formula_sum "Si O2"
_cell_formula_units_Z 48
_cell_length_a 22.679200
_cell_length_b 24.242886
_cell_length_c 10.046202
_cell_angle_alpha 90.000000
_cell_angle_beta 27.433184
_cell_angle_gamma 90.000000
_cell_volume 2544.750892
_symmetry_space_group_name_H-M "C 2/M"
_symmetry_group_IT_number 12
_symmetry_cell_setting 'monoclinic'
loop_
_space_group_symop_operation_xyz
x,y,z
-x,y,-z
-x,-y,-z
x,-y,z
1/2+x,1/2+y,z
1/2-x,1/2+y,-z
1/2-x,1/2-y,-z
1/2+x,1/2-y,z
loop_
_atom_site_type_symbol
_atom_site_label
_atom_site_fract_x
_atom_site_fract_y
_atom_site_fract_z
Si Si1 0.240055 0.175591 0.292432
Si Si2 0.603714 0.770517 0.683142
Si Si3 0.062284 0.743528 0.239248
Si Si4 0.604449 0.563982 0.898592
Si Si5 0.517674 0.633970 0.315701
Si Si6 0.144942 0.386021 0.712276
O O1 0.210206 0.222093 0.466516
O O2 0.327899 0.129952 0.188270
O O3 0.119986 0.145099 0.471801
O O4 0.310638 0.207163 0.031634
O O5 0.538872 0.770832 0.670193
O O6 0.658685 0.831357 0.595047
O O7 0.500000 0.753580 0.000000
O O8 0.096213 0.808757 0.170658
O O9 0.000000 0.724530 0.500000
O O10 0.578996 0.500000 0.974564
O O11 0.748570 0.571462 0.553633
O O12 0.500000 0.586813 0.000000
O O13 0.591706 0.593323 0.067492
O O14 0.500000 0.608131 0.500000
O O15 0.000000 0.410767 0.000000
#
# Coordination Sequence:
#
# PCOD8094928 Si02
#       6
#     8   8   8   8   8   8
#     4  11  20  34  55  85 124 156 189 239 279 337
#     4  10  20  30  52  85 117 156 194 226 280 347
#     4  10  21  34  51  84 125 161 191 227 274 344
#     4  11  24  42  65  87 111 148 198 256 301 339
#     4  10  23  38  59  87 117 159 195 235 287 348
#     4  11  21  36  60  90 113 151 195 241 292 345
#
# _framework density 18.862356999999999
#
# number of rings (size 3 to 8) (size 9 to 14) (size 15 to 20)
#    0.000    1.500    5.000    1.500    4.667    8.000 
#    0.000    0.000    0.000    0.000    0.000    1.167 
#    0.000    0.000    0.000    0.000    0.000    0.000 
#
# Total GULP energy -297550.680476 kJ/mol
# GULP energy per Si atom -12397.945020 kJ/mol
# Density = 1.881943 g / cm^3
# Si number density = 18.862357 Si / 1000 Ang^3
#
#
#
# Elastic Constant Matrix: (Units=GPa)
#
#
# Indices 1 2 3 4 5 6 
#
# 1 70.6684 18.6261 37.1044 0.0016 18.0374 -0.0008
# 2 18.6261 46.1792 36.0419 -0.0002 9.1100 0.0001
# 3 37.1044 36.0419 121.8948 0.0009 9.8947 -0.0015
# 4 0.0016 -0.0002 0.0009 24.4637 -0.0009 -2.0140
# 5 18.0374 9.1100 9.8947 -0.0009 40.6981 0.0006
# 6 -0.0008 0.0001 -0.0015 -2.0140 0.0006 19.7510
#
#
#
# Elastic Compliance Matrix: (Units=1/GPa)
#
#
# Indices 1 2 3 4 5 6 
#
# 1 0.018906 -0.002913 -0.004352 -0.000001 -0.006669 0.000000
# 2 -0.002913 0.029381 -0.007520 0.000000 -0.003457 -0.000001
# 3 -0.004352 -0.007520 0.011690 0.000000 0.000770 0.000001
# 4 -0.000001 0.000000 0.000000 0.041223 0.000001 0.004204
# 5 -0.006669 -0.003457 0.000770 0.000001 0.028113 -0.000001
# 6 0.000000 -0.000001 0.000001 0.004204 -0.000001 0.051059
#
#
# Mechanical properties :
#
#
# Convention : Reuss Voigt Hill
#
# Bulk Modulus (GPa) = 32.88857 46.92080 39.90469
# Shear Modulus (GPa) = 22.71927 26.78056 24.74992
#
# Velocity S-wave (km/s) = 3.47432 3.77210 3.62627
# Velocity P-wave (km/s) = 5.79383 6.62578 6.22372
#
# Compressibility (1/GPa) = 0.03040570
#
# Stress axis : x y z
#
# Youngs Moduli (GPa) = 52.89426 34.03556 85.54639
#
# Poissons Ratio (x) = 0.09915 0.37231
# Poissons Ratio (y) = 0.15409 0.64331
# Poissons Ratio (z) = 0.23020 0.25595
#
# Static dielectric constant tensor:
#      x y z
#    x 3.577380 -0.000010 -0.006010 
#    y -0.000010 3.165920 0.000000 
#    z -0.006010 0.000000 3.529120 
# 
# 
# High freq. dielectric constant tensor:
#      x y z
#    x 1.744400 0.000000 -0.001780 
#    y 0.000000 1.693070 0.000000 
#    z -0.001780 0.000000 1.735970 
# 
# From -- ./inp_files/52049.got.cif
#   From: 2010.06.25/outbox.cif.g09.slc.cpg/sg12_27_cif.got.tgz:52049.got - 2010.06.28 00:19:55.
