data_PCOD8094953
_publ_section_title
;
Structure prediction by ZEFSAII (Michael W. Deem and Ramdas Pophale) SiO2 
 PCOD8094953
Probable space group: C 2/M
;
_chemical_formula_sum "Si O2"
_cell_formula_units_Z 56
_cell_length_a 20.099050
_cell_length_b 27.621018
_cell_length_c 5.163578
_cell_angle_alpha 90.000000
_cell_angle_beta 103.611485
_cell_angle_gamma 90.000000
_cell_volume 2786.080898
_symmetry_space_group_name_H-M "C 2/M"
_symmetry_group_IT_number 12
_symmetry_cell_setting 'monoclinic'
loop_
_space_group_symop_operation_xyz
x,y,z
-x,y,-z
-x,-y,-z
x,-y,z
1/2+x,1/2+y,z
1/2-x,1/2+y,-z
1/2-x,1/2-y,-z
1/2+x,1/2-y,z
loop_
_atom_site_type_symbol
_atom_site_label
_atom_site_fract_x
_atom_site_fract_y
_atom_site_fract_z
Si Si1 0.329441 0.881542 0.071628
Si Si2 0.457898 0.814756 0.212214
Si Si3 0.180430 0.445425 0.433855
Si Si4 0.670283 0.578945 0.476508
Si Si5 0.824650 0.862747 0.022504
Si Si6 0.456240 0.700763 0.209644
Si Si7 0.473047 0.553168 0.725759
O O1 0.384528 0.839676 0.146308
O O2 0.337457 0.918948 0.315419
O O3 0.256401 0.852978 0.995393
O O4 0.344690 0.912608 0.827421
O O5 0.500000 0.832169 0.500000
O O6 0.444793 0.757872 0.204593
O O7 0.500000 0.831131 0.000000
O O8 0.148634 0.500000 0.398196
O O9 0.261886 0.452306 0.488171
O O10 0.669848 0.623934 0.275318
O O11 0.607554 0.545211 0.340608
O O12 0.657122 0.594438 0.761053
O O13 0.878432 0.819916 0.131036
O O14 0.500000 0.683749 0.500000
O O15 0.500000 0.684590 0.000000
O O16 0.500000 0.582579 0.500000
O O17 0.508852 0.500000 0.759559
O O18 0.500000 0.582938 0.000000
#
# Coordination Sequence:
#
# PCOD8094953 Si02
#       7
#     8   8   8   8   8   8   8
#     4  10  21  37  59  86 111 142 185 226 272 326
#     4  10  21  39  62  84 110 146 181 219 274 338
#     4  10  20  36  58  81 109 142 178 225 274 327
#     4  10  20  33  49  72 102 139 179 219 271 319
#     4  10  21  34  52  80 109 139 181 227 265 310
#     4  10  21  36  55  81 113 150 188 224 270 324
#     4  10  20  31  43  62  90 128 176 222 262 310
#
# _framework density 20.099919
#
# number of rings (size 3 to 8) (size 9 to 14) (size 15 to 20)
#    0.000    2.000    0.000    3.429    0.000    4.000 
#    0.000    4.286    0.000   18.857    0.000    0.000 
#    0.000    0.000    0.000    0.000    0.000    0.000 
#
# Total GULP energy -346965.120772 kJ/mol
# GULP energy per Si atom -12391.611456 kJ/mol
# Density = 2.005417 g / cm^3
# Si number density = 20.099919 Si / 1000 Ang^3
#
#
#
# Elastic Constant Matrix: (Units=GPa)
#
#
# Indices 1 2 3 4 5 6 
#
# 1 92.1097 41.7306 43.7081 0.0000 11.8426 0.0000
# 2 41.7306 65.2027 28.3748 0.0000 10.5375 0.0000
# 3 43.7081 28.3748 150.5378 0.0000 -9.8439 0.0000
# 4 0.0000 0.0000 0.0000 39.8941 0.0000 16.7267
# 5 11.8426 10.5375 -9.8439 0.0000 33.5299 0.0000
# 6 0.0000 0.0000 0.0000 16.7267 0.0000 22.5079
#
#
#
# Elastic Compliance Matrix: (Units=1/GPa)
#
#
# Indices 1 2 3 4 5 6 
#
# 1 0.017039 -0.008631 -0.003606 0.000000 -0.004364 0.000000
# 2 -0.008631 0.022493 -0.002036 0.000000 -0.004618 0.000000
# 3 -0.003606 -0.002036 0.008359 0.000000 0.004367 0.000000
# 4 0.000000 0.000000 0.000000 0.036412 0.000000 -0.027059
# 5 -0.004364 -0.004618 0.004367 0.000000 0.034099 0.000000
# 6 0.000000 0.000000 0.000000 -0.027059 0.000000 0.064538
#
#
# Mechanical properties :
#
#
# Convention : Reuss Voigt Hill
#
# Bulk Modulus (GPa) = 51.68926 59.49748 55.59337
# Shear Modulus (GPa) = 22.94284 32.12216 27.53250
#
# Velocity S-wave (km/s) = 3.38219 4.00199 3.70507
# Velocity P-wave (km/s) = 6.40501 7.14281 6.78395
#
# Compressibility (1/GPa) = 0.01934638
#
# Stress axis : x y z
#
# Youngs Moduli (GPa) = 58.68919 44.45863 119.63029
#
# Poissons Ratio (x) = 0.38371 0.43136
# Poissons Ratio (y) = 0.50653 0.24354
# Poissons Ratio (z) = 0.21162 0.09051
#
# Static dielectric constant tensor:
#      x y z
#    x 3.653640 0.000000 -0.169290 
#    y 0.000000 3.245690 0.000000 
#    z -0.169290 0.000000 4.139200 
# 
# 
# High freq. dielectric constant tensor:
#      x y z
#    x 1.777190 0.000000 -0.008110 
#    y 0.000000 1.759130 0.000000 
#    z -0.008110 0.000000 1.810870 
# 
# From -- ./inp_files/17717.got.cif
#   From: 2010.06.25/outbox.cif.g09.slc.cpg/sg12_9_cif.got.tgz:17717.got - 2010.06.28 00:19:55.
