data_PCOD8094332
_publ_section_title
;
Structure prediction by ZEFSAII (Michael W. Deem and Ramdas Pophale) SiO2 
 PCOD8094332
Probable space group: C 2/M
;
_chemical_formula_sum "Si O2"
_cell_formula_units_Z 48
_cell_length_a 17.554782
_cell_length_b 16.692542
_cell_length_c 15.324491
_cell_angle_alpha 90.000000
_cell_angle_beta 33.011183
_cell_angle_gamma 90.000000
_cell_volume 2446.488852
_symmetry_space_group_name_H-M "C 2/M"
_symmetry_group_IT_number 12
_symmetry_cell_setting 'monoclinic'
loop_
_space_group_symop_operation_xyz
x,y,z
-x,y,-z
-x,-y,-z
x,-y,z
1/2+x,1/2+y,z
1/2-x,1/2+y,-z
1/2-x,1/2-y,-z
1/2+x,1/2-y,z
loop_
_atom_site_type_symbol
_atom_site_label
_atom_site_fract_x
_atom_site_fract_y
_atom_site_fract_z
Si Si1 0.556526 0.827741 0.692946
Si Si2 0.769085 0.000000 0.197872
Si Si3 0.110159 0.339915 0.321414
Si Si4 0.337090 0.751902 0.180926
Si Si5 0.356334 0.660904 0.333759
Si Si6 0.469053 0.500000 0.170474
Si Si7 0.597225 0.912083 0.823432
O O1 0.454528 0.847550 0.712010
O O2 0.550012 0.732334 0.716018
O O3 0.715915 0.854518 0.522833
O O4 0.510214 0.879709 0.822406
O O5 0.667750 0.074789 0.293372
O O6 0.855568 0.000000 0.203356
O O7 0.873419 0.000000 0.015643
O O8 0.236949 0.274520 0.197497
O O9 0.000000 0.310701 0.500000
O O10 0.311166 0.684977 0.279407
O O11 0.292733 0.840771 0.258473
O O12 0.500000 0.751157 0.000000
O O13 0.447393 0.579834 0.248878
O O14 0.665496 0.000000 0.738431
O O15 0.500000 0.922612 0.000000
#
# Coordination Sequence:
#
# PCOD8094332 Si02
#       7
#     8   4   8   8   8   4   8
#     4  10  22  37  61  91 117 153 200 251 297 350
#     4  11  23  34  58  88 126 156 195 233 308 361
#     4  12  22  37  60  92 126 153 192 246 300 356
#     4  10  19  37  61  86 119 162 196 234 297 360
#     4  10  20  37  58  89 119 157 200 235 298 360
#     4  11  20  38  58  84 121 167 192 237 292 377
#     4   9  20  39  62  84 112 155 207 250 289 342
#
# _framework density 19.619954
#
# number of rings (size 3 to 8) (size 9 to 14) (size 15 to 20)
#    0.000    1.667    3.333    1.250    2.333    0.000 
#    0.000   13.333    1.833    0.500    0.000    0.000 
#    0.000    0.000    0.000    0.000    0.000    0.000 
#
# Total GULP energy -297467.601566 kJ/mol
# GULP energy per Si atom -12394.483399 kJ/mol
# Density = 1.957530 g / cm^3
# Si number density = 19.619954 Si / 1000 Ang^3
#
#
#
# Elastic Constant Matrix: (Units=GPa)
#
#
# Indices 1 2 3 4 5 6 
#
# 1 93.9472 28.1526 27.9918 0.0016 4.6848 -0.0008
# 2 28.1526 149.1209 29.3954 0.0009 -4.5496 -0.0003
# 3 27.9918 29.3954 72.4040 0.0020 3.5075 -0.0013
# 4 0.0016 0.0009 0.0020 15.9679 -0.0015 13.6188
# 5 4.6848 -4.5496 3.5075 -0.0015 28.2238 0.0007
# 6 -0.0008 -0.0003 -0.0013 13.6188 0.0007 4.3073
#
#
#
# Elastic Compliance Matrix: (Units=1/GPa)
#
#
# Indices 1 2 3 4 5 6 
#
# 1 0.012426 -0.001600 -0.004066 0.000001 -0.001815 -0.000002
# 2 -0.001600 0.007563 -0.002539 -0.000001 0.001800 0.000001
# 3 -0.004066 -0.002539 0.016501 0.000003 -0.001785 -0.000006
# 4 0.000001 -0.000001 0.000003 -0.036912 -0.000005 0.116707
# 5 -0.001815 0.001800 -0.001785 -0.000005 0.036244 0.000011
# 6 -0.000002 0.000001 -0.000006 0.116707 0.000011 -0.136838
#
#
# Mechanical properties :
#
#
# Convention : Reuss Voigt Hill
#
# Bulk Modulus (GPa) = 49.80329 54.06128 51.93229
# Shear Modulus (GPa) = -64.17611 25.02862 -19.57375
#
# Velocity S-wave (km/s) = -5.72544 3.57553 -3.16198
# Velocity P-wave (km/s) = 4.27415 6.68281 3.63260
#
# Compressibility (1/GPa) = 0.02007899
#
# Stress axis : x y z
#
# Youngs Moduli (GPa) = 80.47797 132.21410 60.60238
#
# Poissons Ratio (x) = 0.21149 0.24644
# Poissons Ratio (y) = 0.12874 0.15390
# Poissons Ratio (z) = 0.32726 0.33576
#
# Static dielectric constant tensor:
#      x y z
#    x 3.462990 0.000000 0.223550 
#    y 0.000000 4.106410 0.000000 
#    z 0.223550 0.000000 3.522520 
# 
# 
# High freq. dielectric constant tensor:
#      x y z
#    x 1.739190 0.000000 0.021540 
#    y 0.000000 1.781410 0.000000 
#    z 0.021540 0.000000 1.752260 
# 
# From -- ./inp_files/112775.got.cif
#   From: 2010.06.25/outbox.cif.g09.slc.cpg/sg12_57_cif.got.tgz:112775.got - 2010.06.28 00:19:55.
