data_PCOD8094629
_publ_section_title
;
Structure prediction by ZEFSAII (Michael W. Deem and Ramdas Pophale) SiO2 
 PCOD8094629
Probable space group: C 2/M
;
_chemical_formula_sum "Si O2"
_cell_formula_units_Z 64
_cell_length_a 24.687230
_cell_length_b 8.509823
_cell_length_c 15.068721
_cell_angle_alpha 90.000000
_cell_angle_beta 87.308122
_cell_angle_gamma 90.000000
_cell_volume 3162.203333
_symmetry_space_group_name_H-M "C 2/M"
_symmetry_group_IT_number 12
_symmetry_cell_setting 'monoclinic'
loop_
_space_group_symop_operation_xyz
x,y,z
-x,y,-z
-x,-y,-z
x,-y,z
1/2+x,1/2+y,z
1/2-x,1/2+y,-z
1/2-x,1/2-y,-z
1/2+x,1/2-y,z
loop_
_atom_site_type_symbol
_atom_site_label
_atom_site_fract_x
_atom_site_fract_y
_atom_site_fract_z
Si Si1 0.524883 0.314014 0.903636
Si Si2 0.337734 0.817156 0.509906
Si Si3 0.769522 0.181418 0.166961
Si Si4 0.450151 0.685540 0.561516
Si Si5 0.841107 0.817683 0.875584
Si Si6 0.633382 0.818880 0.943896
Si Si7 0.265302 0.684077 0.371408
Si Si8 0.443592 0.313769 0.760398
O O1 0.532208 0.500000 0.896706
O O2 0.582708 0.230593 0.887014
O O3 0.487671 0.247709 0.826605
O O4 0.500000 0.263974 0.000000
O O5 0.393326 0.725345 0.520342
O O6 0.314227 0.776223 0.414883
O O7 0.293081 0.762825 0.585764
O O8 0.350500 0.000000 0.516164
O O9 0.711391 0.208973 0.127179
O O10 0.812429 0.291494 0.115883
O O11 0.766740 0.231621 0.269245
O O12 0.785877 0.000000 0.153776
O O13 0.500000 0.755743 0.500000
O O14 0.455670 0.500000 0.566609
O O15 0.453331 0.756340 0.661216
O O16 0.883470 0.765023 0.796588
O O17 0.825233 0.000000 0.867241
O O18 0.868309 0.789870 0.968864
O O19 0.630064 0.000000 0.971913
O O20 0.274056 0.500000 0.386996
O O21 0.448156 0.500000 0.759888
#
# Coordination Sequence:
#
# PCOD8094629 Si02
#       8
#     8   8   8   8   8   8   8   8
#     4  10  19  38  63  84 111 150 197 244 287 341
#     4  10  20  36  60  87 116 148 189 239 291 340
#     4  11  23  39  58  84 117 153 193 237 290 348
#     4  10  21  37  57  84 118 154 193 235 284 346
#     4  11  21  38  61  84 112 150 195 241 291 346
#     4  12  25  39  56  84 119 154 192 238 293 347
#     4   9  20  38  60  85 114 151 192 235 287 348
#     4   9  19  36  61  87 111 149 196 238 288 346
#
# _framework density 20.239052999999998
#
# number of rings (size 3 to 8) (size 9 to 14) (size 15 to 20)
#    0.000    1.750    1.250    3.375    0.000    3.000 
#    0.000    3.750    0.000    0.000    0.000    0.000 
#    0.000    0.000    0.000    0.000    0.000    0.000 
#
# Total GULP energy -396936.586076 kJ/mol
# GULP energy per Si atom -12404.268315 kJ/mol
# Density = 2.019299 g / cm^3
# Si number density = 20.239053 Si / 1000 Ang^3
#
#
#
# Elastic Constant Matrix: (Units=GPa)
#
#
# Indices 1 2 3 4 5 6 
#
# 1 142.3507 16.4260 58.4841 0.0000 0.9519 0.0000
# 2 16.4260 33.6411 21.5044 0.0000 -3.4388 0.0000
# 3 58.4841 21.5044 76.4707 0.0000 -4.2184 0.0000
# 4 0.0000 0.0000 0.0000 16.9187 0.0000 2.7933
# 5 0.9519 -3.4388 -4.2184 0.0000 31.4870 0.0000
# 6 0.0000 0.0000 0.0000 2.7933 0.0000 31.3430
#
#
#
# Elastic Compliance Matrix: (Units=1/GPa)
#
#
# Indices 1 2 3 4 5 6 
#
# 1 0.010303 -0.000105 -0.007926 0.000000 -0.001385 0.000000
# 2 -0.000105 0.036456 -0.010025 0.000000 0.002642 0.000000
# 3 -0.007926 -0.010025 0.022074 0.000000 0.002102 0.000000
# 4 0.000000 0.000000 0.000000 0.059989 0.000000 -0.005346
# 5 -0.001385 0.002642 0.002102 0.000000 0.032371 0.000000
# 6 0.000000 0.000000 0.000000 -0.005346 0.000000 0.032382
#
#
# Mechanical properties :
#
#
# Convention : Reuss Voigt Hill
#
# Bulk Modulus (GPa) = 30.56389 49.47684 40.02037
# Shear Modulus (GPa) = 20.78189 26.35293 23.56741
#
# Velocity S-wave (km/s) = 3.20788 3.61235 3.41611
# Velocity P-wave (km/s) = 5.37168 6.47287 5.94781
#
# Compressibility (1/GPa) = 0.03271835
#
# Stress axis : x y z
#
# Youngs Moduli (GPa) = 97.06116 27.43066 45.30221
#
# Poissons Ratio (x) = 0.00289 0.35908
# Poissons Ratio (y) = 0.01024 0.45417
# Poissons Ratio (z) = 0.76933 0.27500
#
# Static dielectric constant tensor:
#      x y z
#    x 3.685460 0.000000 -0.020850 
#    y 0.000000 3.351950 0.000000 
#    z -0.020850 0.000000 3.872360 
# 
# 
# High freq. dielectric constant tensor:
#      x y z
#    x 1.798610 0.000000 0.004170 
#    y 0.000000 1.770960 0.000000 
#    z 0.004170 0.000000 1.793870 
# 
# From -- ./inp_files/238575.got.cif
#   From: 2010.06.25/outbox.cif.g09.slc.cpg/sg12_120_cif.got.tgz:238575.got - 2010.06.28 00:19:55.
