data_PCOD8094920
_publ_section_title
;
Structure prediction by ZEFSAII (Michael W. Deem and Ramdas Pophale) SiO2 
 PCOD8094920
Probable space group: C 2/M
;
_chemical_formula_sum "Si O2"
_cell_formula_units_Z 64
_cell_length_a 19.993139
_cell_length_b 9.205495
_cell_length_c 31.145499
_cell_angle_alpha 90.000000
_cell_angle_beta 143.156193
_cell_angle_gamma 90.000000
_cell_volume 3437.247981
_symmetry_space_group_name_H-M "C 2/M"
_symmetry_group_IT_number 12
_symmetry_cell_setting 'monoclinic'
loop_
_space_group_symop_operation_xyz
x,y,z
-x,y,-z
-x,-y,-z
x,-y,z
1/2+x,1/2+y,z
1/2-x,1/2+y,-z
1/2-x,1/2-y,-z
1/2+x,1/2-y,z
loop_
_atom_site_type_symbol
_atom_site_label
_atom_site_fract_x
_atom_site_fract_y
_atom_site_fract_z
Si Si1 0.413086 0.830091 0.065501
Si Si2 0.664408 0.827831 0.185058
Si Si3 0.276476 0.830264 0.079050
Si Si4 0.179768 0.826765 0.659592
Si Si5 0.253550 0.172411 0.604352
Si Si6 0.814718 0.166777 0.184847
Si Si7 0.436676 0.672561 0.556934
Si Si8 0.058994 0.833425 0.344432
O O1 0.538483 0.769662 0.125122
O O2 0.371016 0.797937 0.092072
O O3 0.405260 0.000000 0.050589
O O4 0.339014 0.745522 0.992957
O O5 0.739103 0.762573 0.261966
O O6 0.714645 0.781723 0.164762
O O7 0.665682 0.000000 0.189843
O O8 0.319641 0.767522 0.145898
O O9 0.254005 0.000000 0.072433
O O10 0.223395 0.772166 0.636180
O O11 0.055369 0.764403 0.602311
O O12 0.177905 0.000000 0.660731
O O13 0.160630 0.233250 0.523646
O O14 0.373657 0.236722 0.654613
O O15 0.260962 0.000000 0.606193
O O16 0.927996 0.185482 0.269549
O O17 0.797837 0.000000 0.161757
O O18 0.441497 0.500000 0.556858
O O19 0.413203 0.723013 0.593451
O O20 0.095273 0.000000 0.357290
#
# Coordination Sequence:
#
# PCOD8094920 Si02
#       8
#     8   8   8   8   8   8   8   8
#     4   9  19  36  58  81 105 136 174 210 249 303
#     4   9  17  32  54  77 100 135 180 220 252 292
#     4  10  21  36  56  82 112 138 162 206 262 310
#     4   9  16  29  51  78 105 131 172 225 265 297
#     4  10  20  30  51  81 105 132 172 223 269 307
#     4  10  20  35  55  76 101 139 180 216 253 301
#     4   9  16  31  51  75 104 136 175 218 263 307
#     4  10  20  34  51  72 105 143 175 210 257 316
#
# _framework density 18.619548000000002
#
# number of rings (size 3 to 8) (size 9 to 14) (size 15 to 20)
#    0.000    2.500    1.250    1.125    1.750    3.000 
#    0.000    3.125    0.000    3.000    0.000    0.000 
#    0.000    0.000    0.000    0.000    0.000    0.000 
#
# Total GULP energy -396836.870730 kJ/mol
# GULP energy per Si atom -12401.152210 kJ/mol
# Density = 1.857717 g / cm^3
# Si number density = 18.619548 Si / 1000 Ang^3
#
#
#
# Elastic Constant Matrix: (Units=GPa)
#
#
# Indices 1 2 3 4 5 6 
#
# 1 111.4264 27.5385 35.8593 0.0000 6.1492 0.0001
# 2 27.5385 33.0180 23.8256 0.0000 -2.3436 0.0002
# 3 35.8593 23.8256 77.0344 0.0000 0.8505 0.0001
# 4 0.0000 0.0000 0.0000 19.8875 0.0000 -1.8267
# 5 6.1492 -2.3436 0.8505 0.0000 40.3299 0.0000
# 6 0.0001 0.0002 0.0001 -1.8267 0.0000 22.6174
#
#
#
# Elastic Compliance Matrix: (Units=1/GPa)
#
#
# Indices 1 2 3 4 5 6 
#
# 1 0.012076 -0.007971 -0.003131 0.000000 -0.002238 0.000000
# 2 -0.007971 0.044507 -0.010099 0.000000 0.004015 0.000000
# 3 -0.003131 -0.010099 0.017568 0.000000 -0.000480 0.000000
# 4 0.000000 0.000000 0.000000 0.050659 0.000000 0.004091
# 5 -0.002238 0.004015 -0.000480 0.000000 0.025380 0.000000
# 6 0.000000 0.000000 0.000000 0.004091 0.000000 0.044544
#
#
# Mechanical properties :
#
#
# Convention : Reuss Voigt Hill
#
# Bulk Modulus (GPa) = 31.49846 43.99172 37.74509
# Shear Modulus (GPa) = 20.18414 25.51733 22.85073
#
# Velocity S-wave (km/s) = 3.29603 3.70599 3.50701
# Velocity P-wave (km/s) = 5.60702 6.48000 6.05925
#
# Compressibility (1/GPa) = 0.03174759
#
# Stress axis : x y z
#
# Youngs Moduli (GPa) = 82.81045 22.46821 56.92304
#
# Poissons Ratio (x) = 0.17910 0.17823
# Poissons Ratio (y) = 0.66010 0.57488
# Poissons Ratio (z) = 0.25929 0.22691
#
# Static dielectric constant tensor:
#      x y z
#    x 3.529110 0.000000 0.031270 
#    y 0.000000 2.971160 0.000000 
#    z 0.031270 0.000000 3.547070 
# 
# 
# High freq. dielectric constant tensor:
#      x y z
#    x 1.735190 0.000000 0.000270 
#    y 0.000000 1.673340 0.000000 
#    z 0.000270 0.000000 1.731290 
# 
# From -- ./inp_files/378277.got.cif
#   From: 2010.06.25/outbox.cif.g09.slc.cpg/sg12_190_cif.got.tgz:378277.got - 2010.06.28 00:19:55.
