data_PCOD8094972
_publ_section_title
;
Structure prediction by ZEFSAII (Michael W. Deem and Ramdas Pophale) SiO2 
 PCOD8094972
Probable space group: C 2/M
;
_chemical_formula_sum "Si O2"
_cell_formula_units_Z 64
_cell_length_a 31.479997
_cell_length_b 9.046288
_cell_length_c 15.780630
_cell_angle_alpha 90.000000
_cell_angle_beta 108.071680
_cell_angle_gamma 90.000000
_cell_volume 4272.271482
_symmetry_space_group_name_H-M "C 2/M"
_symmetry_group_IT_number 12
_symmetry_cell_setting 'monoclinic'
loop_
_space_group_symop_operation_xyz
x,y,z
-x,y,-z
-x,-y,-z
x,-y,z
1/2+x,1/2+y,z
1/2-x,1/2+y,-z
1/2-x,1/2-y,-z
1/2+x,1/2-y,z
loop_
_atom_site_type_symbol
_atom_site_label
_atom_site_fract_x
_atom_site_fract_y
_atom_site_fract_z
Si Si1 0.744789 0.328990 0.368632
Si Si2 0.411493 0.325817 0.339749
Si Si3 0.665725 0.327848 0.833292
Si Si4 0.758824 0.668986 0.802417
Si Si5 0.205599 0.670584 0.001328
Si Si6 0.008997 0.162797 0.406344
Si Si7 0.095253 0.674879 0.485026
Si Si8 0.181257 0.828275 0.484067
O O1 0.758611 0.500000 0.374902
O O2 0.728469 0.275931 0.266713
O O3 0.787962 0.234906 0.421822
O O4 0.704263 0.301360 0.407947
O O5 0.407100 0.500000 0.357898
O O6 0.377089 0.275262 0.246374
O O7 0.461483 0.288301 0.336031
O O8 0.400255 0.236879 0.417573
O O9 0.663830 0.500000 0.852627
O O10 0.710185 0.287195 0.808443
O O11 0.664757 0.243385 0.923578
O O12 0.758128 0.500000 0.770035
O O13 0.797178 0.690040 0.898371
O O14 0.208907 0.500000 0.978714
O O15 0.250000 0.750000 0.000000
O O16 0.048475 0.278263 0.411634
O O17 0.000000 0.154756 0.500000
O O18 0.023322 0.000000 0.382043
O O19 0.098347 0.500000 0.488745
O O20 0.134784 0.741128 0.452587
O O21 0.172682 0.000000 0.497483
#
# Coordination Sequence:
#
# PCOD8094972 Si02
#       8
#     8   8   8   8   8   8   8   8
#     4  10  20  31  45  64  81 103 139 177 208 239
#     4   9  17  29  44  61  84 114 142 167 204 250
#     4   9  17  28  42  61  83 109 140 170 200 237
#     4   9  17  28  42  59  83 114 140 165 203 245
#     4   9  17  28  41  58  80 108 138 167 202 240
#     4   8  15  28  43  58  80 111 140 166 202 247
#     4  11  20  28  42  62  82 108 143 177 206 238
#     4  10  20  33  45  58  82 111 137 170 210 248
#
# _framework density 14.980321
#
# number of rings (size 3 to 8) (size 9 to 14) (size 15 to 20)
#    0.000    2.625    0.000    4.500    0.000    7.750 
#    0.000    0.000    0.000    0.000    0.000    0.000 
#    0.000    1.000    0.000   11.250    0.000    5.625 
#
# Total GULP energy -396683.646055 kJ/mol
# GULP energy per Si atom -12396.363939 kJ/mol
# Density = 1.494623 g / cm^3
# Si number density = 14.980321 Si / 1000 Ang^3
#
#
#
# Elastic Constant Matrix: (Units=GPa)
#
#
# Indices 1 2 3 4 5 6 
#
# 1 80.4019 43.8645 38.7119 0.0000 14.6642 0.0000
# 2 43.8645 90.0883 42.9706 0.0000 3.6493 0.0000
# 3 38.7119 42.9706 89.6253 0.0000 14.4195 0.0000
# 4 0.0000 0.0000 0.0000 25.7622 0.0000 1.5648
# 5 14.6642 3.6493 14.4195 0.0000 20.4519 0.0000
# 6 0.0000 0.0000 0.0000 1.5648 0.0000 20.3781
#
#
#
# Elastic Compliance Matrix: (Units=1/GPa)
#
#
# Indices 1 2 3 4 5 6 
#
# 1 0.020278 -0.007895 -0.003227 0.000000 -0.010856 0.000000
# 2 -0.007895 0.017587 -0.006123 0.000000 0.006839 0.000000
# 3 -0.003227 -0.006123 0.016850 0.000000 -0.008474 0.000000
# 4 0.000000 0.000000 0.000000 0.038998 0.000000 -0.002995
# 5 -0.010856 0.006839 -0.008474 0.000000 0.061433 0.000000
# 6 0.000000 0.000000 0.000000 -0.002995 0.000000 0.049302
#
#
# Mechanical properties :
#
#
# Convention : Reuss Voigt Hill
#
# Bulk Modulus (GPa) = 49.43849 56.80105 53.11977
# Shear Modulus (GPa) = 20.35160 22.28968 21.32064
#
# Velocity S-wave (km/s) = 3.68986 3.86155 3.77668
# Velocity P-wave (km/s) = 7.15733 7.60799 7.38610
#
# Compressibility (1/GPa) = 0.02022716
#
# Stress axis : x y z
#
# Youngs Moduli (GPa) = 49.31386 56.85864 59.34602
#
# Poissons Ratio (x) = 0.44887 0.19153
# Poissons Ratio (y) = 0.38931 0.36336
# Poissons Ratio (z) = 0.15915 0.34813
#
# Static dielectric constant tensor:
#      x y z
#    x 2.877910 0.000000 0.220360 
#    y 0.000000 2.980490 0.000000 
#    z 0.220360 0.000000 2.880510 
# 
# 
# High freq. dielectric constant tensor:
#      x y z
#    x 1.547080 0.000000 0.017880 
#    y 0.000000 1.582610 0.000000 
#    z 0.017880 0.000000 1.552930 
# 
# From -- ./inp_files/248479.got.cif
#   From: 2010.06.25/outbox.cif.g09.slc.cpg/sg12_125_cif.got.tgz:248479.got - 2010.06.28 00:19:55.
