data_PCOD8094497
_publ_section_title
;
Structure prediction by ZEFSAII (Michael W. Deem and Ramdas Pophale) SiO2 
 PCOD8094497
Probable space group: C 2/M
;
_chemical_formula_sum "Si O2"
_cell_formula_units_Z 56
_cell_length_a 12.776522
_cell_length_b 27.616036
_cell_length_c 8.532912
_cell_angle_alpha 90.000000
_cell_angle_beta 117.406719
_cell_angle_gamma 90.000000
_cell_volume 2672.806494
_symmetry_space_group_name_H-M "C 2/M"
_symmetry_group_IT_number 12
_symmetry_cell_setting 'monoclinic'
loop_
_space_group_symop_operation_xyz
x,y,z
-x,y,-z
-x,-y,-z
x,-y,z
1/2+x,1/2+y,z
1/2-x,1/2+y,-z
1/2-x,1/2-y,-z
1/2+x,1/2-y,z
loop_
_atom_site_type_symbol
_atom_site_label
_atom_site_fract_x
_atom_site_fract_y
_atom_site_fract_z
Si Si1 0.205749 0.359806 0.471886
Si Si2 0.876201 0.293254 0.326151
Si Si3 0.942206 0.089656 0.287241
Si Si4 0.122982 0.187020 0.660957
Si Si5 0.226817 0.554511 0.981726
Si Si6 0.834042 0.943821 0.721087
Si Si7 0.538881 0.863115 0.857359
O O1 0.213215 0.321829 0.620983
O O2 0.282455 0.337231 0.387419
O O3 0.255201 0.411988 0.551331
O O4 0.073477 0.371825 0.329190
O O5 0.827715 0.239277 0.249184
O O6 0.881659 0.321263 0.164846
O O7 0.000000 0.291771 0.500000
O O8 0.907893 0.146286 0.229471
O O9 0.000000 0.083472 0.500000
O O10 0.029836 0.070532 0.213522
O O11 0.819667 0.060188 0.189102
O O12 0.000000 0.200757 0.500000
O O13 0.178536 0.500000 0.944884
O O14 0.297918 0.567863 0.873506
O O15 0.112747 0.587741 0.924980
O O16 0.814424 0.000000 0.666493
O O17 0.500000 0.844241 0.000000
#
# Coordination Sequence:
#
# PCOD8094497 Si02
#       7
#     8   8   8   8   8   8   8
#     4  11  20  41  63  94 127 169 213 258 307 383
#     4   9  20  38  66  90 125 171 214 255 315 373
#     4  11  22  41  64  95 130 157 212 269 315 377
#     4  10  19  37  65  97 123 163 215 261 314 376
#     4  11  25  44  64  88 126 173 213 258 321 380
#     4  11  23  40  65  94 127 168 212 264 319 376
#     4  11  24  41  61  91 134 165 207 266 314 371
#
# _framework density 20.95176
#
# number of rings (size 3 to 8) (size 9 to 14) (size 15 to 20)
#    0.000    1.429    4.286    2.143    0.000    3.143 
#    0.000    5.714    0.000    0.000    0.000    0.000 
#    0.000    0.000    0.000    0.000    0.000    0.000 
#
# Total GULP energy -347063.152215 kJ/mol
# GULP energy per Si atom -12395.112579 kJ/mol
# Density = 2.090407 g / cm^3
# Si number density = 20.951760 Si / 1000 Ang^3
#
#
#
# Elastic Constant Matrix: (Units=GPa)
#
#
# Indices 1 2 3 4 5 6 
#
# 1 91.1178 47.5435 29.0990 0.0000 0.0155 0.0000
# 2 47.5435 152.8335 39.0632 0.0000 -6.3967 0.0000
# 3 29.0990 39.0632 61.0915 0.0000 1.7290 0.0000
# 4 0.0000 0.0000 0.0000 21.7345 0.0000 -8.2375
# 5 0.0155 -6.3967 1.7290 0.0000 34.6469 0.0000
# 6 0.0000 0.0000 0.0000 -8.2375 0.0000 29.3584
#
#
#
# Elastic Compliance Matrix: (Units=1/GPa)
#
#
# Indices 1 2 3 4 5 6 
#
# 1 0.014147 -0.003224 -0.004667 0.000000 -0.000369 0.000000
# 2 -0.003224 0.008657 -0.004051 0.000000 0.001802 0.000000
# 3 -0.004667 -0.004051 0.021233 0.000000 -0.001805 0.000000
# 4 0.000000 0.000000 0.000000 0.051485 0.000000 0.014446
# 5 -0.000369 0.001802 -0.001805 0.000000 0.029286 0.000000
# 6 0.000000 0.000000 0.000000 0.014446 0.000000 0.038115
#
#
# Mechanical properties :
#
#
# Convention : Reuss Voigt Hill
#
# Bulk Modulus (GPa) = 49.61694 59.60602 54.61148
# Shear Modulus (GPa) = 25.83671 29.77043 27.80357
#
# Velocity S-wave (km/s) = 3.51544 3.77358 3.64679
# Velocity P-wave (km/s) = 6.34119 6.89184 6.62224
#
# Compressibility (1/GPa) = 0.02015441
#
# Stress axis : x y z
#
# Youngs Moduli (GPa) = 70.68506 115.51873 47.09625
#
# Poissons Ratio (x) = 0.37238 0.21980
# Poissons Ratio (y) = 0.22785 0.19078
# Poissons Ratio (z) = 0.32989 0.46794
#
# Static dielectric constant tensor:
#      x y z
#    x 3.930200 0.000000 -0.089110 
#    y 0.000000 4.114100 0.000000 
#    z -0.089110 0.000000 3.544330 
# 
# 
# High freq. dielectric constant tensor:
#      x y z
#    x 1.827940 0.000000 -0.002640 
#    y 0.000000 1.832830 0.000000 
#    z -0.002640 0.000000 1.797420 
# 
# From -- ./inp_files/53290.got.cif
#   From: 2010.06.25/outbox.cif.g09.slc.cpg/sg12_27_cif.got.tgz:53290.got - 2010.06.28 00:19:55.
