data_PCOD8094689
_publ_section_title
;
Structure prediction by ZEFSAII (Michael W. Deem and Ramdas Pophale) SiO2 
 PCOD8094689
Probable space group: C 2/M
;
_chemical_formula_sum "Si O2"
_cell_formula_units_Z 40
_cell_length_a 24.373133
_cell_length_b 8.513661
_cell_length_c 17.092407
_cell_angle_alpha 90.000000
_cell_angle_beta 146.812673
_cell_angle_gamma 90.000000
_cell_volume 1941.414991
_symmetry_space_group_name_H-M "C 2/M"
_symmetry_group_IT_number 12
_symmetry_cell_setting 'monoclinic'
loop_
_space_group_symop_operation_xyz
x,y,z
-x,y,-z
-x,-y,-z
x,-y,z
1/2+x,1/2+y,z
1/2-x,1/2+y,-z
1/2-x,1/2-y,-z
1/2+x,1/2-y,z
loop_
_atom_site_type_symbol
_atom_site_label
_atom_site_fract_x
_atom_site_fract_y
_atom_site_fract_z
Si Si1 0.965866 0.315558 0.722612
Si Si2 0.851682 0.817772 0.153734
Si Si3 0.618068 0.178086 0.648686
Si Si4 0.066008 0.185629 0.150593
Si Si5 0.209304 0.313125 0.596022
O O1 0.960577 0.500000 0.730318
O O2 0.984150 0.232528 0.827419
O O3 0.863031 0.252078 0.559978
O O4 0.056983 0.278136 0.774097
O O5 0.848726 0.793436 0.243007
O O6 0.863021 0.000000 0.146516
O O7 0.750000 0.750000 0.000000
O O8 0.500000 0.180389 0.500000
O O9 0.667738 0.246949 0.629404
O O10 0.655190 0.000000 0.709990
O O11 0.178918 0.255049 0.282218
O O12 0.070123 0.000000 0.148377
O O13 0.000000 0.254430 0.000000
O O14 0.207612 0.500000 0.593774
#
# Coordination Sequence:
#
# PCOD8094689 Si02
#       5
#     8   8   8   8   8
#     4  11  22  41  64  88 120 163 211 257 308 366
#     4  12  26  42  62  92 127 163 204 255 313 373
#     4  10  19  38  65  91 124 165 206 250 307 370
#     4  10  22  39  60  90 124 162 208 257 310 366
#     4   9  19  37  62  89 123 166 205 247 305 364
#
# _framework density 20.603527
#
# number of rings (size 3 to 8) (size 9 to 14) (size 15 to 20)
#    0.000    1.600    2.000    3.000    2.800    0.800 
#    0.000    2.000    0.000    0.000    0.000    0.000 
#    0.000    0.000    0.000    0.000    0.000    0.000 
#
# Total GULP energy -248064.262970 kJ/mol
# GULP energy per Si atom -12403.213148 kJ/mol
# Density = 2.055663 g / cm^3
# Si number density = 20.603527 Si / 1000 Ang^3
#
#
#
# Elastic Constant Matrix: (Units=GPa)
#
#
# Indices 1 2 3 4 5 6 
#
# 1 107.3593 9.1228 44.8202 0.0000 -23.4438 0.0000
# 2 9.1228 25.0919 23.3844 0.0000 -0.8883 0.0000
# 3 44.8202 23.3844 148.0854 0.0000 -14.2392 0.0000
# 4 0.0000 0.0000 0.0000 -67.8390 0.0000 -60.2690
# 5 -23.4438 -0.8883 -14.2392 0.0000 38.4890 0.0000
# 6 0.0000 0.0000 0.0000 -60.2690 0.0000 -0.9431
#
#
#
# Elastic Compliance Matrix: (Units=1/GPa)
#
#
# Indices 1 2 3 4 5 6 
#
# 1 0.011965 -0.001539 -0.002780 0.000000 0.006224 0.000000
# 2 -0.001539 0.047038 -0.007204 0.000000 -0.002517 0.000000
# 3 -0.002780 -0.007204 0.008868 0.000000 0.001421 0.000000
# 4 0.000000 0.000000 0.000000 0.000264 0.000000 -0.016890
# 5 0.006224 -0.002517 0.001421 0.000000 0.030240 0.000000
# 6 0.000000 0.000000 0.000000 -0.016890 0.000000 0.019011
#
#
# Mechanical properties :
#
#
# Convention : Reuss Voigt Hill
#
# Bulk Modulus (GPa) = 22.30890 48.35460 35.33175
# Shear Modulus (GPa) = 32.18034 7.48867 19.83450
#
# Velocity S-wave (km/s) = 3.95636 1.90855 3.10607
# Velocity P-wave (km/s) = 5.63219 5.32698 5.48171
#
# Compressibility (1/GPa) = 0.04482516
#
# Stress axis : x y z
#
# Youngs Moduli (GPa) = 83.57754 21.25958 112.75879
#
# Poissons Ratio (x) = 0.03272 0.31345
# Poissons Ratio (y) = 0.12864 0.81231
# Poissons Ratio (z) = 0.23233 0.15315
#
# Static dielectric constant tensor:
#      x y z
#    x 3.692860 0.000000 0.046280 
#    y 0.000000 3.426390 0.000000 
#    z 0.046280 0.000000 3.928300 
# 
# 
# High freq. dielectric constant tensor:
#      x y z
#    x 1.818580 0.000000 -0.003780 
#    y 0.000000 1.776380 0.000000 
#    z -0.003780 0.000000 1.817290 
# 
# From -- ./inp_files/220558.got.cif
#   From: 2010.06.25/outbox.cif.g09.slc.cpg/sg12_111_cif.got.tgz:220558.got - 2010.06.28 00:19:55.
