data_PCOD8094154
_publ_section_title
;
Structure prediction by ZEFSAII (Michael W. Deem and Ramdas Pophale) SiO2 
 PCOD8094154
Probable space group: C 2/M
;
_chemical_formula_sum "Si O2"
_cell_formula_units_Z 40
_cell_length_a 22.356408
_cell_length_b 18.178444
_cell_length_c 11.475417
_cell_angle_alpha 90.000000
_cell_angle_beta 23.767339
_cell_angle_gamma 90.000000
_cell_volume 1879.566769
_symmetry_space_group_name_H-M "C 2/M"
_symmetry_group_IT_number 12
_symmetry_cell_setting 'monoclinic'
loop_
_space_group_symop_operation_xyz
x,y,z
-x,y,-z
-x,-y,-z
x,-y,z
1/2+x,1/2+y,z
1/2-x,1/2+y,-z
1/2-x,1/2-y,-z
1/2+x,1/2-y,z
loop_
_atom_site_type_symbol
_atom_site_label
_atom_site_fract_x
_atom_site_fract_y
_atom_site_fract_z
Si Si1 0.168308 0.640744 0.211286
Si Si2 0.354309 0.694890 0.685825
Si Si3 0.085302 0.815050 0.685736
Si Si4 0.621808 0.846637 0.695156
Si Si5 0.191745 0.082634 0.821041
O O1 0.189474 0.719600 0.236408
O O2 0.263317 0.586062 0.122542
O O3 0.000000 0.613987 0.500000
O O4 0.227711 0.645576 0.972785
O O5 0.500000 0.682086 0.500000
O O6 0.376931 0.667953 0.515141
O O7 0.224390 0.838997 0.512295
O O8 0.051677 0.729482 0.771315
O O9 0.939566 0.861236 0.980148
O O10 0.659373 0.898997 0.518893
O O11 0.500000 0.881902 0.000000
O O12 0.137702 0.000000 0.890613
#
# Coordination Sequence:
#
# PCOD8094154 Si02
#       5
#     8   8   8   8   8
#     4  10  22  36  63  97 130 169 212 270 325 386
#     4  10  19  36  66  99 123 161 221 272 319 386
#     4  11  22  42  67 100 131 170 221 277 325 392
#     4  11  25  40  68  97 129 170 229 282 319 381
#     4  12  26  45  66  95 140 179 215 268 340 405
#
# _framework density 21.281500000000001
#
# number of rings (size 3 to 8) (size 9 to 14) (size 15 to 20)
#    0.000    1.200    4.000    3.000    2.800    2.400 
#    0.000    2.000    0.000    0.000    0.000    0.000 
#    0.000    0.000    0.000    0.000    0.000    0.000 
#
# Total GULP energy -248034.533470 kJ/mol
# GULP energy per Si atom -12401.726674 kJ/mol
# Density = 2.123306 g / cm^3
# Si number density = 21.281500 Si / 1000 Ang^3
#
#
#
# Elastic Constant Matrix: (Units=GPa)
#
#
# Indices 1 2 3 4 5 6 
#
# 1 88.4288 28.7343 33.7178 -0.0022 10.9305 0.0024
# 2 28.7343 84.7008 38.2730 -0.0007 -8.6285 0.0004
# 3 33.7178 38.2730 135.5532 -0.0007 17.1463 0.0023
# 4 -0.0022 -0.0007 -0.0007 17.4534 0.0021 -7.6542
# 5 10.9305 -8.6285 17.1463 0.0021 39.5275 -0.0031
# 6 0.0024 0.0004 0.0023 -7.6542 -0.0031 10.9233
#
#
#
# Elastic Compliance Matrix: (Units=1/GPa)
#
#
# Indices 1 2 3 4 5 6 
#
# 1 0.013873 -0.004344 -0.001713 0.000001 -0.004041 -0.000003
# 2 -0.004344 0.015845 -0.004214 0.000001 0.006488 0.000004
# 3 -0.001713 -0.004214 0.009575 -0.000001 -0.004600 -0.000003
# 4 0.000001 0.000001 -0.000001 0.082713 0.000001 0.057959
# 5 -0.004041 0.006488 -0.004600 0.000001 0.029828 0.000010
# 6 -0.000003 0.000004 -0.000003 0.057959 0.000010 0.132161
#
#
# Mechanical properties :
#
#
# Convention : Reuss Voigt Hill
#
# Bulk Modulus (GPa) = 53.33096 56.68144 55.00620
# Shear Modulus (GPa) = 16.08821 27.44468 21.76645
#
# Velocity S-wave (km/s) = 2.75248 3.59500 3.20157
# Velocity P-wave (km/s) = 5.93428 6.62752 6.29046
#
# Compressibility (1/GPa) = 0.01875084
#
# Stress axis : x y z
#
# Youngs Moduli (GPa) = 72.08362 63.11155 104.43996
#
# Poissons Ratio (x) = 0.27415 0.17891
# Poissons Ratio (y) = 0.31312 0.44010
# Poissons Ratio (z) = 0.12348 0.26595
#
# Static dielectric constant tensor:
#      x y z
#    x 4.170060 0.000000 0.541520 
#    y 0.000000 3.433120 0.000010 
#    z 0.541520 0.000010 4.450370 
# 
# 
# High freq. dielectric constant tensor:
#      x y z
#    x 1.848200 0.000000 0.008870 
#    y 0.000000 1.780050 0.000000 
#    z 0.008870 0.000000 1.850180 
# 
# From -- ./inp_files/177838.got.cif
#   From: 2010.06.25/outbox.cif.g09.slc.cpg/sg12_89_cif.got.tgz:177838.got - 2010.06.28 00:19:55.
