data_PCOD8094653
_publ_section_title
;
Structure prediction by ZEFSAII (Michael W. Deem and Ramdas Pophale) SiO2 
 PCOD8094653
Probable space group: C 2/M
;
_chemical_formula_sum "Si O2"
_cell_formula_units_Z 64
_cell_length_a 8.722159
_cell_length_b 23.324922
_cell_length_c 20.951289
_cell_angle_alpha 90.000000
_cell_angle_beta 133.513711
_cell_angle_gamma 90.000000
_cell_volume 3091.138802
_symmetry_space_group_name_H-M "C 2/M"
_symmetry_group_IT_number 12
_symmetry_cell_setting 'monoclinic'
loop_
_space_group_symop_operation_xyz
x,y,z
-x,y,-z
-x,-y,-z
x,-y,z
1/2+x,1/2+y,z
1/2-x,1/2+y,-z
1/2-x,1/2-y,-z
1/2+x,1/2-y,z
loop_
_atom_site_type_symbol
_atom_site_label
_atom_site_fract_x
_atom_site_fract_y
_atom_site_fract_z
Si Si1 0.242972 0.357261 0.582621
Si Si2 0.171258 0.313851 0.965827
Si Si3 0.294981 0.436905 0.483131
Si Si4 0.519370 0.064589 0.716024
Si Si5 0.504640 0.174359 0.214463
Si Si6 0.602370 0.435286 0.260268
Si Si7 0.428010 0.722587 0.271119
Si Si8 0.203995 0.850348 0.872973
O O1 0.336086 0.389946 0.548553
O O2 0.274825 0.399102 0.651364
O O3 0.370588 0.297779 0.629384
O O4 0.000000 0.341805 0.500000
O O5 0.182469 0.326193 0.893161
O O6 0.935189 0.329402 0.919578
O O7 0.250000 0.250000 0.000000
O O8 0.320612 0.350966 0.056629
O O9 0.500000 0.440500 0.500000
O O10 0.247229 0.500000 0.499483
O O11 0.102305 0.418258 0.383179
O O12 0.459338 0.108484 0.755251
O O13 0.766423 0.067721 0.768329
O O14 0.457513 0.000000 0.720926
O O15 0.433181 0.209214 0.257899
O O16 0.717478 0.202328 0.247174
O O17 0.578190 0.500000 0.278297
O O18 0.366613 0.411742 0.176056
O O19 0.450107 0.695290 0.206157
#
# Coordination Sequence:
#
# PCOD8094653 Si02
#       8
#     8   8   8   8   8   8   8   8
#     4  11  21  37  61  91 124 161 220 264 315 382
#     4  10  19  38  63  92 121 158 207 258 308 381
#     4  10  20  35  58  86 118 160 216 271 310 365
#     4  10  22  40  62  87 122 170 214 261 319 378
#     4  11  23  40  64  92 127 164 209 263 322 394
#     4  10  21  38  62  90 128 169 209 263 321 380
#     4  10  23  38  59  92 126 164 201 263 328 377
#     4   9  20  37  59  93 126 154 207 256 314 375
#
# _framework density 20.704343999999999
#
# number of rings (size 3 to 8) (size 9 to 14) (size 15 to 20)
#    0.000    1.875    2.500    1.125    3.500    0.500 
#    0.000   11.875    0.000    1.500    0.000    0.000 
#    0.000    0.000    0.000    0.000    0.000    0.000 
#
# Total GULP energy -396446.227492 kJ/mol
# GULP energy per Si atom -12388.944609 kJ/mol
# Density = 2.065722 g / cm^3
# Si number density = 20.704344 Si / 1000 Ang^3
#
#
#
# Elastic Constant Matrix: (Units=GPa)
#
#
# Indices 1 2 3 4 5 6 
#
# 1 64.1198 30.1544 28.3071 0.0000 -3.3145 0.0000
# 2 30.1544 102.8834 53.1898 0.0000 -13.3457 0.0000
# 3 28.3071 53.1898 120.8133 0.0000 -6.5362 0.0000
# 4 0.0000 0.0000 0.0000 36.6858 0.0000 2.9595
# 5 -3.3145 -13.3457 -6.5362 0.0000 29.8523 0.0000
# 6 0.0000 0.0000 0.0000 2.9595 0.0000 29.2609
#
#
#
# Elastic Compliance Matrix: (Units=1/GPa)
#
#
# Indices 1 2 3 4 5 6 
#
# 1 0.018678 -0.004206 -0.002544 0.000000 -0.000364 0.000000
# 2 -0.004206 0.014148 -0.004986 0.000000 0.004767 0.000000
# 3 -0.002544 -0.004986 0.011064 0.000000 -0.000089 0.000000
# 4 0.000000 0.000000 0.000000 0.027483 0.000000 -0.002780
# 5 -0.000364 0.004767 -0.000089 0.000000 0.035569 0.000000
# 6 0.000000 0.000000 0.000000 -0.002780 0.000000 0.034456
#
#
# Mechanical properties :
#
#
# Convention : Reuss Voigt Hill
#
# Bulk Modulus (GPa) = 48.97637 56.79102 52.88370
# Shear Modulus (GPa) = 29.12444 30.90414 30.01429
#
# Velocity S-wave (km/s) = 3.75465 3.86766 3.81157
# Velocity P-wave (km/s) = 6.51943 6.88725 6.70586
#
# Compressibility (1/GPa) = 0.02041801
#
# Stress axis : x y z
#
# Youngs Moduli (GPa) = 53.53780 70.67932 90.38718
#
# Poissons Ratio (x) = 0.29730 0.22996
# Poissons Ratio (y) = 0.22520 0.45063
# Poissons Ratio (z) = 0.13621 0.35238
#
# Static dielectric constant tensor:
#      x y z
#    x 3.561560 0.000000 -0.170680 
#    y 0.000000 3.745030 0.000000 
#    z -0.170680 0.000000 4.103960 
# 
# 
# High freq. dielectric constant tensor:
#      x y z
#    x 1.794350 0.000000 0.000160 
#    y 0.000000 1.794420 0.000000 
#    z 0.000160 0.000000 1.820010 
# 
# From -- ./inp_files/302338.got.cif
#   From: 2010.06.25/outbox.cif.g09.slc.cpg/sg12_152_cif.got.tgz:302338.got - 2010.06.28 00:19:55.
