data_PCOD8094165
_publ_section_title
;
Structure prediction by ZEFSAII (Michael W. Deem and Ramdas Pophale) SiO2 
 PCOD8094165
Probable space group: C 2/M
;
_chemical_formula_sum "Si O2"
_cell_formula_units_Z 48
_cell_length_a 13.890229
_cell_length_b 13.250656
_cell_length_c 28.968225
_cell_angle_alpha 90.000000
_cell_angle_beta 148.309133
_cell_angle_gamma 90.000000
_cell_volume 2800.953206
_symmetry_space_group_name_H-M "C 2/M"
_symmetry_group_IT_number 12
_symmetry_cell_setting 'monoclinic'
loop_
_space_group_symop_operation_xyz
x,y,z
-x,y,-z
-x,-y,-z
x,-y,z
1/2+x,1/2+y,z
1/2-x,1/2+y,-z
1/2-x,1/2-y,-z
1/2+x,1/2-y,z
loop_
_atom_site_type_symbol
_atom_site_label
_atom_site_fract_x
_atom_site_fract_y
_atom_site_fract_z
Si Si1 0.164506 0.797327 0.620463
Si Si2 0.096965 0.615119 0.111100
Si Si3 0.364719 0.742822 0.786966
Si Si4 0.939123 0.616324 0.371286
Si Si5 0.214407 0.885228 0.546078
Si Si6 0.714793 0.384612 0.907163
O O1 0.315208 0.814301 0.722407
O O2 0.089932 0.681365 0.593752
O O3 0.251688 0.814562 0.605822
O O4 0.990610 0.871066 0.557097
O O5 0.117122 0.500000 0.136564
O O6 0.145554 0.690695 0.171696
O O7 0.237364 0.635823 0.126702
O O8 0.890991 0.634996 0.010530
O O9 0.212489 0.653483 0.728176
O O10 0.563013 0.693901 0.861610
O O11 0.910150 0.500000 0.371429
O O12 0.140673 0.641054 0.434351
O O13 0.240582 0.000000 0.573053
O O14 0.646514 0.500000 0.885199
#
# Coordination Sequence:
#
# PCOD8094165 Si02
#       6
#     8   8   8   8   8   8
#     4   9  20  31  54  75 101 129 175 204 248 292
#     4   9  19  34  53  75 102 133 168 205 247 300
#     4  10  20  29  56  76 105 123 175 208 251 285
#     4   9  20  34  51  73 101 133 168 207 251 297
#     4  10  19  37  54  71 102 140 168 200 253 302
#     4   9  18  35  54  74 102 137 165 198 254 306
#
# _framework density 17.137024
#
# number of rings (size 3 to 8) (size 9 to 14) (size 15 to 20)
#    1.000    1.667    0.000    3.500    2.333    1.333 
#    0.000    1.667    0.000    2.000    0.000    5.833 
#    0.000    0.000    0.000    0.000    0.000    0.000 
#
# Total GULP energy -297388.993439 kJ/mol
# GULP energy per Si atom -12391.208060 kJ/mol
# Density = 1.709802 g / cm^3
# Si number density = 17.137024 Si / 1000 Ang^3
#
#
#
# Elastic Constant Matrix: (Units=GPa)
#
#
# Indices 1 2 3 4 5 6 
#
# 1 40.6728 40.2679 3.6603 0.0000 -5.3050 0.0000
# 2 40.2679 81.5405 12.8126 0.0000 -8.9508 -0.0001
# 3 3.6603 12.8126 36.0720 0.0000 -6.8939 0.0001
# 4 0.0000 0.0000 0.0000 31.9324 0.0000 -2.7511
# 5 -5.3050 -8.9508 -6.8939 0.0000 28.9377 -0.0001
# 6 0.0000 -0.0001 0.0001 -2.7511 -0.0001 30.7537
#
#
#
# Elastic Compliance Matrix: (Units=1/GPa)
#
#
# Indices 1 2 3 4 5 6 
#
# 1 0.048747 -0.024473 0.004199 0.000000 0.002367 0.000000
# 2 -0.024473 0.025539 -0.006219 0.000000 0.001931 0.000000
# 3 0.004199 -0.006219 0.030682 0.000000 0.006155 0.000000
# 4 0.000000 0.000000 0.000000 0.031559 0.000000 0.002823
# 5 0.002367 0.001931 0.006155 0.000000 0.037055 0.000000
# 6 0.000000 0.000000 0.000000 0.002823 0.000000 0.032769
#
#
# Mechanical properties :
#
#
# Convention : Reuss Voigt Hill
#
# Bulk Modulus (GPa) = 19.23787 30.19630 24.71709
# Shear Modulus (GPa) = 18.07253 25.09440 21.58347
#
# Velocity S-wave (km/s) = 3.25097 3.83082 3.55274
# Velocity P-wave (km/s) = 5.03408 6.10128 5.59320
#
# Compressibility (1/GPa) = 0.05198080
#
# Stress axis : x y z
#
# Youngs Moduli (GPa) = 20.51428 39.15627 32.59280
#
# Poissons Ratio (x) = 0.95827 -0.13685
# Poissons Ratio (y) = 0.50204 0.20269
# Poissons Ratio (z) = -0.08613 0.24351
#
# Static dielectric constant tensor:
#      x y z
#    x 3.027000 0.000000 0.092080 
#    y 0.000000 3.108720 0.000000 
#    z 0.092080 0.000000 3.135490 
# 
# 
# High freq. dielectric constant tensor:
#      x y z
#    x 1.653030 0.000000 0.009620 
#    y 0.000000 1.656870 0.000000 
#    z 0.009620 0.000000 1.656910 
# 
# From -- ./inp_files/376314.got.cif
#   From: 2010.06.25/outbox.cif.g09.slc.cpg/sg12_189_cif.got.tgz:376314.got - 2010.06.28 00:19:55.
