data_PCOD8094939
_publ_section_title
;
Structure prediction by ZEFSAII (Michael W. Deem and Ramdas Pophale) SiO2 
 PCOD8094939
Probable space group: C 2/M
;
_chemical_formula_sum "Si O2"
_cell_formula_units_Z 64
_cell_length_a 22.820595
_cell_length_b 9.533340
_cell_length_c 18.749110
_cell_angle_alpha 90.000000
_cell_angle_beta 96.236269
_cell_angle_gamma 90.000000
_cell_volume 4054.852748
_symmetry_space_group_name_H-M "C 2/M"
_symmetry_group_IT_number 12
_symmetry_cell_setting 'monoclinic'
loop_
_space_group_symop_operation_xyz
x,y,z
-x,y,-z
-x,-y,-z
x,-y,z
1/2+x,1/2+y,z
1/2-x,1/2+y,-z
1/2-x,1/2-y,-z
1/2+x,1/2-y,z
loop_
_atom_site_type_symbol
_atom_site_label
_atom_site_fract_x
_atom_site_fract_y
_atom_site_fract_z
Si Si1 0.502078 0.664602 0.301634
Si Si2 0.401647 0.342795 0.887866
Si Si3 0.036083 0.155089 0.857096
Si Si4 0.067289 0.342021 0.983838
Si Si5 0.792582 0.837141 0.597974
Si Si6 0.541689 0.163556 0.570762
Si Si7 0.332756 0.162025 0.473919
Si Si8 0.127108 0.165311 0.266491
O O1 0.502151 0.500000 0.320099
O O2 0.462720 0.695661 0.226186
O O3 0.474238 0.748452 0.362500
O O4 0.568329 0.722889 0.297548
O O5 0.380249 0.500000 0.905791
O O6 0.469523 0.348202 0.875291
O O7 0.366230 0.280011 0.814296
O O8 0.392172 0.240071 0.953616
O O9 0.073480 0.266664 0.907859
O O10 0.063554 0.000000 0.871948
O O11 0.091263 0.500000 0.979760
O O12 0.000000 0.341467 0.000000
O O13 0.723195 0.803133 0.584033
O O14 0.829845 0.751970 0.545138
O O15 0.815528 0.793210 0.679615
O O16 0.805617 0.000000 0.585255
O O17 0.500000 0.208315 0.500000
O O18 0.608834 0.201927 0.560951
O O19 0.533966 0.000000 0.587268
O O20 0.333041 0.000000 0.497082
O O21 0.118244 0.000000 0.258123
#
# Coordination Sequence:
#
# PCOD8094939 Si02
#       8
#     8   8   8   8   8   8   8   8
#     4   9  17  28  42  60  79 101 135 172 199 231
#     4   8  13  22  35  50  72 101 128 155 191 233
#     4   8  14  24  36  50  71 100 130 159 192 228
#     4   9  15  21  31  50  75 102 132 160 184 219
#     4   9  16  28  46  62  77 100 132 169 203 236
#     4  10  20  31  41  56  82 112 136 160 196 241
#     4   9  18  30  42  59  81 104 132 165 201 240
#     4   8  14  25  41  60  79 101 132 168 203 235
#
# _framework density 15.783557999999999
#
# number of rings (size 3 to 8) (size 9 to 14) (size 15 to 20)
#    0.000    3.250    0.000    2.625    0.000    2.750 
#    0.000    2.500    0.000    0.000    0.000    0.000 
#    0.000    1.000    0.000    2.000    0.000    2.625 
#
# Total GULP energy -396620.493392 kJ/mol
# GULP energy per Si atom -12394.390418 kJ/mol
# Density = 1.574763 g / cm^3
# Si number density = 15.783558 Si / 1000 Ang^3
#
#
#
# Elastic Constant Matrix: (Units=GPa)
#
#
# Indices 1 2 3 4 5 6 
#
# 1 54.1580 28.0697 45.9610 0.0000 12.3285 0.0000
# 2 28.0697 74.2191 64.0342 0.0000 11.3271 0.0000
# 3 45.9610 64.0342 128.6963 0.0000 25.6846 0.0000
# 4 0.0000 0.0000 0.0000 25.2600 0.0000 -0.1074
# 5 12.3285 11.3271 25.6846 0.0000 21.8750 0.0000
# 6 0.0000 0.0000 0.0000 -0.1074 0.0000 11.2205
#
#
#
# Elastic Compliance Matrix: (Units=1/GPa)
#
#
# Indices 1 2 3 4 5 6 
#
# 1 0.027443 -0.003558 -0.006937 0.000000 -0.005479 0.000000
# 2 -0.003558 0.024140 -0.011292 0.000000 0.002764 0.000000
# 3 -0.006937 -0.011292 0.018179 0.000000 -0.011588 0.000000
# 4 0.000000 0.000000 0.000000 0.039590 0.000000 0.000379
# 5 -0.005479 0.002764 -0.011588 0.000000 0.060977 0.000000
# 6 0.000000 0.000000 0.000000 0.000379 0.000000 0.089126
#
#
# Mechanical properties :
#
#
# Convention : Reuss Voigt Hill
#
# Bulk Modulus (GPa) = 38.18538 59.24480 48.71509
# Shear Modulus (GPa) = 16.03815 19.60500 17.82158
#
# Velocity S-wave (km/s) = 3.19114 3.52819 3.36389
# Velocity P-wave (km/s) = 6.15008 7.36307 6.78374
#
# Compressibility (1/GPa) = 0.02618803
#
# Stress axis : x y z
#
# Youngs Moduli (GPa) = 36.43964 41.42542 55.00945
#
# Poissons Ratio (x) = 0.14738 0.38159
# Poissons Ratio (y) = 0.12964 0.62117
# Poissons Ratio (z) = 0.25278 0.46778
#
# Static dielectric constant tensor:
#      x y z
#    x 2.740730 0.000000 0.318080 
#    y 0.000000 3.005500 0.000000 
#    z 0.318080 0.000000 3.157340 
# 
# 
# High freq. dielectric constant tensor:
#      x y z
#    x 1.557980 0.000000 0.027740 
#    y 0.000000 1.597940 0.000000 
#    z 0.027740 0.000000 1.608130 
# 
# From -- ./inp_files/287587.got.cif
#   From: 2010.06.25/outbox.cif.g09.slc.cpg/sg12_144_cif.got.tgz:287587.got - 2010.06.28 00:19:55.
