data_PCOD8094352
_publ_section_title
;
Structure prediction by ZEFSAII (Michael W. Deem and Ramdas Pophale) SiO2 
 PCOD8094352
Probable space group: C 2/M
;
_chemical_formula_sum "Si O2"
_cell_formula_units_Z 48
_cell_length_a 29.863872
_cell_length_b 17.779658
_cell_length_c 9.189016
_cell_angle_alpha 90.000000
_cell_angle_beta 27.980349
_cell_angle_gamma 90.000000
_cell_volume 2289.114747
_symmetry_space_group_name_H-M "C 2/M"
_symmetry_group_IT_number 12
_symmetry_cell_setting 'monoclinic'
loop_
_space_group_symop_operation_xyz
x,y,z
-x,y,-z
-x,-y,-z
x,-y,z
1/2+x,1/2+y,z
1/2-x,1/2+y,-z
1/2-x,1/2-y,-z
1/2+x,1/2-y,z
loop_
_atom_site_type_symbol
_atom_site_label
_atom_site_fract_x
_atom_site_fract_y
_atom_site_fract_z
Si Si1 0.992425 0.419473 0.849208
Si Si2 0.431595 0.500000 0.412963
Si Si3 0.426492 0.650274 0.585758
Si Si4 0.642280 0.500000 0.699838
Si Si5 0.264859 0.732033 0.223046
Si Si6 0.713503 0.130535 0.638943
Si Si7 0.562934 0.765617 0.674993
O O1 0.032155 0.500000 0.674379
O O2 0.053313 0.347173 0.622377
O O3 0.883982 0.413769 0.106290
O O4 0.000000 0.421360 0.000000
O O5 0.393061 0.572346 0.610434
O O6 0.384272 0.500000 0.391957
O O7 0.546912 0.500000 0.072050
O O8 0.500000 0.630237 0.500000
O O9 0.477659 0.701753 0.316183
O O10 0.339042 0.698532 0.896516
O O11 0.701951 0.574422 0.562397
O O12 0.303544 0.808118 0.185752
O O13 0.242056 0.669590 0.407343
O O14 0.171303 0.752832 0.400548
O O15 0.500000 0.763186 0.000000
#
# Coordination Sequence:
#
# PCOD8094352 Si02
#       7
#     8   4   8   4   8   8   8
#     4  10  19  37  61  96 130 166 216 277 329 392
#     4  11  27  46  62  99 136 179 226 287 358 401
#     4  12  26  44  66  97 136 177 227 282 340 415
#     4  11  24  40  71  95 135 179 222 287 343 425
#     4  11  24  40  68  97 133 180 228 276 337 416
#     4  11  21  40  67 102 131 175 231 274 340 411
#     4  11  23  42  67  98 133 177 222 283 342 407
#
# _framework density 20.968805
#
# number of rings (size 3 to 8) (size 9 to 14) (size 15 to 20)
#    0.000    1.000    4.167    3.750    7.000    0.667 
#    1.500    0.000    1.833    1.500    0.000    0.000 
#    0.000    0.000    0.000    0.000    0.000    0.000 
#
# Total GULP energy -297612.371190 kJ/mol
# GULP energy per Si atom -12400.515466 kJ/mol
# Density = 2.092108 g / cm^3
# Si number density = 20.968805 Si / 1000 Ang^3
#
#
#
# Elastic Constant Matrix: (Units=GPa)
#
#
# Indices 1 2 3 4 5 6 
#
# 1 95.8122 31.7403 15.8634 0.0000 -7.8458 0.0000
# 2 31.7403 145.3643 7.8765 0.0000 19.3918 0.0000
# 3 15.8634 7.8765 53.0689 0.0000 5.2020 0.0000
# 4 0.0000 0.0000 0.0000 13.9164 0.0000 -22.3709
# 5 -7.8458 19.3918 5.2020 0.0000 30.3276 0.0000
# 6 0.0000 0.0000 0.0000 -22.3709 0.0000 27.2880
#
#
#
# Elastic Compliance Matrix: (Units=1/GPa)
#
#
# Indices 1 2 3 4 5 6 
#
# 1 0.012702 -0.003378 -0.003895 0.000000 0.006114 0.000000
# 2 -0.003378 0.008442 0.000378 0.000000 -0.006336 0.000000
# 3 -0.003895 0.000378 0.020417 0.000000 -0.004751 0.000000
# 4 0.000000 0.000000 0.000000 -0.226071 0.000000 -0.185334
# 5 0.006114 -0.006336 -0.004751 0.000000 0.039421 0.000000
# 6 0.000000 0.000000 0.000000 -0.185334 0.000000 -0.115292
#
#
# Mechanical properties :
#
#
# Convention : Reuss Voigt Hill
#
# Bulk Modulus (GPa) = 36.00867 45.02286 40.51577
# Shear Modulus (GPa) = -21.06733 30.22408 4.57838
#
# Velocity S-wave (km/s) = -3.17314 3.80067 1.47924
# Velocity P-wave (km/s) = 1.94543 6.38578 4.72032
#
# Compressibility (1/GPa) = 0.02777109
#
# Stress axis : x y z
#
# Youngs Moduli (GPa) = 78.73020 118.46020 48.97809
#
# Poissons Ratio (x) = 0.40015 0.19076
# Poissons Ratio (y) = 0.26595 -0.01851
# Poissons Ratio (z) = 0.30663 -0.04477
#
# Static dielectric constant tensor:
#      x y z
#    x 3.996660 0.000000 -0.120110 
#    y 0.000000 4.489380 0.000000 
#    z -0.120110 0.000000 3.678350 
# 
# 
# High freq. dielectric constant tensor:
#      x y z
#    x 1.838680 0.000000 -0.010940 
#    y 0.000000 1.844280 0.000000 
#    z -0.010940 0.000000 1.791100 
# 
# From -- ./inp_files/112768.got.cif
#   From: 2010.06.25/outbox.cif.g09.slc.cpg/sg12_57_cif.got.tgz:112768.got - 2010.06.28 00:19:55.
