data_PCOD8094187
_publ_section_title
;
Structure prediction by ZEFSAII (Michael W. Deem and Ramdas Pophale) SiO2 
 PCOD8094187
Probable space group: C 2/M
;
_chemical_formula_sum "Si O2"
_cell_formula_units_Z 64
_cell_length_a 28.446567
_cell_length_b 17.525020
_cell_length_c 8.429054
_cell_angle_alpha 90.000000
_cell_angle_beta 51.038756
_cell_angle_gamma 90.000000
_cell_volume 3267.439366
_symmetry_space_group_name_H-M "C 2/M"
_symmetry_group_IT_number 12
_symmetry_cell_setting 'monoclinic'
loop_
_space_group_symop_operation_xyz
x,y,z
-x,y,-z
-x,-y,-z
x,-y,z
1/2+x,1/2+y,z
1/2-x,1/2+y,-z
1/2-x,1/2-y,-z
1/2+x,1/2-y,z
loop_
_atom_site_type_symbol
_atom_site_label
_atom_site_fract_x
_atom_site_fract_y
_atom_site_fract_z
Si Si1 0.689763 0.587815 0.346171
Si Si2 0.141147 0.765467 0.032253
Si Si3 0.517918 0.081850 0.781106
Si Si4 0.254232 0.662139 0.055984
Si Si5 0.221690 0.324679 0.640483
Si Si6 0.646872 0.144187 0.508645
Si Si7 0.597592 0.287974 0.471456
Si Si8 0.019147 0.745208 0.142966
O O1 0.674634 0.500000 0.404518
O O2 0.722653 0.620719 0.432095
O O3 0.626991 0.629947 0.438994
O O4 0.734979 0.601074 0.104001
O O5 0.112717 0.751282 0.267321
O O6 0.086246 0.779183 0.025255
O O7 0.187630 0.837259 0.946927
O O8 0.181668 0.694989 0.881738
O O9 0.590506 0.087903 0.608692
O O10 0.484328 0.157122 0.783625
O O11 0.499277 0.000000 0.739600
O O12 0.500000 0.077089 0.000000
O O13 0.195093 0.631563 0.267277
O O14 0.250000 0.750000 0.000000
O O15 0.250000 0.250000 0.500000
O O16 0.178236 0.369231 0.611520
O O17 0.623251 0.231138 0.551461
O O18 0.525768 0.295510 0.652453
O O19 0.000000 0.749741 0.000000
#
# Coordination Sequence:
#
# PCOD8094187 Si02
#       8
#     8   8   8   8   8   8   8   8
#     4  11  23  37  57  88 124 156 188 248 315 357
#     4  11  19  33  59  87 113 151 201 245 293 348
#     4   9  19  35  50  74 118 155 183 232 290 335
#     4  11  18  38  59  84 114 156 199 247 294 354
#     4  12  19  32  58  88 119 152 194 241 292 361
#     4  11  19  32  61  84 109 157 209 240 283 350
#     4  10  19  37  57  81 113 152 201 248 286 352
#     4  10  21  34  59  89 106 148 212 250 291 350
#
# _framework density 19.587205000000001
#
# number of rings (size 3 to 8) (size 9 to 14) (size 15 to 20)
#    0.000    1.375    6.250    2.625    0.000    1.000 
#    0.000    0.625    0.000   12.375    0.000    0.000 
#    0.000    0.000    0.000    0.000    0.000    0.000 
#
# Total GULP energy -396489.277433 kJ/mol
# GULP energy per Si atom -12390.289920 kJ/mol
# Density = 1.954262 g / cm^3
# Si number density = 19.587205 Si / 1000 Ang^3
#
#
#
# Elastic Constant Matrix: (Units=GPa)
#
#
# Indices 1 2 3 4 5 6 
#
# 1 93.2027 25.7988 14.4337 0.0000 -7.2649 0.0000
# 2 25.7988 90.1151 26.6436 0.0000 0.0096 0.0000
# 3 14.4337 26.6436 101.4310 0.0000 -18.2463 0.0000
# 4 0.0000 0.0000 0.0000 3.9213 0.0000 -1.3807
# 5 -7.2649 0.0096 -18.2463 0.0000 33.5906 0.0000
# 6 0.0000 0.0000 0.0000 -1.3807 0.0000 17.9819
#
#
#
# Elastic Compliance Matrix: (Units=1/GPa)
#
#
# Indices 1 2 3 4 5 6 
#
# 1 0.011884 -0.003282 -0.000406 0.000000 0.002351 0.000000
# 2 -0.003282 0.013049 -0.003424 0.000000 -0.002573 0.000000
# 3 -0.000406 -0.003424 0.011970 0.000000 0.006415 0.000000
# 4 0.000000 0.000000 0.000000 0.262104 0.000000 0.020125
# 5 0.002351 -0.002573 0.006415 0.000000 0.033764 0.000000
# 6 0.000000 0.000000 0.000000 0.020125 0.000000 0.057157
#
#
# Mechanical properties :
#
#
# Convention : Reuss Voigt Hill
#
# Bulk Modulus (GPa) = 44.09337 46.50011 45.29674
# Shear Modulus (GPa) = 12.14443 25.62361 18.88402
#
# Velocity S-wave (km/s) = 2.49272 3.62080 3.10836
# Velocity P-wave (km/s) = 5.55383 6.42432 6.00487
#
# Compressibility (1/GPa) = 0.02267915
#
# Stress axis : x y z
#
# Youngs Moduli (GPa) = 84.14680 76.63352 83.54217
#
# Poissons Ratio (x) = 0.25155 0.03392
# Poissons Ratio (y) = 0.27621 0.28601
# Poissons Ratio (z) = 0.03417 0.26236
#
# Static dielectric constant tensor:
#      x y z
#    x 3.792080 0.000000 -0.179190 
#    y 0.000000 3.286040 0.000000 
#    z -0.179190 0.000000 3.885210 
# 
# 
# High freq. dielectric constant tensor:
#      x y z
#    x 1.762050 0.000000 -0.009080 
#    y 0.000000 1.707200 0.000000 
#    z -0.009080 0.000000 1.778200 
# 
# From -- ./inp_files/111985.got.cif
#   From: 2010.06.25/outbox.cif.g09.slc.cpg/sg12_56_cif.got.tgz:111985.got - 2010.06.28 00:19:55.
