data_PCOD8094729
_publ_section_title
;
Structure prediction by ZEFSAII (Michael W. Deem and Ramdas Pophale) SiO2 
 PCOD8094729
Probable space group: C 2/M
;
_chemical_formula_sum "Si O2"
_cell_formula_units_Z 56
_cell_length_a 17.384782
_cell_length_b 18.689232
_cell_length_c 15.091973
_cell_angle_alpha 90.000000
_cell_angle_beta 148.757341
_cell_angle_gamma 90.000000
_cell_volume 2543.270732
_symmetry_space_group_name_H-M "C 2/M"
_symmetry_group_IT_number 12
_symmetry_cell_setting 'monoclinic'
loop_
_space_group_symop_operation_xyz
x,y,z
-x,y,-z
-x,-y,-z
x,-y,z
1/2+x,1/2+y,z
1/2-x,1/2+y,-z
1/2-x,1/2-y,-z
1/2+x,1/2-y,z
loop_
_atom_site_type_symbol
_atom_site_label
_atom_site_fract_x
_atom_site_fract_y
_atom_site_fract_z
Si Si1 0.145354 0.080540 0.089537
Si Si2 0.666514 0.712401 0.338472
Si Si3 0.325235 0.212467 0.315238
Si Si4 0.977202 0.918972 0.750277
Si Si5 0.346184 0.776695 0.012644
Si Si6 0.593215 0.079517 0.006030
Si Si7 0.571130 0.420652 0.653730
O O1 0.283700 0.131423 0.247028
O O2 0.186197 0.000000 0.159858
O O3 0.000000 0.107375 0.000000
O O4 0.113862 0.083903 0.953726
O O5 0.750000 0.750000 0.500000
O O6 0.752483 0.733897 0.335829
O O7 0.664331 0.627074 0.356058
O O8 0.492892 0.729292 0.156012
O O9 0.500000 0.219186 0.500000
O O10 0.258853 0.267052 0.177124
O O11 0.038437 0.885474 0.717609
O O12 0.920029 0.000000 0.684715
O O13 0.406046 0.859491 0.070741
O O14 0.250000 0.750000 0.000000
O O15 0.758895 0.072644 0.202598
O O16 0.540293 0.000000 0.919264
O O17 0.500000 0.104305 0.000000
O O18 0.500000 0.377418 0.500000
O O19 0.499260 0.500000 0.587434
#
# Coordination Sequence:
#
# PCOD8094729 Si02
#       7
#     8   8   8   8   8   8   8
#     4  10  19  38  70  99 130 177 226 281 350 421
#     4  12  25  44  66  96 132 175 226 282 348 423
#     4  12  25  43  66  97 135 178 227 283 348 421
#     4  10  20  38  68  98 127 173 232 281 340 419
#     4  12  25  45  69  97 134 179 228 284 350 422
#     4  10  22  40  64  94 130 173 222 278 347 409
#     4   9  19  36  60  91 127 167 218 271 319 391
#
# _framework density 22.018891
#
# number of rings (size 3 to 8) (size 9 to 14) (size 15 to 20)
#    0.000    1.286    2.857    3.000    0.000    3.143 
#    0.000    2.143    0.000    1.714    0.000    0.000 
#    0.000    0.000    0.000    0.000    0.000    0.000 
#
# Total GULP energy -347021.999230 kJ/mol
# GULP energy per Si atom -12393.642830 kJ/mol
# Density = 2.196877 g / cm^3
# Si number density = 22.018891 Si / 1000 Ang^3
#
#
#
# Elastic Constant Matrix: (Units=GPa)
#
#
# Indices 1 2 3 4 5 6 
#
# 1 177.1746 42.7513 51.5004 0.0000 -11.1614 0.0000
# 2 42.7513 122.1641 20.6282 0.0000 -1.4210 0.0000
# 3 51.5004 20.6282 109.0081 -0.0001 -5.8144 0.0000
# 4 0.0000 0.0000 -0.0001 23.1550 0.0000 -3.6927
# 5 -11.1614 -1.4210 -5.8144 0.0000 41.7066 0.0000
# 6 0.0000 0.0000 0.0000 -3.6927 0.0000 28.3435
#
#
#
# Elastic Compliance Matrix: (Units=1/GPa)
#
#
# Indices 1 2 3 4 5 6 
#
# 1 0.007044 -0.001962 -0.002881 0.000000 0.001417 0.000000
# 2 -0.001962 0.009003 -0.000794 0.000000 -0.000329 0.000000
# 3 -0.002881 -0.000794 0.010722 0.000000 0.000697 0.000000
# 4 0.000000 0.000000 0.000000 0.044104 0.000000 0.005746
# 5 0.001417 -0.000329 0.000697 0.000000 0.024442 0.000000
# 6 0.000000 0.000000 0.000000 0.005746 0.000000 0.036030
#
#
# Mechanical properties :
#
#
# Convention : Reuss Voigt Hill
#
# Bulk Modulus (GPa) = 64.54020 70.90074 67.72047
# Shear Modulus (GPa) = 33.83300 38.20548 36.01924
#
# Velocity S-wave (km/s) = 3.92413 4.17000 4.04893
# Velocity P-wave (km/s) = 7.06446 7.44682 7.25816
#
# Compressibility (1/GPa) = 0.01549422
#
# Stress axis : x y z
#
# Youngs Moduli (GPa) = 141.95760 111.07841 93.26377
#
# Poissons Ratio (x) = 0.21796 0.26871
# Poissons Ratio (y) = 0.27855 0.07407
# Poissons Ratio (z) = 0.40901 0.08821
#
# Static dielectric constant tensor:
#      x y z
#    x 4.124360 0.000000 -0.200980 
#    y 0.000000 4.451950 0.000000 
#    z -0.200980 0.000000 3.775820 
# 
# 
# High freq. dielectric constant tensor:
#      x y z
#    x 1.872230 0.000000 -0.009980 
#    y 0.000000 1.882840 0.000000 
#    z -0.009980 0.000000 1.840840 
# 
# From -- ./inp_files/227636.got.cif
#   From: 2010.06.25/outbox.cif.g09.slc.cpg/sg12_114_cif.got.tgz:227636.got - 2010.06.28 00:19:55.
