data_PCOD8094508
_publ_section_title
;
Structure prediction by ZEFSAII (Michael W. Deem and Ramdas Pophale) SiO2 
 PCOD8094508
Probable space group: C 2/M
;
_chemical_formula_sum "Si O2"
_cell_formula_units_Z 64
_cell_length_a 12.382078
_cell_length_b 26.965909
_cell_length_c 14.978583
_cell_angle_alpha 90.000000
_cell_angle_beta 37.052611
_cell_angle_gamma 90.000000
_cell_volume 3013.499023
_symmetry_space_group_name_H-M "C 2/M"
_symmetry_group_IT_number 12
_symmetry_cell_setting 'monoclinic'
loop_
_space_group_symop_operation_xyz
x,y,z
-x,y,-z
-x,-y,-z
x,-y,z
1/2+x,1/2+y,z
1/2-x,1/2+y,-z
1/2-x,1/2-y,-z
1/2+x,1/2-y,z
loop_
_atom_site_type_symbol
_atom_site_label
_atom_site_fract_x
_atom_site_fract_y
_atom_site_fract_z
Si Si1 0.359678 0.854007 0.225904
Si Si2 0.752876 0.141174 0.011031
Si Si3 0.833316 0.798679 0.790854
Si Si4 0.519935 0.442617 0.200668
Si Si5 0.698141 0.054669 0.827662
Si Si6 0.703453 0.692187 0.842426
Si Si7 0.302242 0.128964 0.605731
Si Si8 0.226304 0.807158 0.493123
O O1 0.330151 0.823133 0.154709
O O2 0.259570 0.906882 0.280526
O O3 0.301641 0.820412 0.346625
O O4 0.563612 0.870829 0.093891
O O5 0.834302 0.185857 0.895357
O O6 0.873123 0.091710 0.939420
O O7 0.723969 0.154784 0.132121
O O8 0.827846 0.740176 0.774680
O O9 0.017019 0.820433 0.630111
O O10 0.504842 0.500000 0.179291
O O11 0.636774 0.438167 0.213140
O O12 0.321118 0.418619 0.336612
O O13 0.704846 0.000000 0.781696
O O14 0.500000 0.063999 0.000000
O O15 0.718006 0.665729 0.736600
O O16 0.500000 0.707051 0.000000
O O17 0.500000 0.109226 0.500000
O O18 0.330336 0.161252 0.498461
O O19 0.250000 0.750000 0.500000
#
# Coordination Sequence:
#
# PCOD8094508 Si02
#       8
#     8   8   8   8   8   8   8   8
#     4  12  22  37  65  98 133 172 219 270 338 410
#     4  12  22  41  63  98 129 165 220 283 335 403
#     4  12  23  40  62  95 136 176 212 270 347 414
#     4  11  23  43  71  98 132 175 221 280 346 402
#     4  10  19  37  67 102 136 169 212 280 360 416
#     4  12  24  41  66  96 130 176 231 284 335 402
#     4  12  25  47  65  92 135 181 230 280 333 398
#     4  12  25  43  62  93 136 184 229 272 328 406
#
# _framework density 21.237770000000001
#
# number of rings (size 3 to 8) (size 9 to 14) (size 15 to 20)
#    0.000    0.375    5.000    4.875    0.000    0.250 
#    0.000    1.875    0.000    5.250    0.000    0.000 
#    0.000    0.000    0.000    0.000    0.000    0.000 
#
# Total GULP energy -396608.851249 kJ/mol
# GULP energy per Si atom -12394.026602 kJ/mol
# Density = 2.118943 g / cm^3
# Si number density = 21.237770 Si / 1000 Ang^3
#
#
#
# Elastic Constant Matrix: (Units=GPa)
#
#
# Indices 1 2 3 4 5 6 
#
# 1 100.3847 51.6223 27.1751 0.0001 -11.5896 -0.0002
# 2 51.6223 161.9852 25.0445 0.0000 3.9085 0.0000
# 3 27.1751 25.0445 65.6987 -0.0001 -9.7267 -0.0003
# 4 0.0001 0.0000 -0.0001 24.7369 0.0000 -11.8588
# 5 -11.5896 3.9085 -9.7267 0.0000 44.2806 0.0003
# 6 -0.0002 0.0000 -0.0003 -11.8588 0.0003 26.0507
#
#
#
# Elastic Compliance Matrix: (Units=1/GPa)
#
#
# Indices 1 2 3 4 5 6 
#
# 1 0.013194 -0.003721 -0.003596 0.000000 0.002992 0.000000
# 2 -0.003721 0.007668 -0.001683 0.000000 -0.002020 0.000000
# 3 -0.003596 -0.001683 0.017812 0.000000 0.003120 0.000000
# 4 0.000000 0.000000 0.000000 0.051710 0.000000 0.023540
# 5 0.002992 -0.002020 0.003120 0.000000 0.024230 0.000000
# 6 0.000000 0.000000 0.000000 0.023540 0.000000 0.049103
#
#
# Mechanical properties :
#
#
# Convention : Reuss Voigt Hill
#
# Bulk Modulus (GPa) = 48.37034 59.52803 53.94918
# Shear Modulus (GPa) = 26.50990 33.96207 30.23599
#
# Velocity S-wave (km/s) = 3.53688 4.00326 3.77727
# Velocity P-wave (km/s) = 6.28526 7.03266 6.66943
#
# Compressibility (1/GPa) = 0.02067383
#
# Stress axis : x y z
#
# Youngs Moduli (GPa) = 75.79156 130.40866 56.14185
#
# Poissons Ratio (x) = 0.48524 0.20189
# Poissons Ratio (y) = 0.28202 0.09450
# Poissons Ratio (z) = 0.27256 0.21950
#
# Static dielectric constant tensor:
#      x y z
#    x 4.067680 0.000000 -0.199920 
#    y 0.000000 4.086440 0.000000 
#    z -0.199920 0.000000 3.793030 
# 
# 
# High freq. dielectric constant tensor:
#      x y z
#    x 1.849470 0.000000 -0.019970 
#    y 0.000000 1.829780 0.000000 
#    z -0.019970 0.000000 1.819480 
# 
# From -- ./inp_files/209395.got.cif
#   From: 2010.06.25/outbox.cif.g09.slc.cpg/sg12_105_cif.got.tgz:209395.got - 2010.06.28 00:19:55.
