data_PCOD8094880
_publ_section_title
;
Structure prediction by ZEFSAII (Michael W. Deem and Ramdas Pophale) SiO2 
 PCOD8094880
Probable space group: C 2/M
;
_chemical_formula_sum "Si O2"
_cell_formula_units_Z 48
_cell_length_a 15.504416
_cell_length_b 9.685028
_cell_length_c 16.905587
_cell_angle_alpha 90.000000
_cell_angle_beta 90.616685
_cell_angle_gamma 90.000000
_cell_volume 2538.407791
_symmetry_space_group_name_H-M "C 2/M"
_symmetry_group_IT_number 12
_symmetry_cell_setting 'monoclinic'
loop_
_space_group_symop_operation_xyz
x,y,z
-x,y,-z
-x,-y,-z
x,-y,z
1/2+x,1/2+y,z
1/2-x,1/2+y,-z
1/2-x,1/2-y,-z
1/2+x,1/2-y,z
loop_
_atom_site_type_symbol
_atom_site_label
_atom_site_fract_x
_atom_site_fract_y
_atom_site_fract_z
Si Si1 0.136040 0.348425 0.158655
Si Si2 0.836138 0.154349 0.133717
Si Si3 0.095348 0.850507 0.024002
Si Si4 0.859189 0.164540 0.305485
Si Si5 0.522432 0.340763 0.409226
Si Si6 0.666513 0.162114 0.336440
O O1 0.095256 0.500000 0.144383
O O2 0.234732 0.351140 0.136482
O O3 0.089579 0.238970 0.103021
O O4 0.126870 0.306528 0.249902
O O5 0.871075 0.224466 0.215729
O O6 0.875446 0.000000 0.127820
O O7 0.860946 0.229617 0.051112
O O8 0.141185 0.000000 0.041864
O O9 0.000000 0.883165 0.000000
O O10 0.939620 0.214901 0.358928
O O11 0.766895 0.212152 0.341766
O O12 0.854278 0.000000 0.299031
O O13 0.500000 0.324626 0.500000
O O14 0.541565 0.500000 0.387456
O O15 0.608207 0.250989 0.395508
O O16 0.659523 0.000000 0.357588
#
# Coordination Sequence:
#
# PCOD8094880 Si02
#       6
#     8   8   8   8   8   8
#     4   9  18  33  51  68  93 131 172 209 249 296
#     4   8  15  30  49  68  93 132 173 204 243 302
#     4  10  20  29  44  74 102 127 168 209 245 296
#     4   8  16  33  55  74 103 144 176 207 259 319
#     4  10  21  35  55  84 110 134 169 215 265 313
#     4   9  19  36  56  77 101 140 183 211 252 319
#
# _framework density 18.909490999999999
#
# number of rings (size 3 to 8) (size 9 to 14) (size 15 to 20)
#    0.000    3.000    0.000    2.500    2.333    2.000 
#    0.000    0.833    0.000    2.000    0.000    0.000 
#    0.000    0.000    0.000    0.000    0.000    0.000 
#
# Total GULP energy -297330.278274 kJ/mol
# GULP energy per Si atom -12388.761595 kJ/mol
# Density = 1.886645 g / cm^3
# Si number density = 18.909491 Si / 1000 Ang^3
#
#
#
# Elastic Constant Matrix: (Units=GPa)
#
#
# Indices 1 2 3 4 5 6 
#
# 1 47.8856 16.0919 13.0610 0.0000 -2.6140 0.0000
# 2 16.0919 43.7743 22.7218 0.0000 -2.8487 0.0000
# 3 13.0610 22.7218 51.1080 0.0000 -4.5608 0.0000
# 4 0.0000 0.0000 0.0000 -927.7549 0.0000 -799.5150
# 5 -2.6140 -2.8487 -4.5608 0.0000 33.2819 0.0000
# 6 0.0000 0.0000 0.0000 -799.5150 0.0000 -644.1939
#
#
#
# Elastic Compliance Matrix: (Units=1/GPa)
#
#
# Indices 1 2 3 4 5 6 
#
# 1 0.024176 -0.007363 -0.002826 0.000000 0.000881 0.000000
# 2 -0.007363 0.031958 -0.012284 0.000000 0.000474 0.000000
# 3 -0.002826 -0.012284 0.025954 0.000000 0.002283 0.000000
# 4 0.000000 0.000000 0.000000 0.015497 0.000000 -0.019233
# 5 0.000881 0.000474 0.002283 0.000000 0.030469 0.000000
# 6 0.000000 0.000000 0.000000 -0.019233 0.000000 0.022318
#
#
# Mechanical properties :
#
#
# Convention : Reuss Voigt Hill
#
# Bulk Modulus (GPa) = 26.92415 27.39081 27.15748
# Shear Modulus (GPa) = 24.07320 -301.67384 -138.80032
#
# Velocity S-wave (km/s) = 3.57189 -12.64445 -8.57682
# Velocity P-wave (km/s) = 5.59290 14.09466 9.14819
#
# Compressibility (1/GPa) = 0.03714138
#
# Stress axis : x y z
#
# Youngs Moduli (GPa) = 41.36256 31.29065 38.52997
#
# Poissons Ratio (x) = 0.23040 0.10890
# Poissons Ratio (y) = 0.30456 0.47331
# Poissons Ratio (z) = 0.11690 0.38438
#
# Static dielectric constant tensor:
#      x y z
#    x 3.358630 0.000000 -0.008130 
#    y 0.000000 3.228950 0.000000 
#    z -0.008130 0.000000 3.862130 
# 
# 
# High freq. dielectric constant tensor:
#      x y z
#    x 1.730360 0.000000 -0.007290 
#    y 0.000000 1.690290 0.000000 
#    z -0.007290 0.000000 1.741790 
# 
# From -- ./inp_files/212639.got.cif
#   From: 2010.06.25/outbox.cif.g09.slc.cpg/sg12_107_cif.got.tgz:212639.got - 2010.06.28 00:19:55.
