data_PCOD8094336
_publ_section_title
;
Structure prediction by ZEFSAII (Michael W. Deem and Ramdas Pophale) SiO2 
 PCOD8094336
Probable space group: C 2/M
;
_chemical_formula_sum "Si O2"
_cell_formula_units_Z 56
_cell_length_a 17.510932
_cell_length_b 18.012664
_cell_length_c 7.850175
_cell_angle_alpha 90.000000
_cell_angle_beta 85.564183
_cell_angle_gamma 90.000000
_cell_volume 2468.673808
_symmetry_space_group_name_H-M "C 2/M"
_symmetry_group_IT_number 12
_symmetry_cell_setting 'monoclinic'
loop_
_space_group_symop_operation_xyz
x,y,z
-x,y,-z
-x,-y,-z
x,-y,z
1/2+x,1/2+y,z
1/2-x,1/2+y,-z
1/2-x,1/2-y,-z
1/2+x,1/2-y,z
loop_
_atom_site_type_symbol
_atom_site_label
_atom_site_fract_x
_atom_site_fract_y
_atom_site_fract_z
Si Si1 0.478802 0.810308 0.686014
Si Si2 0.153111 0.915572 0.140581
Si Si3 0.085681 0.417497 0.059176
Si Si4 0.752981 0.087558 0.537278
Si Si5 0.644897 0.827556 0.766055
Si Si6 0.992847 0.144408 0.690912
Si Si7 0.663441 0.661564 0.791229
O O1 0.500000 0.843722 0.500000
O O2 0.413822 0.862530 0.778550
O O3 0.555145 0.810208 0.784398
O O4 0.451118 0.725054 0.679652
O O5 0.194623 0.891462 0.308580
O O6 0.062084 0.906261 0.185435
O O7 0.170596 0.000000 0.090808
O O8 0.182595 0.866640 0.977361
O O9 0.112095 0.500000 0.109520
O O10 0.151758 0.385762 0.921633
O O11 0.000000 0.422083 0.000000
O O12 0.673794 0.131624 0.588956
O O13 0.787936 0.116839 0.356211
O O14 0.738634 0.000000 0.524228
O O15 0.686908 0.748445 0.782014
O O16 0.074325 0.147988 0.768061
O O17 0.000000 0.109942 0.500000
#
# Coordination Sequence:
#
# PCOD8094336 Si02
#       7
#     8   8   8   8   8   8   8
#     4   9  19  35  59  89 118 149 196 251 294 348
#     4  11  24  39  60  90 121 158 200 243 300 355
#     4   9  17  32  54  79 111 149 189 238 292 341
#     4  11  24  42  60  84 125 162 195 245 298 356
#     4  10  21  39  61  86 115 159 200 237 298 355
#     4  10  19  37  61  87 120 156 196 249 302 345
#     4  11  22  40  63  88 118 156 204 248 291 351
#
# _framework density 22.684245000000001
#
# number of rings (size 3 to 8) (size 9 to 14) (size 15 to 20)
#    0.000    1.857    1.429    2.571    0.000    5.714 
#    2.571    0.000    0.000    0.000    0.000    0.000 
#    0.000    0.000    0.000    0.000    0.000    0.000 
#
# Total GULP energy -347138.012003 kJ/mol
# GULP energy per Si atom -12397.786143 kJ/mol
# Density = 2.263261 g / cm^3
# Si number density = 22.684245 Si / 1000 Ang^3
#
#
#
# Elastic Constant Matrix: (Units=GPa)
#
#
# Indices 1 2 3 4 5 6 
#
# 1 18.4510 6.0053 -0.6151 0.0000 -8.2581 0.0000
# 2 6.0053 132.8381 53.8747 0.0000 -14.0803 0.0000
# 3 -0.6151 53.8747 144.6321 0.0000 -19.1807 0.0000
# 4 0.0000 0.0000 0.0000 43.4701 0.0000 -9.5186
# 5 -8.2581 -14.0803 -19.1807 0.0000 27.4432 0.0000
# 6 0.0000 0.0000 0.0000 -9.5186 0.0000 15.7586
#
#
#
# Elastic Compliance Matrix: (Units=1/GPa)
#
#
# Indices 1 2 3 4 5 6 
#
# 1 0.064445 -0.002274 0.003900 0.000000 0.020951 0.000000
# 2 -0.002274 0.009102 -0.003165 0.000000 0.001774 0.000000
# 3 0.003900 -0.003165 0.008872 0.000000 0.005751 0.000000
# 4 0.000000 0.000000 0.000000 0.026511 0.000000 0.016013
# 5 0.020951 0.001774 0.005751 0.000000 0.047673 0.000000
# 6 0.000000 0.000000 0.000000 0.016013 0.000000 0.073130
#
#
# Mechanical properties :
#
#
# Convention : Reuss Voigt Hill
#
# Bulk Modulus (GPa) = 12.60389 46.05010 29.32700
# Shear Modulus (GPa) = 19.28572 33.11145 26.19859
#
# Velocity S-wave (km/s) = 2.91895 3.82470 3.40210
# Velocity P-wave (km/s) = 4.11444 6.31261 5.32812
#
# Compressibility (1/GPa) = 0.07934058
#
# Stress axis : x y z
#
# Youngs Moduli (GPa) = 15.51711 109.86099 112.71059
#
# Poissons Ratio (x) = 0.24985 -0.43954
# Poissons Ratio (y) = 0.03529 0.35673
# Poissons Ratio (z) = -0.06051 0.34772
#
# Static dielectric constant tensor:
#      x y z
#    x 3.787240 0.000000 -0.118320 
#    y 0.000000 4.224310 0.000000 
#    z -0.118320 0.000000 4.103120 
# 
# 
# High freq. dielectric constant tensor:
#      x y z
#    x 1.867350 0.000000 -0.013200 
#    y 0.000000 1.899640 0.000000 
#    z -0.013200 0.000000 1.902940 
# 
# From -- ./inp_files/75829.got.cif
#   From: 2010.06.25/outbox.cif.g09.slc.cpg/sg12_38_cif.got.tgz:75829.got - 2010.06.28 00:19:55.
