data_PCOD8094878
_publ_section_title
;
Structure prediction by ZEFSAII (Michael W. Deem and Ramdas Pophale) SiO2 
 PCOD8094878
Probable space group: C 2/M
;
_chemical_formula_sum "Si O2"
_cell_formula_units_Z 48
_cell_length_a 23.221667
_cell_length_b 9.249728
_cell_length_c 17.064825
_cell_angle_alpha 90.000000
_cell_angle_beta 120.942021
_cell_angle_gamma 90.000000
_cell_volume 3143.790148
_symmetry_space_group_name_H-M "C 2/M"
_symmetry_group_IT_number 12
_symmetry_cell_setting 'monoclinic'
loop_
_space_group_symop_operation_xyz
x,y,z
-x,y,-z
-x,-y,-z
x,-y,z
1/2+x,1/2+y,z
1/2-x,1/2+y,-z
1/2-x,1/2-y,-z
1/2+x,1/2-y,z
loop_
_atom_site_type_symbol
_atom_site_label
_atom_site_fract_x
_atom_site_fract_y
_atom_site_fract_z
Si Si1 0.146558 0.166266 0.946195
Si Si2 0.615782 0.167379 0.243533
Si Si3 0.222807 0.836778 0.245056
Si Si4 0.715668 0.834942 0.867651
Si Si5 0.210273 0.835718 0.406894
Si Si6 0.522907 0.166832 0.930304
O O1 0.159890 0.236943 0.870365
O O2 0.084344 0.238324 0.945237
O O3 0.129867 0.000000 0.920537
O O4 0.211013 0.191110 0.045167
O O5 0.657885 0.230464 0.198238
O O6 0.638989 0.255664 0.338063
O O7 0.537303 0.189675 0.173634
O O8 0.634144 0.000000 0.267246
O O9 0.278546 0.789578 0.220145
O O10 0.253225 0.833820 0.355149
O O11 0.198567 0.000000 0.206836
O O12 0.692426 0.000000 0.861690
O O13 0.250000 0.750000 0.500000
O O14 0.196805 0.000000 0.425458
O O15 0.545337 0.000000 0.949302
O O16 0.500000 0.219039 0.000000
#
# Coordination Sequence:
#
# PCOD8094878 Si02
#       6
#     8   8   8   8   8   8
#     4  10  20  29  44  66  88 119 158 195 230 266
#     4   9  17  28  44  66  92 121 152 186 226 270
#     4   8  16  28  45  65  88 118 148 184 227 271
#     4   9  17  32  46  61  88 121 156 193 230 269
#     4   9  17  29  46  69  95 119 149 186 233 281
#     4  10  20  32  45  64  92 127 160 189 226 272
#
# _framework density 15.268193999999999
#
# number of rings (size 3 to 8) (size 9 to 14) (size 15 to 20)
#    1.000    1.833    0.000    2.000    0.000    3.000 
#    0.000    0.000    0.000    0.000    0.000    1.167 
#    0.000    9.333    0.000    0.000    0.000    0.000 
#
# Total GULP energy -297355.626750 kJ/mol
# GULP energy per Si atom -12389.817781 kJ/mol
# Density = 1.523344 g / cm^3
# Si number density = 15.268194 Si / 1000 Ang^3
#
#
#
# Elastic Constant Matrix: (Units=GPa)
#
#
# Indices 1 2 3 4 5 6 
#
# 1 95.6933 57.9152 25.1476 0.0000 -9.1449 0.0000
# 2 57.9152 108.4183 36.6527 0.0000 -0.7347 0.0000
# 3 25.1476 36.6527 59.4444 0.0000 -4.3641 0.0000
# 4 0.0000 0.0000 0.0000 20.5293 0.0000 1.6325
# 5 -9.1449 -0.7347 -4.3641 0.0000 17.6978 0.0000
# 6 0.0000 0.0000 0.0000 1.6325 0.0000 27.8615
#
#
#
# Elastic Compliance Matrix: (Units=1/GPa)
#
#
# Indices 1 2 3 4 5 6 
#
# 1 0.016624 -0.008396 -0.001274 0.000000 0.007927 0.000000
# 2 -0.008396 0.015923 -0.006656 0.000000 -0.005319 0.000000
# 3 -0.001274 -0.006656 0.021792 0.000000 0.004439 0.000000
# 4 0.000000 0.000000 0.000000 0.048939 0.000000 -0.002867
# 5 0.007927 -0.005319 0.004439 0.000000 0.061474 0.000000
# 6 0.000000 0.000000 0.000000 -0.002867 0.000000 0.036060
#
#
# Mechanical properties :
#
#
# Convention : Reuss Voigt Hill
#
# Bulk Modulus (GPa) = 46.11311 55.88743 51.00027
# Shear Modulus (GPa) = 20.77349 22.80708 21.79028
#
# Velocity S-wave (km/s) = 3.69260 3.86912 3.78189
# Velocity P-wave (km/s) = 6.96046 7.52618 7.24884
#
# Compressibility (1/GPa) = 0.02168580
#
# Stress axis : x y z
#
# Youngs Moduli (GPa) = 60.15559 62.80366 45.88939
#
# Poissons Ratio (x) = 0.52728 0.05846
# Poissons Ratio (y) = 0.50505 0.30546
# Poissons Ratio (z) = 0.07663 0.41805
#
# Static dielectric constant tensor:
#      x y z
#    x 2.784000 0.000000 -0.175610 
#    y 0.000000 3.061430 0.000000 
#    z -0.175610 0.000000 2.751250 
# 
# 
# High freq. dielectric constant tensor:
#      x y z
#    x 1.560730 0.000000 -0.015420 
#    y 0.000000 1.599440 0.000000 
#    z -0.015420 0.000000 1.560120 
# 
# From -- ./inp_files/280536.got.cif
#   From: 2010.06.25/outbox.cif.g09.slc.cpg/sg12_141_cif.got.tgz:280536.got - 2010.06.28 00:19:55.
