data_PCOD8094909
_publ_section_title
;
Structure prediction by ZEFSAII (Michael W. Deem and Ramdas Pophale) SiO2 
 PCOD8094909
Probable space group: C 2/M
;
_chemical_formula_sum "Si O2"
_cell_formula_units_Z 48
_cell_length_a 26.295451
_cell_length_b 7.838049
_cell_length_c 13.879931
_cell_angle_alpha 90.000000
_cell_angle_beta 74.449326
_cell_angle_gamma 90.000000
_cell_volume 2756.003201
_symmetry_space_group_name_H-M "C 2/M"
_symmetry_group_IT_number 12
_symmetry_cell_setting 'monoclinic'
loop_
_space_group_symop_operation_xyz
x,y,z
-x,y,-z
-x,-y,-z
x,-y,z
1/2+x,1/2+y,z
1/2-x,1/2+y,-z
1/2-x,1/2-y,-z
1/2+x,1/2-y,z
loop_
_atom_site_type_symbol
_atom_site_label
_atom_site_fract_x
_atom_site_fract_y
_atom_site_fract_z
Si Si1 0.794636 0.811243 0.751416
Si Si2 0.062824 0.500000 0.079620
Si Si3 0.767851 0.190752 0.387416
Si Si4 0.798317 0.810406 0.087176
Si Si5 0.368540 0.701459 0.877607
Si Si6 0.130774 0.804833 0.770873
Si Si7 0.561218 0.000000 0.855215
O O1 0.780328 0.700320 0.664854
O O2 0.746993 0.815340 0.852971
O O3 0.848324 0.755286 0.779267
O O4 0.802176 0.000000 0.706772
O O5 0.083895 0.327623 0.120192
O O6 0.000847 0.500000 0.126812
O O7 0.077673 0.500000 0.959366
O O8 0.750000 0.250000 0.500000
O O9 0.821912 0.275384 0.320133
O O10 0.785573 0.000000 0.388896
O O11 0.849131 0.807041 0.130173
O O12 0.773598 0.000000 0.099661
O O13 0.818725 0.756362 0.971832
O O14 0.384808 0.500000 0.879342
O O15 0.082600 0.671036 0.791296
O O16 0.113307 0.000000 0.750932
#
# Coordination Sequence:
#
# PCOD8094909 Si02
#       7
#     8   4   8   8   8   8   4
#     4  10  20  30  48  73 103 142 173 205 263 320
#     4  11  24  34  54  75 105 143 197 232 255 304
#     4  10  21  34  52  81 109 138 169 210 264 323
#     4   9  17  29  45  71 102 139 175 210 255 315
#     4  10  21  34  47  72 105 140 178 221 263 308
#     4   9  19  34  52  75 108 138 174 219 264 317
#     4  11  22  36  54  79  97 151 191 222 277 295
#
# _framework density 17.416526000000001
#
# number of rings (size 3 to 8) (size 9 to 14) (size 15 to 20)
#    0.000    2.167    1.667    2.500    9.333    0.667 
#    0.000    1.667    0.000    0.000    0.000    2.333 
#    0.000    5.333    0.000    0.000    0.000    0.000 
#
# Total GULP energy -297342.277004 kJ/mol
# GULP energy per Si atom -12389.261542 kJ/mol
# Density = 1.737689 g / cm^3
# Si number density = 17.416526 Si / 1000 Ang^3
#
#
#
# Elastic Constant Matrix: (Units=GPa)
#
#
# Indices 1 2 3 4 5 6 
#
# 1 78.8373 45.2351 41.5422 0.0000 3.7059 0.0000
# 2 45.2351 86.0448 32.4619 0.0000 -1.4383 0.0000
# 3 41.5422 32.4619 93.5025 0.0000 4.1888 0.0000
# 4 0.0000 0.0000 0.0000 23.3865 0.0000 -0.4836
# 5 3.7059 -1.4383 4.1888 0.0000 15.4076 0.0000
# 6 0.0000 0.0000 0.0000 -0.4836 0.0000 26.9187
#
#
#
# Elastic Compliance Matrix: (Units=1/GPa)
#
#
# Indices 1 2 3 4 5 6 
#
# 1 0.021244 -0.008919 -0.006151 0.000000 -0.004270 0.000000
# 2 -0.008919 0.017217 -0.002210 0.000000 0.004353 0.000000
# 3 -0.006151 -0.002210 0.014312 0.000000 -0.002618 0.000000
# 4 0.000000 0.000000 0.000000 0.042776 0.000000 0.000768
# 5 -0.004270 0.004353 -0.002618 0.000000 0.067048 0.000000
# 6 0.000000 0.000000 0.000000 0.000768 0.000000 0.037163
#
#
# Mechanical properties :
#
#
# Convention : Reuss Voigt Hill
#
# Bulk Modulus (GPa) = 54.90279 55.20701 55.05490
# Shear Modulus (GPa) = 20.79963 22.41893 21.60928
#
# Velocity S-wave (km/s) = 3.45954 3.59168 3.52623
# Velocity P-wave (km/s) = 6.89563 6.99765 6.94683
#
# Compressibility (1/GPa) = 0.01821401
#
# Stress axis : x y z
#
# Youngs Moduli (GPa) = 47.07312 58.08152 69.87153
#
# Poissons Ratio (x) = 0.51803 0.42975
# Poissons Ratio (y) = 0.41985 0.15440
# Poissons Ratio (z) = 0.28952 0.12835
#
# Static dielectric constant tensor:
#      x y z
#    x 2.931060 0.000000 0.163660 
#    y 0.000000 3.372220 0.000000 
#    z 0.163660 0.000000 2.975090 
# 
# 
# High freq. dielectric constant tensor:
#      x y z
#    x 1.639810 0.000000 0.014120 
#    y 0.000000 1.684600 0.000000 
#    z 0.014120 0.000000 1.644060 
# 
# From -- ./inp_files/242615.got.cif
#   From: 2010.06.25/outbox.cif.g09.slc.cpg/sg12_122_cif.got.tgz:242615.got - 2010.06.28 00:19:55.
