data_PCOD8094727
_publ_section_title
;
Structure prediction by ZEFSAII (Michael W. Deem and Ramdas Pophale) SiO2 
 PCOD8094727
Probable space group: C 2/M
;
_chemical_formula_sum "Si O2"
_cell_formula_units_Z 56
_cell_length_a 14.648710
_cell_length_b 28.291589
_cell_length_c 9.009620
_cell_angle_alpha 90.000000
_cell_angle_beta 51.305561
_cell_angle_gamma 90.000000
_cell_volume 2914.279118
_symmetry_space_group_name_H-M "C 2/M"
_symmetry_group_IT_number 12
_symmetry_cell_setting 'monoclinic'
loop_
_space_group_symop_operation_xyz
x,y,z
-x,y,-z
-x,-y,-z
x,-y,z
1/2+x,1/2+y,z
1/2-x,1/2+y,-z
1/2-x,1/2-y,-z
1/2+x,1/2-y,z
loop_
_atom_site_type_symbol
_atom_site_label
_atom_site_fract_x
_atom_site_fract_y
_atom_site_fract_z
Si Si1 0.229051 0.361184 0.466663
Si Si2 0.637409 0.946601 0.367372
Si Si3 0.219682 0.607874 0.023083
Si Si4 0.013348 0.673255 0.320367
Si Si5 0.134570 0.138548 0.370454
Si Si6 0.115649 0.838227 0.945230
Si Si7 0.126985 0.770118 0.174480
O O1 0.200736 0.412773 0.423469
O O2 0.322479 0.362384 0.503686
O O3 0.286475 0.328633 0.279848
O O4 0.108931 0.335968 0.640936
O O5 0.500000 0.937559 0.500000
O O6 0.680987 0.938687 0.152117
O O7 0.667533 0.000000 0.383604
O O8 0.115999 0.646554 0.128892
O O9 0.335185 0.626845 0.983523
O O10 0.271584 0.602321 0.803987
O O11 0.039505 0.728661 0.310665
O O12 0.000000 0.651574 0.500000
O O13 0.140073 0.191436 0.293903
O O14 0.000000 0.120357 0.500000
O O15 0.075143 0.791376 0.074154
O O16 0.000000 0.863041 0.000000
O O17 0.250000 0.750000 0.000000
#
# Coordination Sequence:
#
# PCOD8094727 Si02
#       7
#     8   8   8   8   8   8   8
#     4  11  21  38  63  89 119 159 199 250 309 353
#     4  10  19  38  69  98 119 144 189 246 313 381
#     4  10  19  39  59  80 123 151 187 242 307 348
#     4  12  19  37  58  83 116 156 197 255 300 343
#     4  11  24  40  58  83 122 172 203 244 298 352
#     4  10  20  35  55  75 109 161 204 242 283 341
#     4  11  21  37  53  78 121 159 205 254 290 336
#
# _framework density 19.215730000000001
#
# number of rings (size 3 to 8) (size 9 to 14) (size 15 to 20)
#    0.000    1.286    7.143    2.143    0.000    1.714 
#    0.000    3.571    0.000   18.000    0.000    0.000 
#    0.000    0.000    0.000    0.000    0.000    0.000 
#
# Total GULP energy -346888.956858 kJ/mol
# GULP energy per Si atom -12388.891316 kJ/mol
# Density = 1.917199 g / cm^3
# Si number density = 19.215730 Si / 1000 Ang^3
#
#
#
# Elastic Constant Matrix: (Units=GPa)
#
#
# Indices 1 2 3 4 5 6 
#
# 1 101.2794 29.9496 16.9477 0.0000 -1.8589 0.0000
# 2 29.9496 85.6331 33.4874 0.0000 -0.3145 0.0000
# 3 16.9477 33.4874 90.9403 0.0000 -0.0314 0.0000
# 4 0.0000 0.0000 0.0000 17.8050 0.0000 -1.8136
# 5 -1.8589 -0.3145 -0.0314 0.0000 35.5642 0.0000
# 6 0.0000 0.0000 0.0000 -1.8136 0.0000 11.8537
#
#
#
# Elastic Compliance Matrix: (Units=1/GPa)
#
#
# Indices 1 2 3 4 5 6 
#
# 1 0.011066 -0.003577 -0.000745 0.000000 0.000546 0.000000
# 2 -0.003577 0.014799 -0.004783 0.000000 -0.000060 0.000000
# 3 -0.000745 -0.004783 0.012896 0.000000 -0.000070 0.000000
# 4 0.000000 0.000000 0.000000 0.057053 0.000000 0.008729
# 5 0.000546 -0.000060 -0.000070 0.000000 0.028146 0.000000
# 6 0.000000 0.000000 0.000000 0.008729 0.000000 0.085697
#
#
# Mechanical properties :
#
#
# Convention : Reuss Voigt Hill
#
# Bulk Modulus (GPa) = 48.65784 48.73581 48.69682
# Shear Modulus (GPa) = 21.30215 26.20912 23.75564
#
# Velocity S-wave (km/s) = 3.33315 3.69716 3.51986
# Velocity P-wave (km/s) = 6.33956 6.60628 6.47429
#
# Compressibility (1/GPa) = 0.02055167
#
# Stress axis : x y z
#
# Youngs Moduli (GPa) = 90.36592 67.57254 77.54191
#
# Poissons Ratio (x) = 0.24171 0.05776
# Poissons Ratio (y) = 0.32324 0.37087
# Poissons Ratio (z) = 0.06732 0.32319
#
# Static dielectric constant tensor:
#      x y z
#    x 3.773870 0.000000 0.253920 
#    y 0.000000 3.528660 0.000000 
#    z 0.253920 0.000000 4.217930 
# 
# 
# High freq. dielectric constant tensor:
#      x y z
#    x 1.744620 0.000000 -0.013810 
#    y 0.000000 1.705590 0.000000 
#    z -0.013810 0.000000 1.765650 
# 
# From -- ./inp_files/68157.got.cif
#   From: 2010.06.25/outbox.cif.g09.slc.cpg/sg12_35_cif.got.tgz:68157.got - 2010.06.28 00:19:55.
