data_PCOD8094459
_publ_section_title
;
Structure prediction by ZEFSAII (Michael W. Deem and Ramdas Pophale) SiO2 
 PCOD8094459
Probable space group: C 2/M
;
_chemical_formula_sum "Si O2"
_cell_formula_units_Z 56
_cell_length_a 13.993006
_cell_length_b 24.503097
_cell_length_c 9.019570
_cell_angle_alpha 90.000000
_cell_angle_beta 65.429877
_cell_angle_gamma 90.000000
_cell_volume 2812.536192
_symmetry_space_group_name_H-M "C 2/M"
_symmetry_group_IT_number 12
_symmetry_cell_setting 'monoclinic'
loop_
_space_group_symop_operation_xyz
x,y,z
-x,y,-z
-x,-y,-z
x,-y,z
1/2+x,1/2+y,z
1/2-x,1/2+y,-z
1/2-x,1/2-y,-z
1/2+x,1/2-y,z
loop_
_atom_site_type_symbol
_atom_site_label
_atom_site_fract_x
_atom_site_fract_y
_atom_site_fract_z
Si Si1 0.376835 0.563420 0.082446
Si Si2 0.323747 0.788805 0.858995
Si Si3 0.840899 0.360483 0.304512
Si Si4 0.039485 0.250810 0.811504
Si Si5 0.990918 0.559950 0.835064
Si Si6 0.701463 0.661275 0.673956
Si Si7 0.716246 0.100312 0.967933
O O1 0.351915 0.500000 0.133860
O O2 0.324992 0.602752 0.237610
O O3 0.500000 0.573932 0.000000
O O4 0.331028 0.581949 0.950974
O O5 0.440603 0.763452 0.767967
O O6 0.278637 0.801937 0.725467
O O7 0.250000 0.750000 0.000000
O O8 0.328428 0.842267 0.952835
O O9 0.881536 0.301715 0.225700
O O10 0.940229 0.396254 0.302154
O O11 0.755462 0.351981 0.484975
O O12 0.785475 0.396553 0.209919
O O13 0.097926 0.197449 0.709381
O O14 0.000000 0.235217 0.000000
O O15 0.036310 0.500000 0.771596
O O16 0.000000 0.578022 0.000000
O O17 0.865119 0.559639 0.894255
#
# Coordination Sequence:
#
# PCOD8094459 Si02
#       7
#     8   8   8   8   8   8   8
#     4  10  23  44  66  87 118 166 219 262 303 373
#     4  11  21  36  62  88 117 168 211 252 306 371
#     4  11  21  38  58  95 131 157 194 264 318 373
#     4  12  20  39  64  86 125 168 214 254 297 378
#     4   9  17  32  58  89 117 156 202 246 305 376
#     4  11  25  38  62  95 130 163 207 262 326 365
#     4  10  19  37  64  86 117 158 209 251 308 372
#
# _framework density 19.910854
#
# number of rings (size 3 to 8) (size 9 to 14) (size 15 to 20)
#    0.000    1.429    4.286    1.714    2.000    1.714 
#    0.000    0.714    0.000    4.286    0.000    0.000 
#    0.000    0.000    0.000    0.000    0.000    0.000 
#
# Total GULP energy -347027.957897 kJ/mol
# GULP energy per Si atom -12393.855639 kJ/mol
# Density = 1.986554 g / cm^3
# Si number density = 19.910854 Si / 1000 Ang^3
#
#
#
# Elastic Constant Matrix: (Units=GPa)
#
#
# Indices 1 2 3 4 5 6 
#
# 1 137.0709 46.5231 53.2567 0.0000 -9.7218 0.0000
# 2 46.5231 120.4364 55.3892 0.0000 -13.2060 0.0000
# 3 53.2567 55.3892 112.1811 0.0000 -19.7178 0.0000
# 4 0.0000 0.0000 0.0000 18.5771 0.0000 -7.6590
# 5 -9.7218 -13.2060 -19.7178 0.0000 20.5444 0.0000
# 6 0.0000 0.0000 0.0000 -7.6590 0.0000 35.4551
#
#
#
# Elastic Compliance Matrix: (Units=1/GPa)
#
#
# Indices 1 2 3 4 5 6 
#
# 1 0.009312 -0.002032 -0.003456 0.000000 -0.000216 0.000000
# 2 -0.002032 0.011268 -0.004204 0.000000 0.002247 0.000000
# 3 -0.003456 -0.004204 0.014276 0.000000 0.009364 0.000000
# 4 0.000000 0.000000 0.000000 0.059093 0.000000 0.012765
# 5 -0.000216 0.002247 0.009364 0.000000 0.059005 0.000000
# 6 0.000000 0.000000 0.000000 0.012765 0.000000 0.030962
#
#
# Mechanical properties :
#
#
# Convention : Reuss Voigt Hill
#
# Bulk Modulus (GPa) = 64.62602 75.55851 70.09227
# Shear Modulus (GPa) = 23.98579 29.21663 26.60121
#
# Velocity S-wave (km/s) = 3.47458 3.83478 3.65912
# Velocity P-wave (km/s) = 6.97317 7.59198 7.28915
#
# Compressibility (1/GPa) = 0.01547364
#
# Stress axis : x y z
#
# Youngs Moduli (GPa) = 107.38341 88.74903 70.04538
#
# Poissons Ratio (x) = 0.18030 0.24206
# Poissons Ratio (y) = 0.21816 0.29447
# Poissons Ratio (z) = 0.37110 0.37311
#
# Static dielectric constant tensor:
#      x y z
#    x 3.910640 0.000000 -0.094950 
#    y 0.000000 3.700220 0.000000 
#    z -0.094950 0.000000 3.268680 
# 
# 
# High freq. dielectric constant tensor:
#      x y z
#    x 1.782750 0.000000 -0.010470 
#    y 0.000000 1.790670 0.000000 
#    z -0.010470 0.000000 1.739450 
# 
# From -- ./inp_files/65760.got.cif
#   From: 2010.06.25/outbox.cif.g09.slc.cpg/sg12_33_cif.got.tgz:65760.got - 2010.06.28 00:19:55.
