data_PCOD8094326
_publ_section_title
;
Structure prediction by ZEFSAII (Michael W. Deem and Ramdas Pophale) SiO2 
 PCOD8094326
Probable space group: C 2/M
;
_chemical_formula_sum "Si O2"
_cell_formula_units_Z 64
_cell_length_a 15.401302
_cell_length_b 8.852588
_cell_length_c 33.331633
_cell_angle_alpha 90.000000
_cell_angle_beta 134.095082
_cell_angle_gamma 90.000000
_cell_volume 3263.782679
_symmetry_space_group_name_H-M "C 2/M"
_symmetry_group_IT_number 12
_symmetry_cell_setting 'monoclinic'
loop_
_space_group_symop_operation_xyz
x,y,z
-x,y,-z
-x,-y,-z
x,-y,z
1/2+x,1/2+y,z
1/2-x,1/2+y,-z
1/2-x,1/2-y,-z
1/2+x,1/2-y,z
loop_
_atom_site_type_symbol
_atom_site_label
_atom_site_fract_x
_atom_site_fract_y
_atom_site_fract_z
Si Si1 0.364107 0.678688 0.138129
Si Si2 0.092651 0.320408 0.062683
Si Si3 0.659738 0.677921 0.439757
Si Si4 0.796980 0.178035 0.636806
Si Si5 0.612023 0.675541 0.631121
Si Si6 0.528133 0.177788 0.749334
Si Si7 0.531369 0.175888 0.131648
Si Si8 0.211538 0.826958 0.749482
O O1 0.369171 0.500000 0.144114
O O2 0.226721 0.738820 0.095894
O O3 0.441067 0.751316 0.198184
O O4 0.420126 0.730113 0.113855
O O5 0.091835 0.500000 0.061732
O O6 0.053632 0.262696 0.093977
O O7 0.000000 0.254181 0.000000
O O8 0.669164 0.500000 0.446470
O O9 0.750000 0.750000 0.500000
O O10 0.696069 0.731278 0.406981
O O11 0.524061 0.732764 0.405449
O O12 0.667109 0.226765 0.612574
O O13 0.898456 0.262283 0.694687
O O14 0.816684 0.000000 0.646896
O O15 0.614844 0.500000 0.620159
O O16 0.690230 0.706139 0.696064
O O17 0.628406 0.218472 0.748878
O O18 0.520450 0.000000 0.752099
O O19 0.649580 0.206532 0.196399
O O20 0.497228 0.000000 0.120494
O O21 0.177060 0.000000 0.749239
#
# Coordination Sequence:
#
# PCOD8094326 Si02
#       8
#     8   8   8   8   8   8   8   8
#     4  11  22  38  60  87 119 156 197 243 295 352
#     4   9  19  37  60  84 115 159 203 242 293 352
#     4  10  23  42  63  86 120 161 201 247 295 345
#     4  11  23  41  63  90 122 157 197 243 297 352
#     4  10  21  39  62  89 122 158 198 243 295 353
#     4  12  23  36  60  91 121 154 194 240 295 357
#     4  10  20  36  60  88 119 157 195 240 297 352
#     4  10  19  37  61  85 119 157 192 236 296 355
#
# _framework density 19.609148000000001
#
# number of rings (size 3 to 8) (size 9 to 14) (size 15 to 20)
#    0.000    1.625    2.500    2.625    0.000    4.500 
#    0.000    2.500    0.000    2.625    0.000    0.000 
#    0.000    0.000    0.000    0.000    0.000    0.000 
#
# Total GULP energy -396951.937897 kJ/mol
# GULP energy per Si atom -12404.748059 kJ/mol
# Density = 1.956452 g / cm^3
# Si number density = 19.609148 Si / 1000 Ang^3
#
#
#
# Elastic Constant Matrix: (Units=GPa)
#
#
# Indices 1 2 3 4 5 6 
#
# 1 173.1859 49.2568 78.0800 0.0000 -10.2216 0.0000
# 2 49.2568 66.3566 37.6878 0.0000 -1.4136 0.0000
# 3 78.0800 37.6878 155.3375 0.0000 -1.4564 0.0000
# 4 0.0000 0.0000 0.0000 17.9920 0.0000 -2.9843
# 5 -10.2216 -1.4136 -1.4564 0.0000 13.4135 0.0000
# 6 0.0000 0.0000 0.0000 -2.9843 0.0000 37.8993
#
#
#
# Elastic Compliance Matrix: (Units=1/GPa)
#
#
# Indices 1 2 3 4 5 6 
#
# 1 0.008935 -0.004623 -0.003313 0.000000 0.005962 0.000000
# 2 -0.004623 0.019897 -0.002519 0.000000 -0.001700 0.000000
# 3 -0.003313 -0.002519 0.008697 0.000000 -0.001846 0.000000
# 4 0.000000 0.000000 0.000000 0.056316 0.000000 0.004434
# 5 0.005962 -0.001700 -0.001846 0.000000 0.078715 0.000000
# 6 0.000000 0.000000 0.000000 0.004434 0.000000 0.026735
#
#
# Mechanical properties :
#
#
# Convention : Reuss Voigt Hill
#
# Bulk Modulus (GPa) = 60.18222 80.54769 70.36495
# Shear Modulus (GPa) = 22.14881 29.18465 25.66673
#
# Velocity S-wave (km/s) = 3.36447 3.86206 3.62182
# Velocity P-wave (km/s) = 6.77129 7.81365 7.31107
#
# Compressibility (1/GPa) = 0.01661620
#
# Stress axis : x y z
#
# Youngs Moduli (GPa) = 111.92137 50.25940 114.98218
#
# Poissons Ratio (x) = 0.23237 0.38099
# Poissons Ratio (y) = 0.51747 0.28967
# Poissons Ratio (z) = 0.37084 0.12662
#
# Static dielectric constant tensor:
#      x y z
#    x 3.779360 0.000000 0.060280 
#    y 0.000000 3.387680 0.000000 
#    z 0.060280 0.000000 3.433360 
# 
# 
# High freq. dielectric constant tensor:
#      x y z
#    x 1.780200 0.000000 -0.001660 
#    y 0.000000 1.745550 0.000000 
#    z -0.001660 0.000000 1.764680 
# 
# From -- ./inp_files/375618.got.cif
#   From: 2010.06.25/outbox.cif.g09.slc.cpg/sg12_188_cif.got.tgz:375618.got - 2010.06.28 00:19:55.
