data_PCOD8094910
_publ_section_title
;
Structure prediction by ZEFSAII (Michael W. Deem and Ramdas Pophale) SiO2 
 PCOD8094910
Probable space group: C 2/M
;
_chemical_formula_sum "Si O2"
_cell_formula_units_Z 44
_cell_length_a 17.933777
_cell_length_b 23.094059
_cell_length_c 4.997002
_cell_angle_alpha 90.000000
_cell_angle_beta 103.305809
_cell_angle_gamma 90.000000
_cell_volume 2014.020193
_symmetry_space_group_name_H-M "C 2/M"
_symmetry_group_IT_number 12
_symmetry_cell_setting 'monoclinic'
loop_
_space_group_symop_operation_xyz
x,y,z
-x,y,-z
-x,-y,-z
x,-y,z
1/2+x,1/2+y,z
1/2-x,1/2+y,-z
1/2-x,1/2-y,-z
1/2+x,1/2-y,z
loop_
_atom_site_type_symbol
_atom_site_label
_atom_site_fract_x
_atom_site_fract_y
_atom_site_fract_z
Si Si1 0.054957 0.500000 0.292021
Si Si2 0.052831 0.145447 0.286697
Si Si3 0.948338 0.726890 0.712448
Si Si4 0.298094 0.066234 0.983794
Si Si5 0.090670 0.385032 0.528993
Si Si6 0.198559 0.934302 0.417446
O O1 0.107962 0.441576 0.351098
O O2 0.000000 0.500000 0.500000
O O3 0.000000 0.500000 0.000000
O O4 0.088053 0.210000 0.254579
O O5 0.122459 0.102351 0.381964
O O6 0.000000 0.143641 0.500000
O O7 0.000000 0.124562 0.000000
O O8 0.886074 0.675768 0.595636
O O9 0.000000 0.738182 0.500000
O O10 0.000000 0.704677 0.000000
O O11 0.366516 0.107031 0.151802
O O12 0.229789 0.068411 0.143497
O O13 0.330417 0.000000 0.979953
O O14 0.262880 0.090473 0.677232
O O15 0.000000 0.380999 0.500000
O O16 0.179350 0.000000 0.488167
#
# Coordination Sequence:
#
# PCOD8094910 Si02
#       6
#     4   8   8   8   8   8
#     4  10  20  30  48  76 102 130 178 228 254 288
#     4  10  20  37  61  84 106 138 179 223 271 331
#     4   9  19  34  53  79 110 139 174 226 276 310
#     4  10  21  37  53  78 114 150 175 221 276 319
#     4  10  20  36  55  81 108 147 190 226 258 309
#     4  10  22  38  56  80 113 142 175 221 281 329
#
# _framework density 21.846851000000001
#
# number of rings (size 3 to 8) (size 9 to 14) (size 15 to 20)
#    0.000    2.182    0.909    1.636    0.000    6.545 
#    0.000    1.818    0.000    0.000    0.000    0.000 
#    0.000    0.000    0.000    0.000    0.000    0.000 
#
# Total GULP energy -272729.809419 kJ/mol
# GULP energy per Si atom -12396.809519 kJ/mol
# Density = 2.179713 g / cm^3
# Si number density = 21.846851 Si / 1000 Ang^3
#
#
#
# Elastic Constant Matrix: (Units=GPa)
#
#
# Indices 1 2 3 4 5 6 
#
# 1 46.3614 26.7632 12.2855 0.0000 22.7930 0.0000
# 2 26.7632 112.9808 32.3875 0.0000 31.2766 0.0000
# 3 12.2855 32.3875 136.8243 0.0000 16.4800 0.0000
# 4 0.0000 0.0000 0.0000 34.5982 0.0000 1.4721
# 5 22.7930 31.2766 16.4800 0.0000 35.6776 0.0000
# 6 0.0000 0.0000 0.0000 1.4721 0.0000 15.9115
#
#
#
# Elastic Compliance Matrix: (Units=1/GPa)
#
#
# Indices 1 2 3 4 5 6 
#
# 1 0.031988 -0.002518 -0.000085 0.000000 -0.018190 0.000000
# 2 -0.002518 0.012236 -0.001665 0.000000 -0.008349 0.000000
# 3 -0.000085 -0.001665 0.007972 0.000000 -0.002168 0.000000
# 4 0.000000 0.000000 0.000000 0.029017 0.000000 -0.002685
# 5 -0.018190 -0.008349 -0.002168 0.000000 0.047970 0.000000
# 6 0.000000 0.000000 0.000000 -0.002685 0.000000 0.063096
#
#
# Mechanical properties :
#
#
# Convention : Reuss Voigt Hill
#
# Bulk Modulus (GPa) = 22.90403 48.78211 35.84307
# Shear Modulus (GPa) = 23.21604 32.21948 27.71776
#
# Velocity S-wave (km/s) = 3.26340 3.84446 3.56579
# Velocity P-wave (km/s) = 4.97055 6.48723 5.77886
#
# Compressibility (1/GPa) = 0.04366044
#
# Stress axis : x y z
#
# Youngs Moduli (GPa) = 31.26144 81.72625 125.44666
#
# Poissons Ratio (x) = 0.20575 0.01072
# Poissons Ratio (y) = 0.07870 0.20883
# Poissons Ratio (z) = 0.00267 0.13605
#
# Static dielectric constant tensor:
#      x y z
#    x 3.604730 0.000000 -0.175580 
#    y 0.000000 5.438840 0.000000 
#    z -0.175580 0.000000 4.127940 
# 
# 
# High freq. dielectric constant tensor:
#      x y z
#    x 1.832280 0.000000 -0.019720 
#    y 0.000000 1.856370 0.000000 
#    z -0.019720 0.000000 1.878950 
# 
# From -- ./inp_files/16731.got.cif
#   From: 2010.06.25/outbox.cif.g09.slc.cpg/sg12_9_cif.got.tgz:16731.got - 2010.06.28 00:19:55.
