data_PCOD8094232
_publ_section_title
;
Structure prediction by ZEFSAII (Michael W. Deem and Ramdas Pophale) SiO2 
 PCOD8094232
Probable space group: C 2/M
;
_chemical_formula_sum "Si O2"
_cell_formula_units_Z 48
_cell_length_a 19.518815
_cell_length_b 29.489883
_cell_length_c 9.057806
_cell_angle_alpha 90.000000
_cell_angle_beta 152.439417
_cell_angle_gamma 90.000000
_cell_volume 2412.326631
_symmetry_space_group_name_H-M "C 2/M"
_symmetry_group_IT_number 12
_symmetry_cell_setting 'monoclinic'
loop_
_space_group_symop_operation_xyz
x,y,z
-x,y,-z
-x,-y,-z
x,-y,z
1/2+x,1/2+y,z
1/2-x,1/2+y,-z
1/2-x,1/2-y,-z
1/2+x,1/2-y,z
loop_
_atom_site_type_symbol
_atom_site_label
_atom_site_fract_x
_atom_site_fract_y
_atom_site_fract_z
Si Si1 0.341907 0.609250 0.527460
Si Si2 0.827154 0.365775 0.192791
Si Si3 0.161140 0.860463 0.162062
Si Si4 0.956635 0.234599 0.074309
Si Si5 0.763080 0.805559 0.228413
Si Si6 0.836565 0.948504 0.253180
O O1 0.314600 0.606292 0.650610
O O2 0.230816 0.648422 0.258555
O O3 0.322916 0.561952 0.403762
O O4 0.506757 0.624739 0.794823
O O5 0.796399 0.364729 0.308528
O O6 0.000000 0.358910 0.500000
O O7 0.737025 0.324023 0.942022
O O8 0.777198 0.415255 0.044072
O O9 0.145279 0.807594 0.175784
O O10 0.087455 0.218851 0.433063
O O11 0.870392 0.270896 0.006679
O O12 0.000000 0.257449 0.000000
O O13 0.000000 0.940573 0.500000
O O14 0.785485 0.000000 0.129833
#
# Coordination Sequence:
#
# PCOD8094232 Si02
#       6
#     8   8   8   8   8   8
#     4   9  18  37  62  88 116 157 198 254 303 356
#     4  11  25  41  59  88 126 167 204 252 312 365
#     4  10  19  37  59  85 122 161 203 247 305 352
#     4  11  21  36  60  87 120 161 210 264 304 355
#     4  10  23  37  56  84 119 164 206 254 304 354
#     4  10  20  39  68  96 121 154 199 250 307 376
#
# _framework density 19.897804000000001
#
# number of rings (size 3 to 8) (size 9 to 14) (size 15 to 20)
#    0.000    1.833    5.000    0.500    2.333    1.000 
#    0.000    5.000    0.000    1.000    0.000    0.000 
#    0.000    0.000    0.000    0.000    0.000    0.000 
#
# Total GULP energy -297392.103264 kJ/mol
# GULP energy per Si atom -12391.337636 kJ/mol
# Density = 1.985252 g / cm^3
# Si number density = 19.897804 Si / 1000 Ang^3
#
#
#
# Elastic Constant Matrix: (Units=GPa)
#
#
# Indices 1 2 3 4 5 6 
#
# 1 144.4015 39.1601 41.5572 0.0000 -1.4758 0.0000
# 2 39.1601 96.6349 30.9449 0.0000 -1.8687 0.0000
# 3 41.5572 30.9449 75.8463 0.0000 1.1698 0.0000
# 4 0.0000 0.0000 0.0000 18.3772 0.0000 -0.9505
# 5 -1.4758 -1.8687 1.1698 0.0000 21.8844 0.0000
# 6 0.0000 0.0000 0.0000 -0.9505 0.0000 17.9586
#
#
#
# Elastic Compliance Matrix: (Units=1/GPa)
#
#
# Indices 1 2 3 4 5 6 
#
# 1 0.008646 -0.002269 -0.003821 0.000000 0.000594 0.000000
# 2 -0.002269 0.012534 -0.003888 0.000000 0.001125 0.000000
# 3 -0.003821 -0.003888 0.016887 0.000000 -0.001492 0.000000
# 4 0.000000 0.000000 0.000000 0.054565 0.000000 0.002888
# 5 0.000594 0.001125 -0.001492 0.000000 0.045911 0.000000
# 6 0.000000 0.000000 0.000000 0.002888 0.000000 0.055837
#
#
# Mechanical properties :
#
#
# Convention : Reuss Voigt Hill
#
# Bulk Modulus (GPa) = 55.21101 60.02301 57.61701
# Shear Modulus (GPa) = 22.68882 25.32540 24.00711
#
# Velocity S-wave (km/s) = 3.38045 3.57147 3.47727
# Velocity P-wave (km/s) = 6.56080 6.87301 6.71872
#
# Compressibility (1/GPa) = 0.01811233
#
# Stress axis : x y z
#
# Youngs Moduli (GPa) = 115.65990 79.77996 59.21559
#
# Poissons Ratio (x) = 0.18100 0.22625
# Poissons Ratio (y) = 0.26240 0.23025
# Poissons Ratio (z) = 0.44191 0.31021
#
# Static dielectric constant tensor:
#      x y z
#    x 3.578500 0.000000 -0.127160 
#    y 0.000000 3.526400 0.000000 
#    z -0.127160 0.000000 3.460700 
# 
# 
# High freq. dielectric constant tensor:
#      x y z
#    x 1.774450 0.000000 -0.013580 
#    y 0.000000 1.758280 0.000000 
#    z -0.013580 0.000000 1.759060 
# 
# From -- ./inp_files/42149.got.cif
#   From: 2010.06.25/outbox.cif.g09.slc.cpg/sg12_22_cif.got.tgz:42149.got - 2010.06.28 00:19:55.
