data_PCOD8094709
_publ_section_title
;
Structure prediction by ZEFSAII (Michael W. Deem and Ramdas Pophale) SiO2 
 PCOD8094709
Probable space group: C 2/M
;
_chemical_formula_sum "Si O2"
_cell_formula_units_Z 64
_cell_length_a 24.704657
_cell_length_b 8.661570
_cell_length_c 14.663756
_cell_angle_alpha 90.000000
_cell_angle_beta 90.210155
_cell_angle_gamma 90.000000
_cell_volume 3137.745766
_symmetry_space_group_name_H-M "C 2/M"
_symmetry_group_IT_number 12
_symmetry_cell_setting 'monoclinic'
loop_
_space_group_symop_operation_xyz
x,y,z
-x,y,-z
-x,-y,-z
x,-y,z
1/2+x,1/2+y,z
1/2-x,1/2+y,-z
1/2-x,1/2-y,-z
1/2+x,1/2-y,z
loop_
_atom_site_type_symbol
_atom_site_label
_atom_site_fract_x
_atom_site_fract_y
_atom_site_fract_z
Si Si1 0.669082 0.822575 0.994652
Si Si2 0.560299 0.315795 0.472558
Si Si3 0.805526 0.816747 0.201676
Si Si4 0.091706 0.679860 0.279414
Si Si5 0.609478 0.324827 0.653405
Si Si6 0.051579 0.324359 0.946369
Si Si7 0.804855 0.818567 0.817292
Si Si8 0.986804 0.827000 0.221135
O O1 0.683678 0.760592 0.895599
O O2 0.604546 0.807270 0.008591
O O3 0.687941 0.000000 0.003204
O O4 0.696256 0.725012 0.075279
O O5 0.500000 0.260210 0.500000
O O6 0.560890 0.500000 0.459707
O O7 0.581083 0.236760 0.381259
O O8 0.603964 0.260411 0.550273
O O9 0.846663 0.745038 0.278777
O O10 0.745087 0.769243 0.231611
O O11 0.812007 0.000000 0.192015
O O12 0.105111 0.500000 0.277468
O O13 0.141022 0.769329 0.233751
O O14 0.037677 0.712113 0.220521
O O15 0.629038 0.500000 0.648551
O O16 0.547485 0.313724 0.687050
O O17 0.043285 0.500000 0.914320
O O18 0.055992 0.217088 0.857687
O O19 0.000000 0.261949 0.000000
O O20 0.796784 0.000000 0.807882
O O21 0.008909 0.000000 0.208206
#
# Coordination Sequence:
#
# PCOD8094709 Si02
#       8
#     8   8   8   8   8   8   8   8
#     4  11  22  38  61  91 126 164 207 257 308 362
#     4  10  19  38  66  94 126 162 202 247 299 366
#     4  11  22  41  65  91 125 165 210 258 304 361
#     4  12  25  41  61  92 128 162 202 254 314 371
#     4   9  19  36  62  93 123 157 199 246 299 356
#     4  10  21  35  52  81 123 164 201 249 306 358
#     4  12  26  44  64  88 118 162 214 262 312 365
#     4  11  20  36  60  88 120 161 203 244 299 361
#
# _framework density 20.396808
#
# number of rings (size 3 to 8) (size 9 to 14) (size 15 to 20)
#    0.000    1.250    2.500    4.500    0.000    2.000 
#    0.000    1.875    0.000    0.000    0.000    0.000 
#    0.000    0.000    0.000    0.000    0.000    0.000 
#
# Total GULP energy -396742.642980 kJ/mol
# GULP energy per Si atom -12398.207593 kJ/mol
# Density = 2.035038 g / cm^3
# Si number density = 20.396808 Si / 1000 Ang^3
#
#
#
# Elastic Constant Matrix: (Units=GPa)
#
#
# Indices 1 2 3 4 5 6 
#
# 1 93.0553 13.9423 24.3536 0.0000 19.0818 0.0000
# 2 13.9423 69.6245 20.4229 0.0000 4.6975 0.0000
# 3 24.3536 20.4229 82.1367 0.0000 15.4020 0.0000
# 4 0.0000 0.0000 0.0000 27.0143 0.0000 -2.4983
# 5 19.0818 4.6975 15.4020 0.0000 23.6407 0.0000
# 6 0.0000 0.0000 0.0000 -2.4983 0.0000 28.3394
#
#
#
# Elastic Compliance Matrix: (Units=1/GPa)
#
#
# Indices 1 2 3 4 5 6 
#
# 1 0.013358 -0.001507 -0.001846 0.000000 -0.009280 0.000000
# 2 -0.001507 0.015672 -0.003525 0.000000 0.000399 0.000000
# 3 -0.001846 -0.003525 0.015023 0.000000 -0.007597 0.000000
# 4 0.000000 0.000000 0.000000 0.037322 0.000000 0.003290
# 5 -0.009280 0.000399 -0.007597 0.000000 0.054661 0.000000
# 6 0.000000 0.000000 0.000000 0.003290 0.000000 0.035577
#
#
# Mechanical properties :
#
#
# Convention : Reuss Voigt Hill
#
# Bulk Modulus (GPa) = 33.00606 40.25046 36.62826
# Shear Modulus (GPa) = 25.57983 28.20541 26.89262
#
# Velocity S-wave (km/s) = 3.54518 3.72268 3.63502
# Velocity P-wave (km/s) = 5.74237 6.18501 5.96780
#
# Compressibility (1/GPa) = 0.03029747
#
# Stress axis : x y z
#
# Youngs Moduli (GPa) = 74.86056 63.80993 66.56423
#
# Poissons Ratio (x) = 0.09619 0.12286
# Poissons Ratio (y) = 0.11285 0.23461
# Poissons Ratio (z) = 0.13817 0.22490
#
# Static dielectric constant tensor:
#      x y z
#    x 3.948990 0.000000 0.171990 
#    y 0.000000 3.534110 0.000000 
#    z 0.171990 0.000000 3.805920 
# 
# 
# High freq. dielectric constant tensor:
#      x y z
#    x 1.802220 0.000000 0.010530 
#    y 0.000000 1.784670 0.000000 
#    z 0.010530 0.000000 1.797420 
# 
# From -- ./inp_files/238563.got.cif
#   From: 2010.06.25/outbox.cif.g09.slc.cpg/sg12_120_cif.got.tgz:238563.got - 2010.06.28 00:19:55.
