data_PCOD8094350
_publ_section_title
;
Structure prediction by ZEFSAII (Michael W. Deem and Ramdas Pophale) SiO2 
 PCOD8094350
Probable space group: C 2/M
;
_chemical_formula_sum "Si O2"
_cell_formula_units_Z 64
_cell_length_a 21.766109
_cell_length_b 15.489682
_cell_length_c 19.675668
_cell_angle_alpha 90.000000
_cell_angle_beta 152.555501
_cell_angle_gamma 90.000000
_cell_volume 3057.379096
_symmetry_space_group_name_H-M "C 2/M"
_symmetry_group_IT_number 12
_symmetry_cell_setting 'monoclinic'
loop_
_space_group_symop_operation_xyz
x,y,z
-x,y,-z
-x,-y,-z
x,-y,z
1/2+x,1/2+y,z
1/2-x,1/2+y,-z
1/2-x,1/2-y,-z
1/2+x,1/2-y,z
loop_
_atom_site_type_symbol
_atom_site_label
_atom_site_fract_x
_atom_site_fract_y
_atom_site_fract_z
Si Si1 0.626638 0.232612 0.168449
Si Si2 0.419204 0.404637 0.276224
Si Si3 0.381748 0.747987 0.337336
Si Si4 0.062170 0.905715 0.162161
Si Si5 0.300797 0.846929 0.036155
Si Si6 0.400535 0.821263 0.704208
Si Si7 0.360443 0.632746 0.614956
Si Si8 0.255794 0.597087 0.874799
O O1 0.760778 0.206239 0.261316
O O2 0.633764 0.337055 0.183634
O O3 0.622406 0.188811 0.237850
O O4 0.500000 0.202600 0.000000
O O5 0.416471 0.500000 0.307965
O O6 0.446506 0.328945 0.356861
O O7 0.532195 0.407130 0.329934
O O8 0.276418 0.386293 0.103103
O O9 0.500000 0.783711 0.500000
O O10 0.335978 0.830579 0.249314
O O11 0.130278 0.912389 0.302792
O O12 0.074176 0.000000 0.139593
O O13 0.909366 0.874817 0.017679
O O14 0.454287 0.857914 0.166962
O O15 0.275605 0.905608 0.076568
O O16 0.250000 0.750000 0.000000
O O17 0.391938 0.732915 0.654433
O O18 0.286328 0.883409 0.561187
O O19 0.230216 0.500000 0.820811
#
# Coordination Sequence:
#
# PCOD8094350 Si02
#       8
#     8   8   8   8   8   8   8   8
#     4  11  21  38  61  87 116 169 212 247 294 369
#     4  12  24  41  67  93 123 171 221 265 310 370
#     4  12  26  43  63  89 125 170 215 260 312 366
#     4  10  20  36  62  95 124 158 202 250 309 391
#     4  12  19  38  68  99 130 163 207 260 325 383
#     4  10  21  35  61  94 128 160 204 260 322 372
#     4  10  19  37  61  95 126 158 199 263 326 384
#     4  11  22  39  65  98 129 159 204 259 318 390
#
# _framework density 20.932960999999999
#
# number of rings (size 3 to 8) (size 9 to 14) (size 15 to 20)
#    0.000    1.000    5.000    3.000    0.000    3.250 
#    0.000    3.750    0.000    4.125    0.000    0.000 
#    0.000    0.000    0.000    0.000    0.000    0.000 
#
# Total GULP energy -396832.833891 kJ/mol
# GULP energy per Si atom -12401.026059 kJ/mol
# Density = 2.088532 g / cm^3
# Si number density = 20.932961 Si / 1000 Ang^3
#
#
#
# Elastic Constant Matrix: (Units=GPa)
#
#
# Indices 1 2 3 4 5 6 
#
# 1 57.0269 1.6240 8.0400 0.0004 -0.1726 -0.0001
# 2 1.6240 83.9947 20.1686 0.0004 -10.3645 0.0001
# 3 8.0400 20.1686 126.6655 0.0007 -0.9704 0.0004
# 4 0.0004 0.0004 0.0007 8.3554 0.0003 3.5971
# 5 -0.1726 -10.3645 -0.9704 0.0003 35.9507 -0.0001
# 6 -0.0001 0.0001 0.0004 3.5971 -0.0001 8.4933
#
#
#
# Elastic Compliance Matrix: (Units=1/GPa)
#
#
# Indices 1 2 3 4 5 6 
#
# 1 0.017694 -0.000071 -0.001112 -0.000001 0.000034 0.000001
# 2 -0.000071 0.012840 -0.002012 -0.000001 0.003647 0.000000
# 3 -0.001112 -0.002012 0.008283 -0.000001 -0.000362 0.000000
# 4 -0.000001 -0.000001 -0.000001 0.146371 -0.000001 -0.061991
# 5 0.000034 0.003647 -0.000362 -0.000001 0.028858 0.000001
# 6 0.000001 0.000000 0.000000 -0.061991 0.000001 0.143994
#
#
# Mechanical properties :
#
#
# Convention : Reuss Voigt Hill
#
# Bulk Modulus (GPa) = 30.83727 36.37249 33.60488
# Shear Modulus (GPa) = 13.32487 26.41686 19.87086
#
# Velocity S-wave (km/s) = 2.52573 3.55628 3.08435
# Velocity P-wave (km/s) = 4.82381 5.85459 5.36402
#
# Compressibility (1/GPa) = 0.03242829
#
# Stress axis : x y z
#
# Youngs Moduli (GPa) = 56.51498 77.88136 120.72971
#
# Poissons Ratio (x) = 0.00553 0.13420
# Poissons Ratio (y) = 0.00401 0.24291
# Poissons Ratio (z) = 0.06282 0.15670
#
# Static dielectric constant tensor:
#      x y z
#    x 3.761900 0.000000 -0.029750 
#    y 0.000000 3.689790 0.000000 
#    z -0.029750 0.000000 3.963470 
# 
# 
# High freq. dielectric constant tensor:
#      x y z
#    x 1.819800 0.000000 -0.003090 
#    y 0.000000 1.802580 0.000000 
#    z -0.003090 0.000000 1.826090 
# 
# From -- ./inp_files/285234.got.cif
#   From: 2010.06.25/outbox.cif.g09.slc.cpg/sg12_143_cif.got.tgz:285234.got - 2010.06.28 00:19:55.
