data_PCOD8094572
_publ_section_title
;
Structure prediction by ZEFSAII (Michael W. Deem and Ramdas Pophale) SiO2 
 PCOD8094572
Probable space group: C 2/M
;
_chemical_formula_sum "Si O2"
_cell_formula_units_Z 48
_cell_length_a 16.719124
_cell_length_b 19.201055
_cell_length_c 8.833111
_cell_angle_alpha 90.000000
_cell_angle_beta 126.189510
_cell_angle_gamma 90.000000
_cell_volume 2288.561869
_symmetry_space_group_name_H-M "C 2/M"
_symmetry_group_IT_number 12
_symmetry_cell_setting 'monoclinic'
loop_
_space_group_symop_operation_xyz
x,y,z
-x,y,-z
-x,-y,-z
x,-y,z
1/2+x,1/2+y,z
1/2-x,1/2+y,-z
1/2-x,1/2-y,-z
1/2+x,1/2-y,z
loop_
_atom_site_type_symbol
_atom_site_label
_atom_site_fract_x
_atom_site_fract_y
_atom_site_fract_z
Si Si1 0.244647 0.361949 0.103348
Si Si2 0.285029 0.212602 0.208877
Si Si3 0.948252 0.326560 0.596116
Si Si4 0.396213 0.923121 0.806292
Si Si5 0.444456 0.577793 0.283921
Si Si6 0.946136 0.209180 0.093597
O O1 0.313398 0.291712 0.191103
O O2 0.174520 0.375363 0.168327
O O3 0.325115 0.422973 0.176367
O O4 0.181012 0.346825 0.878065
O O5 0.339304 0.202214 0.428773
O O6 0.166822 0.212588 0.088262
O O7 0.919362 0.389870 0.671182
O O8 0.000000 0.353477 0.500000
O O9 0.020080 0.268629 0.749739
O O10 0.348050 0.000000 0.730171
O O11 0.500000 0.932476 0.000000
O O12 0.500000 0.598051 0.500000
O O13 0.475096 0.500000 0.265432
O O14 0.474945 0.632838 0.188831
O O15 0.000000 0.226045 0.000000
#
# Coordination Sequence:
#
# PCOD8094572 Si02
#       6
#     8   8   8   8   8   8
#     4  10  19  38  60  85 116 150 193 241 292 346
#     4  10  21  36  62  90 115 150 196 247 295 341
#     4  12  23  39  62  88 117 151 197 248 294 348
#     4  11  24  40  59  84 117 157 196 239 294 351
#     4  10  21  37  59  86 118 158 197 236 290 351
#     4  11  23  39  60  89 120 154 197 245 295 347
#
# _framework density 20.973870999999999
#
# number of rings (size 3 to 8) (size 9 to 14) (size 15 to 20)
#    0.000    1.333    0.000    8.500    0.000    4.667 
#    0.000    4.167    0.000    0.000    0.000    0.000 
#    0.000    0.000    0.000    0.000    0.000    0.000 
#
# Total GULP energy -297391.737327 kJ/mol
# GULP energy per Si atom -12391.322389 kJ/mol
# Density = 2.092613 g / cm^3
# Si number density = 20.973871 Si / 1000 Ang^3
#
#
#
# Elastic Constant Matrix: (Units=GPa)
#
#
# Indices 1 2 3 4 5 6 
#
# 1 105.8365 27.8300 32.9913 0.0000 -16.7641 0.0000
# 2 27.8300 83.8832 29.8440 0.0000 -0.4656 0.0000
# 3 32.9913 29.8440 108.7116 0.0000 9.4721 0.0000
# 4 0.0000 0.0000 0.0000 25.2250 0.0000 -7.2061
# 5 -16.7641 -0.4656 9.4721 0.0000 31.8484 0.0000
# 6 0.0000 0.0000 0.0000 -7.2061 0.0000 32.1604
#
#
#
# Elastic Compliance Matrix: (Units=1/GPa)
#
#
# Indices 1 2 3 4 5 6 
#
# 1 0.012557 -0.002804 -0.003710 0.000000 0.007672 0.000000
# 2 -0.002804 0.013891 -0.002927 0.000000 -0.000402 0.000000
# 3 -0.003710 -0.002927 0.011603 0.000000 -0.005446 0.000000
# 4 0.000000 0.000000 0.000000 0.042354 0.000000 0.009490
# 5 0.007672 -0.000402 -0.005446 0.000000 0.037051 0.000000
# 6 0.000000 0.000000 0.000000 0.009490 0.000000 0.033221
#
#
# Mechanical properties :
#
#
# Convention : Reuss Voigt Hill
#
# Bulk Modulus (GPa) = 52.16722 53.30686 52.73704
# Shear Modulus (GPa) = 28.41743 31.69782 30.05763
#
# Velocity S-wave (km/s) = 3.68489 3.89176 3.78974
# Velocity P-wave (km/s) = 6.55980 6.75762 6.65945
#
# Compressibility (1/GPa) = 0.01916912
#
# Stress axis : x y z
#
# Youngs Moduli (GPa) = 79.63422 71.98977 86.18734
#
# Poissons Ratio (x) = 0.20184 0.31972
# Poissons Ratio (y) = 0.22328 0.25231
# Poissons Ratio (z) = 0.29541 0.21075
#
# Static dielectric constant tensor:
#      x y z
#    x 3.884160 0.000000 -0.011150 
#    y 0.000000 3.890140 0.000000 
#    z -0.011150 0.000000 4.041140 
# 
# 
# High freq. dielectric constant tensor:
#      x y z
#    x 1.824080 0.000000 0.007770 
#    y 0.000000 1.813430 0.000000 
#    z 0.007770 0.000000 1.828530 
# 
# From -- ./inp_files/77679.got.cif
#   From: 2010.06.25/outbox.cif.g09.slc.cpg/sg12_39_cif.got.tgz:77679.got - 2010.06.28 00:19:55.
