data_PCOD8094401
_publ_section_title
;
Structure prediction by ZEFSAII (Michael W. Deem and Ramdas Pophale) SiO2 
 PCOD8094401
Probable space group: C 2/M
;
_chemical_formula_sum "Si O2"
_cell_formula_units_Z 44
_cell_length_a 24.429736
_cell_length_b 10.191498
_cell_length_c 9.532345
_cell_angle_alpha 90.000000
_cell_angle_beta 119.228473
_cell_angle_gamma 90.000000
_cell_volume 2071.148974
_symmetry_space_group_name_H-M "C 2/M"
_symmetry_group_IT_number 12
_symmetry_cell_setting 'monoclinic'
loop_
_space_group_symop_operation_xyz
x,y,z
-x,y,-z
-x,-y,-z
x,-y,z
1/2+x,1/2+y,z
1/2-x,1/2+y,-z
1/2-x,1/2-y,-z
1/2+x,1/2-y,z
loop_
_atom_site_type_symbol
_atom_site_label
_atom_site_fract_x
_atom_site_fract_y
_atom_site_fract_z
Si Si1 0.917314 0.000000 0.449112
Si Si2 0.009795 0.258589 0.366341
Si Si3 0.294752 0.000000 0.618306
Si Si4 0.842813 0.000000 0.613198
Si Si5 0.203165 0.500000 0.050200
Si Si6 0.109335 0.718814 0.264975
Si Si7 0.837659 0.000000 0.074794
Si Si8 0.884289 0.736278 0.040497
O O1 0.960061 0.123068 0.542780
O O2 0.853712 0.000000 0.460032
O O3 0.892695 0.000000 0.260026
O O4 0.054738 0.323201 0.305380
O O5 0.000000 0.342086 0.500000
O O6 0.942290 0.240585 0.214524
O O7 0.331161 0.868716 0.618040
O O8 0.231056 0.000000 0.449550
O O9 0.281165 0.000000 0.766025
O O10 0.875708 0.127656 0.717406
O O11 0.267777 0.500000 0.047490
O O12 0.162442 0.626921 0.955883
O O13 0.090272 0.689270 0.080116
O O14 0.845882 0.127253 0.986223
#
# Coordination Sequence:
#
# PCOD8094401 Si02
#       8
#     4   8   4   4   4   8   4   8
#     4  10  20  35  64  94 116 161 202 259 305 360
#     4  11  21  39  63  90 121 160 208 248 309 364
#     4  10  20  40  61  83 127 169 199 237 308 383
#     4  10  19  37  62  89 121 152 207 256 297 352
#     4  10  24  41  60  93 128 171 197 242 320 369
#     4  10  23  38  60  93 119 160 204 252 309 352
#     4  12  20  40  67  91 122 156 216 250 300 363
#     4  11  23  40  64  91 127 160 204 259 303 365
#
# _framework density 21.244246
#
# number of rings (size 3 to 8) (size 9 to 14) (size 15 to 20)
#    0.000    1.455    2.727    3.000    0.000    0.727 
#    0.000   10.000    0.000    0.000    0.000    0.000 
#    0.000    0.000    0.000    0.000    0.000    0.000 
#
# Total GULP energy -272670.679294 kJ/mol
# GULP energy per Si atom -12394.121786 kJ/mol
# Density = 2.119589 g / cm^3
# Si number density = 21.244246 Si / 1000 Ang^3
#
#
#
# Elastic Constant Matrix: (Units=GPa)
#
#
# Indices 1 2 3 4 5 6 
#
# 1 165.4386 28.8574 55.3576 0.0000 -8.3623 0.0000
# 2 28.8574 89.5047 8.9890 0.0000 6.6697 0.0000
# 3 55.3576 8.9890 80.0147 0.0000 -3.5916 0.0000
# 4 0.0000 0.0000 0.0000 -70.0865 0.0000 -149.0198
# 5 -8.3623 6.6697 -3.5916 0.0000 39.0742 0.0000
# 6 0.0000 0.0000 0.0000 -149.0198 0.0000 -258.5168
#
#
#
# Elastic Compliance Matrix: (Units=1/GPa)
#
#
# Indices 1 2 3 4 5 6 
#
# 1 0.008347 -0.002269 -0.005445 0.000000 0.001673 0.000000
# 2 -0.002269 0.012083 0.000098 0.000000 -0.002539 0.000000
# 3 -0.005445 0.000098 0.016268 0.000000 0.000313 0.000000
# 4 0.000000 0.000000 0.000000 0.063232 0.000000 -0.036450
# 5 0.001673 -0.002539 0.000313 0.000000 0.026413 0.000000
# 6 0.000000 0.000000 0.000000 -0.036450 0.000000 0.017143
#
#
# Mechanical properties :
#
#
# Convention : Reuss Voigt Hill
#
# Bulk Modulus (GPa) = 46.58271 57.92956 52.25613
# Shear Modulus (GPa) = 30.14381 -41.78888 -5.82253
#
# Velocity S-wave (km/s) = 3.77094 -4.43998 -1.65732
# Velocity P-wave (km/s) = 6.39803 1.02129 4.58136
#
# Compressibility (1/GPa) = 0.02146719
#
# Stress axis : x y z
#
# Youngs Moduli (GPa) = 119.80772 82.75768 61.47215
#
# Poissons Ratio (x) = 0.18777 0.33469
# Poissons Ratio (y) = 0.27184 -0.00604
# Poissons Ratio (z) = 0.65231 -0.00814
#
# Static dielectric constant tensor:
#      x y z
#    x 4.274420 0.000000 -0.313840 
#    y 0.000000 3.756620 0.000000 
#    z -0.313840 0.000000 3.683220 
# 
# 
# High freq. dielectric constant tensor:
#      x y z
#    x 1.851620 0.000000 -0.006440 
#    y 0.000000 1.824540 0.000000 
#    z -0.006440 0.000000 1.824220 
# 
# From -- ./inp_files/94880.got.cif
#   From: 2010.06.25/outbox.cif.g09.slc.cpg/sg12_48_cif.got.tgz:94880.got - 2010.06.28 00:19:55.
