data_PCOD8094115
_publ_section_title
;
Structure prediction by ZEFSAII (Michael W. Deem and Ramdas Pophale) SiO2 
 PCOD8094115
Probable space group: C 2/M
;
_chemical_formula_sum "Si O2"
_cell_formula_units_Z 56
_cell_length_a 12.868035
_cell_length_b 29.213648
_cell_length_c 8.330120
_cell_angle_alpha 90.000000
_cell_angle_beta 58.696834
_cell_angle_gamma 90.000000
_cell_volume 2675.628625
_symmetry_space_group_name_H-M "C 2/M"
_symmetry_group_IT_number 12
_symmetry_cell_setting 'monoclinic'
loop_
_space_group_symop_operation_xyz
x,y,z
-x,y,-z
-x,-y,-z
x,-y,z
1/2+x,1/2+y,z
1/2-x,1/2+y,-z
1/2-x,1/2-y,-z
1/2+x,1/2-y,z
loop_
_atom_site_type_symbol
_atom_site_label
_atom_site_fract_x
_atom_site_fract_y
_atom_site_fract_z
Si Si1 0.002819 0.450310 0.805967
Si Si2 0.582532 0.143849 0.089035
Si Si3 0.721100 0.551217 0.434227
Si Si4 0.049414 0.894412 0.790665
Si Si5 0.827760 0.813001 0.413915
Si Si6 0.330518 0.633267 0.739354
Si Si7 0.438752 0.219948 0.384675
O O1 0.949810 0.500000 0.787104
O O2 0.138740 0.445289 0.624629
O O3 0.928810 0.405026 0.805320
O O4 0.000000 0.452140 0.000000
O O5 0.536824 0.188435 0.218089
O O6 0.500000 0.137943 0.000000
O O7 0.722243 0.153608 0.934346
O O8 0.687524 0.500000 0.407484
O O9 0.629133 0.565090 0.650496
O O10 0.705978 0.583179 0.292442
O O11 0.134426 0.850112 0.750174
O O12 0.948848 0.874487 0.750343
O O13 0.000000 0.912441 0.000000
O O14 0.852607 0.832108 0.573922
O O15 0.685363 0.807738 0.494903
O O16 0.904507 0.766816 0.319581
O O17 0.500000 0.234831 0.500000
#
# Coordination Sequence:
#
# PCOD8094115 Si02
#       7
#     8   8   8   8   8   8   8
#     4   9  16  31  59  90 117 146 191 247 295 343
#     4  11  19  36  60  92 118 149 197 252 297 353
#     4  10  19  36  64  89 116 160 204 244 296 361
#     4  11  25  40  58  85 123 161 199 250 307 355
#     4  10  22  44  60  83 120 159 203 243 297 359
#     4  11  21  39  63  85 118 160 203 251 292 362
#     4  11  23  38  63  90 119 156 197 251 303 357
#
# _framework density 20.929660999999999
#
# number of rings (size 3 to 8) (size 9 to 14) (size 15 to 20)
#    0.000    1.571    4.286    3.429    2.000    2.000 
#    0.000    1.429    0.000    0.429    0.000    0.000 
#    0.000    0.000    0.000    0.000    0.000    0.000 
#
# Total GULP energy -346986.761533 kJ/mol
# GULP energy per Si atom -12392.384340 kJ/mol
# Density = 2.088202 g / cm^3
# Si number density = 20.929661 Si / 1000 Ang^3
#
#
#
# Elastic Constant Matrix: (Units=GPa)
#
#
# Indices 1 2 3 4 5 6 
#
# 1 36.3675 -2.9248 18.8333 0.0000 -5.8169 0.0000
# 2 -2.9248 127.3198 34.6687 0.0000 -17.2638 0.0000
# 3 18.8333 34.6687 103.4740 0.0000 -28.3839 0.0000
# 4 0.0000 0.0000 0.0000 60.5275 0.0000 -30.9729
# 5 -5.8169 -17.2638 -28.3839 0.0000 26.0288 0.0000
# 6 0.0000 0.0000 0.0000 -30.9729 0.0000 29.3975
#
#
#
# Elastic Compliance Matrix: (Units=1/GPa)
#
#
# Indices 1 2 3 4 5 6 
#
# 1 0.031141 0.002635 -0.005939 0.000000 0.002231 0.000000
# 2 0.002635 0.009119 -0.002446 0.000000 0.003970 0.000000
# 3 -0.005939 -0.002446 0.015346 0.000000 0.013785 0.000000
# 4 0.000000 0.000000 0.000000 0.035849 0.000000 0.037770
# 5 0.002231 0.003970 0.013785 0.000000 0.056583 0.000000
# 6 0.000000 0.000000 0.000000 0.037770 0.000000 0.073811
#
#
# Mechanical properties :
#
#
# Convention : Reuss Voigt Hill
#
# Bulk Modulus (GPa) = 22.67226 40.92398 31.79812
# Shear Modulus (GPa) = 20.15707 37.62970 28.89338
#
# Velocity S-wave (km/s) = 3.10673 4.24478 3.71954
# Velocity P-wave (km/s) = 4.87085 6.60453 5.80280
#
# Compressibility (1/GPa) = 0.04410677
#
# Stress axis : x y z
#
# Youngs Moduli (GPa) = 32.11161 109.66009 65.16301
#
# Poissons Ratio (x) = -0.28896 0.38700
# Poissons Ratio (y) = -0.08462 0.15939
# Poissons Ratio (z) = 0.19071 0.26822
#
# Static dielectric constant tensor:
#      x y z
#    x 3.533290 0.000000 -0.400900 
#    y 0.000000 4.265590 0.000000 
#    z -0.400900 0.000000 3.649510 
# 
# 
# High freq. dielectric constant tensor:
#      x y z
#    x 1.791530 0.000000 -0.034840 
#    y 0.000000 1.837470 0.000000 
#    z -0.034840 0.000000 1.809260 
# 
# From -- ./inp_files/68130.got.cif
#   From: 2010.06.25/outbox.cif.g09.slc.cpg/sg12_35_cif.got.tgz:68130.got - 2010.06.28 00:19:55.
