data_PCOD8094086
_publ_section_title
;
Structure prediction by ZEFSAII (Michael W. Deem and Ramdas Pophale) SiO2 
 PCOD8094086
Probable space group: C 2/M
;
_chemical_formula_sum "Si O2"
_cell_formula_units_Z 60
_cell_length_a 26.290953
_cell_length_b 16.296364
_cell_length_c 21.624813
_cell_angle_alpha 90.000000
_cell_angle_beta 18.778643
_cell_angle_gamma 90.000000
_cell_volume 2982.549528
_symmetry_space_group_name_H-M "C 2/M"
_symmetry_group_IT_number 12
_symmetry_cell_setting 'monoclinic'
loop_
_space_group_symop_operation_xyz
x,y,z
-x,y,-z
-x,-y,-z
x,-y,z
1/2+x,1/2+y,z
1/2-x,1/2+y,-z
1/2-x,1/2-y,-z
1/2+x,1/2-y,z
loop_
_atom_site_type_symbol
_atom_site_label
_atom_site_fract_x
_atom_site_fract_y
_atom_site_fract_z
Si Si1 0.092090 0.908435 0.790181
Si Si2 0.895471 0.292342 0.894330
Si Si3 0.277253 0.093991 0.787116
Si Si4 0.000000 0.331159 0.000000
Si Si5 0.405759 0.197977 0.745261
Si Si6 0.079963 0.404634 0.778856
Si Si7 0.234280 0.296592 0.313532
Si Si8 0.655318 0.330745 0.594138
O O1 0.151001 0.849302 0.775524
O O2 0.174545 0.891637 0.629967
O O3 0.131698 0.000000 0.766468
O O4 0.908255 0.893787 0.991624
O O5 0.899866 0.336188 0.822373
O O6 0.973999 0.350624 0.854492
O O7 0.977006 0.201832 0.789929
O O8 0.717358 0.273138 0.121573
O O9 0.364123 0.121540 0.749487
O O10 0.332745 0.150591 0.666423
O O11 0.323111 0.000000 0.720655
O O12 0.030702 0.388153 0.905686
O O13 0.158303 0.279083 0.832352
O O14 0.580797 0.232888 0.528475
O O15 0.055452 0.500000 0.792245
O O16 0.264013 0.377656 0.556869
O O17 0.750000 0.250000 0.500000
#
# Coordination Sequence:
#
# PCOD8094086 Si02
#       8
#     8   8   8   4   8   8   8   8
#     4  11  21  37  60  88 123 158 195 248 307 359
#     4  10  21  41  62  86 122 155 205 253 301 355
#     4  11  23  38  56  86 127 161 194 241 302 361
#     4  12  23  40  63  88 124 152 210 260 305 346
#     4  11  23  38  61  88 118 162 205 246 299 361
#     4  11  23  39  63  92 121 159 201 253 308 361
#     4  12  22  38  63  88 119 166 205 245 299 365
#     4  10  19  36  63  89 116 150 200 249 293 352
#
# _framework density 20.117016
#
# number of rings (size 3 to 8) (size 9 to 14) (size 15 to 20)
#    0.000    1.067    2.667    6.200    0.000    3.200 
#    0.000    0.000    0.000    2.400    0.000    0.000 
#    0.000    0.000    0.000    0.000    0.000    0.000 
#
# Total GULP energy -371963.682468 kJ/mol
# GULP energy per Si atom -12398.789416 kJ/mol
# Density = 2.007123 g / cm^3
# Si number density = 20.117016 Si / 1000 Ang^3
#
#
#
# Elastic Constant Matrix: (Units=GPa)
#
#
# Indices 1 2 3 4 5 6 
#
# 1 102.8690 33.3932 16.2251 0.0226 13.4584 -0.0102
# 2 33.3932 86.5268 42.8233 0.0270 4.8681 -0.0174
# 3 16.2251 42.8233 99.3538 0.0280 11.4495 -0.0218
# 4 0.0226 0.0270 0.0280 24.4748 -0.0230 3.8770
# 5 13.4584 4.8681 11.4495 -0.0230 33.4106 0.0132
# 6 -0.0102 -0.0174 -0.0218 3.8770 0.0132 25.6968
#
#
#
# Elastic Compliance Matrix: (Units=1/GPa)
#
#
# Indices 1 2 3 4 5 6 
#
# 1 0.011658 -0.004526 0.000533 -0.000011 -0.004219 0.000006
# 2 -0.004526 0.016448 -0.006542 -0.000005 0.001669 0.000004
# 3 0.000533 -0.006542 0.013236 -0.000014 -0.003797 0.000011
# 4 -0.000011 -0.000005 -0.000014 0.041859 0.000041 -0.006315
# 5 -0.004219 0.001669 -0.003797 0.000041 0.032688 -0.000027
# 6 0.000006 0.000004 0.000011 -0.006315 -0.000027 0.039868
#
#
# Mechanical properties :
#
#
# Convention : Reuss Voigt Hill
#
# Bulk Modulus (GPa) = 49.33097 52.62586 50.97842
# Shear Modulus (GPa) = 27.23546 29.80364 28.51955
#
# Velocity S-wave (km/s) = 3.68346 3.85322 3.76930
# Velocity P-wave (km/s) = 6.53191 6.78329 6.65879
#
# Compressibility (1/GPa) = 0.02027124
#
# Stress axis : x y z
#
# Youngs Moduli (GPa) = 85.77680 60.79847 75.55429
#
# Poissons Ratio (x) = 0.27515 -0.04027
# Poissons Ratio (y) = 0.38819 0.49431
# Poissons Ratio (z) = -0.04572 0.39777
#
# Static dielectric constant tensor:
#      x y z
#    x 3.720900 -0.000010 -0.014210 
#    y -0.000010 3.519960 -0.000050 
#    z -0.014210 -0.000050 4.208830 
# 
# 
# High freq. dielectric constant tensor:
#      x y z
#    x 1.786980 0.000000 0.007600 
#    y 0.000000 1.758480 0.000000 
#    z 0.007600 0.000000 1.806850 
# 
# From -- ./inp_files/328374.got.cif
#   From: 2010.06.25/outbox.cif.g09.slc.cpg/sg12_165_cif.got.tgz:328374.got - 2010.06.28 00:19:55.
