data_PCOD8094112
_publ_section_title
;
Structure prediction by ZEFSAII (Michael W. Deem and Ramdas Pophale) SiO2 
 PCOD8094112
Probable space group: C 2/M
;
_chemical_formula_sum "Si O2"
_cell_formula_units_Z 56
_cell_length_a 27.380050
_cell_length_b 8.986369
_cell_length_c 12.609156
_cell_angle_alpha 90.000000
_cell_angle_beta 67.167908
_cell_angle_gamma 90.000000
_cell_volume 2859.358594
_symmetry_space_group_name_H-M "C 2/M"
_symmetry_group_IT_number 12
_symmetry_cell_setting 'monoclinic'
loop_
_space_group_symop_operation_xyz
x,y,z
-x,y,-z
-x,-y,-z
x,-y,z
1/2+x,1/2+y,z
1/2-x,1/2+y,-z
1/2-x,1/2-y,-z
1/2+x,1/2-y,z
loop_
_atom_site_type_symbol
_atom_site_label
_atom_site_fract_x
_atom_site_fract_y
_atom_site_fract_z
Si Si1 0.697064 0.174255 0.581834
Si Si2 0.151494 0.325181 0.840812
Si Si3 0.461348 0.168336 0.130348
Si Si4 0.193939 0.323484 0.027532
Si Si5 0.105146 0.328579 0.269516
Si Si6 0.003941 0.175815 0.690344
Si Si7 0.102511 0.328390 0.512501
O O1 0.750000 0.250000 0.500000
O O2 0.690433 0.214669 0.711168
O O3 0.646954 0.233422 0.556114
O O4 0.702675 0.000000 0.558152
O O5 0.145127 0.500000 0.861268
O O6 0.093816 0.259957 0.861890
O O7 0.173107 0.258728 0.932640
O O8 0.485163 0.271887 0.200051
O O9 0.453104 0.000000 0.181827
O O10 0.500000 0.165888 0.000000
O O11 0.201257 0.500000 0.018879
O O12 0.152861 0.274791 0.153688
O O13 0.250000 0.250000 0.000000
O O14 0.090738 0.500000 0.256892
O O15 0.123878 0.307478 0.375031
O O16 0.053754 0.230107 0.294329
O O17 0.048097 0.238873 0.573109
O O18 0.005427 0.000000 0.682755
O O19 0.090038 0.500000 0.547579
#
# Coordination Sequence:
#
# PCOD8094112 Si02
#       7
#     8   8   8   8   8   8   8
#     4  10  21  37  59  86 116 150 193 243 292 345
#     4   9  18  36  59  84 114 148 189 235 283 344
#     4  10  19  36  64  88 113 156 202 240 282 347
#     4  10  22  40  62  88 116 152 196 240 292 348
#     4  10  22  40  62  85 114 158 206 246 286 350
#     4  12  24  37  57  90 127 155 188 244 306 358
#     4  10  21  40  63  85 115 156 203 246 288 350
#
# _framework density 19.584813
#
# number of rings (size 3 to 8) (size 9 to 14) (size 15 to 20)
#    0.000    1.857    1.429    2.571    2.000    6.000 
#    0.000    0.714    0.000    0.000    0.000    0.000 
#    0.000    0.000    0.000    0.000    0.000    0.000 
#
# Total GULP energy -347256.852090 kJ/mol
# GULP energy per Si atom -12402.030432 kJ/mol
# Density = 1.954024 g / cm^3
# Si number density = 19.584813 Si / 1000 Ang^3
#
#
#
# Elastic Constant Matrix: (Units=GPa)
#
#
# Indices 1 2 3 4 5 6 
#
# 1 115.0921 42.2018 58.2889 0.0000 -5.5449 0.0000
# 2 42.2018 66.2962 38.9350 0.0000 -5.9679 0.0000
# 3 58.2889 38.9350 144.9185 0.0000 0.3421 0.0000
# 4 0.0000 0.0000 0.0000 22.3337 0.0000 -5.9595
# 5 -5.5449 -5.9679 0.3421 0.0000 40.6947 0.0000
# 6 0.0000 0.0000 0.0000 -5.9595 0.0000 31.7583
#
#
#
# Elastic Compliance Matrix: (Units=1/GPa)
#
#
# Indices 1 2 3 4 5 6 
#
# 1 0.012685 -0.005933 -0.003510 0.000000 0.000888 0.000000
# 2 -0.005933 0.020979 -0.003255 0.000000 0.002296 0.000000
# 3 -0.003510 -0.003255 0.009189 0.000000 -0.001033 0.000000
# 4 0.000000 0.000000 0.000000 0.047136 0.000000 0.008845
# 5 0.000888 0.002296 -0.001033 0.000000 0.025040 0.000000
# 6 0.000000 0.000000 0.000000 0.008845 0.000000 0.033148
#
#
# Mechanical properties :
#
#
# Convention : Reuss Voigt Hill
#
# Bulk Modulus (GPa) = 57.28759 67.23980 62.26369
# Shear Modulus (GPa) = 27.87189 31.41607 29.64398
#
# Velocity S-wave (km/s) = 3.77654 4.00947 3.89475
# Velocity P-wave (km/s) = 6.95204 7.47273 7.21708
#
# Compressibility (1/GPa) = 0.01745579
#
# Stress axis : x y z
#
# Youngs Moduli (GPa) = 78.83470 47.66609 108.82226
#
# Poissons Ratio (x) = 0.28282 0.38197
# Poissons Ratio (y) = 0.46775 0.35426
# Poissons Ratio (z) = 0.27671 0.15517
#
# Static dielectric constant tensor:
#      x y z
#    x 3.685080 0.000000 0.145540 
#    y 0.000000 3.297550 0.000000 
#    z 0.145540 0.000000 3.843420 
# 
# 
# High freq. dielectric constant tensor:
#      x y z
#    x 1.770710 0.000000 0.002630 
#    y 0.000000 1.729600 0.000000 
#    z 0.002630 0.000000 1.783510 
# 
# From -- ./inp_files/180855.got.cif
#   From: 2010.06.25/outbox.cif.g09.slc.cpg/sg12_91_cif.got.tgz:180855.got - 2010.06.28 00:19:55.
