data_PCOD8094545
_publ_section_title
;
Structure prediction by ZEFSAII (Michael W. Deem and Ramdas Pophale) SiO2 
 PCOD8094545
Probable space group: C 2/M
;
_chemical_formula_sum "Si O2"
_cell_formula_units_Z 48
_cell_length_a 20.444904
_cell_length_b 16.910114
_cell_length_c 11.165155
_cell_angle_alpha 90.000000
_cell_angle_beta 42.905265
_cell_angle_gamma 90.000000
_cell_volume 2627.897216
_symmetry_space_group_name_H-M "C 2/M"
_symmetry_group_IT_number 12
_symmetry_cell_setting 'monoclinic'
loop_
_space_group_symop_operation_xyz
x,y,z
-x,y,-z
-x,-y,-z
x,-y,z
1/2+x,1/2+y,z
1/2-x,1/2+y,-z
1/2-x,1/2-y,-z
1/2+x,1/2-y,z
loop_
_atom_site_type_symbol
_atom_site_label
_atom_site_fract_x
_atom_site_fract_y
_atom_site_fract_z
Si Si1 0.891035 0.797501 0.641364
Si Si2 0.094070 0.856911 0.637042
Si Si3 0.886015 0.090337 0.872504
Si Si4 0.601531 0.218005 0.807090
Si Si5 0.257984 0.323625 0.229205
Si Si6 0.214272 0.410563 0.520327
O O1 0.873626 0.845529 0.542875
O O2 0.869607 0.856074 0.778840
O O3 0.819898 0.723228 0.745669
O O4 0.000000 0.765550 0.500000
O O5 0.087502 0.771513 0.708486
O O6 0.173160 0.910411 0.596335
O O7 0.992650 0.900734 0.783255
O O8 0.868645 0.000000 0.858343
O O9 0.810694 0.113326 0.075298
O O10 0.665672 0.262225 0.819175
O O11 0.653186 0.137193 0.700048
O O12 0.500000 0.195458 0.000000
O O13 0.201541 0.370856 0.407814
O O14 0.176094 0.500000 0.567958
#
# Coordination Sequence:
#
# PCOD8094545 Si02
#       6
#     8   8   8   8   8   8
#     4  10  21  37  61  80 110 160 197 225 270 337
#     4  10  19  38  58  86 115 148 185 234 287 351
#     4  11  23  35  57  90 119 145 185 238 288 327
#     4  11  20  37  63  83 113 149 191 231 284 347
#     4  11  20  40  58  83 117 153 190 228 277 347
#     4  11  22  35  60  86 115 148 185 242 291 325
#
# _framework density 18.265553000000001
#
# number of rings (size 3 to 8) (size 9 to 14) (size 15 to 20)
#    0.000    1.333    5.000    2.500    0.000    4.000 
#    0.000    2.500    0.000    4.000    0.000    0.000 
#    0.000    0.000    0.000    0.000    0.000    0.000 
#
# Total GULP energy -297709.323437 kJ/mol
# GULP energy per Si atom -12404.555143 kJ/mol
# Density = 1.822398 g / cm^3
# Si number density = 18.265553 Si / 1000 Ang^3
#
#
#
# Elastic Constant Matrix: (Units=GPa)
#
#
# Indices 1 2 3 4 5 6 
#
# 1 84.4303 44.1615 29.8676 0.0000 3.8332 0.0000
# 2 44.1615 121.3911 42.5316 0.0000 -9.7534 0.0000
# 3 29.8676 42.5316 88.1878 0.0000 -2.2804 0.0000
# 4 0.0000 0.0000 0.0000 28.7526 0.0000 1.4613
# 5 3.8332 -9.7534 -2.2804 0.0000 19.7652 0.0000
# 6 0.0000 0.0000 0.0000 1.4613 0.0000 15.2086
#
#
#
# Elastic Compliance Matrix: (Units=1/GPa)
#
#
# Indices 1 2 3 4 5 6 
#
# 1 0.015915 -0.005210 -0.003033 0.000000 -0.006007 0.000000
# 2 -0.005210 0.012006 -0.003858 0.000000 0.006490 0.000000
# 3 -0.003033 -0.003858 0.014236 0.000000 0.000327 0.000000
# 4 0.000000 0.000000 0.000000 0.034950 0.000000 -0.003358
# 5 -0.006007 0.006490 0.000327 0.000000 0.054999 0.000000
# 6 0.000000 0.000000 0.000000 -0.003358 0.000000 0.066075
#
#
# Mechanical properties :
#
#
# Convention : Reuss Voigt Hill
#
# Bulk Modulus (GPa) = 55.69372 58.57007 57.13190
# Shear Modulus (GPa) = 21.89454 24.57519 23.23486
#
# Velocity S-wave (km/s) = 3.46595 3.67200 3.57046
# Velocity P-wave (km/s) = 6.82454 7.07910 6.95299
#
# Compressibility (1/GPa) = 0.01795535
#
# Stress axis : x y z
#
# Youngs Moduli (GPa) = 62.83519 83.28917 70.24552
#
# Poissons Ratio (x) = 0.43392 0.21304
# Poissons Ratio (y) = 0.32736 0.27102
# Poissons Ratio (z) = 0.19056 0.32135
#
# Static dielectric constant tensor:
#      x y z
#    x 3.474660 0.000000 0.006630 
#    y 0.000000 3.190860 0.000000 
#    z 0.006630 0.000000 3.416480 
# 
# 
# High freq. dielectric constant tensor:
#      x y z
#    x 1.706770 0.000000 0.005670 
#    y 0.000000 1.695210 0.000000 
#    z 0.005670 0.000000 1.714680 
# 
# From -- ./inp_files/143519.got.cif
#   From: 2010.06.25/outbox.cif.g09.slc.cpg/sg12_72_cif.got.tgz:143519.got - 2010.06.28 00:19:55.
