data_PCOD8094451
_publ_section_title
;
Structure prediction by ZEFSAII (Michael W. Deem and Ramdas Pophale) SiO2 
 PCOD8094451
Probable space group: C 2/M
;
_chemical_formula_sum "Si O2"
_cell_formula_units_Z 64
_cell_length_a 9.678598
_cell_length_b 28.201172
_cell_length_c 17.644434
_cell_angle_alpha 90.000000
_cell_angle_beta 42.865806
_cell_angle_gamma 90.000000
_cell_volume 3276.252169
_symmetry_space_group_name_H-M "C 2/M"
_symmetry_group_IT_number 12
_symmetry_cell_setting 'monoclinic'
loop_
_space_group_symop_operation_xyz
x,y,z
-x,y,-z
-x,-y,-z
x,-y,z
1/2+x,1/2+y,z
1/2-x,1/2+y,-z
1/2-x,1/2-y,-z
1/2+x,1/2-y,z
loop_
_atom_site_type_symbol
_atom_site_label
_atom_site_fract_x
_atom_site_fract_y
_atom_site_fract_z
Si Si1 0.601421 0.554681 0.291975
Si Si2 0.289605 0.290687 0.544529
Si Si3 0.042112 0.556326 0.736728
Si Si4 0.177408 0.896106 0.489287
Si Si5 0.225531 0.121916 0.935406
Si Si6 0.495112 0.787027 0.200458
Si Si7 0.769354 0.603525 0.088623
Si Si8 0.202626 0.291042 0.874618
O O1 0.560568 0.500000 0.318901
O O2 0.801090 0.570013 0.259266
O O3 0.396489 0.579767 0.403554
O O4 0.632594 0.567115 0.191380
O O5 0.500000 0.278516 0.500000
O O6 0.250000 0.250000 0.500000
O O7 0.288894 0.341246 0.502897
O O8 0.114105 0.296323 0.676827
O O9 0.010773 0.500000 0.741480
O O10 0.123313 0.577797 0.624438
O O11 0.827770 0.581133 0.842687
O O12 0.000000 0.901979 0.500000
O O13 0.360492 0.169310 0.879910
O O14 0.198874 0.102816 0.030862
O O15 0.000000 0.134624 0.000000
O O16 0.619552 0.738933 0.159218
O O17 0.327285 0.779685 0.202311
O O18 0.740375 0.654382 0.139201
O O19 0.000000 0.586076 0.000000
O O20 0.000000 0.277489 0.000000
#
# Coordination Sequence:
#
# PCOD8094451 Si02
#       8
#     8   8   8   8   8   8   8   8
#     4  10  20  35  63  94 119 155 203 258 310 360
#     4  11  24  40  61  91 122 160 200 250 305 359
#     4  10  19  37  63  91 121 158 202 254 308 368
#     4   9  19  35  62  91 124 154 200 255 308 357
#     4  12  25  41  60  92 127 165 204 246 306 368
#     4  12  23  40  61  87 125 161 203 252 304 361
#     4  11  22  39  61  89 127 159 202 252 306 358
#     4  11  23  37  60  88 120 161 205 243 299 362
#
# _framework density 19.534514999999999
#
# number of rings (size 3 to 8) (size 9 to 14) (size 15 to 20)
#    0.000    1.250    5.000    1.875    7.000    2.500 
#    0.000    0.000    0.000    0.000    0.000    1.750 
#    0.000    0.000    0.000    0.000    0.000    0.000 
#
# Total GULP energy -396889.167653 kJ/mol
# GULP energy per Si atom -12402.786489 kJ/mol
# Density = 1.949005 g / cm^3
# Si number density = 19.534515 Si / 1000 Ang^3
#
#
#
# Elastic Constant Matrix: (Units=GPa)
#
#
# Indices 1 2 3 4 5 6 
#
# 1 41.3012 18.4143 9.7170 0.0000 3.4598 0.0000
# 2 18.4143 85.7066 43.4998 0.0000 -1.0218 0.0000
# 3 9.7170 43.4998 112.4718 0.0000 11.8184 0.0000
# 4 0.0000 0.0000 0.0000 16.0303 0.0000 -6.4719
# 5 3.4598 -1.0218 11.8184 0.0000 24.0703 0.0000
# 6 0.0000 0.0000 0.0000 -6.4719 0.0000 18.9696
#
#
#
# Elastic Compliance Matrix: (Units=1/GPa)
#
#
# Indices 1 2 3 4 5 6 
#
# 1 0.027207 -0.006147 0.000491 0.000000 -0.004412 0.000000
# 2 -0.006147 0.016201 -0.006221 0.000000 0.004626 0.000000
# 3 0.000491 -0.006221 0.011904 0.000000 -0.006179 0.000000
# 4 0.000000 0.000000 0.000000 0.072347 0.000000 0.024683
# 5 -0.004412 0.004626 -0.006179 0.000000 0.045410 0.000000
# 6 0.000000 0.000000 0.000000 0.024683 0.000000 0.061137
#
#
# Mechanical properties :
#
#
# Convention : Reuss Voigt Hill
#
# Bulk Modulus (GPa) = 31.68829 42.52686 37.10758
# Shear Modulus (GPa) = 18.62338 23.00394 20.81366
#
# Velocity S-wave (km/s) = 3.09100 3.43535 3.26771
# Velocity P-wave (km/s) = 5.38479 6.12804 5.76840
#
# Compressibility (1/GPa) = 0.03155740
#
# Stress axis : x y z
#
# Youngs Moduli (GPa) = 36.75482 61.72467 84.00488
#
# Poissons Ratio (x) = 0.37943 -0.04121
# Poissons Ratio (y) = 0.22594 0.52259
# Poissons Ratio (z) = -0.01803 0.38398
#
# Static dielectric constant tensor:
#      x y z
#    x 3.320360 0.000000 0.022990 
#    y 0.000000 3.590350 0.000000 
#    z 0.022990 0.000000 3.756960 
# 
# 
# High freq. dielectric constant tensor:
#      x y z
#    x 1.719950 0.000000 0.002390 
#    y 0.000000 1.768050 0.000000 
#    z 0.002390 0.000000 1.779740 
# 
# From -- ./inp_files/201294.got.cif
#   From: 2010.06.25/outbox.cif.g09.slc.cpg/sg12_101_cif.got.tgz:201294.got - 2010.06.28 00:19:55.
