data_PCOD8094488
_publ_section_title
;
Structure prediction by ZEFSAII (Michael W. Deem and Ramdas Pophale) SiO2 
 PCOD8094488
Probable space group: C 2/M
;
_chemical_formula_sum "Si O2"
_cell_formula_units_Z 64
_cell_length_a 17.023648
_cell_length_b 30.582352
_cell_length_c 11.495578
_cell_angle_alpha 90.000000
_cell_angle_beta 149.534203
_cell_angle_gamma 90.000000
_cell_volume 3034.469478
_symmetry_space_group_name_H-M "C 2/M"
_symmetry_group_IT_number 12
_symmetry_cell_setting 'monoclinic'
loop_
_space_group_symop_operation_xyz
x,y,z
-x,y,-z
-x,-y,-z
x,-y,z
1/2+x,1/2+y,z
1/2-x,1/2+y,-z
1/2-x,1/2-y,-z
1/2+x,1/2-y,z
loop_
_atom_site_type_symbol
_atom_site_label
_atom_site_fract_x
_atom_site_fract_y
_atom_site_fract_z
Si Si1 0.888815 0.700087 0.091251
Si Si2 0.292028 0.082858 0.402234
Si Si3 0.842559 0.622227 0.865886
Si Si4 0.341368 0.548532 0.993437
Si Si5 0.619094 0.170982 0.557836
Si Si6 0.411433 0.620842 0.654722
Si Si7 0.898823 0.548631 0.117943
Si Si8 0.635719 0.699716 0.968398
O O1 0.754699 0.691777 0.014523
O O2 0.059277 0.686656 0.355651
O O3 0.848073 0.670439 0.928644
O O4 0.910364 0.749957 0.082066
O O5 0.189660 0.053984 0.184084
O O6 0.382259 0.118567 0.440402
O O7 0.183892 0.110099 0.351407
O O8 0.416149 0.054132 0.630822
O O9 0.695635 0.620041 0.594883
O O10 0.823632 0.584613 0.938152
O O11 0.000000 0.612220 0.000000
O O12 0.412752 0.500000 0.101951
O O13 0.180409 0.553145 0.857175
O O14 0.458444 0.583945 0.194642
O O15 0.500000 0.190068 0.500000
O O16 0.788206 0.188507 0.809302
O O17 0.486760 0.668943 0.760764
O O18 0.870550 0.500000 0.029852
#
# Coordination Sequence:
#
# PCOD8094488 Si02
#       8
#     8   8   8   8   8   8   8   8
#     4  10  22  42  67  93 133 179 221 269 320 396
#     4  12  22  42  67  96 134 171 214 270 335 392
#     4  12  25  47  64  94 132 179 221 264 332 405
#     4  11  25  43  67 102 131 168 223 279 337 388
#     4  10  19  37  65  91 124 168 215 268 321 383
#     4  12  26  42  65  99 139 172 216 273 336 395
#     4  11  24  44  71  96 128 176 228 272 322 400
#     4  10  23  40  65 102 130 170 224 272 332 384
#
# _framework density 21.091002
#
# number of rings (size 3 to 8) (size 9 to 14) (size 15 to 20)
#    0.000    1.000    3.750    2.625    1.750    5.250 
#    2.250    2.500    0.000    0.000    0.000    0.000 
#    0.000    0.000    0.000    0.000    0.000    0.000 
#
# Total GULP energy -396827.465519 kJ/mol
# GULP energy per Si atom -12400.858297 kJ/mol
# Density = 2.104300 g / cm^3
# Si number density = 21.091002 Si / 1000 Ang^3
#
#
#
# Elastic Constant Matrix: (Units=GPa)
#
#
# Indices 1 2 3 4 5 6 
#
# 1 71.0537 39.6834 33.8533 0.0000 -6.6990 0.0000
# 2 39.6834 165.0952 63.0537 0.0000 -6.1159 0.0000
# 3 33.8533 63.0537 150.6365 0.0000 -11.5051 0.0000
# 4 0.0000 0.0000 0.0000 25.4260 0.0000 1.4373
# 5 -6.6990 -6.1159 -11.5051 0.0000 29.0483 0.0000
# 6 0.0000 0.0000 0.0000 1.4373 0.0000 26.0818
#
#
#
# Elastic Compliance Matrix: (Units=1/GPa)
#
#
# Indices 1 2 3 4 5 6 
#
# 1 0.017176 -0.003137 -0.002366 0.000000 0.002363 0.000000
# 2 -0.003137 0.007786 -0.002562 0.000000 -0.000099 0.000000
# 3 -0.002366 -0.002562 0.008414 0.000000 0.002248 0.000000
# 4 0.000000 0.000000 0.000000 0.039453 0.000000 -0.002174
# 5 0.002363 -0.000099 0.002248 0.000000 0.035840 0.000000
# 6 0.000000 0.000000 0.000000 -0.002174 0.000000 0.038461
#
#
# Mechanical properties :
#
#
# Convention : Reuss Voigt Hill
#
# Bulk Modulus (GPa) = 57.98463 73.32959 65.65711
# Shear Modulus (GPa) = 29.58428 32.79088 31.18758
#
# Velocity S-wave (km/s) = 3.74932 3.94729 3.84958
# Velocity P-wave (km/s) = 6.80408 7.45778 7.13842
#
# Compressibility (1/GPa) = 0.01724595
#
# Stress axis : x y z
#
# Youngs Moduli (GPa) = 58.21971 128.43819 118.84711
#
# Poissons Ratio (x) = 0.40295 0.28124
# Poissons Ratio (y) = 0.18265 0.30443
# Poissons Ratio (z) = 0.13777 0.32899
#
# Static dielectric constant tensor:
#      x y z
#    x 3.702520 0.000000 -0.034210 
#    y 0.000000 3.876390 0.000000 
#    z -0.034210 0.000000 3.909180 
# 
# 
# High freq. dielectric constant tensor:
#      x y z
#    x 1.816370 0.000000 -0.001950 
#    y 0.000000 1.836740 0.000000 
#    z -0.001950 0.000000 1.830120 
# 
# From -- ./inp_files/161225.got.cif
#   From: 2010.06.25/outbox.cif.g09.slc.cpg/sg12_81_cif.got.tgz:161225.got - 2010.06.28 00:19:55.
