data_PCOD8094744
_publ_section_title
;
Structure prediction by ZEFSAII (Michael W. Deem and Ramdas Pophale) SiO2 
 PCOD8094744
Probable space group: C 2/M
;
_chemical_formula_sum "Si O2"
_cell_formula_units_Z 64
_cell_length_a 30.683020
_cell_length_b 22.627305
_cell_length_c 9.434974
_cell_angle_alpha 90.000000
_cell_angle_beta 28.534730
_cell_angle_gamma 90.000000
_cell_volume 3129.097079
_symmetry_space_group_name_H-M "C 2/M"
_symmetry_group_IT_number 12
_symmetry_cell_setting 'monoclinic'
loop_
_space_group_symop_operation_xyz
x,y,z
-x,y,-z
-x,-y,-z
x,-y,z
1/2+x,1/2+y,z
1/2-x,1/2+y,-z
1/2-x,1/2-y,-z
1/2+x,1/2-y,z
loop_
_atom_site_type_symbol
_atom_site_label
_atom_site_fract_x
_atom_site_fract_y
_atom_site_fract_z
Si Si1 0.914351 0.132645 0.646254
Si Si2 0.853506 0.259839 0.735444
Si Si3 0.598284 0.159056 0.163035
Si Si4 0.356187 0.260499 0.174345
Si Si5 0.597056 0.197876 0.703213
Si Si6 0.742763 0.068287 0.648271
Si Si7 0.280640 0.370178 0.256896
Si Si8 0.083638 0.930476 0.661584
O O1 0.903967 0.203144 0.656392
O O2 0.922587 0.102392 0.470347
O O3 0.000000 0.117507 0.500000
O O4 0.824842 0.106202 0.984207
O O5 0.848274 0.313818 0.858472
O O6 0.905226 0.279867 0.448927
O O7 0.750000 0.250000 0.000000
O O8 0.500000 0.138191 0.500000
O O9 0.591878 0.209959 0.062852
O O10 0.651757 0.103326 0.948555
O O11 0.250000 0.250000 0.500000
O O12 0.401348 0.256895 0.201312
O O13 0.358840 0.323812 0.090007
O O14 0.681396 0.156249 0.504302
O O15 0.500000 0.163925 0.000000
O O16 0.770011 0.080160 0.406897
O O17 0.823905 0.087610 0.521152
O O18 0.719728 0.000000 0.730241
O O19 0.080093 0.000000 0.641250
O O20 0.000000 0.910956 0.000000
#
# Coordination Sequence:
#
# PCOD8094744 Si02
#       8
#     8   8   8   8   8   8   8   8
#     4  12  25  39  64 101 135 167 213 266 333 402
#     4  12  23  37  58  96 137 168 207 265 326 398
#     4  12  23  40  66  94 138 172 215 272 330 401
#     4  10  19  39  60  89 123 175 208 259 327 390
#     4  11  23  36  60  92 128 175 215 253 327 393
#     4  11  25  45  71  93 123 179 233 278 329 389
#     4  11  23  41  63  92 135 168 219 272 324 392
#     4  10  24  47  69  95 128 171 226 280 335 390
#
# _framework density 20.453185000000001
#
# number of rings (size 3 to 8) (size 9 to 14) (size 15 to 20)
#    0.000    0.875    5.000    3.375    3.500    1.500 
#    0.000    0.000    0.000    0.375    0.000    0.000 
#    0.000    0.000    0.000    0.000    0.000    0.000 
#
# Total GULP energy -396665.395311 kJ/mol
# GULP energy per Si atom -12395.793603 kJ/mol
# Density = 2.040663 g / cm^3
# Si number density = 20.453185 Si / 1000 Ang^3
#
#
#
# Elastic Constant Matrix: (Units=GPa)
#
#
# Indices 1 2 3 4 5 6 
#
# 1 103.5275 28.3010 41.7708 0.0000 20.2700 0.0000
# 2 28.3010 68.2418 40.8234 0.0000 6.5736 0.0000
# 3 41.7708 40.8234 133.8653 0.0000 18.1534 0.0000
# 4 0.0000 0.0000 0.0000 15.5633 0.0000 -1.8417
# 5 20.2700 6.5736 18.1534 0.0000 42.3652 0.0000
# 6 0.0000 0.0000 0.0000 -1.8417 0.0000 23.0772
#
#
#
# Elastic Compliance Matrix: (Units=1/GPa)
#
#
# Indices 1 2 3 4 5 6 
#
# 1 0.012344 -0.003361 -0.002226 0.000000 -0.004431 0.000000
# 2 -0.003361 0.018847 -0.004799 0.000000 0.000740 0.000000
# 3 -0.002226 -0.004799 0.009962 0.000000 -0.002459 0.000000
# 4 0.000000 0.000000 0.000000 0.064866 0.000000 0.005177
# 5 -0.004431 0.000740 -0.002459 0.000000 0.026663 0.000000
# 6 0.000000 0.000000 0.000000 0.005177 0.000000 0.043746
#
#
# Mechanical properties :
#
#
# Convention : Reuss Voigt Hill
#
# Bulk Modulus (GPa) = 49.06595 58.60278 53.83437
# Shear Modulus (GPa) = 24.51059 29.18376 26.84718
#
# Velocity S-wave (km/s) = 3.46551 3.78147 3.62693
# Velocity P-wave (km/s) = 6.32886 6.91234 6.62702
#
# Compressibility (1/GPa) = 0.02038073
#
# Stress axis : x y z
#
# Youngs Moduli (GPa) = 81.01385 53.05809 100.38325
#
# Poissons Ratio (x) = 0.17831 0.22345
# Poissons Ratio (y) = 0.27226 0.48177
# Poissons Ratio (z) = 0.18033 0.25464
#
# Static dielectric constant tensor:
#      x y z
#    x 3.996830 0.000000 0.150890 
#    y 0.000000 3.228800 0.000000 
#    z 0.150890 0.000000 4.068660 
# 
# 
# High freq. dielectric constant tensor:
#      x y z
#    x 1.817470 0.000000 0.009890 
#    y 0.000000 1.755900 0.000000 
#    z 0.009890 0.000000 1.825370 
# 
# From -- ./inp_files/113596.got.cif
#   From: 2010.06.25/outbox.cif.g09.slc.cpg/sg12_57_cif.got.tgz:113596.got - 2010.06.28 00:19:55.
