data_PCOD8094056
_publ_section_title
;
Structure prediction by ZEFSAII (Michael W. Deem and Ramdas Pophale) SiO2 
 PCOD8094056
Probable space group: C 2/M
;
_chemical_formula_sum "Si O2"
_cell_formula_units_Z 64
_cell_length_a 14.911096
_cell_length_b 27.332210
_cell_length_c 8.853489
_cell_angle_alpha 90.000000
_cell_angle_beta 57.913762
_cell_angle_gamma 90.000000
_cell_volume 3057.103246
_symmetry_space_group_name_H-M "C 2/M"
_symmetry_group_IT_number 12
_symmetry_cell_setting 'monoclinic'
loop_
_space_group_symop_operation_xyz
x,y,z
-x,y,-z
-x,-y,-z
x,-y,z
1/2+x,1/2+y,z
1/2-x,1/2+y,-z
1/2-x,1/2-y,-z
1/2+x,1/2-y,z
loop_
_atom_site_type_symbol
_atom_site_label
_atom_site_fract_x
_atom_site_fract_y
_atom_site_fract_z
Si Si1 0.315581 0.294069 0.263874
Si Si2 0.095108 0.121139 0.019531
Si Si3 0.268540 0.612587 0.640076
Si Si4 0.039153 0.826372 0.618497
Si Si5 0.874543 0.693867 0.081405
Si Si6 0.739591 0.057128 0.957425
Si Si7 0.589087 0.130667 0.211323
Si Si8 0.855343 0.639479 0.502445
O O1 0.399294 0.288682 0.327165
O O2 0.320894 0.246503 0.154926
O O3 0.200085 0.306034 0.439948
O O4 0.340867 0.341352 0.141072
O O5 0.056721 0.149679 0.203051
O O6 0.172143 0.078253 0.007004
O O7 0.000000 0.099632 0.000000
O O8 0.387914 0.629880 0.509713
O O9 0.189439 0.656529 0.757407
O O10 0.220968 0.600191 0.515835
O O11 0.269271 0.567732 0.755870
O O12 0.000000 0.798633 0.500000
O O13 0.856247 0.677071 0.922922
O O14 0.000000 0.694399 0.000000
O O15 0.624679 0.081590 0.090570
O O16 0.730932 0.000000 0.991636
O O17 0.464920 0.141232 0.313981
O O18 0.627946 0.121354 0.344188
#
# Coordination Sequence:
#
# PCOD8094056 Si02
#       8
#     8   8   8   8   8   8   8   8
#     4  10  22  38  63  90 127 170 213 252 306 387
#     4  10  20  40  63  89 130 168 200 259 319 372
#     4  10  22  40  62  86 132 164 207 271 312 368
#     4  10  19  36  62  89 124 165 205 258 310 362
#     4  11  21  40  60  91 128 174 210 251 311 376
#     4  11  23  42  68  96 120 164 217 257 323 395
#     4  10  22  41  66  89 131 164 206 269 317 373
#     4  10  20  41  65  89 125 168 205 261 327 356
#
# _framework density 20.934850999999998
#
# number of rings (size 3 to 8) (size 9 to 14) (size 15 to 20)
#    0.000    1.750    3.750    1.125    0.000    2.750 
#    2.250    6.875    0.000    0.000    0.000    0.000 
#    0.000    0.000    0.000    0.000    0.000    0.000 
#
# Total GULP energy -396498.087500 kJ/mol
# GULP energy per Si atom -12390.565234 kJ/mol
# Density = 2.088720 g / cm^3
# Si number density = 20.934851 Si / 1000 Ang^3
#
#
#
# Elastic Constant Matrix: (Units=GPa)
#
#
# Indices 1 2 3 4 5 6 
#
# 1 88.5940 37.8264 36.2635 0.0000 7.4995 0.0000
# 2 37.8264 114.8348 35.5164 0.0000 2.8589 0.0000
# 3 36.2635 35.5164 90.4229 0.0000 7.7901 0.0000
# 4 0.0000 0.0000 0.0000 15.2231 0.0000 0.4709
# 5 7.4995 2.8589 7.7901 0.0000 48.6242 0.0000
# 6 0.0000 0.0000 0.0000 0.4709 0.0000 16.5205
#
#
#
# Elastic Compliance Matrix: (Units=1/GPa)
#
#
# Indices 1 2 3 4 5 6 
#
# 1 0.014678 -0.003434 -0.004421 0.000000 -0.001354 0.000000
# 2 -0.003434 0.010716 -0.002863 0.000000 0.000358 0.000000
# 3 -0.004421 -0.002863 0.014078 0.000000 -0.001405 0.000000
# 4 0.000000 0.000000 0.000000 0.065748 0.000000 -0.001874
# 5 -0.001354 0.000358 -0.001405 0.000000 0.020979 0.000000
# 6 0.000000 0.000000 0.000000 -0.001874 0.000000 0.060584
#
#
# Mechanical properties :
#
#
# Convention : Reuss Voigt Hill
#
# Bulk Modulus (GPa) = 55.44453 57.00713 56.22583
# Shear Modulus (GPa) = 23.33948 28.35657 25.84803
#
# Velocity S-wave (km/s) = 3.34258 3.68437 3.51763
# Velocity P-wave (km/s) = 6.43731 6.73715 6.58894
#
# Compressibility (1/GPa) = 0.01803604
#
# Stress axis : x y z
#
# Youngs Moduli (GPa) = 68.13022 93.32097 71.03448
#
# Poissons Ratio (x) = 0.32044 0.31405
# Poissons Ratio (y) = 0.23394 0.20335
# Poissons Ratio (z) = 0.30121 0.26715
#
# Static dielectric constant tensor:
#      x y z
#    x 4.093820 0.000000 0.015500 
#    y 0.000000 3.138860 0.000000 
#    z 0.015500 0.000000 4.314440 
# 
# 
# High freq. dielectric constant tensor:
#      x y z
#    x 1.834920 0.000000 0.004380 
#    y 0.000000 1.749010 0.000000 
#    z 0.004380 0.000000 1.855130 
# 
# From -- ./inp_files/68246.got.cif
#   From: 2010.06.25/outbox.cif.g09.slc.cpg/sg12_35_cif.got.tgz:68246.got - 2010.06.28 00:19:55.
