data_PCOD8094691
_publ_section_title
;
Structure prediction by ZEFSAII (Michael W. Deem and Ramdas Pophale) SiO2 
 PCOD8094691
Probable space group: C 2/M
;
_chemical_formula_sum "Si O2"
_cell_formula_units_Z 52
_cell_length_a 15.987582
_cell_length_b 31.579391
_cell_length_c 9.420557
_cell_angle_alpha 90.000000
_cell_angle_beta 146.914474
_cell_angle_gamma 90.000000
_cell_volume 2596.381526
_symmetry_space_group_name_H-M "C 2/M"
_symmetry_group_IT_number 12
_symmetry_cell_setting 'monoclinic'
loop_
_space_group_symop_operation_xyz
x,y,z
-x,y,-z
-x,-y,-z
x,-y,z
1/2+x,1/2+y,z
1/2-x,1/2+y,-z
1/2-x,1/2-y,-z
1/2+x,1/2-y,z
loop_
_atom_site_type_symbol
_atom_site_label
_atom_site_fract_x
_atom_site_fract_y
_atom_site_fract_z
Si Si1 0.178140 0.425325 0.265215
Si Si2 0.500000 0.146617 0.500000
Si Si3 0.089629 0.000000 0.480193
Si Si4 0.953983 0.841610 0.079511
Si Si5 0.857153 0.857466 0.384420
Si Si6 0.734694 0.200129 0.976578
Si Si7 0.360622 0.500000 0.910588
Si Si8 0.759293 0.589344 0.320619
O O1 0.299007 0.460907 0.392593
O O2 0.212833 0.388802 0.197552
O O3 0.212671 0.408192 0.471229
O O4 0.000000 0.439807 0.000000
O O5 0.569374 0.178459 0.718616
O O6 0.389623 0.114351 0.423056
O O7 0.000000 0.000000 0.500000
O O8 0.937764 0.000000 0.171398
O O9 0.093734 0.844700 0.387503
O O10 0.820834 0.814591 0.958487
O O11 0.898946 0.888413 0.951615
O O12 0.000000 0.817156 0.000000
O O13 0.000000 0.878681 0.500000
O O14 0.806747 0.816127 0.225892
O O15 0.750000 0.250000 0.000000
O O16 0.500000 0.500000 0.000000
O O17 0.249087 0.540232 0.734850
#
# Coordination Sequence:
#
# PCOD8094691 Si02
#       8
#     8   4   4   8   8   8   4   8
#     4  12  23  39  64  92 138 172 220 271 340 388
#     4  10  24  41  62  94 138 166 214 277 340 396
#     4  12  27  42  62  99 133 175 226 280 314 386
#     4  10  19  38  65  92 121 163 218 271 317 387
#     4  10  21  38  64  93 123 170 220 265 333 392
#     4  10  23  41  65  92 128 169 214 269 338 408
#     4  12  22  41  69  89 122 176 227 264 319 381
#     4  11  22  40  64  96 129 174 219 270 328 396
#
# _framework density 20.027874000000001
#
# number of rings (size 3 to 8) (size 9 to 14) (size 15 to 20)
#    0.000    1.231    3.077    3.000    3.231    4.000 
#    0.000    3.077    0.000    0.000    0.000    0.000 
#    0.000    0.000    0.000    0.000    0.000    0.000 
#
# Total GULP energy -322143.073610 kJ/mol
# GULP energy per Si atom -12390.118216 kJ/mol
# Density = 1.998229 g / cm^3
# Si number density = 20.027874 Si / 1000 Ang^3
#
#
#
# Elastic Constant Matrix: (Units=GPa)
#
#
# Indices 1 2 3 4 5 6 
#
# 1 117.8547 56.0848 56.2488 0.0000 -14.3126 0.0000
# 2 56.0848 151.4085 51.9705 0.0000 1.1037 0.0000
# 3 56.2488 51.9705 122.6375 0.0000 -13.3189 0.0000
# 4 0.0000 0.0000 0.0000 30.4868 0.0000 -6.2272
# 5 -14.3126 1.1037 -13.3189 0.0000 40.0205 0.0000
# 6 0.0000 0.0000 0.0000 -6.2272 0.0000 16.4943
#
#
#
# Elastic Compliance Matrix: (Units=1/GPa)
#
#
# Indices 1 2 3 4 5 6 
#
# 1 0.012276 -0.003225 -0.003919 0.000000 0.003175 0.000000
# 2 -0.003225 0.008647 -0.002424 0.000000 -0.002199 0.000000
# 3 -0.003919 -0.002424 0.011240 0.000000 0.002406 0.000000
# 4 0.000000 0.000000 0.000000 0.035542 0.000000 0.013418
# 5 0.003175 -0.002199 0.002406 0.000000 0.026984 0.000000
# 6 0.000000 0.000000 0.000000 0.013418 0.000000 0.065693
#
#
# Mechanical properties :
#
#
# Convention : Reuss Voigt Hill
#
# Bulk Modulus (GPa) = 76.76317 80.05654 78.40985
# Shear Modulus (GPa) = 27.19451 32.57342 29.88397
#
# Velocity S-wave (km/s) = 3.68888 4.03725 3.86699
# Velocity P-wave (km/s) = 7.52031 7.86078 7.69243
#
# Compressibility (1/GPa) = 0.01302708
#
# Stress axis : x y z
#
# Youngs Moduli (GPa) = 81.46142 115.64153 88.96743
#
# Poissons Ratio (x) = 0.37297 0.34865
# Poissons Ratio (y) = 0.26273 0.21566
# Poissons Ratio (z) = 0.31923 0.28032
#
# Static dielectric constant tensor:
#      x y z
#    x 3.903860 0.000000 -0.107390 
#    y 0.000000 3.569190 0.000000 
#    z -0.107390 0.000000 3.891910 
# 
# 
# High freq. dielectric constant tensor:
#      x y z
#    x 1.793360 0.000000 -0.006170 
#    y 0.000000 1.767500 0.000000 
#    z -0.006170 0.000000 1.790860 
# 
# From -- ./inp_files/68725.got.cif
#   From: 2010.06.25/outbox.cif.g09.slc.cpg/sg12_35_cif.got.tgz:68725.got - 2010.06.28 00:19:55.
