data_PCOD8094859
_publ_section_title
;
Structure prediction by ZEFSAII (Michael W. Deem and Ramdas Pophale) SiO2 
 PCOD8094859
Probable space group: C 2/M
;
_chemical_formula_sum "Si O2"
_cell_formula_units_Z 40
_cell_length_a 18.704448
_cell_length_b 13.314863
_cell_length_c 12.497941
_cell_angle_alpha 90.000000
_cell_angle_beta 145.906650
_cell_angle_gamma 90.000000
_cell_volume 1744.732740
_symmetry_space_group_name_H-M "C 2/M"
_symmetry_group_IT_number 12
_symmetry_cell_setting 'monoclinic'
loop_
_space_group_symop_operation_xyz
x,y,z
-x,y,-z
-x,-y,-z
x,-y,z
1/2+x,1/2+y,z
1/2-x,1/2+y,-z
1/2-x,1/2-y,-z
1/2+x,1/2-y,z
loop_
_atom_site_type_symbol
_atom_site_label
_atom_site_fract_x
_atom_site_fract_y
_atom_site_fract_z
Si Si1 0.903379 0.314432 0.279246
Si Si2 0.173891 0.113882 0.103942
Si Si3 0.646289 0.607949 0.715325
Si Si4 0.229865 0.291748 0.321988
Si Si5 0.538587 0.755698 0.250449
O O1 0.789481 0.391781 0.160457
O O2 0.841856 0.201806 0.189663
O O3 0.000000 0.316279 0.500000
O O4 0.970233 0.334793 0.247380
O O5 0.222116 0.178115 0.265522
O O6 0.139590 0.000000 0.095635
O O7 0.051451 0.167372 0.902674
O O8 0.500000 0.602337 0.500000
O O9 0.684285 0.500000 0.813969
O O10 0.745538 0.628023 0.740994
O O11 0.348707 0.301050 0.548564
O O12 0.098807 0.315996 0.224075
#
# Coordination Sequence:
#
# PCOD8094859 Si02
#       5
#     8   8   8   8   8
#     4  10  19  41  63  88 129 172 208 262 320 377
#     4  11  24  41  67  98 128 167 218 267 313 380
#     4   9  16  32  59  85 114 156 206 252 301 363
#     4  10  22  40  61  90 133 168 203 267 325 372
#     4  11  21  39  63  88 125 173 211 253 321 383
#
# _framework density 22.926147
#
# number of rings (size 3 to 8) (size 9 to 14) (size 15 to 20)
#    0.000    1.800    6.000    1.200    0.000    3.600 
#    0.000    4.000    0.000   14.400    0.000    0.000 
#    0.000    0.000    0.000    0.000    0.000    0.000 
#
# Total GULP energy -247767.717660 kJ/mol
# GULP energy per Si atom -12388.385883 kJ/mol
# Density = 2.287397 g / cm^3
# Si number density = 22.926147 Si / 1000 Ang^3
#
#
#
# Elastic Constant Matrix: (Units=GPa)
#
#
# Indices 1 2 3 4 5 6 
#
# 1 166.7234 12.7939 27.0517 0.0000 35.0080 0.0000
# 2 12.7939 83.2357 39.9298 0.0000 0.1229 0.0000
# 3 27.0517 39.9298 90.6915 0.0000 6.8699 0.0000
# 4 0.0000 0.0000 0.0000 -64.9859 0.0000 14.5791
# 5 35.0080 0.1229 6.8699 0.0000 29.7842 0.0000
# 6 0.0000 0.0000 0.0000 14.5791 0.0000 9.6542
#
#
#
# Elastic Compliance Matrix: (Units=1/GPa)
#
#
# Indices 1 2 3 4 5 6 
#
# 1 0.008246 -0.000524 -0.001522 0.000000 -0.009339 0.000000
# 2 -0.000524 0.015331 -0.006754 0.000000 0.002110 0.000000
# 3 -0.001522 -0.006754 0.014571 0.000000 -0.001544 0.000000
# 4 0.000000 0.000000 0.000000 -0.011494 0.000000 0.017357
# 5 -0.009339 0.002110 -0.001544 0.000000 0.044900 0.000000
# 6 0.000000 0.000000 0.000000 0.017357 0.000000 0.077370
#
#
# Mechanical properties :
#
#
# Convention : Reuss Voigt Hill
#
# Bulk Modulus (GPa) = 48.66172 55.57793 52.11982
# Shear Modulus (GPa) = 28.83976 12.28217 20.56096
#
# Velocity S-wave (km/s) = 3.55060 2.31709 2.99797
# Velocity P-wave (km/s) = 6.17094 5.60833 5.89635
#
# Compressibility (1/GPa) = 0.02055003
#
# Stress axis : x y z
#
# Youngs Moduli (GPa) = 121.27017 65.22576 68.63038
#
# Poissons Ratio (x) = 0.03416 0.10443
# Poissons Ratio (y) = 0.06351 0.46351
# Poissons Ratio (z) = 0.18453 0.44052
#
# Static dielectric constant tensor:
#      x y z
#    x 4.769010 0.000000 0.284130 
#    y 0.000000 3.990400 0.000000 
#    z 0.284130 0.000000 4.119270 
# 
# 
# High freq. dielectric constant tensor:
#      x y z
#    x 1.921420 0.000000 0.013820 
#    y 0.000000 1.853490 0.000000 
#    z 0.013820 0.000000 1.908290 
# 
# From -- ./inp_files/233518.got.cif
#   From: 2010.06.25/outbox.cif.g09.slc.cpg/sg12_117_cif.got.tgz:233518.got - 2010.06.28 00:19:55.
