data_PCOD8094345
_publ_section_title
;
Structure prediction by ZEFSAII (Michael W. Deem and Ramdas Pophale) SiO2 
 PCOD8094345
Probable space group: C 2/M
;
_chemical_formula_sum "Si O2"
_cell_formula_units_Z 56
_cell_length_a 13.675210
_cell_length_b 13.603789
_cell_length_c 25.631661
_cell_angle_alpha 90.000000
_cell_angle_beta 147.795645
_cell_angle_gamma 90.000000
_cell_volume 2541.262002
_symmetry_space_group_name_H-M "C 2/M"
_symmetry_group_IT_number 12
_symmetry_cell_setting 'monoclinic'
loop_
_space_group_symop_operation_xyz
x,y,z
-x,y,-z
-x,-y,-z
x,-y,z
1/2+x,1/2+y,z
1/2-x,1/2+y,-z
1/2-x,1/2-y,-z
1/2+x,1/2-y,z
loop_
_atom_site_type_symbol
_atom_site_label
_atom_site_fract_x
_atom_site_fract_y
_atom_site_fract_z
Si Si1 0.483450 0.111533 0.808471
Si Si2 0.933224 0.194104 0.621068
Si Si3 0.403906 0.388991 0.402477
Si Si4 0.282603 0.111506 0.825224
Si Si5 0.953821 0.611434 0.534812
Si Si6 0.691851 0.305967 0.108057
Si Si7 0.912623 0.390172 0.296879
O O1 0.315291 0.126342 0.692107
O O2 0.411370 0.138202 0.833756
O O3 0.650795 0.179148 0.864600
O O4 0.555317 0.000000 0.839468
O O5 0.725376 0.162113 0.522882
O O6 0.010383 0.193530 0.596619
O O7 0.066572 0.121716 0.713722
O O8 0.941633 0.303794 0.649899
O O9 0.500000 0.373277 0.500000
O O10 0.440364 0.500000 0.396966
O O11 0.329731 0.189069 0.891734
O O12 0.318155 0.000000 0.860536
O O13 0.898689 0.500000 0.497800
O O14 0.000000 0.662475 0.500000
O O15 0.115524 0.614603 0.652310
O O16 0.733390 0.364019 0.181404
O O17 0.500000 0.347597 0.000000
O O18 0.983729 0.500000 0.313694
#
# Coordination Sequence:
#
# PCOD8094345 Si02
#       7
#     8   8   8   8   8   8   8
#     4   9  19  38  64  92 127 168 213 269 323 377
#     4  10  19  37  61  89 122 167 207 256 314 387
#     4   9  18  32  59  95 124 159 210 262 315 377
#     4   9  20  42  67  92 126 166 212 267 325 391
#     4  10  21  38  62  92 131 170 204 251 318 392
#     4  11  24  41  67  97 128 168 217 272 330 379
#     4  10  23  41  59  86 124 166 216 263 309 371
#
# _framework density 22.036296
#
# number of rings (size 3 to 8) (size 9 to 14) (size 15 to 20)
#    0.000    2.286    0.000    3.000    2.000    2.571 
#   15.429    0.000    0.000    1.286    0.000    0.000 
#    0.000    0.000    0.000    0.000    0.000    0.000 
#
# Total GULP energy -346908.338763 kJ/mol
# GULP energy per Si atom -12389.583527 kJ/mol
# Density = 2.198614 g / cm^3
# Si number density = 22.036296 Si / 1000 Ang^3
#
#
#
# Elastic Constant Matrix: (Units=GPa)
#
#
# Indices 1 2 3 4 5 6 
#
# 1 85.6949 54.2405 47.8019 -0.0001 7.7537 0.0000
# 2 54.2405 137.4993 37.5575 0.0000 6.4714 0.0000
# 3 47.8019 37.5575 133.0232 0.0007 5.4243 0.0000
# 4 -0.0001 0.0000 0.0007 19.0190 0.0001 -8.0494
# 5 7.7537 6.4714 5.4243 0.0001 23.7863 0.0000
# 6 0.0000 0.0000 0.0000 -8.0494 0.0000 30.0668
#
#
#
# Elastic Compliance Matrix: (Units=1/GPa)
#
#
# Indices 1 2 3 4 5 6 
#
# 1 0.018290 -0.005744 -0.004816 0.000000 -0.003301 0.000000
# 2 -0.005744 0.009749 -0.000663 0.000000 -0.000629 0.000000
# 3 -0.004816 -0.000663 0.009452 0.000000 -0.000405 0.000000
# 4 0.000000 0.000000 0.000000 0.059298 0.000000 0.015875
# 5 -0.003301 -0.000629 -0.000405 0.000000 0.043380 0.000000
# 6 0.000000 0.000000 0.000000 0.015875 0.000000 0.037509
#
#
# Mechanical properties :
#
#
# Convention : Reuss Voigt Hill
#
# Bulk Modulus (GPa) = 66.46686 70.60190 68.53438
# Shear Modulus (GPa) = 24.37353 29.01560 26.69457
#
# Velocity S-wave (km/s) = 3.32936 3.63260 3.48428
# Velocity P-wave (km/s) = 6.70876 7.05002 6.88151
#
# Compressibility (1/GPa) = 0.01504509
#
# Stress axis : x y z
#
# Youngs Moduli (GPa) = 54.67358 102.57061 105.79942
#
# Poissons Ratio (x) = 0.58919 0.50955
# Poissons Ratio (y) = 0.31406 0.07012
# Poissons Ratio (z) = 0.26332 0.06798
#
# Static dielectric constant tensor:
#      x y z
#    x 3.718440 0.000000 -0.214930 
#    y 0.000000 4.295010 0.000000 
#    z -0.214930 0.000000 3.871230 
# 
# 
# High freq. dielectric constant tensor:
#      x y z
#    x 1.838710 0.000000 -0.017740 
#    y 0.000000 1.885300 0.000000 
#    z -0.017740 0.000000 1.850490 
# 
# From -- ./inp_files/361482.got.cif
#   From: 2010.06.25/outbox.cif.g09.slc.cpg/sg12_181_cif.got.tgz:361482.got - 2010.06.28 00:19:55.
