data_PCOD8094415
_publ_section_title
;
Structure prediction by ZEFSAII (Michael W. Deem and Ramdas Pophale) SiO2 
 PCOD8094415
Probable space group: C 2/M
;
_chemical_formula_sum "Si O2"
_cell_formula_units_Z 64
_cell_length_a 28.306972
_cell_length_b 9.151853
_cell_length_c 18.470510
_cell_angle_alpha 90.000000
_cell_angle_beta 43.865400
_cell_angle_gamma 90.000000
_cell_volume 3315.840439
_symmetry_space_group_name_H-M "C 2/M"
_symmetry_group_IT_number 12
_symmetry_cell_setting 'monoclinic'
loop_
_space_group_symop_operation_xyz
x,y,z
-x,y,-z
-x,-y,-z
x,-y,z
1/2+x,1/2+y,z
1/2-x,1/2+y,-z
1/2-x,1/2-y,-z
1/2+x,1/2-y,z
loop_
_atom_site_type_symbol
_atom_site_label
_atom_site_fract_x
_atom_site_fract_y
_atom_site_fract_z
Si Si1 0.917248 0.167607 0.393631
Si Si2 0.550669 0.172551 0.787228
Si Si3 0.343090 0.168618 0.722319
Si Si4 0.720295 0.330078 0.963829
Si Si5 0.852872 0.673028 0.193464
Si Si6 0.300928 0.331244 0.629440
Si Si7 0.973141 0.171456 0.608227
Si Si8 0.895890 0.673000 0.987681
O O1 0.922508 0.265180 0.317368
O O2 0.841516 0.189312 0.509754
O O3 0.972596 0.219053 0.391397
O O4 0.929917 0.000000 0.358291
O O5 0.596895 0.237678 0.801027
O O6 0.473314 0.218903 0.887421
O O7 0.558059 0.000000 0.775345
O O8 0.271564 0.192642 0.840814
O O9 0.339479 0.240016 0.647670
O O10 0.402802 0.244905 0.702731
O O11 0.361479 0.000000 0.693485
O O12 0.708727 0.500000 0.994464
O O13 0.750000 0.250000 0.000000
O O14 0.648868 0.256093 0.022343
O O15 0.858350 0.500000 0.187993
O O16 0.776164 0.725327 0.295942
O O17 0.875793 0.730536 0.089594
O O18 0.302099 0.500000 0.653158
O O19 0.000000 0.220116 0.500000
O O20 0.958687 0.000000 0.626217
O O21 0.884091 0.500000 0.992868
#
# Coordination Sequence:
#
# PCOD8094415 Si02
#       8
#     8   8   8   8   8   8   8   8
#     4  10  22  38  56  84 118 155 198 237 282 345
#     4  10  22  38  58  88 120 150 192 242 294 344
#     4  11  23  37  56  86 118 146 187 242 294 338
#     4  11  25  41  58  86 121 153 190 234 288 347
#     4   9  18  36  64  89 110 147 196 244 290 344
#     4  10  19  37  63  85 112 154 201 236 279 346
#     4  10  20  37  59  81 110 153 197 229 270 340
#     4  10  20  38  64  88 115 152 195 240 288 345
#
# _framework density 19.301290999999999
#
# number of rings (size 3 to 8) (size 9 to 14) (size 15 to 20)
#    0.000    1.875    2.500    1.125    1.750    5.250 
#    0.000    1.250    0.000    1.500    0.000    0.000 
#    0.000    0.000    0.000    0.000    0.000    0.000 
#
# Total GULP energy -396923.986532 kJ/mol
# GULP energy per Si atom -12403.874579 kJ/mol
# Density = 1.925736 g / cm^3
# Si number density = 19.301291 Si / 1000 Ang^3
#
#
#
# Elastic Constant Matrix: (Units=GPa)
#
#
# Indices 1 2 3 4 5 6 
#
# 1 145.7361 40.4147 58.5476 0.0000 -1.6715 -0.0021
# 2 40.4147 50.1208 34.3686 -0.0264 -3.6968 0.0030
# 3 58.5476 34.3686 101.8698 -0.0142 -6.7564 0.0003
# 4 0.0000 -0.0264 -0.0142 31.7130 -0.0006 2.9660
# 5 -1.6715 -3.6968 -6.7564 -0.0006 35.2534 0.0030
# 6 -0.0021 0.0030 0.0003 2.9660 0.0030 25.6925
#
#
#
# Elastic Compliance Matrix: (Units=1/GPa)
#
#
# Indices 1 2 3 4 5 6 
#
# 1 0.009925 -0.005354 -0.003954 -0.000006 -0.000849 0.000002
# 2 -0.005354 0.028884 -0.006567 0.000022 0.001516 -0.000006
# 3 -0.003954 -0.006567 0.014430 0.000001 0.001889 0.000000
# 4 -0.000006 0.000022 0.000001 0.031877 0.000003 -0.003680
# 5 -0.000849 0.001516 0.001889 0.000003 0.028847 -0.000004
# 6 0.000002 -0.000006 0.000000 -0.003680 -0.000004 0.039347
#
#
# Mechanical properties :
#
#
# Convention : Reuss Voigt Hill
#
# Bulk Modulus (GPa) = 46.53696 62.70983 54.62339
# Shear Modulus (GPa) = 26.01129 29.49151 27.75140
#
# Velocity S-wave (km/s) = 3.67501 3.91315 3.79595
# Velocity P-wave (km/s) = 6.49390 7.27856 6.89740
#
# Compressibility (1/GPa) = 0.02148830
#
# Stress axis : x y z
#
# Youngs Moduli (GPa) = 100.75141 34.62094 69.30033
#
# Poissons Ratio (x) = 0.18538 0.27403
# Poissons Ratio (y) = 0.53947 0.45509
# Poissons Ratio (z) = 0.39840 0.22735
#
# Static dielectric constant tensor:
#      x y z
#    x 3.665540 -0.000020 -0.137000 
#    y -0.000020 3.309570 0.000050 
#    z -0.137000 0.000050 3.601520 
# 
# 
# High freq. dielectric constant tensor:
#      x y z
#    x 1.758660 0.000000 -0.008490 
#    y 0.000000 1.729970 0.000000 
#    z -0.008490 0.000000 1.758650 
# 
# From -- ./inp_files/295568.got.cif
#   From: 2010.06.25/outbox.cif.g09.slc.cpg/sg12_148_cif.got.tgz:295568.got - 2010.06.28 00:19:55.
