data_PCOD8094957
_publ_section_title
;
Structure prediction by ZEFSAII (Michael W. Deem and Ramdas Pophale) SiO2 
 PCOD8094957
Probable space group: C 2/M
;
_chemical_formula_sum "Si O2"
_cell_formula_units_Z 64
_cell_length_a 25.113191
_cell_length_b 9.043573
_cell_length_c 17.930522
_cell_angle_alpha 90.000000
_cell_angle_beta 103.936484
_cell_angle_gamma 90.000000
_cell_volume 3952.380552
_symmetry_space_group_name_H-M "C 2/M"
_symmetry_group_IT_number 12
_symmetry_cell_setting 'monoclinic'
loop_
_space_group_symop_operation_xyz
x,y,z
-x,y,-z
-x,-y,-z
x,-y,z
1/2+x,1/2+y,z
1/2-x,1/2+y,-z
1/2-x,1/2-y,-z
1/2+x,1/2-y,z
loop_
_atom_site_type_symbol
_atom_site_label
_atom_site_fract_x
_atom_site_fract_y
_atom_site_fract_z
Si Si1 0.311318 0.832109 0.733177
Si Si2 0.742410 0.333332 0.574123
Si Si3 0.412818 0.330484 0.996914
Si Si4 0.636666 0.830681 0.808806
Si Si5 0.803436 0.831113 0.044440
Si Si6 0.794259 0.327843 0.305338
Si Si7 0.472233 0.827100 0.147537
Si Si8 0.918126 0.825533 0.826568
O O1 0.300030 0.833058 0.639635
O O2 0.259520 0.745350 0.753143
O O3 0.367282 0.747918 0.767834
O O4 0.314155 0.000000 0.765083
O O5 0.722249 0.500000 0.551686
O O6 0.750000 0.250000 0.500000
O O7 0.696859 0.250096 0.610801
O O8 0.431650 0.500000 0.015376
O O9 0.349713 0.308290 0.997497
O O10 0.451794 0.228186 0.059922
O O11 0.418102 0.281881 0.913390
O O12 0.676680 0.730172 0.870226
O O13 0.651669 0.802526 0.727200
O O14 0.573268 0.791815 0.804275
O O15 0.648274 0.000000 0.835215
O O16 0.788252 0.000000 0.051156
O O17 0.750000 0.750000 0.000000
O O18 0.782339 0.500000 0.313598
O O19 0.526520 0.739817 0.190788
O O20 0.485242 0.000000 0.146353
O O21 0.915405 0.000000 0.813239
#
# Coordination Sequence:
#
# PCOD8094957 Si02
#       8
#     8   8   8   8   8   8   8   8
#     4   9  20  33  47  74 103 127 160 196 238 287
#     4   9  18  31  50  77 107 134 160 190 231 284
#     4   9  20  35  47  63  89 123 165 207 252 301
#     4   9  19  34  49  66  92 126 161 198 243 293
#     4  10  20  31  44  63  88 121 158 202 249 296
#     4   9  17  31  51  72  99 129 158 192 235 287
#     4  10  20  34  50  69  92 124 167 213 252 289
#     4  11  21  33  50  69  94 129 165 205 252 298
#
# _framework density 16.192772999999999
#
# number of rings (size 3 to 8) (size 9 to 14) (size 15 to 20)
#    0.750    1.750    0.000    2.250    1.750    4.500 
#    0.000    0.000    0.000    0.000    0.000    0.875 
#    0.000    7.000    0.000    0.000    0.000    0.000 
#
# Total GULP energy -396636.221522 kJ/mol
# GULP energy per Si atom -12394.881923 kJ/mol
# Density = 1.615592 g / cm^3
# Si number density = 16.192773 Si / 1000 Ang^3
#
#
#
# Elastic Constant Matrix: (Units=GPa)
#
#
# Indices 1 2 3 4 5 6 
#
# 1 83.2338 43.4195 40.9946 0.0000 -9.9940 0.0000
# 2 43.4195 107.3965 40.9618 0.0000 -9.5936 0.0000
# 3 40.9946 40.9618 63.9483 0.0000 -18.3738 0.0000
# 4 0.0000 0.0000 0.0000 27.6197 0.0000 2.1849
# 5 -9.9940 -9.5936 -18.3738 0.0000 20.0688 0.0000
# 6 0.0000 0.0000 0.0000 2.1849 0.0000 27.7389
#
#
#
# Elastic Compliance Matrix: (Units=1/GPa)
#
#
# Indices 1 2 3 4 5 6 
#
# 1 0.018795 -0.003929 -0.010018 0.000000 -0.001690 0.000000
# 2 -0.003929 0.013192 -0.006353 0.000000 -0.001466 0.000000
# 3 -0.010018 -0.006353 0.032326 0.000000 0.021571 0.000000
# 4 0.000000 0.000000 0.000000 0.036433 0.000000 -0.002870
# 5 -0.001690 -0.001466 0.021571 0.000000 0.068035 0.000000
# 6 0.000000 0.000000 0.000000 -0.002870 0.000000 0.036277
#
#
# Mechanical properties :
#
#
# Convention : Reuss Voigt Hill
#
# Bulk Modulus (GPa) = 42.16775 56.14783 49.15779
# Shear Modulus (GPa) = 19.71922 23.69899 21.70911
#
# Velocity S-wave (km/s) = 3.49346 3.82979 3.66548
# Velocity P-wave (km/s) = 6.50922 7.36928 6.95256
#
# Compressibility (1/GPa) = 0.02371480
#
# Stress axis : x y z
#
# Youngs Moduli (GPa) = 53.20621 75.80590 30.93452
#
# Poissons Ratio (x) = 0.29782 0.30989
# Poissons Ratio (y) = 0.20903 0.19651
# Poissons Ratio (z) = 0.53300 0.48156
#
# Static dielectric constant tensor:
#      x y z
#    x 3.055540 0.000000 -0.149130 
#    y 0.000000 3.222740 0.000000 
#    z -0.149130 0.000000 2.768780 
# 
# 
# High freq. dielectric constant tensor:
#      x y z
#    x 1.615110 0.000000 -0.011550 
#    y 0.000000 1.642400 0.000000 
#    z -0.011550 0.000000 1.587240 
# 
# From -- ./inp_files/323401.got.cif
#   From: 2010.06.25/outbox.cif.g09.slc.cpg/sg12_162_cif.got.tgz:323401.got - 2010.06.28 00:19:55.
