data_PCOD8094519
_publ_section_title
;
Structure prediction by ZEFSAII (Michael W. Deem and Ramdas Pophale) SiO2 
 PCOD8094519
Probable space group: C 2/M
;
_chemical_formula_sum "Si O2"
_cell_formula_units_Z 56
_cell_length_a 9.389216
_cell_length_b 26.901961
_cell_length_c 16.596879
_cell_angle_alpha 90.000000
_cell_angle_beta 41.338683
_cell_angle_gamma 90.000000
_cell_volume 2768.970054
_symmetry_space_group_name_H-M "C 2/M"
_symmetry_group_IT_number 12
_symmetry_cell_setting 'monoclinic'
loop_
_space_group_symop_operation_xyz
x,y,z
-x,y,-z
-x,-y,-z
x,-y,z
1/2+x,1/2+y,z
1/2-x,1/2+y,-z
1/2-x,1/2-y,-z
1/2+x,1/2-y,z
loop_
_atom_site_type_symbol
_atom_site_label
_atom_site_fract_x
_atom_site_fract_y
_atom_site_fract_z
Si Si1 0.215013 0.651658 0.951050
Si Si2 0.376579 0.726843 0.749402
Si Si3 0.218742 0.669583 0.444282
Si Si4 0.367943 0.598408 0.243113
Si Si5 0.222947 0.000000 0.448922
Si Si6 0.491846 0.812168 0.200250
Si Si7 0.439498 0.894274 0.340058
Si Si8 0.256557 0.500000 0.378739
O O1 0.311894 0.694261 0.853537
O O2 0.388453 0.607727 0.891737
O O3 0.165999 0.676178 0.057863
O O4 0.000000 0.629397 0.000000
O O5 0.606880 0.712475 0.611358
O O6 0.394801 0.783496 0.773188
O O7 0.197854 0.722435 0.755449
O O8 0.325543 0.636220 0.331854
O O9 0.179175 0.634529 0.537513
O O10 0.000000 0.693216 0.500000
O O11 0.344262 0.544688 0.289892
O O12 0.197114 0.604824 0.243646
O O13 0.356425 0.950708 0.368548
O O14 0.000000 0.000000 0.500000
O O15 0.147884 0.000000 0.573093
O O16 0.395667 0.864114 0.275797
O O17 0.000000 0.500000 0.500000
#
# Coordination Sequence:
#
# PCOD8094519 Si02
#       8
#     8   8   8   8   4   8   8   4
#     4   9  21  42  63  89 125 170 216 268 317 379
#     4  10  23  41  62  89 124 170 217 268 321 386
#     4   9  19  36  60  90 126 162 206 262 323 385
#     4  10  19  37  69  92 123 163 218 263 315 382
#     4  12  26  38  65  98 136 169 208 256 315 387
#     4  11  25  40  63  91 130 168 221 267 323 378
#     4  11  23  40  61  97 130 168 211 265 325 387
#     4  12  18  40  70  98 123 164 215 259 317 401
#
# _framework density 20.224126999999999
#
# number of rings (size 3 to 8) (size 9 to 14) (size 15 to 20)
#    0.000    1.714    2.857    0.857    8.000    2.286 
#    0.000    1.071    0.000    1.714    0.000    0.000 
#    0.000    0.000    0.000    0.000    0.000    0.000 
#
# Total GULP energy -347145.963517 kJ/mol
# GULP energy per Si atom -12398.070126 kJ/mol
# Density = 2.017810 g / cm^3
# Si number density = 20.224127 Si / 1000 Ang^3
#
#
#
# Elastic Constant Matrix: (Units=GPa)
#
#
# Indices 1 2 3 4 5 6 
#
# 1 104.4190 48.8416 50.7381 0.0000 -6.8720 0.0000
# 2 48.8416 100.2270 50.2086 0.0000 -9.2553 0.0000
# 3 50.7381 50.2086 97.7513 0.0000 -30.2909 0.0000
# 4 0.0000 0.0000 0.0000 38.0673 0.0000 1.8188
# 5 -6.8720 -9.2553 -30.2909 0.0000 28.1687 0.0000
# 6 0.0000 0.0000 0.0000 1.8188 0.0000 28.9866
#
#
#
# Elastic Compliance Matrix: (Units=1/GPa)
#
#
# Indices 1 2 3 4 5 6 
#
# 1 0.014601 -0.004000 -0.007241 0.000000 -0.005538 0.000000
# 2 -0.004000 0.014922 -0.006557 0.000000 -0.003123 0.000000
# 3 -0.007241 -0.006557 0.024208 0.000000 0.022111 0.000000
# 4 0.000000 0.000000 0.000000 0.026348 0.000000 -0.001653
# 5 -0.005538 -0.003123 0.022111 0.000000 0.056900 0.000000
# 6 0.000000 0.000000 0.000000 -0.001653 0.000000 0.034602
#
#
# Mechanical properties :
#
#
# Convention : Reuss Voigt Hill
#
# Bulk Modulus (GPa) = 55.13344 66.88599 61.00971
# Shear Modulus (GPa) = 23.44978 29.21847 26.33412
#
# Velocity S-wave (km/s) = 3.40883 3.80509 3.61240
# Velocity P-wave (km/s) = 6.54323 7.24218 6.90156
#
# Compressibility (1/GPa) = 0.01813781
#
# Stress axis : x y z
#
# Youngs Moduli (GPa) = 68.48626 67.01303 41.30921
#
# Poissons Ratio (x) = 0.26803 0.29911
# Poissons Ratio (y) = 0.27392 0.27084
# Poissons Ratio (z) = 0.49589 0.43937
#
# Static dielectric constant tensor:
#      x y z
#    x 3.171810 0.000000 -0.918570 
#    y 0.000000 3.655640 0.000000 
#    z -0.918570 0.000000 2.942890 
# 
# 
# High freq. dielectric constant tensor:
#      x y z
#    x 1.791600 0.000000 -0.004700 
#    y 0.000000 1.781790 0.000000 
#    z -0.004700 0.000000 1.788560 
# 
# From -- ./inp_files/259842.got.cif
#   From: 2010.06.25/outbox.cif.g09.slc.cpg/sg12_130_cif.got.tgz:259842.got - 2010.06.28 00:19:55.
