data_PCOD8094983
_publ_section_title
;
Structure prediction by ZEFSAII (Michael W. Deem and Ramdas Pophale) SiO2 
 PCOD8094983
Probable space group: C 2/M
;
_chemical_formula_sum "Si O2"
_cell_formula_units_Z 64
_cell_length_a 22.768453
_cell_length_b 9.458445
_cell_length_c 20.583644
_cell_angle_alpha 90.000000
_cell_angle_beta 58.467537
_cell_angle_gamma 90.000000
_cell_volume 3778.247730
_symmetry_space_group_name_H-M "C 2/M"
_symmetry_group_IT_number 12
_symmetry_cell_setting 'monoclinic'
loop_
_space_group_symop_operation_xyz
x,y,z
-x,y,-z
-x,-y,-z
x,-y,z
1/2+x,1/2+y,z
1/2-x,1/2+y,-z
1/2-x,1/2-y,-z
1/2+x,1/2-y,z
loop_
_atom_site_type_symbol
_atom_site_label
_atom_site_fract_x
_atom_site_fract_y
_atom_site_fract_z
Si Si1 0.433925 0.341471 0.951476
Si Si2 0.349696 0.155351 0.449132
Si Si3 0.287154 0.345718 0.389089
Si Si4 0.203132 0.666952 0.314339
Si Si5 0.915078 0.158303 0.115443
Si Si6 0.075467 0.331315 0.470709
Si Si7 0.805214 0.664836 0.009666
Si Si8 0.712660 0.836414 0.827556
O O1 0.418593 0.500000 0.933731
O O2 0.513342 0.298091 0.889989
O O3 0.425995 0.341007 0.032737
O O4 0.380760 0.230134 0.950589
O O5 0.346237 0.245564 0.384855
O O6 0.275285 0.142607 0.524609
O O7 0.400831 0.227026 0.472477
O O8 0.376358 0.000000 0.413799
O O9 0.320606 0.500000 0.360421
O O10 0.259463 0.290021 0.336183
O O11 0.204866 0.500000 0.298418
O O12 0.127731 0.714769 0.383306
O O13 0.220526 0.755445 0.239565
O O14 0.855158 0.269066 0.167073
O O15 0.893001 0.000000 0.150363
O O16 0.076377 0.500000 0.474478
O O17 0.000000 0.269648 0.500000
O O18 0.805518 0.500000 0.989686
O O19 0.786481 0.684903 0.095817
O O20 0.750000 0.750000 0.000000
O O21 0.715269 0.000000 0.806833
#
# Coordination Sequence:
#
# PCOD8094983 Si02
#       8
#     8   8   8   8   8   8   8   8
#     4   8  14  26  45  68  91 114 142 178 220 268
#     4   8  13  22  39  62  84 107 136 172 215 259
#     4   8  14  24  38  59  85 109 136 171 212 261
#     4   9  17  29  46  66  88 118 153 187 230 285
#     4   8  14  26  45  67  90 116 143 172 216 275
#     4   8  14  26  45  68  91 116 152 195 231 268
#     4  10  20  32  47  68  93 123 160 200 238 276
#     4  10  20  31  45  68  95 120 150 194 241 279
#
# _framework density 16.939069
#
# number of rings (size 3 to 8) (size 9 to 14) (size 15 to 20)
#    0.000    3.375    0.000    3.000    0.000    2.500 
#    0.000    4.375    0.000    3.000    0.000    7.000 
#    0.000    0.000    0.000    0.000    0.000    0.000 
#
# Total GULP energy -396511.480450 kJ/mol
# GULP energy per Si atom -12390.983764 kJ/mol
# Density = 1.690051 g / cm^3
# Si number density = 16.939069 Si / 1000 Ang^3
#
#
#
# Elastic Constant Matrix: (Units=GPa)
#
#
# Indices 1 2 3 4 5 6 
#
# 1 115.3610 59.5110 30.4103 0.0000 -11.4748 -0.0001
# 2 59.5110 93.2517 32.7411 0.0001 -5.5408 -0.0002
# 3 30.4103 32.7411 48.6371 0.0000 -9.3785 0.0000
# 4 0.0000 0.0001 0.0000 21.2054 0.0000 2.5024
# 5 -11.4748 -5.5408 -9.3785 0.0000 15.8569 0.0000
# 6 -0.0001 -0.0002 0.0000 2.5024 0.0000 24.1463
#
#
#
# Elastic Compliance Matrix: (Units=1/GPa)
#
#
# Indices 1 2 3 4 5 6 
#
# 1 0.013821 -0.007642 -0.002352 0.000000 0.005940 0.000000
# 2 -0.007642 0.018276 -0.008307 0.000000 -0.004057 0.000000
# 3 -0.002352 -0.008307 0.030177 0.000000 0.013243 0.000000
# 4 0.000000 0.000000 0.000000 0.047742 0.000000 -0.004948
# 5 0.005940 -0.004057 0.013243 0.000000 0.073778 0.000000
# 6 0.000000 0.000000 0.000000 -0.004948 0.000000 0.041927
#
#
# Mechanical properties :
#
#
# Convention : Reuss Voigt Hill
#
# Bulk Modulus (GPa) = 38.95266 55.84162 47.39714
# Shear Modulus (GPa) = 18.45830 21.21421 19.83626
#
# Velocity S-wave (km/s) = 3.30462 3.54274 3.42575
# Velocity P-wave (km/s) = 6.13240 7.05496 6.60980
#
# Compressibility (1/GPa) = 0.02567219
#
# Stress axis : x y z
#
# Youngs Moduli (GPa) = 72.35106 54.71632 33.13775
#
# Poissons Ratio (x) = 0.41813 0.07795
# Poissons Ratio (y) = 0.55289 0.27529
# Poissons Ratio (z) = 0.17019 0.45454
#
# Static dielectric constant tensor:
#      x y z
#    x 3.321050 0.000000 -0.088910 
#    y 0.000000 3.299570 0.000000 
#    z -0.088910 0.000000 2.926300 
# 
# 
# High freq. dielectric constant tensor:
#      x y z
#    x 1.641430 0.000000 -0.001860 
#    y 0.000000 1.641300 0.000000 
#    z -0.001860 0.000000 1.617570 
# 
# From -- ./inp_files/323655.got.cif
#   From: 2010.06.25/outbox.cif.g09.slc.cpg/sg12_162_cif.got.tgz:323655.got - 2010.06.28 00:19:55.
