data_PCOD8094374
_publ_section_title
;
Structure prediction by ZEFSAII (Michael W. Deem and Ramdas Pophale) SiO2 
 PCOD8094374
Probable space group: C 2/M
;
_chemical_formula_sum "Si O2"
_cell_formula_units_Z 56
_cell_length_a 20.255556
_cell_length_b 8.993898
_cell_length_c 27.734922
_cell_angle_alpha 90.000000
_cell_angle_beta 145.419851
_cell_angle_gamma 90.000000
_cell_volume 2867.673646
_symmetry_space_group_name_H-M "C 2/M"
_symmetry_group_IT_number 12
_symmetry_cell_setting 'monoclinic'
loop_
_space_group_symop_operation_xyz
x,y,z
-x,y,-z
-x,-y,-z
x,-y,z
1/2+x,1/2+y,z
1/2-x,1/2+y,-z
1/2-x,1/2-y,-z
1/2+x,1/2-y,z
loop_
_atom_site_type_symbol
_atom_site_label
_atom_site_fract_x
_atom_site_fract_y
_atom_site_fract_z
Si Si1 0.954094 0.828973 0.236796
Si Si2 0.303217 0.329216 0.663818
Si Si3 0.730485 0.827565 0.937767
Si Si4 0.664364 0.823548 0.215484
Si Si5 0.098382 0.823479 0.688447
Si Si6 0.525965 0.327715 0.961655
Si Si7 0.574621 0.327080 0.497253
O O1 0.884760 0.736344 0.155615
O O2 0.927821 0.762734 0.273948
O O3 0.090543 0.812430 0.309276
O O4 0.913818 0.000000 0.208953
O O5 0.283679 0.500000 0.666876
O O6 0.329677 0.235310 0.727032
O O7 0.191395 0.267977 0.568901
O O8 0.711353 0.000000 0.936358
O O9 0.750000 0.750000 0.000000
O O10 0.838911 0.798686 0.967602
O O11 0.775822 0.764333 0.252766
O O12 0.547930 0.766494 0.120472
O O13 0.662024 0.000000 0.216181
O O14 0.999440 0.766173 0.592438
O O15 0.097317 0.000000 0.686817
O O16 0.492361 0.500000 0.935205
O O17 0.500000 0.271702 0.000000
O O18 0.500000 0.299591 0.500000
O O19 0.607322 0.500000 0.511606
#
# Coordination Sequence:
#
# PCOD8094374 Si02
#       7
#     8   8   8   8   8   8   8
#     4  10  22  40  59  82 116 153 189 233 286 338
#     4  11  23  37  56  85 118 149 185 232 286 340
#     4  11  23  39  60  84 114 152 193 235 282 339
#     4  11  21  36  60  86 110 146 196 239 278 333
#     4   9  19  37  60  84 113 150 190 236 283 330
#     4  10  22  39  57  82 117 150 183 234 294 341
#     4  10  19  37  62  86 114 149 191 234 280 333
#
# _framework density 19.528023000000001
#
# number of rings (size 3 to 8) (size 9 to 14) (size 15 to 20)
#    0.000    1.714    1.429    3.000    0.000    6.857 
#    0.000    1.429    0.000    0.000    0.000    0.000 
#    0.000    0.000    0.000    0.000    0.000    0.000 
#
# Total GULP energy -347346.741318 kJ/mol
# GULP energy per Si atom -12405.240761 kJ/mol
# Density = 1.948358 g / cm^3
# Si number density = 19.528023 Si / 1000 Ang^3
#
#
#
# Elastic Constant Matrix: (Units=GPa)
#
#
# Indices 1 2 3 4 5 6 
#
# 1 88.4685 27.8388 16.6039 0.0000 -3.9955 0.0001
# 2 27.8388 70.6417 39.7994 0.0000 6.1020 0.0006
# 3 16.6039 39.7994 112.1357 0.0000 -1.5493 0.0000
# 4 0.0000 0.0000 0.0000 37.0292 0.0000 2.9196
# 5 -3.9955 6.1020 -1.5493 0.0000 35.6763 0.0000
# 6 0.0001 0.0006 0.0000 2.9196 0.0000 23.0771
#
#
#
# Elastic Compliance Matrix: (Units=1/GPa)
#
#
# Indices 1 2 3 4 5 6 
#
# 1 0.013101 -0.005368 -0.000002 0.000000 0.002385 0.000000
# 2 -0.005368 0.020291 -0.006467 0.000000 -0.004352 0.000000
# 3 -0.000002 -0.006467 0.011235 0.000000 0.001594 0.000000
# 4 0.000000 0.000000 0.000000 0.027278 0.000000 -0.003451
# 5 0.002385 -0.004352 0.001594 0.000000 0.029111 0.000000
# 6 0.000000 0.000000 0.000000 -0.003451 0.000000 0.043770
#
#
# Mechanical properties :
#
#
# Convention : Reuss Voigt Hill
#
# Bulk Modulus (GPa) = 47.72423 48.85892 48.29158
# Shear Modulus (GPa) = 28.49938 31.62342 30.06140
#
# Velocity S-wave (km/s) = 3.82437 4.02853 3.92777
# Velocity P-wave (km/s) = 6.63272 6.83468 6.73446
#
# Compressibility (1/GPa) = 0.02095372
#
# Stress axis : x y z
#
# Youngs Moduli (GPa) = 76.33227 49.28349 89.00519
#
# Poissons Ratio (x) = 0.26455 0.00015
# Poissons Ratio (y) = 0.40974 0.57559
# Poissons Ratio (z) = 0.00013 0.31871
#
# Static dielectric constant tensor:
#      x y z
#    x 3.794530 0.000000 -0.020670 
#    y 0.000000 3.447440 0.000000 
#    z -0.020670 0.000000 3.738680 
# 
# 
# High freq. dielectric constant tensor:
#      x y z
#    x 1.770830 0.000000 0.001390 
#    y 0.000000 1.747890 0.000000 
#    z 0.001390 0.000000 1.771840 
# 
# From -- ./inp_files/230983.got.cif
#   From: 2010.06.25/outbox.cif.g09.slc.cpg/sg12_116_cif.got.tgz:230983.got - 2010.06.28 00:19:55.
