data_PCOD8094378
_publ_section_title
;
Structure prediction by ZEFSAII (Michael W. Deem and Ramdas Pophale) SiO2 
 PCOD8094378
Probable space group: C 2/M
;
_chemical_formula_sum "Si O2"
_cell_formula_units_Z 56
_cell_length_a 15.008409
_cell_length_b 8.669373
_cell_length_c 22.036159
_cell_angle_alpha 90.000000
_cell_angle_beta 99.568117
_cell_angle_gamma 90.000000
_cell_volume 2827.315135
_symmetry_space_group_name_H-M "C 2/M"
_symmetry_group_IT_number 12
_symmetry_cell_setting 'monoclinic'
loop_
_space_group_symop_operation_xyz
x,y,z
-x,y,-z
-x,-y,-z
x,-y,z
1/2+x,1/2+y,z
1/2-x,1/2+y,-z
1/2-x,1/2-y,-z
1/2+x,1/2-y,z
loop_
_atom_site_type_symbol
_atom_site_label
_atom_site_fract_x
_atom_site_fract_y
_atom_site_fract_z
Si Si1 0.016851 0.181775 0.432656
Si Si2 0.162914 0.182689 0.652851
Si Si3 0.646118 0.682336 0.125781
Si Si4 0.794126 0.681877 0.564744
Si Si5 0.454272 0.179620 0.131537
Si Si6 0.818049 0.817758 0.208248
Si Si7 0.397950 0.330582 0.009709
O O1 0.933554 0.240143 0.382727
O O2 0.000000 0.230695 0.500000
O O3 0.102912 0.269021 0.416046
O O4 0.033259 0.000000 0.429658
O O5 0.241134 0.246502 0.617545
O O6 0.179592 0.243412 0.722510
O O7 0.164680 0.000000 0.652218
O O8 0.659252 0.500000 0.136041
O O9 0.547796 0.727630 0.139842
O O10 0.720928 0.775575 0.170514
O O11 0.657710 0.727360 0.055601
O O12 0.785034 0.500000 0.559431
O O13 0.750000 0.750000 0.500000
O O14 0.399286 0.230976 0.184068
O O15 0.391326 0.213538 0.065324
O O16 0.476214 0.000000 0.136891
O O17 0.833557 0.000000 0.205201
O O18 0.363769 0.500000 0.026981
O O19 0.500000 0.345383 0.000000
#
# Coordination Sequence:
#
# PCOD8094378 Si02
#       7
#     8   8   8   8   8   8   8
#     4  10  19  37  62  86 116 151 184 228 285 340
#     4   9  21  40  59  82 117 155 191 235 289 345
#     4  10  21  39  61  86 118 154 197 246 295 349
#     4  11  21  37  60  89 118 147 186 232 285 341
#     4  11  22  37  59  87 119 154 196 244 297 353
#     4  11  23  40  60  83 116 158 201 243 290 347
#     4   8  16  33  57  84 114 150 193 244 296 345
#
# _framework density 19.806775999999999
#
# number of rings (size 3 to 8) (size 9 to 14) (size 15 to 20)
#    0.000    2.000    1.429    3.429    0.000    5.143 
#    0.000    7.143    0.000    0.000    0.000    0.000 
#    0.000    0.000    0.000    0.000    0.000    0.000 
#
# Total GULP energy -347206.940861 kJ/mol
# GULP energy per Si atom -12400.247888 kJ/mol
# Density = 1.976169 g / cm^3
# Si number density = 19.806776 Si / 1000 Ang^3
#
#
#
# Elastic Constant Matrix: (Units=GPa)
#
#
# Indices 1 2 3 4 5 6 
#
# 1 82.5547 7.8709 24.1630 0.0000 -3.6471 0.0000
# 2 7.8709 54.4266 20.7338 0.0000 -5.2886 0.0000
# 3 24.1630 20.7338 102.6487 0.0000 -1.8550 0.0000
# 4 0.0000 0.0000 0.0000 21.9300 0.0000 -0.1221
# 5 -3.6471 -5.2886 -1.8550 0.0000 37.2633 0.0000
# 6 0.0000 0.0000 0.0000 -0.1221 0.0000 34.7453
#
#
#
# Elastic Compliance Matrix: (Units=1/GPa)
#
#
# Indices 1 2 3 4 5 6 
#
# 1 0.013079 -0.000677 -0.002923 0.000000 0.001039 0.000000
# 2 -0.000677 0.020200 -0.003874 0.000000 0.002608 0.000000
# 3 -0.002923 -0.003874 0.011208 0.000000 -0.000278 0.000000
# 4 0.000000 0.000000 0.000000 0.045601 0.000000 0.000160
# 5 0.001039 0.002608 -0.000278 0.000000 0.027294 0.000000
# 6 0.000000 0.000000 0.000000 0.000160 0.000000 0.028781
#
#
# Mechanical properties :
#
#
# Convention : Reuss Voigt Hill
#
# Bulk Modulus (GPa) = 33.85333 38.35170 36.10252
# Shear Modulus (GPa) = 29.24707 31.24522 30.24614
#
# Velocity S-wave (km/s) = 3.84685 3.97609 3.91200
# Velocity P-wave (km/s) = 6.07124 6.36270 6.21868
#
# Compressibility (1/GPa) = 0.02953919
#
# Stress axis : x y z
#
# Youngs Moduli (GPa) = 76.45720 49.50405 89.22577
#
# Poissons Ratio (x) = 0.03351 0.26083
# Poissons Ratio (y) = 0.05175 0.34564
# Poissons Ratio (z) = 0.22351 0.19177
#
# Static dielectric constant tensor:
#      x y z
#    x 3.810980 0.000000 0.015550 
#    y 0.000000 3.446160 0.000000 
#    z 0.015550 0.000000 3.953230 
# 
# 
# High freq. dielectric constant tensor:
#      x y z
#    x 1.775680 0.000000 -0.000050 
#    y 0.000000 1.760300 0.000000 
#    z -0.000050 0.000000 1.775460 
# 
# From -- ./inp_files/308904.got.cif
#   From: 2010.06.25/outbox.cif.g09.slc.cpg/sg12_155_cif.got.tgz:308904.got - 2010.06.28 00:19:55.
