data_PCOD8094735
_publ_section_title
;
Structure prediction by ZEFSAII (Michael W. Deem and Ramdas Pophale) SiO2 
 PCOD8094735
Probable space group: C 2/M
;
_chemical_formula_sum "Si O2"
_cell_formula_units_Z 48
_cell_length_a 19.364429
_cell_length_b 14.262303
_cell_length_c 9.821418
_cell_angle_alpha 90.000000
_cell_angle_beta 109.238352
_cell_angle_gamma 90.000000
_cell_volume 2561.016157
_symmetry_space_group_name_H-M "C 2/M"
_symmetry_group_IT_number 12
_symmetry_cell_setting 'monoclinic'
loop_
_space_group_symop_operation_xyz
x,y,z
-x,y,-z
-x,-y,-z
x,-y,z
1/2+x,1/2+y,z
1/2-x,1/2+y,-z
1/2-x,1/2-y,-z
1/2+x,1/2-y,z
loop_
_atom_site_type_symbol
_atom_site_label
_atom_site_fract_x
_atom_site_fract_y
_atom_site_fract_z
Si Si1 0.345240 0.746886 0.704368
Si Si2 0.527242 0.109184 0.166834
Si Si3 0.319476 0.291390 0.379527
Si Si4 0.415590 0.603283 0.260103
Si Si5 0.449347 0.797819 0.346914
Si Si6 0.917123 0.106229 0.952652
O O1 0.400803 0.833716 0.744376
O O2 0.341219 0.702932 0.551754
O O3 0.266211 0.783218 0.699139
O O4 0.366352 0.666363 0.822477
O O5 0.460495 0.135288 0.224663
O O6 0.546328 0.000000 0.190287
O O7 0.500000 0.136983 0.000000
O O8 0.346700 0.385261 0.318594
O O9 0.364084 0.203411 0.339037
O O10 0.451627 0.500000 0.305096
O O11 0.472954 0.688762 0.325811
O O12 0.387001 0.613009 0.086785
O O13 0.500000 0.836439 0.500000
O O14 0.915190 0.000000 0.896739
O O15 0.000000 0.144809 0.000000
#
# Coordination Sequence:
#
# PCOD8094735 Si02
#       6
#     8   8   8   8   8   8
#     4  11  20  41  59  82 121 153 194 239 289 350
#     4  11  23  39  62  87 112 154 202 242 287 341
#     4   9  23  36  58  86 116 154 194 232 294 343
#     4   9  19  35  55  84 116 145 187 232 285 341
#     4  10  19  39  57  84 117 149 195 239 287 337
#     4  10  21  35  58  88 115 150 188 233 291 347
#
# _framework density 18.742559
#
# number of rings (size 3 to 8) (size 9 to 14) (size 15 to 20)
#    1.000    1.000    1.667    2.500    0.000    2.667 
#    0.000    3.333    0.000    0.000    0.000    0.000 
#    0.000    0.000    0.000    0.000    0.000    0.000 
#
# Total GULP energy -297406.927717 kJ/mol
# GULP energy per Si atom -12391.955322 kJ/mol
# Density = 1.869990 g / cm^3
# Si number density = 18.742559 Si / 1000 Ang^3
#
#
#
# Elastic Constant Matrix: (Units=GPa)
#
#
# Indices 1 2 3 4 5 6 
#
# 1 76.5557 11.8779 34.9773 0.0000 -7.7294 0.0000
# 2 11.8779 67.8150 41.3207 0.0000 -2.0392 0.0000
# 3 34.9773 41.3207 110.7195 0.0000 -11.5915 0.0000
# 4 0.0000 0.0000 0.0000 13.0006 0.0000 -6.0040
# 5 -7.7294 -2.0392 -11.5915 0.0000 31.2083 0.0000
# 6 0.0000 0.0000 0.0000 -6.0040 0.0000 22.6187
#
#
#
# Elastic Compliance Matrix: (Units=1/GPa)
#
#
# Indices 1 2 3 4 5 6 
#
# 1 0.015399 0.000255 -0.004743 0.000000 0.002069 0.000000
# 2 0.000255 0.019154 -0.007378 0.000000 -0.001426 0.000000
# 3 -0.004743 -0.007378 0.013641 0.000000 0.003410 0.000000
# 4 0.000000 0.000000 0.000000 0.087667 0.000000 0.023271
# 5 0.002069 -0.001426 0.003410 0.000000 0.033728 0.000000
# 6 0.000000 0.000000 0.000000 0.023271 0.000000 0.050388
#
#
# Mechanical properties :
#
#
# Convention : Reuss Voigt Hill
#
# Bulk Modulus (GPa) = 40.88117 47.93800 44.40958
# Shear Modulus (GPa) = 19.85204 24.49314 22.17259
#
# Velocity S-wave (km/s) = 3.25806 3.61892 3.44322
# Velocity P-wave (km/s) = 6.00105 6.56466 6.28917
#
# Compressibility (1/GPa) = 0.02446114
#
# Stress axis : x y z
#
# Youngs Moduli (GPa) = 64.94018 52.20821 73.30947
#
# Poissons Ratio (x) = -0.01333 0.34773
# Poissons Ratio (y) = -0.01658 0.54089
# Poissons Ratio (z) = 0.30803 0.38520
#
# Static dielectric constant tensor:
#      x y z
#    x 3.391060 0.000000 -0.247740 
#    y 0.000000 3.278460 0.000000 
#    z -0.247740 0.000000 3.496480 
# 
# 
# High freq. dielectric constant tensor:
#      x y z
#    x 1.713620 0.000000 -0.023590 
#    y 0.000000 1.712590 0.000000 
#    z -0.023590 0.000000 1.738640 
# 
# From -- ./inp_files/85956.got.cif
#   From: 2010.06.25/outbox.cif.g09.slc.cpg/sg12_43_cif.got.tgz:85956.got - 2010.06.28 00:19:55.
