data_PCOD8094130
_publ_section_title
;
Structure prediction by ZEFSAII (Michael W. Deem and Ramdas Pophale) SiO2 
 PCOD8094130
Probable space group: C 2/M
;
_chemical_formula_sum "Si O2"
_cell_formula_units_Z 48
_cell_length_a 14.109319
_cell_length_b 13.557638
_cell_length_c 14.694323
_cell_angle_alpha 90.000000
_cell_angle_beta 52.391482
_cell_angle_gamma 90.000000
_cell_volume 2226.762596
_symmetry_space_group_name_H-M "C 2/M"
_symmetry_group_IT_number 12
_symmetry_cell_setting 'monoclinic'
loop_
_space_group_symop_operation_xyz
x,y,z
-x,y,-z
-x,-y,-z
x,-y,z
1/2+x,1/2+y,z
1/2-x,1/2+y,-z
1/2-x,1/2-y,-z
1/2+x,1/2-y,z
loop_
_atom_site_type_symbol
_atom_site_label
_atom_site_fract_x
_atom_site_fract_y
_atom_site_fract_z
Si Si1 0.770985 0.891786 0.313168
Si Si2 0.395604 0.232146 0.132577
Si Si3 0.017615 0.891775 0.675237
Si Si4 0.686249 0.270960 0.131815
Si Si5 0.001107 0.386302 0.241003
Si Si6 0.872792 0.285086 0.469291
O O1 0.847558 0.838577 0.191120
O O2 0.652684 0.828715 0.414289
O O3 0.855770 0.903627 0.350504
O O4 0.730270 0.000000 0.302122
O O5 0.281759 0.185257 0.147582
O O6 0.437484 0.164471 0.191175
O O7 0.500000 0.250113 0.000000
O O8 0.920061 0.852350 0.806555
O O9 0.034140 0.808510 0.585953
O O10 0.979246 0.000000 0.659026
O O11 0.627765 0.164848 0.190749
O O12 0.750000 0.250000 0.000000
O O13 0.021859 0.500000 0.205666
O O14 0.918598 0.373527 0.377727
O O15 0.750000 0.250000 0.500000
#
# Coordination Sequence:
#
# PCOD8094130 Si02
#       6
#     8   8   8   8   8   8
#     4  10  19  36  64  93 120 160 207 251 308 377
#     4  12  23  41  65  90 129 165 208 262 315 372
#     4   9  18  34  59  86 117 157 203 248 304 364
#     4  11  22  41  61  86 128 168 207 263 315 368
#     4  11  23  41  64  96 128 168 212 258 317 379
#     4   9  16  36  63  91 123 162 201 257 312 366
#
# _framework density 21.555958
#
# number of rings (size 3 to 8) (size 9 to 14) (size 15 to 20)
#    0.000    1.667    6.667    0.500    0.000    3.333 
#    0.000    3.333    0.000    6.000    0.000    0.000 
#    0.000    0.000    0.000    0.000    0.000    0.000 
#
# Total GULP energy -297314.951161 kJ/mol
# GULP energy per Si atom -12388.122965 kJ/mol
# Density = 2.150690 g / cm^3
# Si number density = 21.555958 Si / 1000 Ang^3
#
#
#
# Elastic Constant Matrix: (Units=GPa)
#
#
# Indices 1 2 3 4 5 6 
#
# 1 50.3353 3.4452 9.2763 0.0000 -6.9918 0.0000
# 2 3.4452 167.7556 62.1001 0.0000 -11.5264 0.0000
# 3 9.2763 62.1001 132.2047 0.0000 -21.7533 0.0000
# 4 0.0000 0.0000 0.0000 18.4525 0.0000 -2.5965
# 5 -6.9918 -11.5264 -21.7533 0.0000 23.7019 0.0000
# 6 0.0000 0.0000 0.0000 -2.5965 0.0000 17.9905
#
#
#
# Elastic Compliance Matrix: (Units=1/GPa)
#
#
# Indices 1 2 3 4 5 6 
#
# 1 0.020752 0.000190 -0.000616 0.000000 0.005649 0.000000
# 2 0.000190 0.007222 -0.003320 0.000000 0.000521 0.000000
# 3 -0.000616 -0.003320 0.010449 0.000000 0.007794 0.000000
# 4 0.000000 0.000000 0.000000 0.055316 0.000000 0.007984
# 5 0.005649 0.000521 0.007794 0.000000 0.051264 0.000000
# 6 0.000000 0.000000 0.000000 0.007984 0.000000 0.056737
#
#
# Mechanical properties :
#
#
# Convention : Reuss Voigt Hill
#
# Bulk Modulus (GPa) = 32.32971 55.54875 43.93923
# Shear Modulus (GPa) = 22.77466 30.39392 26.58429
#
# Velocity S-wave (km/s) = 3.25397 3.75907 3.51560
# Velocity P-wave (km/s) = 5.39892 6.68329 6.07514
#
# Compressibility (1/GPa) = 0.03093130
#
# Stress axis : x y z
#
# Youngs Moduli (GPa) = 48.18834 138.46709 95.70173
#
# Poissons Ratio (x) = -0.02630 0.05894
# Poissons Ratio (y) = -0.00915 0.31772
# Poissons Ratio (z) = 0.02968 0.45970
#
# Static dielectric constant tensor:
#      x y z
#    x 3.844140 0.000000 -0.142090 
#    y 0.000000 5.143070 0.000000 
#    z -0.142090 0.000000 3.828280 
# 
# 
# High freq. dielectric constant tensor:
#      x y z
#    x 1.827640 0.000000 -0.020340 
#    y 0.000000 1.837660 0.000000 
#    z -0.020340 0.000000 1.855800 
# 
# From -- ./inp_files/214641.got.cif
#   From: 2010.06.25/outbox.cif.g09.slc.cpg/sg12_108_cif.got.tgz:214641.got - 2010.06.28 00:19:55.
