data_PCOD8094288
_publ_section_title
;
Structure prediction by ZEFSAII (Michael W. Deem and Ramdas Pophale) SiO2 
 PCOD8094288
Probable space group: C 2/M
;
_chemical_formula_sum "Si O2"
_cell_formula_units_Z 60
_cell_length_a 11.343074
_cell_length_b 22.519173
_cell_length_c 16.460798
_cell_angle_alpha 90.000000
_cell_angle_beta 45.164508
_cell_angle_gamma 90.000000
_cell_volume 2981.689843
_symmetry_space_group_name_H-M "C 2/M"
_symmetry_group_IT_number 12
_symmetry_cell_setting 'monoclinic'
loop_
_space_group_symop_operation_xyz
x,y,z
-x,y,-z
-x,-y,-z
x,-y,z
1/2+x,1/2+y,z
1/2-x,1/2+y,-z
1/2-x,1/2-y,-z
1/2+x,1/2-y,z
loop_
_atom_site_type_symbol
_atom_site_label
_atom_site_fract_x
_atom_site_fract_y
_atom_site_fract_z
Si Si1 0.172145 0.864180 0.098641
Si Si2 0.398159 0.568074 0.314609
Si Si3 0.888619 0.567217 0.674668
Si Si4 0.182878 0.884190 0.909638
Si Si5 0.405104 0.721094 0.166696
Si Si6 0.296808 0.150378 0.486871
Si Si7 0.500000 0.185305 0.000000
Si Si8 0.687898 0.734667 0.410873
O O1 0.076691 0.919179 0.186885
O O2 0.037104 0.810764 0.162228
O O3 0.239584 0.876091 0.974900
O O4 0.331109 0.852853 0.078349
O O5 0.394351 0.500000 0.343682
O O6 0.256537 0.583377 0.317407
O O7 0.359965 0.608479 0.412460
O O8 0.953419 0.500000 0.631320
O O9 0.815604 0.573617 0.801123
O O10 0.036752 0.612155 0.586113
O O11 0.169681 0.822034 0.866509
O O12 0.000000 0.914400 0.000000
O O13 0.254475 0.750452 0.289247
O O14 0.503956 0.774709 0.078177
O O15 0.297499 0.205411 0.546272
O O16 0.284281 0.178048 0.402682
O O17 0.500000 0.713119 0.500000
#
# Coordination Sequence:
#
# PCOD8094288 Si02
#       8
#     8   8   8   8   8   8   4   8
#     4  11  23  41  58  95 121 163 210 250 302 375
#     4  11  22  41  66  88 121 162 208 259 309 363
#     4  11  22  37  63  92 122 160 202 256 311 361
#     4  10  19  37  60  87 129 154 203 256 301 360
#     4  11  21  39  61  93 125 164 200 251 307 366
#     4  11  23  39  60  92 126 158 202 252 305 370
#     4  12  26  36  67  86 129 170 200 244 310 376
#     4  11  24  38  63  91 126 161 198 247 307 373
#
# _framework density 20.122817999999999
#
# number of rings (size 3 to 8) (size 9 to 14) (size 15 to 20)
#    0.000    1.067    6.000    2.800    3.733    1.867 
#    0.000    0.333    0.000    3.200    0.000    0.000 
#    0.000    0.000    0.000    0.000    0.000    0.000 
#
# Total GULP energy -371978.785860 kJ/mol
# GULP energy per Si atom -12399.292862 kJ/mol
# Density = 2.007702 g / cm^3
# Si number density = 20.122818 Si / 1000 Ang^3
#
#
#
# Elastic Constant Matrix: (Units=GPa)
#
#
# Indices 1 2 3 4 5 6 
#
# 1 57.9439 34.0134 19.3090 0.0004 -14.3377 -0.0003
# 2 34.0134 99.4345 39.1935 0.0007 -8.1269 -0.0004
# 3 19.3090 39.1935 114.5165 -0.0017 1.2157 0.0000
# 4 0.0004 0.0007 -0.0017 19.5513 0.0014 -9.1642
# 5 -14.3377 -8.1269 1.2157 0.0014 29.1681 -0.0001
# 6 -0.0003 -0.0004 0.0000 -9.1642 -0.0001 19.3282
#
#
#
# Elastic Compliance Matrix: (Units=1/GPa)
#
#
# Indices 1 2 3 4 5 6 
#
# 1 0.024378 -0.006755 -0.001906 -0.000001 0.010180 0.000000
# 2 -0.006755 0.013846 -0.003607 -0.000001 0.000687 0.000000
# 3 -0.001906 -0.003607 0.010313 0.000002 -0.002372 0.000001
# 4 -0.000001 -0.000001 0.000002 0.065762 -0.000004 0.031180
# 5 0.010180 0.000687 -0.002372 -0.000004 0.039579 -0.000001
# 6 0.000000 0.000000 0.000001 0.031180 -0.000001 0.066522
#
#
# Mechanical properties :
#
#
# Convention : Reuss Voigt Hill
#
# Bulk Modulus (GPa) = 41.66778 50.76963 46.21870
# Shear Modulus (GPa) = 19.76777 25.56812 22.66795
#
# Velocity S-wave (km/s) = 3.13766 3.56842 3.35995
# Velocity P-wave (km/s) = 5.82050 6.50099 6.17013
#
# Compressibility (1/GPa) = 0.02399936
#
# Stress axis : x y z
#
# Youngs Moduli (GPa) = 41.02088 72.22520 96.96054
#
# Poissons Ratio (x) = 0.48791 0.18485
# Poissons Ratio (y) = 0.27711 0.34973
# Poissons Ratio (z) = 0.07820 0.26051
#
# Static dielectric constant tensor:
#      x y z
#    x 3.389010 0.000000 0.123470 
#    y 0.000000 3.603350 0.000000 
#    z 0.123470 0.000000 3.937440 
# 
# 
# High freq. dielectric constant tensor:
#      x y z
#    x 1.747030 0.000000 0.003200 
#    y 0.000000 1.772620 0.000000 
#    z 0.003200 0.000000 1.806370 
# 
# From -- ./inp_files/265253.got.cif
#   From: 2010.06.25/outbox.cif.g09.slc.cpg/sg12_133_cif.got.tgz:265253.got - 2010.06.28 00:19:55.
