data_PCOD8094344
_publ_section_title
;
Structure prediction by ZEFSAII (Michael W. Deem and Ramdas Pophale) SiO2 
 PCOD8094344
Probable space group: C 2/M
;
_chemical_formula_sum "Si O2"
_cell_formula_units_Z 56
_cell_length_a 27.452077
_cell_length_b 17.825380
_cell_length_c 8.914081
_cell_angle_alpha 90.000000
_cell_angle_beta 139.092969
_cell_angle_gamma 90.000000
_cell_volume 2856.416360
_symmetry_space_group_name_H-M "C 2/M"
_symmetry_group_IT_number 12
_symmetry_cell_setting 'monoclinic'
loop_
_space_group_symop_operation_xyz
x,y,z
-x,y,-z
-x,-y,-z
x,-y,z
1/2+x,1/2+y,z
1/2-x,1/2+y,-z
1/2-x,1/2-y,-z
1/2+x,1/2-y,z
loop_
_atom_site_type_symbol
_atom_site_label
_atom_site_fract_x
_atom_site_fract_y
_atom_site_fract_z
Si Si1 0.442033 0.916223 0.732343
Si Si2 0.057338 0.832716 0.008761
Si Si3 0.148211 0.084376 0.981718
Si Si4 0.703019 0.689401 0.535136
Si Si5 0.529041 0.783336 0.399735
Si Si6 0.715665 0.141577 0.539865
Si Si7 0.821874 0.200972 0.206969
O O1 0.472223 0.868235 0.663197
O O2 0.367649 0.882632 0.629317
O O3 0.428400 0.000000 0.640099
O O4 0.500000 0.915378 0.000000
O O5 0.020017 0.765900 0.828105
O O6 0.083764 0.896188 0.952781
O O7 0.128159 0.801724 0.263314
O O8 0.000000 0.865633 0.000000
O O9 0.229578 0.085895 0.244794
O O10 0.132852 0.000000 0.887233
O O11 0.147338 0.143634 0.844434
O O12 0.733176 0.773677 0.634914
O O13 0.763992 0.639071 0.590359
O O14 0.693106 0.652415 0.676229
O O15 0.500000 0.779937 0.500000
O O16 0.614192 0.758765 0.599108
O O17 0.750000 0.250000 0.000000
#
# Coordination Sequence:
#
# PCOD8094344 Si02
#       7
#     8   8   8   8   8   8   8
#     4  11  23  39  61  91 128 166 202 251 313 369
#     4  11  21  39  65  92 121 157 213 253 304 362
#     4  11  24  40  60  90 129 164 198 253 318 370
#     4  10  20  34  66  94 113 156 211 256 290 355
#     4  12  23  39  65  91 123 162 208 262 302 361
#     4  10  19  37  61  89 120 157 203 255 297 356
#     4  12  22  39  61  94 122 163 209 249 302 366
#
# _framework density 19.604984999999999
#
# number of rings (size 3 to 8) (size 9 to 14) (size 15 to 20)
#    0.000    1.000    5.714    1.714    0.000    1.714 
#    0.000    5.000    0.000    1.714    0.000    0.000 
#    0.000    0.000    0.000    0.000    0.000    0.000 
#
# Total GULP energy -347106.222545 kJ/mol
# GULP energy per Si atom -12396.650805 kJ/mol
# Density = 1.956036 g / cm^3
# Si number density = 19.604985 Si / 1000 Ang^3
#
#
#
# Elastic Constant Matrix: (Units=GPa)
#
#
# Indices 1 2 3 4 5 6 
#
# 1 118.0608 16.4117 36.1884 0.0000 -16.6050 0.0000
# 2 16.4117 92.1755 26.1451 0.0000 -8.2102 0.0000
# 3 36.1884 26.1451 77.4678 0.0000 -5.0379 0.0000
# 4 0.0000 0.0000 0.0000 13.6949 0.0000 -3.3680
# 5 -16.6050 -8.2102 -5.0379 0.0000 36.9664 0.0000
# 6 0.0000 0.0000 0.0000 -3.3680 0.0000 23.2714
#
#
#
# Elastic Compliance Matrix: (Units=1/GPa)
#
#
# Indices 1 2 3 4 5 6 
#
# 1 0.010463 -0.000212 -0.004554 0.000000 0.004032 0.000000
# 2 -0.000212 0.012170 -0.003873 0.000000 0.002080 0.000000
# 3 -0.004554 -0.003873 0.016299 0.000000 -0.000685 0.000000
# 4 0.000000 0.000000 0.000000 0.075715 0.000000 0.010958
# 5 0.004032 0.002080 -0.000685 0.000000 0.029231 0.000000
# 6 0.000000 0.000000 0.000000 0.010958 0.000000 0.044557
#
#
# Mechanical properties :
#
#
# Convention : Reuss Voigt Hill
#
# Bulk Modulus (GPa) = 46.18160 49.46607 47.82383
# Shear Modulus (GPa) = 23.48178 28.71712 26.09945
#
# Velocity S-wave (km/s) = 3.46460 3.83141 3.65261
# Velocity P-wave (km/s) = 6.29379 6.69769 6.49888
#
# Compressibility (1/GPa) = 0.02165365
#
# Stress axis : x y z
#
# Youngs Moduli (GPa) = 95.57830 82.16592 61.35533
#
# Poissons Ratio (x) = 0.01742 0.27940
# Poissons Ratio (y) = 0.02027 0.23764
# Poissons Ratio (z) = 0.43524 0.31824
#
# Static dielectric constant tensor:
#      x y z
#    x 4.151340 0.000000 -0.088210 
#    y 0.000000 3.430800 0.000000 
#    z -0.088210 0.000000 3.611590 
# 
# 
# High freq. dielectric constant tensor:
#      x y z
#    x 1.787500 0.000000 0.001790 
#    y 0.000000 1.733570 0.000000 
#    z 0.001790 0.000000 1.768200 
# 
# From -- ./inp_files/106056.got.cif
#   From: 2010.06.25/outbox.cif.g09.slc.cpg/sg12_54_cif.got.tgz:106056.got - 2010.06.28 00:19:55.
