data_PCOD8094081
_publ_section_title
;
Structure prediction by ZEFSAII (Michael W. Deem and Ramdas Pophale) SiO2 
 PCOD8094081
Probable space group: C 2/M
;
_chemical_formula_sum "Si O2"
_cell_formula_units_Z 64
_cell_length_a 15.251472
_cell_length_b 9.832194
_cell_length_c 29.290080
_cell_angle_alpha 90.000000
_cell_angle_beta 133.374201
_cell_angle_gamma 90.000000
_cell_volume 3192.624592
_symmetry_space_group_name_H-M "C 2/M"
_symmetry_group_IT_number 12
_symmetry_cell_setting 'monoclinic'
loop_
_space_group_symop_operation_xyz
x,y,z
-x,y,-z
-x,-y,-z
x,-y,z
1/2+x,1/2+y,z
1/2-x,1/2+y,-z
1/2-x,1/2-y,-z
1/2+x,1/2-y,z
loop_
_atom_site_type_symbol
_atom_site_label
_atom_site_fract_x
_atom_site_fract_y
_atom_site_fract_z
Si Si1 0.575878 0.157134 0.628859
Si Si2 0.115576 0.150917 0.100004
Si Si3 0.211537 0.159559 0.353978
Si Si4 0.817942 0.348647 0.236975
Si Si5 0.532854 0.656058 0.771505
Si Si6 0.344564 0.334205 0.563351
Si Si7 0.405267 0.146076 0.039434
Si Si8 0.800710 0.250309 0.092173
O O1 0.656623 0.209625 0.615125
O O2 0.668955 0.161578 0.704290
O O3 0.473232 0.269991 0.596813
O O4 0.526906 0.000000 0.605342
O O5 0.179296 0.177540 0.171829
O O6 0.216699 0.166390 0.096942
O O7 0.000056 0.246204 0.053796
O O8 0.061966 0.000000 0.077712
O O9 0.183868 0.209051 0.395050
O O10 0.106379 0.205783 0.280886
O O11 0.218570 0.000000 0.355963
O O12 0.855722 0.500000 0.233409
O O13 0.901528 0.237808 0.244347
O O14 0.542864 0.500000 0.760411
O O15 0.592565 0.674780 0.842382
O O16 0.341786 0.500000 0.554562
O O17 0.250000 0.250000 0.500000
O O18 0.369125 0.157893 0.079542
O O19 0.467634 0.000000 0.055484
O O20 0.283988 0.146631 0.965715
#
# Coordination Sequence:
#
# PCOD8094081 Si02
#       8
#     8   8   8   8   8   8   8   8
#     4  10  20  38  63  90 122 159 198 243 291 350
#     4  10  22  39  60  85 115 157 201 245 304 371
#     4   9  20  37  62  91 121 157 199 243 293 353
#     4   9  19  35  58  87 121 154 193 243 303 360
#     4  10  19  36  63  88 115 153 203 251 298 354
#     4  11  23  42  65  93 127 163 200 241 290 346
#     4  11  24  40  58  85 118 154 202 255 308 362
#     4  10  23  39  60  83 117 158 199 250 308 366
#
# _framework density 20.046202000000001
#
# number of rings (size 3 to 8) (size 9 to 14) (size 15 to 20)
#    0.000    2.000    1.250    1.500    1.750    7.500 
#    0.000    4.375    0.000    0.000    0.000    0.000 
#    0.000    0.000    0.000    0.000    0.000    0.000 
#
# Total GULP energy -396520.472168 kJ/mol
# GULP energy per Si atom -12391.264755 kJ/mol
# Density = 2.000058 g / cm^3
# Si number density = 20.046202 Si / 1000 Ang^3
#
#
#
# Elastic Constant Matrix: (Units=GPa)
#
#
# Indices 1 2 3 4 5 6 
#
# 1 119.6153 48.3904 57.0355 0.0000 2.9964 0.0000
# 2 48.3904 112.0303 39.7936 0.0000 4.4829 0.0000
# 3 57.0355 39.7936 117.3987 0.0000 4.2186 0.0000
# 4 0.0000 0.0000 0.0000 20.4055 0.0000 9.8907
# 5 2.9964 4.4829 4.2186 0.0000 12.4711 0.0000
# 6 0.0000 0.0000 0.0000 9.8907 0.0000 24.6432
#
#
#
# Elastic Compliance Matrix: (Units=1/GPa)
#
#
# Indices 1 2 3 4 5 6 
#
# 1 0.011999 -0.003537 -0.004629 0.000000 -0.000046 0.000000
# 2 -0.003537 0.011269 -0.002011 0.000000 -0.002521 0.000000
# 3 -0.004629 -0.002011 0.011523 0.000000 -0.002063 0.000000
# 4 0.000000 0.000000 0.000000 0.060843 0.000000 -0.024420
# 5 -0.000046 -0.002521 -0.002063 0.000000 0.081800 0.000000
# 6 0.000000 0.000000 0.000000 -0.024420 0.000000 0.050380
#
#
# Mechanical properties :
#
#
# Convention : Reuss Voigt Hill
#
# Bulk Modulus (GPa) = 69.26492 71.05370 70.15931
# Shear Modulus (GPa) = 19.76435 25.09227 22.42831
#
# Velocity S-wave (km/s) = 3.14337 3.54181 3.34852
# Velocity P-wave (km/s) = 6.91390 7.22826 7.07283
#
# Compressibility (1/GPa) = 0.01443732
#
# Stress axis : x y z
#
# Youngs Moduli (GPa) = 83.33737 88.73886 86.78551
#
# Poissons Ratio (x) = 0.31386 0.40174
# Poissons Ratio (y) = 0.29476 0.17451
# Poissons Ratio (z) = 0.38578 0.17844
#
# Static dielectric constant tensor:
#      x y z
#    x 4.127410 0.000000 -0.106030 
#    y 0.000000 3.571200 0.000000 
#    z -0.106030 0.000000 4.110490 
# 
# 
# High freq. dielectric constant tensor:
#      x y z
#    x 1.777470 0.000000 -0.001210 
#    y 0.000000 1.770230 0.000000 
#    z -0.001210 0.000000 1.793720 
# 
# From -- ./inp_files/375558.got.cif
#   From: 2010.06.25/outbox.cif.g09.slc.cpg/sg12_188_cif.got.tgz:375558.got - 2010.06.28 00:19:55.
