data_PCOD8094162
_publ_section_title
;
Structure prediction by ZEFSAII (Michael W. Deem and Ramdas Pophale) SiO2 
 PCOD8094162
Probable space group: C 2/M
;
_chemical_formula_sum "Si O2"
_cell_formula_units_Z 56
_cell_length_a 19.151539
_cell_length_b 26.505009
_cell_length_c 15.783917
_cell_angle_alpha 90.000000
_cell_angle_beta 158.116837
_cell_angle_gamma 90.000000
_cell_volume 2986.231175
_symmetry_space_group_name_H-M "C 2/M"
_symmetry_group_IT_number 12
_symmetry_cell_setting 'monoclinic'
loop_
_space_group_symop_operation_xyz
x,y,z
-x,y,-z
-x,-y,-z
x,-y,z
1/2+x,1/2+y,z
1/2-x,1/2+y,-z
1/2-x,1/2-y,-z
1/2+x,1/2-y,z
loop_
_atom_site_type_symbol
_atom_site_label
_atom_site_fract_x
_atom_site_fract_y
_atom_site_fract_z
Si Si1 0.870995 0.721747 0.709478
Si Si2 0.319059 0.442487 0.516343
Si Si3 0.457200 0.706973 0.542486
Si Si4 0.232475 0.774663 0.072673
Si Si5 0.534870 0.889152 0.866691
Si Si6 0.212350 0.941662 0.714933
Si Si7 0.863850 0.867975 0.121349
O O1 0.750000 0.750000 0.500000
O O2 0.755938 0.719821 0.669058
O O3 0.936139 0.665369 0.759004
O O4 0.060753 0.753136 0.934782
O O5 0.374068 0.500000 0.592877
O O6 0.275035 0.429181 0.369419
O O7 0.492133 0.410421 0.747532
O O8 0.125214 0.428275 0.343518
O O9 0.500000 0.679926 0.500000
O O10 0.573510 0.759429 0.664322
O O11 0.533718 0.669466 0.699036
O O12 0.250000 0.750000 0.000000
O O13 0.206795 0.834981 0.038087
O O14 0.639201 0.905400 0.071180
O O15 0.686047 0.893894 0.963151
O O16 0.000000 0.929657 0.500000
O O17 0.263719 0.000000 0.792866
#
# Coordination Sequence:
#
# PCOD8094162 Si02
#       7
#     8   8   8   8   8   8   8
#     4  12  20  36  56  73 102 140 177 218 272 320
#     4  11  23  35  48  70  99 137 182 224 264 304
#     4  11  23  34  53  81 108 134 180 229 259 309
#     4  10  19  37  53  75 100 136 177 212 269 323
#     4  12  21  31  52  71  90 137 182 218 260 314
#     4  10  21  35  47  63  99 139 174 224 270 297
#     4  11  21  35  55  71 103 141 179 217 265 316
#
# _framework density 18.752735000000001
#
# number of rings (size 3 to 8) (size 9 to 14) (size 15 to 20)
#    0.000    1.000    8.571    0.857    2.000    3.429 
#    0.000    0.000    0.000    0.000    0.000    0.000 
#    0.000    0.571    0.000   11.000    0.000    8.143 
#
# Total GULP energy -346979.094611 kJ/mol
# GULP energy per Si atom -12392.110522 kJ/mol
# Density = 1.871005 g / cm^3
# Si number density = 18.752735 Si / 1000 Ang^3
#
#
#
# Elastic Constant Matrix: (Units=GPa)
#
#
# Indices 1 2 3 4 5 6 
#
# 1 42.9117 -4.2695 12.2510 -0.0001 28.9666 -0.0001
# 2 -4.2695 79.7578 32.7991 0.0000 -0.7085 0.0000
# 3 12.2510 32.7991 82.7782 -0.0001 33.2450 -0.0003
# 4 -0.0001 0.0000 -0.0001 30.0343 -0.0001 4.7535
# 5 28.9666 -0.7085 33.2450 -0.0001 37.6946 -0.0002
# 6 -0.0001 0.0000 -0.0003 4.7535 -0.0002 22.5766
#
#
#
# Elastic Compliance Matrix: (Units=1/GPa)
#
#
# Indices 1 2 3 4 5 6 
#
# 1 0.058868 -0.004590 0.017512 0.000000 -0.060768 0.000000
# 2 -0.004590 0.017351 -0.011990 0.000000 0.014428 0.000000
# 3 0.017512 -0.011990 0.030559 0.000000 -0.040634 0.000000
# 4 0.000000 0.000000 0.000000 0.034443 0.000000 -0.007252
# 5 -0.060768 0.014428 -0.040634 0.000000 0.109336 0.000000
# 6 0.000000 0.000000 0.000000 -0.007252 0.000000 0.045821
#
#
# Mechanical properties :
#
#
# Convention : Reuss Voigt Hill
#
# Bulk Modulus (GPa) = 9.20463 31.88988 20.54726
# Shear Modulus (GPa) = 15.11815 29.03891 22.07853
#
# Velocity S-wave (km/s) = 2.84242 3.93939 3.43498
# Velocity P-wave (km/s) = 3.96125 6.14281 5.16844
#
# Compressibility (1/GPa) = 0.10864096
#
# Stress axis : x y z
#
# Youngs Moduli (GPa) = 16.98720 57.63253 32.72350
#
# Poissons Ratio (x) = 0.26454 -0.57305
# Poissons Ratio (y) = 0.07797 0.39237
# Poissons Ratio (z) = -0.29748 0.69104
#
# Static dielectric constant tensor:
#      x y z
#    x 3.864320 0.000000 0.577570 
#    y 0.000000 3.749390 0.000000 
#    z 0.577570 0.000000 4.396610 
# 
# 
# High freq. dielectric constant tensor:
#      x y z
#    x 1.687050 0.000000 0.048410 
#    y 0.000000 1.724770 0.000000 
#    z 0.048410 0.000000 1.731890 
# 
# From -- ./inp_files/286637.got.cif
#   From: 2010.06.25/outbox.cif.g09.slc.cpg/sg12_144_cif.got.tgz:286637.got - 2010.06.28 00:19:55.
