data_PCOD8094446
_publ_section_title
;
Structure prediction by ZEFSAII (Michael W. Deem and Ramdas Pophale) SiO2 
 PCOD8094446
Probable space group: C 2/M
;
_chemical_formula_sum "Si O2"
_cell_formula_units_Z 28
_cell_length_a 9.615776
_cell_length_b 21.467086
_cell_length_c 10.592311
_cell_angle_alpha 90.000000
_cell_angle_beta 141.130444
_cell_angle_gamma 90.000000
_cell_volume 1372.132691
_symmetry_space_group_name_H-M "C 2/M"
_symmetry_group_IT_number 12
_symmetry_cell_setting 'monoclinic'
loop_
_space_group_symop_operation_xyz
x,y,z
-x,y,-z
-x,-y,-z
x,-y,z
1/2+x,1/2+y,z
1/2-x,1/2+y,-z
1/2-x,1/2-y,-z
1/2+x,1/2-y,z
loop_
_atom_site_type_symbol
_atom_site_label
_atom_site_fract_x
_atom_site_fract_y
_atom_site_fract_z
Si Si1 0.740111 0.000000 0.331634
Si Si2 0.000000 0.602248 0.000000
Si Si3 0.312857 0.321444 0.041774
Si Si4 0.744234 0.000000 0.629726
Si Si5 0.248916 0.131450 0.280545
O O1 0.627723 0.060973 0.192936
O O2 0.000000 0.000000 0.500000
O O3 0.710999 0.000000 0.458247
O O4 0.186286 0.644513 0.065734
O O5 0.582080 0.324217 0.242705
O O6 0.250000 0.250000 0.000000
O O7 0.252572 0.355045 0.868503
O O8 0.500000 0.000000 0.500000
O O9 0.854105 0.937350 0.762562
O O10 0.500000 0.141630 0.500000
#
# Coordination Sequence:
#
# PCOD8094446 Si02
#       5
#     4   4   8   4   8
#     4  11  23  38  60  92 124 153 193 247 306 363
#     4  11  22  38  62  90 124 159 190 248 312 343
#     4  11  24  41  60  88 123 160 205 243 285 356
#     4  10  19  37  63  90 115 146 197 246 295 357
#     4  10  22  41  65  89 117 157 200 247 298 351
#
# _framework density 20.406189000000001
#
# number of rings (size 3 to 8) (size 9 to 14) (size 15 to 20)
#    0.000    1.429    0.000    6.857    0.000    5.714 
#    0.000    5.714    0.000    0.000    0.000    0.000 
#    0.000    0.000    0.000    0.000    0.000    0.000 
#
# Total GULP energy -173490.975541 kJ/mol
# GULP energy per Si atom -12392.212539 kJ/mol
# Density = 2.035974 g / cm^3
# Si number density = 20.406189 Si / 1000 Ang^3
#
#
#
# Elastic Constant Matrix: (Units=GPa)
#
#
# Indices 1 2 3 4 5 6 
#
# 1 175.1123 64.6188 58.0839 0.0000 -0.2664 0.0000
# 2 64.6188 167.1098 58.4652 0.0000 -8.7438 0.0000
# 3 58.0839 58.4652 103.6129 0.0000 0.1445 0.0000
# 4 0.0000 0.0000 0.0000 20.2070 0.0000 4.2090
# 5 -0.2664 -8.7438 0.1445 0.0000 55.2716 0.0000
# 6 0.0000 0.0000 0.0000 4.2090 0.0000 38.9362
#
#
#
# Elastic Compliance Matrix: (Units=1/GPa)
#
#
# Indices 1 2 3 4 5 6 
#
# 1 0.007411 -0.001775 -0.003152 0.000000 -0.000237 0.000000
# 2 -0.001775 0.007960 -0.003498 0.000000 0.001260 0.000000
# 3 -0.003152 -0.003498 0.013393 0.000000 -0.000604 0.000000
# 4 0.000000 0.000000 0.000000 0.050628 0.000000 -0.005473
# 5 -0.000237 0.001260 -0.000604 0.000000 0.018292 0.000000
# 6 0.000000 0.000000 0.000000 -0.005473 0.000000 0.026275
#
#
# Mechanical properties :
#
#
# Convention : Reuss Voigt Hill
#
# Bulk Modulus (GPa) = 83.94423 89.79675 86.87049
# Shear Modulus (GPa) = 34.53457 40.52744 37.53100
#
# Velocity S-wave (km/s) = 4.11829 4.46133 4.29324
# Velocity P-wave (km/s) = 7.98998 8.40465 8.19994
#
# Compressibility (1/GPa) = 0.01191267
#
# Stress axis : x y z
#
# Youngs Moduli (GPa) = 134.93474 125.62186 74.66361
#
# Poissons Ratio (x) = 0.22300 0.23538
# Poissons Ratio (y) = 0.23953 0.26120
# Poissons Ratio (z) = 0.42538 0.43947
#
# Static dielectric constant tensor:
#      x y z
#    x 4.223200 0.000000 0.314080 
#    y 0.000000 3.804710 0.000000 
#    z 0.314080 0.000000 3.827150 
# 
# 
# High freq. dielectric constant tensor:
#      x y z
#    x 1.825790 0.000000 0.003910 
#    y 0.000000 1.803540 0.000000 
#    z 0.003910 0.000000 1.792750 
# 
# From -- ./inp_files/38120.got.cif
#   From: 2010.06.25/outbox.cif.g09.slc.cpg/sg12_20_cif.got.tgz:38120.got - 2010.06.28 00:19:55.
