data_PCOD8094481
_publ_section_title
;
Structure prediction by ZEFSAII (Michael W. Deem and Ramdas Pophale) SiO2 
 PCOD8094481
Probable space group: C 2/M
;
_chemical_formula_sum "Si O2"
_cell_formula_units_Z 48
_cell_length_a 18.040102
_cell_length_b 16.256920
_cell_length_c 18.138552
_cell_angle_alpha 90.000000
_cell_angle_beta 28.189222
_cell_angle_gamma 90.000000
_cell_volume 2512.904278
_symmetry_space_group_name_H-M "C 2/M"
_symmetry_group_IT_number 12
_symmetry_cell_setting 'monoclinic'
loop_
_space_group_symop_operation_xyz
x,y,z
-x,y,-z
-x,-y,-z
x,-y,z
1/2+x,1/2+y,z
1/2-x,1/2+y,-z
1/2-x,1/2-y,-z
1/2+x,1/2-y,z
loop_
_atom_site_type_symbol
_atom_site_label
_atom_site_fract_x
_atom_site_fract_y
_atom_site_fract_z
Si Si1 0.332380 0.326421 0.768240
Si Si2 0.640813 0.282775 0.825571
Si Si3 0.364913 0.094969 0.558096
Si Si4 0.416665 0.221146 0.385061
Si Si5 0.040753 0.500000 0.847842
Si Si6 0.743761 0.500000 0.213229
Si Si7 0.540930 0.828424 0.127109
O O1 0.268152 0.267905 0.760230
O O2 0.505557 0.295996 0.638006
O O3 0.356090 0.418847 0.717807
O O4 0.215492 0.324661 0.940857
O O5 0.710529 0.364500 0.728339
O O6 0.579534 0.223520 0.815786
O O7 0.500000 0.313720 0.000000
O O8 0.500000 0.103327 0.500000
O O9 0.406152 0.141169 0.446050
O O10 0.330244 0.000000 0.569568
O O11 0.250000 0.250000 0.500000
O O12 0.539279 0.202787 0.212089
O O13 0.208052 0.500000 0.743082
O O14 0.025732 0.420566 0.810115
O O15 0.903344 0.500000 0.027936
#
# Coordination Sequence:
#
# PCOD8094481 Si02
#       7
#     8   8   8   8   4   4   8
#     4  10  20  37  60  87 121 154 196 232 285 356
#     4  10  19  37  65  88 114 154 196 242 290 345
#     4  11  24  43  62  81 113 157 203 246 289 342
#     4  12  24  39  59  82 119 160 192 241 297 343
#     4   9  16  30  59  91 122 142 183 235 289 352
#     4   9  16  32  59  93 117 146 182 240 290 339
#     4  10  20  35  59  91 120 154 189 236 290 352
#
# _framework density 19.101403999999999
#
# number of rings (size 3 to 8) (size 9 to 14) (size 15 to 20)
#    0.000    1.667    5.000    0.500    1.167    0.333 
#    1.500    0.000    0.000    2.000    0.000    0.000 
#    0.000    0.000    0.000    0.000    0.000    0.000 
#
# Total GULP energy -297596.382408 kJ/mol
# GULP energy per Si atom -12399.849267 kJ/mol
# Density = 1.905793 g / cm^3
# Si number density = 19.101404 Si / 1000 Ang^3
#
#
#
# Elastic Constant Matrix: (Units=GPa)
#
#
# Indices 1 2 3 4 5 6 
#
# 1 89.5330 42.3397 30.3003 -0.0017 -9.3291 0.0017
# 2 42.3397 131.0370 37.9997 -0.0007 -15.4399 0.0024
# 3 30.3003 37.9997 57.2699 -0.0020 -1.8708 -0.0104
# 4 -0.0017 -0.0007 -0.0020 22.2542 -0.0018 11.3158
# 5 -9.3291 -15.4399 -1.8708 -0.0018 36.0237 0.0083
# 6 0.0017 0.0024 -0.0104 11.3158 0.0083 4.8437
#
#
#
# Elastic Compliance Matrix: (Units=1/GPa)
#
#
# Indices 1 2 3 4 5 6 
#
# 1 0.014709 -0.002780 -0.005862 -0.000059 0.002313 0.000117
# 2 -0.002780 0.010504 -0.005384 -0.000059 0.003502 0.000115
# 3 -0.005862 -0.005384 0.024051 0.000158 -0.002577 -0.000308
# 4 -0.000059 -0.000059 0.000158 -0.239137 -0.000172 0.558670
# 5 0.002313 0.003502 -0.002577 -0.000172 0.029726 0.000344
# 6 0.000117 0.000115 -0.000308 0.558670 0.000344 -1.098705
#
#
# Mechanical properties :
#
#
# Convention : Reuss Voigt Hill
#
# Bulk Modulus (GPa) = 47.14512 55.45769 51.30141
# Shear Modulus (GPa) = -4.08586 23.77100 9.84257
#
# Velocity S-wave (km/s) = -1.46413 3.53152 2.27244
# Velocity P-wave (km/s) = 4.67727 6.76204 5.81386
#
# Compressibility (1/GPa) = 0.02121110
#
# Stress axis : x y z
#
# Youngs Moduli (GPa) = 67.98773 95.20406 41.57879
#
# Poissons Ratio (x) = 0.26468 0.24372
# Poissons Ratio (y) = 0.18901 0.22387
# Poissons Ratio (z) = 0.39853 0.51259
#
# Static dielectric constant tensor:
#      x y z
#    x 3.500890 -0.000010 0.159780 
#    y -0.000010 3.601030 0.000000 
#    z 0.159780 0.000000 3.457240 
# 
# 
# High freq. dielectric constant tensor:
#      x y z
#    x 1.744160 0.000000 0.005780 
#    y 0.000000 1.745000 0.000000 
#    z 0.005780 0.000000 1.732330 
# 
# From -- ./inp_files/271820.got.cif
#   From: 2010.06.25/outbox.cif.g09.slc.cpg/sg12_136_cif.got.tgz:271820.got - 2010.06.28 00:19:55.
