data_PCOD8094522
_publ_section_title
;
Structure prediction by ZEFSAII (Michael W. Deem and Ramdas Pophale) SiO2 
 PCOD8094522
Probable space group: C 2/M
;
_chemical_formula_sum "Si O2"
_cell_formula_units_Z 32
_cell_length_a 9.100793
_cell_length_b 13.050009
_cell_length_c 22.247851
_cell_angle_alpha 90.000000
_cell_angle_beta 153.359571
_cell_angle_gamma 90.000000
_cell_volume 1184.769716
_symmetry_space_group_name_H-M "C 2/M"
_symmetry_group_IT_number 12
_symmetry_cell_setting 'monoclinic'
loop_
_space_group_symop_operation_xyz
x,y,z
-x,y,-z
-x,-y,-z
x,-y,z
1/2+x,1/2+y,z
1/2-x,1/2+y,-z
1/2-x,1/2-y,-z
1/2+x,1/2-y,z
loop_
_atom_site_type_symbol
_atom_site_label
_atom_site_fract_x
_atom_site_fract_y
_atom_site_fract_z
Si Si1 0.292526 0.293403 0.282290
Si Si2 0.763735 0.615045 0.544169
Si Si3 0.421120 0.877845 0.037088
Si Si4 0.286961 0.387324 0.864430
O O1 0.623389 0.345191 0.429336
O O2 0.399627 0.173965 0.312479
O O3 0.203475 0.347069 0.186976
O O4 0.008459 0.309950 0.228503
O O5 0.500000 0.627796 0.500000
O O6 0.877746 0.500000 0.575991
O O7 0.388904 0.000000 0.025288
O O8 0.500000 0.832952 0.000000
O O9 0.056477 0.831712 0.918893
O O10 0.150765 0.500000 0.792124
O O11 0.500000 0.413106 0.000000
#
# Coordination Sequence:
#
# PCOD8094522 Si02
#       4
#     8   8   8   8
#     4  10  19  37  70 103 138 182 237 293 351 419
#     4  10  22  41  68 101 137 185 242 295 349 412
#     4   9  17  32  63 111 155 187 229 289 354 419
#     4   8  14  28  58 100 142 185 230 280 345 418
#
# _framework density 27.009467999999998
#
# number of rings (size 3 to 8) (size 9 to 14) (size 15 to 20)
#    0.000    2.750    0.000    3.750    0.000    0.000 
#    0.000    5.000    0.000   64.500    0.000   14.000 
#    0.000    0.000    0.000    0.000    0.000    0.000 
#
# Total GULP energy -198401.100480 kJ/mol
# GULP energy per Si atom -12400.068780 kJ/mol
# Density = 2.694799 g / cm^3
# Si number density = 27.009468 Si / 1000 Ang^3
#
#
#
# Elastic Constant Matrix: (Units=GPa)
#
#
# Indices 1 2 3 4 5 6 
#
# 1 176.7035 40.0686 52.9419 -0.0005 14.0667 0.0005
# 2 40.0686 132.4757 38.5598 -0.0019 35.7061 0.0003
# 3 52.9419 38.5598 155.0720 -0.0005 -9.2534 -0.0009
# 4 -0.0005 -0.0019 -0.0005 97.2765 -0.0016 14.7235
# 5 14.0667 35.7061 -9.2534 -0.0016 53.0789 0.0000
# 6 0.0005 0.0003 -0.0009 14.7235 0.0000 33.4595
#
#
#
# Elastic Compliance Matrix: (Units=1/GPa)
#
#
# Indices 1 2 3 4 5 6 
#
# 1 0.006632 -0.001004 -0.002101 0.000000 -0.001448 0.000000
# 2 -0.001004 0.010636 -0.002741 0.000000 -0.007366 0.000000
# 3 -0.002101 -0.002741 0.008075 0.000000 0.003809 0.000000
# 4 0.000000 0.000000 0.000000 0.011014 0.000000 -0.004846
# 5 -0.001448 -0.007366 0.003809 0.000000 0.024843 0.000000
# 6 0.000000 0.000000 0.000000 -0.004846 0.000000 0.032020
#
#
# Mechanical properties :
#
#
# Convention : Reuss Voigt Hill
#
# Bulk Modulus (GPa) = 73.26222 80.82129 77.04175
# Shear Modulus (GPa) = 45.67863 58.94170 52.31016
#
# Velocity S-wave (km/s) = 4.11689 4.67654 4.40561
# Velocity P-wave (km/s) = 7.05563 7.69079 7.38005
#
# Compressibility (1/GPa) = 0.01364960
#
# Stress axis : x y z
#
# Youngs Moduli (GPa) = 150.79388 94.02356 123.84216
#
# Poissons Ratio (x) = 0.09439 0.26017
# Poissons Ratio (y) = 0.15138 0.33951
# Poissons Ratio (z) = 0.31679 0.25776
#
# Static dielectric constant tensor:
#      x y z
#    x 5.498240 0.000000 -0.038770 
#    y 0.000000 5.040150 -0.000030 
#    z -0.038770 -0.000030 5.321940 
# 
# 
# High freq. dielectric constant tensor:
#      x y z
#    x 2.075990 0.000000 -0.024070 
#    y 0.000000 2.108390 0.000000 
#    z -0.024070 0.000000 2.113690 
# 
# From -- ./inp_files/333055.got.cif
#   From: 2010.06.25/outbox.cif.g09.slc.cpg/sg12_167_cif.got.tgz:333055.got - 2010.06.28 00:19:55.
