data_PCOD8094210
_publ_section_title
;
Structure prediction by ZEFSAII (Michael W. Deem and Ramdas Pophale) SiO2 
 PCOD8094210
Probable space group: C 2/M
;
_chemical_formula_sum "Si O2"
_cell_formula_units_Z 48
_cell_length_a 11.445375
_cell_length_b 22.554911
_cell_length_c 19.460429
_cell_angle_alpha 90.000000
_cell_angle_beta 149.216735
_cell_angle_gamma 90.000000
_cell_volume 2571.088412
_symmetry_space_group_name_H-M "C 2/M"
_symmetry_group_IT_number 12
_symmetry_cell_setting 'monoclinic'
loop_
_space_group_symop_operation_xyz
x,y,z
-x,y,-z
-x,-y,-z
x,-y,z
1/2+x,1/2+y,z
1/2-x,1/2+y,-z
1/2-x,1/2-y,-z
1/2+x,1/2-y,z
loop_
_atom_site_type_symbol
_atom_site_label
_atom_site_fract_x
_atom_site_fract_y
_atom_site_fract_z
Si Si1 0.960791 0.934671 0.381742
Si Si2 0.444650 0.331557 0.121993
Si Si3 0.330393 0.567849 0.851399
Si Si4 0.040061 0.700578 0.175237
Si Si5 0.231621 0.626091 0.150631
Si Si6 0.652404 0.889886 0.338618
O O1 0.157045 0.888251 0.504643
O O2 0.878106 0.924771 0.261861
O O3 0.741956 0.931362 0.321625
O O4 0.068019 0.000000 0.440087
O O5 0.593656 0.386181 0.169151
O O6 0.586823 0.270635 0.195694
O O7 0.383203 0.344526 0.169120
O O8 0.223593 0.319526 0.963382
O O9 0.338904 0.500000 0.827588
O O10 0.077637 0.583000 0.748027
O O11 0.500000 0.575456 0.000000
O O12 0.179771 0.675419 0.181597
O O13 0.122680 0.675676 0.290915
O O14 0.000000 0.599512 0.000000
#
# Coordination Sequence:
#
# PCOD8094210 Si02
#       6
#     8   8   8   8   8   8
#     4  10  20  36  61  82 113 156 193 238 284 339
#     4  10  20  35  56  84 116 154 184 236 298 342
#     4  11  22  34  55  87 121 153 192 238 286 342
#     4   9  19  34  59  81 113 149 197 240 282 343
#     4   9  20  36  54  84 110 143 193 241 286 344
#     4  10  19  37  58  86 110 151 198 240 276 337
#
# _framework density 18.669136000000002
#
# number of rings (size 3 to 8) (size 9 to 14) (size 15 to 20)
#    0.000    2.167    1.667    2.000    2.333    1.667 
#    0.000    1.667    7.333    2.000    0.000    0.000 
#    0.000    0.000    0.000    0.000    0.000    0.000 
#
# Total GULP energy -297500.968018 kJ/mol
# GULP energy per Si atom -12395.873667 kJ/mol
# Density = 1.862664 g / cm^3
# Si number density = 18.669136 Si / 1000 Ang^3
#
#
#
# Elastic Constant Matrix: (Units=GPa)
#
#
# Indices 1 2 3 4 5 6 
#
# 1 80.5948 50.6971 52.4042 0.0261 4.6312 -0.0028
# 2 50.6971 139.3502 50.0767 0.0303 -2.2059 0.0016
# 3 52.4042 50.0767 104.1169 0.1505 -10.5466 0.0034
# 4 0.0261 0.0303 0.1505 23.7483 0.0254 0.0464
# 5 4.6312 -2.2059 -10.5466 0.0254 34.0887 -0.0061
# 6 -0.0028 0.0016 0.0034 0.0464 -0.0061 20.2889
#
#
#
# Elastic Compliance Matrix: (Units=1/GPa)
#
#
# Indices 1 2 3 4 5 6 
#
# 1 0.021762 -0.004660 -0.009334 0.000048 -0.006146 0.000003
# 2 -0.004660 0.009692 -0.002259 0.000006 0.000561 -0.000001
# 3 -0.009334 -0.002259 0.016005 -0.000095 0.006074 -0.000002
# 4 0.000048 0.000006 -0.000095 0.042109 -0.000067 -0.000096
# 5 -0.006146 0.000561 0.006074 -0.000067 0.032086 0.000008
# 6 0.000003 -0.000001 -0.000002 -0.000096 0.000008 0.049288
#
#
# Mechanical properties :
#
#
# Convention : Reuss Voigt Hill
#
# Bulk Modulus (GPa) = 66.88405 70.04643 68.46524
# Shear Modulus (GPa) = 23.98853 27.01745 25.50299
#
# Velocity S-wave (km/s) = 3.58848 3.80830 3.70002
# Velocity P-wave (km/s) = 7.28515 7.54579 7.41661
#
# Compressibility (1/GPa) = 0.01495125
#
# Stress axis : x y z
#
# Youngs Moduli (GPa) = 45.95246 103.17439 62.48116
#
# Poissons Ratio (x) = 0.48079 0.58322
# Poissons Ratio (y) = 0.21414 0.14117
# Poissons Ratio (z) = 0.42894 0.23311
#
# Static dielectric constant tensor:
#      x y z
#    x 3.344380 -0.000010 -0.023440 
#    y -0.000010 3.499580 -0.000070 
#    z -0.023440 -0.000070 3.483560 
# 
# 
# High freq. dielectric constant tensor:
#      x y z
#    x 1.717340 0.000000 -0.000250 
#    y 0.000000 1.717530 -0.000010 
#    z -0.000250 -0.000010 1.715760 
# 
# From -- ./inp_files/134528.got.cif
#   From: 2010.06.25/outbox.cif.g09.slc.cpg/sg12_68_cif.got.tgz:134528.got - 2010.06.28 00:19:55.
