data_PCOD8094109
_publ_section_title
;
Structure prediction by ZEFSAII (Michael W. Deem and Ramdas Pophale) SiO2 
 PCOD8094109
Probable space group: C 2/M
;
_chemical_formula_sum "Si O2"
_cell_formula_units_Z 64
_cell_length_a 17.933891
_cell_length_b 14.220947
_cell_length_c 14.371038
_cell_angle_alpha 90.000000
_cell_angle_beta 53.797684
_cell_angle_gamma 90.000000
_cell_volume 2957.539192
_symmetry_space_group_name_H-M "C 2/M"
_symmetry_group_IT_number 12
_symmetry_cell_setting 'monoclinic'
loop_
_space_group_symop_operation_xyz
x,y,z
-x,y,-z
-x,-y,-z
x,-y,z
1/2+x,1/2+y,z
1/2-x,1/2+y,-z
1/2-x,1/2-y,-z
1/2+x,1/2-y,z
loop_
_atom_site_type_symbol
_atom_site_label
_atom_site_fract_x
_atom_site_fract_y
_atom_site_fract_z
Si Si1 0.442334 0.892790 0.264728
Si Si2 0.641396 0.110636 0.175599
Si Si3 0.736047 0.609579 0.747011
Si Si4 0.402465 0.771670 0.115245
Si Si5 0.600404 0.388688 0.313326
Si Si6 0.767949 0.643765 0.511949
Si Si7 0.226286 0.388193 0.922334
Si Si8 0.598657 0.603443 0.518493
O O1 0.537541 0.850608 0.236772
O O2 0.409459 0.826873 0.206352
O O3 0.364108 0.892809 0.401255
O O4 0.456052 0.000000 0.218748
O O5 0.684360 0.146174 0.241056
O O6 0.633177 0.000000 0.185716
O O7 0.710236 0.140969 0.041232
O O8 0.710767 0.500000 0.782918
O O9 0.645882 0.671993 0.830482
O O10 0.774583 0.624227 0.615617
O O11 0.351525 0.839902 0.081777
O O12 0.500000 0.745295 0.000000
O O13 0.609688 0.500000 0.295694
O O14 0.673377 0.347591 0.184397
O O15 0.495754 0.350130 0.369916
O O16 0.629574 0.351975 0.396264
O O17 0.750000 0.750000 0.500000
O O18 0.679904 0.592327 0.532567
O O19 0.216623 0.500000 0.915510
O O20 0.564882 0.500000 0.515296
#
# Coordination Sequence:
#
# PCOD8094109 Si02
#       8
#     8   8   8   8   8   8   8   8
#     4  11  22  42  72 104 134 169 217 279 347 400
#     4   9  21  42  67  95 132 177 224 269 326 399
#     4  11  26  49  67  89 133 184 231 274 318 392
#     4  12  24  41  67 103 137 174 222 277 336 395
#     4   8  16  31  57  90 124 164 208 252 320 393
#     4  12  24  42  65  96 131 169 220 278 333 394
#     4  10  19  36  64 101 138 173 216 274 338 395
#     4   9  17  34  57  86 124 164 207 263 322 386
#
# _framework density 21.639612
#
# number of rings (size 3 to 8) (size 9 to 14) (size 15 to 20)
#    0.000    1.750    2.500    3.000    0.000    2.750 
#    4.500    1.875    0.000    0.000    0.000    0.000 
#    0.000    0.000    0.000    0.000    0.000    0.000 
#
# Total GULP energy -396629.597579 kJ/mol
# GULP energy per Si atom -12394.674924 kJ/mol
# Density = 2.159036 g / cm^3
# Si number density = 21.639612 Si / 1000 Ang^3
#
#
#
# Elastic Constant Matrix: (Units=GPa)
#
#
# Indices 1 2 3 4 5 6 
#
# 1 148.0585 25.2084 95.8513 0.0000 5.2941 0.0000
# 2 25.2084 72.4570 19.2226 0.0000 2.4281 0.0000
# 3 95.8513 19.2226 149.9616 0.0000 1.7627 0.0000
# 4 0.0000 0.0000 0.0000 24.9824 0.0000 3.9077
# 5 5.2941 2.4281 1.7627 0.0000 39.9605 0.0000
# 6 0.0000 0.0000 0.0000 3.9077 0.0000 -25.3915
#
#
#
# Elastic Compliance Matrix: (Units=1/GPa)
#
#
# Indices 1 2 3 4 5 6 
#
# 1 0.011897 -0.002161 -0.007314 0.000000 -0.001122 0.000000
# 2 -0.002161 0.014705 -0.000497 0.000000 -0.000585 0.000000
# 3 -0.007314 -0.000497 0.011401 0.000000 0.000496 0.000000
# 4 0.000000 0.000000 0.000000 0.039087 0.000000 0.006015
# 5 -0.001122 -0.000585 0.000496 0.000000 0.025187 0.000000
# 6 0.000000 0.000000 0.000000 0.006015 0.000000 -0.038458
#
#
# Mechanical properties :
#
#
# Convention : Reuss Voigt Hill
#
# Bulk Modulus (GPa) = 55.37382 72.33796 63.85589
# Shear Modulus (GPa) = 55.68946 23.25660 39.47303
#
# Velocity S-wave (km/s) = 5.07847 3.28185 4.27559
# Velocity P-wave (km/s) = 7.74806 6.91822 7.34487
#
# Compressibility (1/GPa) = 0.01805908
#
# Stress axis : x y z
#
# Youngs Moduli (GPa) = 84.05268 68.00619 87.70972
#
# Poissons Ratio (x) = 0.14697 0.64153
# Poissons Ratio (y) = 0.18165 0.04356
# Poissons Ratio (z) = 0.61478 0.03378
#
# Static dielectric constant tensor:
#      x y z
#    x 3.894810 0.000000 -0.442580 
#    y 0.000000 3.787460 0.000000 
#    z -0.442580 0.000000 4.730990 
# 
# 
# High freq. dielectric constant tensor:
#      x y z
#    x 1.851250 0.000000 -0.005380 
#    y 0.000000 1.841730 0.000000 
#    z -0.005380 0.000000 1.858850 
# 
# From -- ./inp_files/225710.got.cif
#   From: 2010.06.25/outbox.cif.g09.slc.cpg/sg12_113_cif.got.tgz:225710.got - 2010.06.28 00:19:55.
