data_PCOD8094119
_publ_section_title
;
Structure prediction by ZEFSAII (Michael W. Deem and Ramdas Pophale) SiO2 
 PCOD8094119
Probable space group: C 2/M
;
_chemical_formula_sum "Si O2"
_cell_formula_units_Z 56
_cell_length_a 25.187673
_cell_length_b 8.740088
_cell_length_c 14.506009
_cell_angle_alpha 90.000000
_cell_angle_beta 119.541280
_cell_angle_gamma 90.000000
_cell_volume 2778.250446
_symmetry_space_group_name_H-M "C 2/M"
_symmetry_group_IT_number 12
_symmetry_cell_setting 'monoclinic'
loop_
_space_group_symop_operation_xyz
x,y,z
-x,y,-z
-x,-y,-z
x,-y,z
1/2+x,1/2+y,z
1/2-x,1/2+y,-z
1/2-x,1/2-y,-z
1/2+x,1/2-y,z
loop_
_atom_site_type_symbol
_atom_site_label
_atom_site_fract_x
_atom_site_fract_y
_atom_site_fract_z
Si Si1 0.426951 0.821526 0.690803
Si Si2 0.511938 0.677748 0.616140
Si Si3 0.260810 0.681324 0.782402
Si Si4 0.350951 0.679628 0.221599
Si Si5 0.851273 0.818905 0.014999
Si Si6 0.297466 0.680885 0.611417
Si Si7 0.013990 0.173567 0.905449
O O1 0.463942 0.777255 0.631423
O O2 0.364380 0.729267 0.638146
O O3 0.465209 0.779847 0.813962
O O4 0.412120 0.000000 0.677274
O O5 0.500000 0.712281 0.500000
O O6 0.502549 0.500000 0.632336
O O7 0.579823 0.731395 0.701019
O O8 0.262509 0.500000 0.786459
O O9 0.192108 0.736260 0.742125
O O10 0.282888 0.742187 0.702018
O O11 0.304873 0.751029 0.899880
O O12 0.344034 0.500000 0.231240
O O13 0.331314 0.728430 0.101120
O O14 0.919138 0.756023 0.054377
O O15 0.852957 0.000000 0.005344
O O16 0.292083 0.500000 0.603849
O O17 0.250000 0.750000 0.500000
O O18 0.009534 0.000000 0.862149
O O19 0.000000 0.174693 0.000000
#
# Coordination Sequence:
#
# PCOD8094119 Si02
#       7
#     8   8   8   8   8   8   8
#     4  12  25  41  63  94 129 162 202 258 316 372
#     4  10  22  41  65  92 121 162 209 256 312 374
#     4  10  22  39  61  89 121 158 202 250 302 365
#     4  10  20  36  60  90 124 159 199 248 303 365
#     4   9  17  34  58  87 121 157 200 242 295 365
#     4  11  25  45  66  89 120 162 210 258 311 370
#     4  10  19  36  64  90 120 166 213 255 304 368
#
# _framework density 20.156569999999999
#
# number of rings (size 3 to 8) (size 9 to 14) (size 15 to 20)
#    0.000    1.714    1.429    3.000    2.000    4.571 
#    0.000    0.714    0.000    0.000    0.000    0.000 
#    0.000    0.000    0.000    0.000    0.000    0.000 
#
# Total GULP energy -347300.320874 kJ/mol
# GULP energy per Si atom -12403.582888 kJ/mol
# Density = 2.011069 g / cm^3
# Si number density = 20.156570 Si / 1000 Ang^3
#
#
#
# Elastic Constant Matrix: (Units=GPa)
#
#
# Indices 1 2 3 4 5 6 
#
# 1 131.9611 26.9105 63.9121 0.0000 12.8694 0.0000
# 2 26.9105 40.8983 28.6154 0.0000 -6.8304 0.0000
# 3 63.9121 28.6154 145.3849 0.0000 -5.4435 0.0000
# 4 0.0000 0.0000 0.0000 28.4326 0.0000 1.7400
# 5 12.8694 -6.8304 -5.4435 0.0000 21.0168 0.0000
# 6 0.0000 0.0000 0.0000 1.7400 0.0000 32.1416
#
#
#
# Elastic Compliance Matrix: (Units=1/GPa)
#
#
# Indices 1 2 3 4 5 6 
#
# 1 0.012129 -0.006683 -0.004419 0.000000 -0.010743 0.000000
# 2 -0.006683 0.033380 -0.003103 0.000000 0.014137 0.000000
# 3 -0.004419 -0.003103 0.009588 0.000000 0.004181 0.000000
# 4 0.000000 0.000000 0.000000 0.035288 0.000000 -0.001910
# 5 -0.010743 0.014137 0.004181 0.000000 0.059837 0.000000
# 6 0.000000 0.000000 0.000000 -0.001910 0.000000 0.031216
#
#
# Mechanical properties :
#
#
# Convention : Reuss Voigt Hill
#
# Bulk Modulus (GPa) = 37.47038 61.90227 49.68632
# Shear Modulus (GPa) = 22.85791 29.57194 26.21493
#
# Velocity S-wave (km/s) = 3.37117 3.83444 3.61025
# Velocity P-wave (km/s) = 5.81232 7.09798 6.48708
#
# Compressibility (1/GPa) = 0.02668775
#
# Stress axis : x y z
#
# Youngs Moduli (GPa) = 82.44923 29.95781 104.29668
#
# Poissons Ratio (x) = 0.20021 0.46086
# Poissons Ratio (y) = 0.55102 0.32362
# Poissons Ratio (z) = 0.36432 0.09295
#
# Static dielectric constant tensor:
#      x y z
#    x 4.041250 0.000000 0.177660 
#    y 0.000000 3.393500 0.000000 
#    z 0.177660 0.000000 3.996020 
# 
# 
# High freq. dielectric constant tensor:
#      x y z
#    x 1.802800 0.000000 -0.001350 
#    y 0.000000 1.757800 0.000000 
#    z -0.001350 0.000000 1.800540 
# 
# From -- ./inp_files/238889.got.cif
#   From: 2010.06.25/outbox.cif.g09.slc.cpg/sg12_120_cif.got.tgz:238889.got - 2010.06.28 00:19:55.
