data_PCOD8094726
_publ_section_title
;
Structure prediction by ZEFSAII (Michael W. Deem and Ramdas Pophale) SiO2 
 PCOD8094726
Probable space group: C 2/M
;
_chemical_formula_sum "Si O2"
_cell_formula_units_Z 40
_cell_length_a 12.611773
_cell_length_b 15.534431
_cell_length_c 18.983992
_cell_angle_alpha 90.000000
_cell_angle_beta 151.509837
_cell_angle_gamma 90.000000
_cell_volume 1774.126500
_symmetry_space_group_name_H-M "C 2/M"
_symmetry_group_IT_number 12
_symmetry_cell_setting 'monoclinic'
loop_
_space_group_symop_operation_xyz
x,y,z
-x,y,-z
-x,-y,-z
x,-y,z
1/2+x,1/2+y,z
1/2-x,1/2+y,-z
1/2-x,1/2-y,-z
1/2+x,1/2-y,z
loop_
_atom_site_type_symbol
_atom_site_label
_atom_site_fract_x
_atom_site_fract_y
_atom_site_fract_z
Si Si1 0.170311 0.601623 0.660387
Si Si2 0.917661 0.595637 0.786848
Si Si3 0.156268 0.838242 0.914144
Si Si4 0.618847 0.603011 0.737949
Si Si5 0.354047 0.897975 0.596890
O O1 0.215770 0.500000 0.681886
O O2 0.403271 0.649952 0.789673
O O3 0.000000 0.629672 0.500000
O O4 0.063865 0.630732 0.672413
O O5 0.820723 0.500000 0.723133
O O6 0.782901 0.638444 0.772732
O O7 0.872707 0.644127 0.685978
O O8 0.180413 0.590813 0.956444
O O9 0.179515 0.845269 0.843613
O O10 0.250000 0.750000 0.000000
O O11 0.639602 0.500000 0.763166
O O12 0.371415 0.631124 0.572203
O O13 0.358855 0.000000 0.606726
#
# Coordination Sequence:
#
# PCOD8094726 Si02
#       5
#     8   8   8   8   8
#     4  10  19  38  69  95 122 166 220 267 315 382
#     4  10  21  39  64  96 128 162 211 271 327 378
#     4  12  25  40  57  91 132 172 213 264 323 387
#     4  10  19  39  70  95 123 166 216 264 317 386
#     4   9  18  35  66 102 123 151 209 274 325 371
#
# _framework density 22.546306000000001
#
# number of rings (size 3 to 8) (size 9 to 14) (size 15 to 20)
#    0.000    1.800    2.000    3.000    0.000    4.800 
#    7.200    6.000    0.000    0.000    0.000    0.000 
#    0.000    0.000    0.000    0.000    0.000    0.000 
#
# Total GULP energy -247928.736840 kJ/mol
# GULP energy per Si atom -12396.436842 kJ/mol
# Density = 2.249499 g / cm^3
# Si number density = 22.546306 Si / 1000 Ang^3
#
#
#
# Elastic Constant Matrix: (Units=GPa)
#
#
# Indices 1 2 3 4 5 6 
#
# 1 200.2932 53.6062 97.1103 0.0038 -18.7096 -0.0022
# 2 53.6062 40.2513 41.9803 0.0047 0.6624 0.0009
# 3 97.1103 41.9803 168.2566 0.0079 -6.0502 0.0028
# 4 0.0038 0.0047 0.0079 27.1672 0.0032 0.4748
# 5 -18.7096 0.6624 -6.0502 0.0032 53.2099 -0.0012
# 6 -0.0022 0.0009 0.0028 0.4748 -0.0012 17.7426
#
#
#
# Elastic Compliance Matrix: (Units=1/GPa)
#
#
# Indices 1 2 3 4 5 6 
#
# 1 0.009128 -0.009224 -0.002859 0.000001 0.002999 0.000002
# 2 -0.009224 0.043004 -0.005565 -0.000004 -0.004411 -0.000003
# 3 -0.002859 -0.005565 0.008985 -0.000001 0.000086 -0.000001
# 4 0.000001 -0.000004 -0.000001 0.036826 -0.000002 -0.000986
# 5 0.002999 -0.004411 0.000086 -0.000002 0.019913 0.000002
# 6 0.000002 -0.000003 -0.000001 -0.000986 0.000002 0.056388
#
#
# Mechanical properties :
#
#
# Convention : Reuss Voigt Hill
#
# Bulk Modulus (GPa) = 38.72657 88.24387 63.48522
# Shear Modulus (GPa) = 22.92047 34.03087 28.47567
#
# Velocity S-wave (km/s) = 3.19187 3.88928 3.55771
# Velocity P-wave (km/s) = 5.54957 7.70666 6.71530
#
# Compressibility (1/GPa) = 0.02582207
#
# Stress axis : x y z
#
# Youngs Moduli (GPa) = 109.55878 23.25351 111.29894
#
# Poissons Ratio (x) = 0.21448 0.31819
# Poissons Ratio (y) = 1.01053 0.61936
# Poissons Ratio (z) = 0.31321 0.12940
#
# Static dielectric constant tensor:
#      x y z
#    x 4.451610 0.000000 -0.066980 
#    y 0.000000 3.621350 -0.000010 
#    z -0.066980 -0.000010 4.306850 
# 
# 
# High freq. dielectric constant tensor:
#      x y z
#    x 1.907500 0.000000 -0.002990 
#    y 0.000000 1.847450 0.000000 
#    z -0.002990 0.000000 1.899810 
# 
# From -- ./inp_files/158490.got.cif
#   From: 2010.06.25/outbox.cif.g09.slc.cpg/sg12_80_cif.got.tgz:158490.got - 2010.06.28 00:19:55.
