data_PCOD8094395
_publ_section_title
;
Structure prediction by ZEFSAII (Michael W. Deem and Ramdas Pophale) SiO2 
 PCOD8094395
Probable space group: C 2/M
;
_chemical_formula_sum "Si O2"
_cell_formula_units_Z 56
_cell_length_a 21.432556
_cell_length_b 24.434332
_cell_length_c 14.440668
_cell_angle_alpha 90.000000
_cell_angle_beta 159.603558
_cell_angle_gamma 90.000000
_cell_volume 2635.613683
_symmetry_space_group_name_H-M "C 2/M"
_symmetry_group_IT_number 12
_symmetry_cell_setting 'monoclinic'
loop_
_space_group_symop_operation_xyz
x,y,z
-x,y,-z
-x,-y,-z
x,-y,z
1/2+x,1/2+y,z
1/2-x,1/2+y,-z
1/2-x,1/2-y,-z
1/2+x,1/2-y,z
loop_
_atom_site_type_symbol
_atom_site_label
_atom_site_fract_x
_atom_site_fract_y
_atom_site_fract_z
Si Si1 0.746982 0.168300 0.314054
Si Si2 0.663426 0.615617 0.290603
Si Si3 0.749051 0.603794 0.085993
Si Si4 0.908216 0.438299 0.495322
Si Si5 0.101997 0.217830 0.853523
Si Si6 0.441293 0.804288 0.766610
Si Si7 0.614337 0.437167 0.414794
O O1 0.662432 0.205252 0.280177
O O2 0.747244 0.103983 0.343397
O O3 0.944100 0.193461 0.567762
O O4 0.629153 0.167165 0.056768
O O5 0.771529 0.568714 0.388463
O O6 0.807413 0.662881 0.513478
O O7 0.583712 0.585314 0.268464
O O8 0.500000 0.638962 0.000000
O O9 0.807429 0.576030 0.261610
O O10 0.914926 0.599656 0.245023
O O11 0.702658 0.667056 0.040865
O O12 0.580988 0.569920 0.810332
O O13 0.976341 0.500000 0.587101
O O14 0.005094 0.250035 0.802034
O O15 0.250000 0.250000 0.000000
O O16 0.681988 0.500000 0.513997
#
# Coordination Sequence:
#
# PCOD8094395 Si02
#       7
#     8   8   8   8   8   8   8
#     4   9  22  42  61  89 119 159 210 240 299 373
#     4  11  22  36  59  92 123 153 202 248 302 367
#     4  10  21  35  55  84 116 154 200 235 294 371
#     4  11  21  35  55  86 125 155 187 243 304 358
#     4  11  23  40  62  89 117 157 203 255 308 357
#     4  10  22  43  62  84 125 162 196 256 303 356
#     4  10  19  37  62  87 121 157 197 247 300 358
#
# _framework density 21.247423999999999
#
# number of rings (size 3 to 8) (size 9 to 14) (size 15 to 20)
#    0.000    1.714    1.429    3.429    0.000    4.571 
#    2.571    6.429    0.000    0.000    0.000    5.000 
#    0.000    0.000    0.000    0.000    0.000    0.000 
#
# Total GULP energy -346917.377326 kJ/mol
# GULP energy per Si atom -12389.906333 kJ/mol
# Density = 2.119906 g / cm^3
# Si number density = 21.247424 Si / 1000 Ang^3
#
#
#
# Elastic Constant Matrix: (Units=GPa)
#
#
# Indices 1 2 3 4 5 6 
#
# 1 39.9032 28.9353 34.8251 0.0000 11.1939 0.0000
# 2 28.9353 141.1254 62.3389 0.0000 5.5318 0.0000
# 3 34.8251 62.3389 151.5159 0.0001 4.6948 0.0000
# 4 0.0000 0.0000 0.0001 27.3491 0.0000 8.9078
# 5 11.1939 5.5318 4.6948 0.0000 31.8140 0.0000
# 6 0.0000 0.0000 0.0000 8.9078 0.0000 27.2435
#
#
#
# Elastic Compliance Matrix: (Units=1/GPa)
#
#
# Indices 1 2 3 4 5 6 
#
# 1 0.036908 -0.004316 -0.006357 0.000000 -0.011297 0.000000
# 2 -0.004316 0.009195 -0.002802 0.000000 0.000333 0.000000
# 3 -0.006357 -0.002802 0.009171 0.000000 0.001370 0.000000
# 4 0.000000 0.000000 0.000000 0.040922 0.000000 -0.013380
# 5 -0.011297 0.000333 0.001370 0.000000 0.035148 0.000000
# 6 0.000000 0.000000 0.000000 -0.013380 0.000000 0.041081
#
#
# Mechanical properties :
#
#
# Convention : Reuss Voigt Hill
#
# Bulk Modulus (GPa) = 35.30508 64.97146 50.13827
# Shear Modulus (GPa) = 23.94441 31.04433 27.49437
#
# Velocity S-wave (km/s) = 3.36062 3.82656 3.60114
# Velocity P-wave (km/s) = 5.63122 7.08296 6.39840
#
# Compressibility (1/GPa) = 0.02832454
#
# Stress axis : x y z
#
# Youngs Moduli (GPa) = 27.09445 108.75076 109.03593
#
# Poissons Ratio (x) = 0.46941 0.69315
# Poissons Ratio (y) = 0.11695 0.30547
# Poissons Ratio (z) = 0.17224 0.30467
#
# Static dielectric constant tensor:
#      x y z
#    x 3.951080 0.000000 0.378170 
#    y 0.000000 3.821180 0.000000 
#    z 0.378170 0.000000 4.123130 
# 
# 
# High freq. dielectric constant tensor:
#      x y z
#    x 1.816020 0.000000 0.029190 
#    y 0.000000 1.825920 0.000000 
#    z 0.029190 0.000000 1.844090 
# 
# From -- ./inp_files/242168.got.cif
#   From: 2010.06.25/outbox.cif.g09.slc.cpg/sg12_122_cif.got.tgz:242168.got - 2010.06.28 00:19:55.
