data_PCOD8094749
_publ_section_title
;
Structure prediction by ZEFSAII (Michael W. Deem and Ramdas Pophale) SiO2 
 PCOD8094749
Probable space group: C 2/M
;
_chemical_formula_sum "Si O2"
_cell_formula_units_Z 52
_cell_length_a 17.777103
_cell_length_b 14.093632
_cell_length_c 14.902108
_cell_angle_alpha 90.000000
_cell_angle_beta 136.424725
_cell_angle_gamma 90.000000
_cell_volume 2573.619249
_symmetry_space_group_name_H-M "C 2/M"
_symmetry_group_IT_number 12
_symmetry_cell_setting 'monoclinic'
loop_
_space_group_symop_operation_xyz
x,y,z
-x,y,-z
-x,-y,-z
x,-y,z
1/2+x,1/2+y,z
1/2-x,1/2+y,-z
1/2-x,1/2-y,-z
1/2+x,1/2-y,z
loop_
_atom_site_type_symbol
_atom_site_label
_atom_site_fract_x
_atom_site_fract_y
_atom_site_fract_z
Si Si1 0.209185 0.106982 0.361125
Si Si2 0.840019 0.389505 0.648753
Si Si3 0.539497 0.607262 0.815723
Si Si4 0.533020 0.801232 0.715287
Si Si5 0.231928 0.806279 0.074735
Si Si6 0.238142 0.224479 0.715270
Si Si7 0.000000 0.250759 0.500000
O O1 0.249621 0.137691 0.495890
O O2 0.261703 0.172533 0.331268
O O3 0.079233 0.117402 0.242903
O O4 0.247486 0.000000 0.374378
O O5 0.855012 0.500000 0.672041
O O6 0.957238 0.345640 0.725897
O O7 0.805906 0.350422 0.716161
O O8 0.553312 0.500000 0.787786
O O9 0.551756 0.688010 0.750209
O O10 0.630452 0.622245 0.972988
O O11 0.649587 0.856241 0.809343
O O12 0.478135 0.813718 0.570243
O O13 0.209100 0.736601 0.140148
O O14 0.250000 0.750000 0.000000
O O15 0.111200 0.190161 0.612608
#
# Coordination Sequence:
#
# PCOD8094749 Si02
#       7
#     8   8   8   8   8   8   4
#     4  10  20  34  59  93 119 149 192 244 302 357
#     4  11  22  38  63  93 123 156 198 252 305 361
#     4  10  20  37  60  85 118 156 196 245 296 348
#     4  10  19  39  61  89 122 158 202 242 307 355
#     4   9  22  39  57  83 117 162 203 242 290 354
#     4  11  20  38  61  87 122 158 201 243 305 357
#     4  10  20  34  64  88 122 166 188 248 306 358
#
# _framework density 20.205009
#
# number of rings (size 3 to 8) (size 9 to 14) (size 15 to 20)
#    0.000    1.846    3.077    1.385    0.000    1.846 
#    0.000   12.308    0.000    4.615    0.000    0.000 
#    0.000    0.000    0.000    0.000    0.000    0.000 
#
# Total GULP energy -322147.491664 kJ/mol
# GULP energy per Si atom -12390.288141 kJ/mol
# Density = 2.015902 g / cm^3
# Si number density = 20.205009 Si / 1000 Ang^3
#
#
#
# Elastic Constant Matrix: (Units=GPa)
#
#
# Indices 1 2 3 4 5 6 
#
# 1 119.5069 42.3369 49.3235 0.0000 -7.5570 0.0000
# 2 42.3369 100.8004 37.6788 0.0000 -5.9592 0.0000
# 3 49.3235 37.6788 114.8546 0.0000 1.0831 0.0000
# 4 0.0000 0.0000 0.0000 22.1273 0.0000 3.0531
# 5 -7.5570 -5.9592 1.0831 0.0000 44.3509 0.0000
# 6 0.0000 0.0000 0.0000 3.0531 0.0000 7.3471
#
#
#
# Elastic Compliance Matrix: (Units=1/GPa)
#
#
# Indices 1 2 3 4 5 6 
#
# 1 0.011145 -0.003185 -0.003756 0.000000 0.001563 0.000000
# 2 -0.003185 0.012333 -0.002690 0.000000 0.001180 0.000000
# 3 -0.003756 -0.002690 0.011214 0.000000 -0.001275 0.000000
# 4 0.000000 0.000000 0.000000 0.047942 0.000000 -0.019923
# 5 0.001563 0.001180 -0.001275 0.000000 0.023003 0.000000
# 6 0.000000 0.000000 0.000000 -0.019923 0.000000 0.144387
#
#
# Mechanical properties :
#
#
# Convention : Reuss Voigt Hill
#
# Bulk Modulus (GPa) = 64.80132 65.98224 65.39178
# Shear Modulus (GPa) = 18.21963 28.48657 23.35310
#
# Velocity S-wave (km/s) = 3.00615 3.75891 3.40341
# Velocity P-wave (km/s) = 6.64762 7.18098 6.91944
#
# Compressibility (1/GPa) = 0.01543179
#
# Stress axis : x y z
#
# Youngs Moduli (GPa) = 89.72656 81.08164 89.17369
#
# Poissons Ratio (x) = 0.25821 0.33495
# Poissons Ratio (y) = 0.28574 0.23984
# Poissons Ratio (z) = 0.33703 0.21807
#
# Static dielectric constant tensor:
#      x y z
#    x 3.710150 0.000000 0.288340 
#    y 0.000000 3.479390 0.000000 
#    z 0.288340 0.000000 4.437030 
# 
# 
# High freq. dielectric constant tensor:
#      x y z
#    x 1.796820 0.000000 0.012310 
#    y 0.000000 1.751700 0.000000 
#    z 0.012310 0.000000 1.798890 
# 
# From -- ./inp_files/225800.got.cif
#   From: 2010.06.25/outbox.cif.g09.slc.cpg/sg12_113_cif.got.tgz:225800.got - 2010.06.28 00:19:55.
