data_PCOD8094139
_publ_section_title
;
Structure prediction by ZEFSAII (Michael W. Deem and Ramdas Pophale) SiO2 
 PCOD8094139
Probable space group: C 2/M
;
_chemical_formula_sum "Si O2"
_cell_formula_units_Z 64
_cell_length_a 17.170787
_cell_length_b 29.889752
_cell_length_c 8.918819
_cell_angle_alpha 90.000000
_cell_angle_beta 138.301063
_cell_angle_gamma 90.000000
_cell_volume 3044.969012
_symmetry_space_group_name_H-M "C 2/M"
_symmetry_group_IT_number 12
_symmetry_cell_setting 'monoclinic'
loop_
_space_group_symop_operation_xyz
x,y,z
-x,y,-z
-x,-y,-z
x,-y,z
1/2+x,1/2+y,z
1/2-x,1/2+y,-z
1/2-x,1/2-y,-z
1/2+x,1/2-y,z
loop_
_atom_site_type_symbol
_atom_site_label
_atom_site_fract_x
_atom_site_fract_y
_atom_site_fract_z
Si Si1 0.943623 0.951155 0.581818
Si Si2 0.331850 0.589630 0.010056
Si Si3 0.929747 0.294144 0.548947
Si Si4 0.592278 0.948977 0.759423
Si Si5 0.323424 0.632694 0.311870
Si Si6 0.060319 0.368523 0.928479
Si Si7 0.056975 0.801623 0.308513
Si Si8 0.176034 0.172140 0.180140
O O1 0.842949 0.913265 0.436370
O O2 0.000000 0.953902 0.500000
O O3 0.891118 0.000000 0.550869
O O4 0.049724 0.938629 0.846953
O O5 0.222542 0.557205 0.881308
O O6 0.311354 0.618976 0.831491
O O7 0.350766 0.623625 0.177037
O O8 0.925681 0.251100 0.649063
O O9 0.797926 0.305225 0.312170
O O10 0.000000 0.283085 0.500000
O O11 0.988199 0.335160 0.720157
O O12 0.500000 0.935993 0.500000
O O13 0.569148 0.917298 0.866955
O O14 0.577365 0.000000 0.791240
O O15 0.410877 0.671442 0.494268
O O16 0.191098 0.650097 0.141995
O O17 0.000000 0.374010 0.000000
O O18 0.144806 0.820019 0.307896
O O19 0.922765 0.808136 0.070743
#
# Coordination Sequence:
#
# PCOD8094139 Si02
#       8
#     8   8   8   8   8   8   8   8
#     4   9  17  31  55  88 118 149 192 254 317 367
#     4  10  19  36  65  89 125 157 211 262 320 374
#     4  12  27  43  66  93 130 173 223 273 317 388
#     4  10  21  39  65  96 129 169 217 263 318 391
#     4  10  21  38  60  89 121 159 209 266 310 383
#     4  11  24  41  64  92 130 171 213 266 327 382
#     4  11  26  41  64  92 127 174 216 265 330 383
#     4  11  24  43  64  90 128 171 207 271 321 391
#
# _framework density 21.018276
#
# number of rings (size 3 to 8) (size 9 to 14) (size 15 to 20)
#    0.000    1.500    1.250    4.125    5.250    3.750 
#    0.000    0.000    0.000    2.250    0.000    0.000 
#    0.000    0.000    0.000    0.000    0.000    0.000 
#
# Total GULP energy -396851.897275 kJ/mol
# GULP energy per Si atom -12401.621790 kJ/mol
# Density = 2.097044 g / cm^3
# Si number density = 21.018276 Si / 1000 Ang^3
#
#
#
# Elastic Constant Matrix: (Units=GPa)
#
#
# Indices 1 2 3 4 5 6 
#
# 1 77.2561 24.0078 31.7537 0.0000 2.9913 0.0000
# 2 24.0078 107.9397 31.0274 0.0000 0.2921 0.0000
# 3 31.7537 31.0274 109.3882 0.0000 18.3020 0.0000
# 4 0.0000 0.0000 0.0000 26.7991 0.0000 1.8588
# 5 2.9913 0.2921 18.3020 0.0000 32.1502 0.0000
# 6 0.0000 0.0000 0.0000 1.8588 0.0000 31.6275
#
#
#
# Elastic Compliance Matrix: (Units=1/GPa)
#
#
# Indices 1 2 3 4 5 6 
#
# 1 0.015225 -0.002263 -0.003917 0.000000 0.000834 0.000000
# 2 -0.002263 0.010508 -0.002590 0.000000 0.001589 0.000000
# 3 -0.003917 -0.002590 0.012101 0.000000 -0.006501 0.000000
# 4 0.000000 0.000000 0.000000 0.037467 0.000000 -0.002202
# 5 0.000834 0.001589 -0.006501 0.000000 0.034713 0.000000
# 6 0.000000 0.000000 0.000000 -0.002202 0.000000 0.031747
#
#
# Mechanical properties :
#
#
# Convention : Reuss Voigt Hill
#
# Bulk Modulus (GPa) = 49.27371 52.01798 50.64584
# Shear Modulus (GPa) = 30.10870 31.96836 31.03853
#
# Velocity S-wave (km/s) = 3.78895 3.90420 3.84701
# Velocity P-wave (km/s) = 6.52960 6.71762 6.62428
#
# Compressibility (1/GPa) = 0.02029480
#
# Stress axis : x y z
#
# Youngs Moduli (GPa) = 65.68204 95.16799 82.63729
#
# Poissons Ratio (x) = 0.21532 0.32372
# Poissons Ratio (y) = 0.14861 0.21400
# Poissons Ratio (z) = 0.25730 0.24645
#
# Static dielectric constant tensor:
#      x y z
#    x 3.579060 0.000000 0.147630 
#    y 0.000000 3.912250 0.000000 
#    z 0.147630 0.000000 4.080560 
# 
# 
# High freq. dielectric constant tensor:
#      x y z
#    x 1.800490 0.000000 0.013980 
#    y 0.000000 1.825740 0.000000 
#    z 0.013980 0.000000 1.839180 
# 
# From -- ./inp_files/80761.got.cif
#   From: 2010.06.25/outbox.cif.g09.slc.cpg/sg12_41_cif.got.tgz:80761.got - 2010.06.28 00:19:55.
