data_PCOD8094122
_publ_section_title
;
Structure prediction by ZEFSAII (Michael W. Deem and Ramdas Pophale) SiO2 
 PCOD8094122
Probable space group: C 2/M
;
_chemical_formula_sum "Si O2"
_cell_formula_units_Z 56
_cell_length_a 13.539307
_cell_length_b 12.719613
_cell_length_c 18.033329
_cell_angle_alpha 90.000000
_cell_angle_beta 63.236540
_cell_angle_gamma 90.000000
_cell_volume 2772.911559
_symmetry_space_group_name_H-M "C 2/M"
_symmetry_group_IT_number 12
_symmetry_cell_setting 'monoclinic'
loop_
_space_group_symop_operation_xyz
x,y,z
-x,y,-z
-x,-y,-z
x,-y,z
1/2+x,1/2+y,z
1/2-x,1/2+y,-z
1/2-x,1/2-y,-z
1/2+x,1/2-y,z
loop_
_atom_site_type_symbol
_atom_site_label
_atom_site_fract_x
_atom_site_fract_y
_atom_site_fract_z
Si Si1 0.567619 0.740756 0.047732
Si Si2 0.061366 0.881139 0.786502
Si Si3 0.728584 0.875821 0.082670
Si Si4 0.524745 0.754986 0.665278
Si Si5 0.210762 0.621215 0.672334
Si Si6 0.889585 0.883339 0.491885
Si Si7 0.780834 0.293316 0.750853
O O1 0.478630 0.687656 0.131196
O O2 0.626193 0.841006 0.065734
O O3 0.500000 0.783026 0.000000
O O4 0.656791 0.651468 0.996356
O O5 0.005362 0.839545 0.730181
O O6 0.196403 0.874293 0.738777
O O7 0.023437 0.000000 0.810200
O O8 0.721394 0.808693 0.160385
O O9 0.721976 0.000000 0.101077
O O10 0.589719 0.848548 0.683854
O O11 0.596036 0.706429 0.574460
O O12 0.407466 0.804165 0.679091
O O13 0.216488 0.500000 0.689033
O O14 0.295096 0.655579 0.579498
O O15 0.238779 0.677776 0.740576
O O16 0.000000 0.895444 0.500000
O O17 0.860484 0.000000 0.468306
#
# Coordination Sequence:
#
# PCOD8094122 Si02
#       7
#     8   8   8   8   8   8   8
#     4  11  23  42  64  90 122 159 211 251 296 368
#     4  11  23  39  61  89 120 161 205 253 303 358
#     4  11  24  42  64  91 125 163 202 253 309 357
#     4  11  22  39  61  90 124 160 201 257 306 368
#     4  10  23  40  62  90 123 163 206 251 307 366
#     4  10  19  36  64  91 118 160 207 255 307 360
#     4  11  22  39  58  91 122 156 204 247 304 364
#
# _framework density 20.195378999999999
#
# number of rings (size 3 to 8) (size 9 to 14) (size 15 to 20)
#    0.000    1.286    4.286    1.714    0.000    2.571 
#    0.000    0.714    0.000    1.286    0.000    0.000 
#    0.000    0.000    0.000    0.000    0.000    0.000 
#
# Total GULP energy -347163.162902 kJ/mol
# GULP energy per Si atom -12398.684389 kJ/mol
# Density = 2.014941 g / cm^3
# Si number density = 20.195379 Si / 1000 Ang^3
#
#
#
# Elastic Constant Matrix: (Units=GPa)
#
#
# Indices 1 2 3 4 5 6 
#
# 1 105.3129 36.8953 24.1755 0.0000 -6.2368 0.0000
# 2 36.8953 94.9513 58.2604 0.0000 2.7708 0.0000
# 3 24.1755 58.2604 84.3858 0.0000 8.1020 0.0000
# 4 0.0000 0.0000 0.0000 31.3222 0.0000 2.3805
# 5 -6.2368 2.7708 8.1020 0.0000 33.0861 0.0000
# 6 0.0000 0.0000 0.0000 2.3805 0.0000 16.5197
#
#
#
# Elastic Compliance Matrix: (Units=1/GPa)
#
#
# Indices 1 2 3 4 5 6 
#
# 1 0.011214 -0.004005 -0.000699 0.000000 0.002621 0.000000
# 2 -0.004005 0.019785 -0.012577 0.000000 0.000668 0.000000
# 3 -0.000699 -0.012577 0.021142 0.000000 -0.004256 0.000000
# 4 0.000000 0.000000 0.000000 0.032280 0.000000 -0.004652
# 5 0.002621 0.000668 -0.004256 0.000000 0.031704 0.000000
# 6 0.000000 0.000000 0.000000 -0.004652 0.000000 0.061204
#
#
# Mechanical properties :
#
#
# Convention : Reuss Voigt Hill
#
# Bulk Modulus (GPa) = 56.88259 58.14582 57.51421
# Shear Modulus (GPa) = 22.96192 27.20684 25.08438
#
# Velocity S-wave (km/s) = 3.37558 3.67438 3.52815
# Velocity P-wave (km/s) = 6.58939 6.84511 6.71847
#
# Compressibility (1/GPa) = 0.01758007
#
# Stress axis : x y z
#
# Youngs Moduli (GPa) = 89.17158 50.54284 47.29871
#
# Poissons Ratio (x) = 0.20242 0.03308
# Poissons Ratio (y) = 0.35713 0.59486
# Poissons Ratio (z) = 0.06236 0.63566
#
# Static dielectric constant tensor:
#      x y z
#    x 3.831470 0.000000 -0.166730 
#    y 0.000000 3.503250 0.000000 
#    z -0.166730 0.000000 4.645850 
# 
# 
# High freq. dielectric constant tensor:
#      x y z
#    x 1.802010 0.000000 -0.004610 
#    y 0.000000 1.770610 0.000000 
#    z -0.004610 0.000000 1.789240 
# 
# From -- ./inp_files/269184.got.cif
#   From: 2010.06.25/outbox.cif.g09.slc.cpg/sg12_135_cif.got.tgz:269184.got - 2010.06.28 00:19:55.
