data_PCOD8094342
_publ_section_title
;
Structure prediction by ZEFSAII (Michael W. Deem and Ramdas Pophale) SiO2 
 PCOD8094342
Probable space group: C 2/M
;
_chemical_formula_sum "Si O2"
_cell_formula_units_Z 40
_cell_length_a 9.342111
_cell_length_b 23.920324
_cell_length_c 8.565490
_cell_angle_alpha 90.000000
_cell_angle_beta 78.983244
_cell_angle_gamma 90.000000
_cell_volume 1878.824275
_symmetry_space_group_name_H-M "C 2/M"
_symmetry_group_IT_number 12
_symmetry_cell_setting 'monoclinic'
loop_
_space_group_symop_operation_xyz
x,y,z
-x,y,-z
-x,-y,-z
x,-y,z
1/2+x,1/2+y,z
1/2-x,1/2+y,-z
1/2-x,1/2-y,-z
1/2+x,1/2-y,z
loop_
_atom_site_type_symbol
_atom_site_label
_atom_site_fract_x
_atom_site_fract_y
_atom_site_fract_z
Si Si1 0.034222 0.126554 0.700083
Si Si2 0.195294 0.935989 0.394486
Si Si3 0.788661 0.207333 0.768535
Si Si4 0.448968 0.862663 0.334829
Si Si5 0.233148 0.668808 0.128490
O O1 0.142900 0.107411 0.539611
O O2 0.127873 0.133702 0.837877
O O3 0.906705 0.078395 0.735644
O O4 0.948400 0.185078 0.682942
O O5 0.363843 0.921643 0.327427
O O6 0.177262 0.000000 0.449200
O O7 0.660394 0.188231 0.680077
O O8 0.786292 0.273933 0.770396
O O9 0.755123 0.180550 0.943969
O O10 0.500000 0.855002 0.500000
O O11 0.585196 0.865658 0.188291
#
# Coordination Sequence:
#
# PCOD8094342 Si02
#       5
#     8   8   8   8   8
#     4  10  19  37  61  89 112 156 205 245 280 357
#     4  10  22  42  62  85 119 156 199 256 322 350
#     4  10  23  38  61  85 131 169 189 228 297 366
#     4  11  22  39  58  93 118 157 201 249 294 348
#     4  11  21  40  59  91 125 166 196 228 296 367
#
# _framework density 21.289909999999999
#
# number of rings (size 3 to 8) (size 9 to 14) (size 15 to 20)
#    0.000    1.600    2.000    3.600    0.000    4.400 
#   10.800    0.000    0.000   33.600    0.000    0.000 
#    0.000    0.000    0.000    0.000    0.000    0.000 
#
# Total GULP energy -247826.825960 kJ/mol
# GULP energy per Si atom -12391.341298 kJ/mol
# Density = 2.124145 g / cm^3
# Si number density = 21.289910 Si / 1000 Ang^3
#
#
#
# Elastic Constant Matrix: (Units=GPa)
#
#
# Indices 1 2 3 4 5 6 
#
# 1 163.7083 44.4774 41.8479 0.0000 7.2249 0.0000
# 2 44.4774 97.9472 44.1746 0.0000 -2.8472 0.0000
# 3 41.8479 44.1746 53.4799 0.0000 0.3652 0.0000
# 4 0.0000 0.0000 0.0000 16.9826 0.0000 -0.8467
# 5 7.2249 -2.8472 0.3652 0.0000 32.8876 0.0000
# 6 0.0000 0.0000 0.0000 -0.8467 0.0000 20.4660
#
#
#
# Elastic Compliance Matrix: (Units=1/GPa)
#
#
# Indices 1 2 3 4 5 6 
#
# 1 0.007833 -0.001354 -0.004998 0.000000 -0.001782 0.000000
# 2 -0.001354 0.016585 -0.012653 0.000000 0.001874 0.000000
# 3 -0.004998 -0.012653 0.033063 0.000000 -0.000365 0.000000
# 4 0.000000 0.000000 0.000000 0.059006 0.000000 0.002441
# 5 -0.001782 0.001874 -0.000365 0.000000 0.030964 0.000000
# 6 0.000000 0.000000 0.000000 0.002441 0.000000 0.048962
#
#
# Mechanical properties :
#
#
# Convention : Reuss Voigt Hill
#
# Bulk Modulus (GPa) = 51.35828 64.01501 57.68664
# Shear Modulus (GPa) = 20.75422 26.37627 23.56524
#
# Velocity S-wave (km/s) = 3.12563 3.52363 3.33058
# Velocity P-wave (km/s) = 6.09932 6.83287 6.47649
#
# Compressibility (1/GPa) = 0.01947106
#
# Stress axis : x y z
#
# Youngs Moduli (GPa) = 127.66948 60.29372 30.24501
#
# Poissons Ratio (x) = 0.08166 0.15117
# Poissons Ratio (y) = 0.17292 0.38268
# Poissons Ratio (z) = 0.63811 0.76287
#
# Static dielectric constant tensor:
#      x y z
#    x 4.371220 0.000000 0.024930 
#    y 0.000000 3.645270 0.000000 
#    z 0.024930 0.000000 3.650040 
# 
# 
# High freq. dielectric constant tensor:
#      x y z
#    x 1.864940 0.000000 0.001220 
#    y 0.000000 1.802540 0.000000 
#    z 0.001220 0.000000 1.815200 
# 
# From -- ./inp_files/39195.got.cif
#   From: 2010.06.25/outbox.cif.g09.slc.cpg/sg12_20_cif.got.tgz:39195.got - 2010.06.28 00:19:55.
