data_PCOD8094114
_publ_section_title
;
Structure prediction by ZEFSAII (Michael W. Deem and Ramdas Pophale) SiO2 
 PCOD8094114
Probable space group: C 2/M
;
_chemical_formula_sum "Si O2"
_cell_formula_units_Z 56
_cell_length_a 16.215707
_cell_length_b 16.748209
_cell_length_c 11.404529
_cell_angle_alpha 90.000000
_cell_angle_beta 60.662516
_cell_angle_gamma 90.000000
_cell_volume 2700.057627
_symmetry_space_group_name_H-M "C 2/M"
_symmetry_group_IT_number 12
_symmetry_cell_setting 'monoclinic'
loop_
_space_group_symop_operation_xyz
x,y,z
-x,y,-z
-x,-y,-z
x,-y,z
1/2+x,1/2+y,z
1/2-x,1/2+y,-z
1/2-x,1/2-y,-z
1/2+x,1/2-y,z
loop_
_atom_site_type_symbol
_atom_site_label
_atom_site_fract_x
_atom_site_fract_y
_atom_site_fract_z
Si Si1 0.720628 0.408272 0.351002
Si Si2 0.682086 0.907299 0.377588
Si Si3 0.475320 0.594447 0.887496
Si Si4 0.597397 0.146312 0.664081
Si Si5 0.217477 0.094666 0.091829
Si Si6 0.139689 0.169239 0.631937
Si Si7 0.892914 0.405384 0.822204
O O1 0.688350 0.500000 0.381157
O O2 0.832262 0.402929 0.301194
O O3 0.703222 0.372267 0.233377
O O4 0.657781 0.358819 0.486418
O O5 0.601697 0.891373 0.530780
O O6 0.776121 0.857745 0.341274
O O7 0.641788 0.879067 0.281808
O O8 0.711075 0.000000 0.354470
O O9 0.487940 0.500000 0.872561
O O10 0.368875 0.621518 0.930883
O O11 0.542125 0.632702 0.743831
O O12 0.500000 0.626554 0.000000
O O13 0.634099 0.236152 0.636379
O O14 0.490841 0.138643 0.785481
O O15 0.223318 0.000000 0.092747
O O16 0.315412 0.126587 0.968603
O O17 0.908300 0.500000 0.818346
#
# Coordination Sequence:
#
# PCOD8094114 Si02
#       7
#     8   8   8   8   8   8   8
#     4  10  20  38  62  85 116 156 199 243 287 350
#     4  10  19  36  64  89 112 149 204 258 293 338
#     4  10  20  39  64  87 114 150 201 253 290 340
#     4  11  22  37  55  87 124 157 192 236 299 366
#     4   9  20  37  59  89 114 146 197 244 291 343
#     4  11  22  38  57  88 121 157 192 238 304 359
#     4  10  20  38  63  89 115 151 203 255 296 340
#
# _framework density 20.740297000000002
#
# number of rings (size 3 to 8) (size 9 to 14) (size 15 to 20)
#    0.000    1.857    0.000    6.429    0.000    4.571 
#   10.286    5.000    0.000    0.000    0.000    0.000 
#    0.000    0.000    0.000    0.000    0.000    0.000 
#
# Total GULP energy -347284.565175 kJ/mol
# GULP energy per Si atom -12403.020185 kJ/mol
# Density = 2.069309 g / cm^3
# Si number density = 20.740297 Si / 1000 Ang^3
#
#
#
# Elastic Constant Matrix: (Units=GPa)
#
#
# Indices 1 2 3 4 5 6 
#
# 1 77.9327 22.4789 57.1600 0.0000 4.2969 0.0000
# 2 22.4789 57.3131 17.1711 0.0000 2.4999 0.0000
# 3 57.1600 17.1711 118.2625 0.0000 1.7101 0.0000
# 4 0.0000 0.0000 0.0000 11.0090 0.0000 -10.5311
# 5 4.2969 2.4999 1.7101 0.0000 39.6088 0.0000
# 6 0.0000 0.0000 0.0000 -10.5311 0.0000 13.3277
#
#
#
# Elastic Compliance Matrix: (Units=1/GPa)
#
#
# Indices 1 2 3 4 5 6 
#
# 1 0.021539 -0.005507 -0.009588 0.000000 -0.001575 0.000000
# 2 -0.005507 0.019692 -0.000188 0.000000 -0.000637 0.000000
# 3 -0.009588 -0.000188 0.013110 0.000000 0.000486 0.000000
# 4 0.000000 0.000000 0.000000 0.372060 0.000000 0.293987
# 5 -0.001575 -0.000637 0.000486 0.000000 0.025437 0.000000
# 6 0.000000 0.000000 0.000000 0.293987 0.000000 0.307329
#
#
# Mechanical properties :
#
#
# Convention : Reuss Voigt Hill
#
# Bulk Modulus (GPa) = 42.06090 49.68091 45.87090
# Shear Modulus (GPa) = 6.26834 23.23566 14.75200
#
# Velocity S-wave (km/s) = 1.74036 3.35074 2.66986
# Velocity P-wave (km/s) = 4.93582 6.24306 5.62752
#
# Compressibility (1/GPa) = 0.02377505
#
# Stress axis : x y z
#
# Youngs Moduli (GPa) = 46.42663 50.78193 76.27503
#
# Poissons Ratio (x) = 0.27964 0.73135
# Poissons Ratio (y) = 0.25565 0.01437
# Poissons Ratio (z) = 0.44515 0.00957
#
# Static dielectric constant tensor:
#      x y z
#    x 3.800970 0.000000 0.035790 
#    y 0.000000 3.497340 0.000000 
#    z 0.035790 0.000000 3.954270 
# 
# 
# High freq. dielectric constant tensor:
#      x y z
#    x 1.813640 0.000000 -0.002370 
#    y 0.000000 1.791560 0.000000 
#    z -0.002370 0.000000 1.818340 
# 
# From -- ./inp_files/146052.got.cif
#   From: 2010.06.25/outbox.cif.g09.slc.cpg/sg12_74_cif.got.tgz:146052.got - 2010.06.28 00:19:55.
