data_PCOD8094354
_publ_section_title
;
Structure prediction by ZEFSAII (Michael W. Deem and Ramdas Pophale) SiO2 
 PCOD8094354
Probable space group: C 2/M
;
_chemical_formula_sum "Si O2"
_cell_formula_units_Z 64
_cell_length_a 20.061838
_cell_length_b 9.041056
_cell_length_c 33.240030
_cell_angle_alpha 90.000000
_cell_angle_beta 146.471223
_cell_angle_gamma 90.000000
_cell_volume 3330.198763
_symmetry_space_group_name_H-M "C 2/M"
_symmetry_group_IT_number 12
_symmetry_cell_setting 'monoclinic'
loop_
_space_group_symop_operation_xyz
x,y,z
-x,y,-z
-x,-y,-z
x,-y,z
1/2+x,1/2+y,z
1/2-x,1/2+y,-z
1/2-x,1/2-y,-z
1/2+x,1/2-y,z
loop_
_atom_site_type_symbol
_atom_site_label
_atom_site_fract_x
_atom_site_fract_y
_atom_site_fract_z
Si Si1 0.454232 0.324536 0.786705
Si Si2 0.077388 0.831096 0.318799
Si Si3 0.136120 0.324016 0.062448
Si Si4 0.996495 0.329205 0.545433
Si Si5 0.282000 0.676253 0.057921
Si Si6 0.311832 0.668100 0.219993
Si Si7 0.279498 0.826644 0.286945
Si Si8 0.770519 0.825763 0.468234
O O1 0.458802 0.500000 0.788756
O O2 0.420634 0.270581 0.725420
O O3 0.584658 0.263541 0.864736
O O4 0.351233 0.265448 0.765109
O O5 0.162160 0.720378 0.385062
O O6 0.942786 0.821672 0.266990
O O7 0.126124 0.000000 0.346453
O O8 0.139966 0.500000 0.064948
O O9 0.190449 0.269656 0.047030
O O10 0.216805 0.263737 0.140126
O O11 0.000000 0.263881 0.000000
O O12 0.962777 0.500000 0.536775
O O13 0.123898 0.287513 0.629827
O O14 0.000000 0.296622 0.500000
O O15 0.897915 0.223272 0.514862
O O16 0.278345 0.500000 0.051741
O O17 0.250000 0.750000 0.000000
O O18 0.276250 0.500000 0.211880
O O19 0.313950 0.756374 0.262201
O O20 0.273965 0.000000 0.277301
O O21 0.750000 0.750000 0.500000
O O22 0.770599 0.000000 0.474219
#
# Coordination Sequence:
#
# PCOD8094354 Si02
#       8
#     8   8   8   8   8   8   8   8
#     4   9  18  36  59  81 109 148 192 228 273 338
#     4  10  19  37  62  82 105 145 195 240 283 336
#     4   9  18  34  56  82 112 148 188 227 273 332
#     4  10  21  40  63  86 114 152 196 238 291 354
#     4  10  20  36  58  84 114 149 188 231 276 331
#     4  10  20  35  57  83 110 145 189 235 279 331
#     4  10  21  35  55  82 112 146 183 230 281 334
#     4  12  25  39  58  86 118 152 191 239 293 347
#
# _framework density 19.218070999999998
#
# number of rings (size 3 to 8) (size 9 to 14) (size 15 to 20)
#    0.000    2.000    1.250    2.625    1.750    5.250 
#    0.000    3.125    0.000    0.750    0.000    0.000 
#    0.000    0.000    0.000    0.000    0.000    0.000 
#
# Total GULP energy -396820.082018 kJ/mol
# GULP energy per Si atom -12400.627563 kJ/mol
# Density = 1.917433 g / cm^3
# Si number density = 19.218071 Si / 1000 Ang^3
#
#
#
# Elastic Constant Matrix: (Units=GPa)
#
#
# Indices 1 2 3 4 5 6 
#
# 1 52.9146 34.8878 37.0890 0.0001 -13.3341 -0.0002
# 2 34.8878 62.5021 38.4796 -0.0001 -1.0488 0.0001
# 3 37.0890 38.4796 108.6240 0.0001 -4.3867 -0.0001
# 4 0.0001 -0.0001 0.0001 16.3851 0.0000 -12.5375
# 5 -13.3341 -1.0488 -4.3867 0.0000 40.2763 0.0000
# 6 -0.0002 0.0001 -0.0001 -12.5375 0.0000 21.3462
#
#
#
# Elastic Compliance Matrix: (Units=1/GPa)
#
#
# Indices 1 2 3 4 5 6 
#
# 1 0.037115 -0.016633 -0.006330 0.000000 0.011165 0.000000
# 2 -0.016633 0.027919 -0.004423 0.000000 -0.005261 0.000000
# 3 -0.006330 -0.004423 0.012902 0.000000 -0.000806 0.000000
# 4 0.000000 0.000000 0.000000 0.110849 0.000000 0.065106
# 5 0.011165 -0.005261 -0.000806 0.000000 0.028300 0.000000
# 6 0.000000 0.000000 0.000000 0.065106 0.000000 0.085086
#
#
# Mechanical properties :
#
#
# Convention : Reuss Voigt Hill
#
# Bulk Modulus (GPa) = 43.17124 49.43928 46.30526
# Shear Modulus (GPa) = 13.71130 23.17383 18.44257
#
# Velocity S-wave (km/s) = 2.67396 3.47628 3.10118
# Velocity P-wave (km/s) = 5.66093 6.47255 6.08030
#
# Compressibility (1/GPa) = 0.02316357
#
# Stress axis : x y z
#
# Youngs Moduli (GPa) = 26.94350 35.81846 77.50910
#
# Poissons Ratio (x) = 0.59576 0.49060
# Poissons Ratio (y) = 0.44814 0.34285
# Poissons Ratio (z) = 0.17054 0.15844
#
# Static dielectric constant tensor:
#      x y z
#    x 3.788690 0.000000 0.037440 
#    y 0.000000 3.188520 0.000000 
#    z 0.037440 0.000000 3.776040 
# 
# 
# High freq. dielectric constant tensor:
#      x y z
#    x 1.764890 0.000000 0.000240 
#    y 0.000000 1.709430 0.000000 
#    z 0.000240 0.000000 1.764970 
# 
# From -- ./inp_files/378370.got.cif
#   From: 2010.06.25/outbox.cif.g09.slc.cpg/sg12_190_cif.got.tgz:378370.got - 2010.06.28 00:19:55.
