data_PCOD8094963
_publ_section_title
;
Structure prediction by ZEFSAII (Michael W. Deem and Ramdas Pophale) SiO2 
 PCOD8094963
Probable space group: C 2/M
;
_chemical_formula_sum "Si O2"
_cell_formula_units_Z 56
_cell_length_a 24.654966
_cell_length_b 9.212343
_cell_length_c 19.246317
_cell_angle_alpha 90.000000
_cell_angle_beta 52.155254
_cell_angle_gamma 90.000000
_cell_volume 3452.002830
_symmetry_space_group_name_H-M "C 2/M"
_symmetry_group_IT_number 12
_symmetry_cell_setting 'monoclinic'
loop_
_space_group_symop_operation_xyz
x,y,z
-x,y,-z
-x,-y,-z
x,-y,z
1/2+x,1/2+y,z
1/2-x,1/2+y,-z
1/2-x,1/2-y,-z
1/2+x,1/2-y,z
loop_
_atom_site_type_symbol
_atom_site_label
_atom_site_fract_x
_atom_site_fract_y
_atom_site_fract_z
Si Si1 0.953551 0.663278 0.730037
Si Si2 0.247383 0.665857 0.892231
Si Si3 0.342149 0.164987 0.918549
Si Si4 0.675962 0.664740 0.410028
Si Si5 0.203534 0.667953 0.591147
Si Si6 0.672260 0.833019 0.274782
Si Si7 0.909145 0.169756 0.385833
O O1 0.982504 0.500000 0.697553
O O2 0.921844 0.682410 0.832963
O O3 0.893678 0.694345 0.721465
O O4 0.012618 0.779546 0.671501
O O5 0.261158 0.500000 0.860782
O O6 0.299867 0.713713 0.910852
O O7 0.259902 0.759780 0.813031
O O8 0.171292 0.685514 0.987583
O O9 0.318582 0.000000 0.915546
O O10 0.660704 0.500000 0.399709
O O11 0.756953 0.682188 0.366193
O O12 0.656480 0.767833 0.362227
O O13 0.627659 0.707851 0.512702
O O14 0.195944 0.500000 0.575910
O O15 0.250000 0.750000 0.500000
O O16 0.128902 0.744969 0.647668
O O17 0.689476 0.000000 0.270886
O O18 0.905998 0.000000 0.371996
#
# Coordination Sequence:
#
# PCOD8094963 Si02
#       7
#     8   8   8   8   8   8   8
#     4   9  18  31  44  63  93 124 153 183 218 265
#     4   9  15  25  43  63  86 116 148 185 224 261
#     4   8  15  27  42  62  87 116 150 184 220 264
#     4   9  19  33  47  65  89 117 150 186 223 264
#     4   9  17  31  50  69  88 112 146 189 230 266
#     4  10  20  31  44  65  93 123 154 185 221 269
#     4  10  20  32  47  68  91 118 153 189 225 265
#
# _framework density 16.222467000000002
#
# number of rings (size 3 to 8) (size 9 to 14) (size 15 to 20)
#    0.000    2.857    0.000    3.429    0.000    7.429 
#    0.000    2.857    0.000    0.000    0.000    1.000 
#    0.000    8.000    0.000    0.000    0.000    0.000 
#
# Total GULP energy -346919.782428 kJ/mol
# GULP energy per Si atom -12389.992230 kJ/mol
# Density = 1.618554 g / cm^3
# Si number density = 16.222467 Si / 1000 Ang^3
#
#
#
# Elastic Constant Matrix: (Units=GPa)
#
#
# Indices 1 2 3 4 5 6 
#
# 1 46.2801 36.3835 37.2400 -0.0004 -9.1509 0.0001
# 2 36.3835 101.7043 52.6166 -0.0015 -8.5269 0.0009
# 3 37.2400 52.6166 92.5641 -0.0008 -8.0411 0.0005
# 4 -0.0004 -0.0015 -0.0008 27.3930 0.0004 -0.5597
# 5 -9.1509 -8.5269 -8.0411 0.0004 2.9195 -0.0002
# 6 0.0001 0.0009 0.0005 -0.5597 -0.0002 26.2609
#
#
#
# Elastic Compliance Matrix: (Units=1/GPa)
#
#
# Indices 1 2 3 4 5 6 
#
# 1 0.065779 -0.004752 -0.009278 -0.000002 0.166744 0.000001
# 2 -0.004752 0.015788 -0.005719 0.000000 0.015464 0.000000
# 3 -0.009278 -0.005719 0.018153 0.000000 0.004215 0.000000
# 4 -0.000002 0.000000 0.000000 0.036522 -0.000011 0.000778
# 5 0.166744 0.015464 0.004215 -0.000011 0.921931 0.000004
# 6 0.000001 0.000000 0.000000 0.000778 0.000004 0.038096
#
#
# Mechanical properties :
#
#
# Convention : Reuss Voigt Hill
#
# Bulk Modulus (GPa) = 16.60519 54.78097 35.69308
# Shear Modulus (GPa) = 4.32586 18.93526 11.63056
#
# Velocity S-wave (km/s) = 1.63474 3.42017 2.68048
# Velocity P-wave (km/s) = 3.71770 7.03126 5.62405
#
# Compressibility (1/GPa) = 0.06022215
#
# Stress axis : x y z
#
# Youngs Moduli (GPa) = 15.20248 63.34063 55.08770
#
# Poissons Ratio (x) = 0.30099 0.51108
# Poissons Ratio (y) = 0.07224 0.31505
# Poissons Ratio (z) = 0.14104 0.36225
#
# Static dielectric constant tensor:
#      x y z
#    x 2.998780 0.000000 -0.069990 
#    y 0.000000 3.210860 0.000000 
#    z -0.069990 0.000000 3.251820 
# 
# 
# High freq. dielectric constant tensor:
#      x y z
#    x 1.577060 0.000000 -0.002160 
#    y 0.000000 1.640980 0.000000 
#    z -0.002160 0.000000 1.618520 
# 
# From -- ./inp_files/291802.got.cif
#   From: 2010.06.25/outbox.cif.g09.slc.cpg/sg12_146_cif.got.tgz:291802.got - 2010.06.28 00:19:55.
