data_PCOD8094720
_publ_section_title
;
Structure prediction by ZEFSAII (Michael W. Deem and Ramdas Pophale) SiO2 
 PCOD8094720
Probable space group: C 2/M
;
_chemical_formula_sum "Si O2"
_cell_formula_units_Z 44
_cell_length_a 24.030606
_cell_length_b 11.128767
_cell_length_c 11.854751
_cell_angle_alpha 90.000000
_cell_angle_beta 145.027777
_cell_angle_gamma 90.000000
_cell_volume 1817.166259
_symmetry_space_group_name_H-M "C 2/M"
_symmetry_group_IT_number 12
_symmetry_cell_setting 'monoclinic'
loop_
_space_group_symop_operation_xyz
x,y,z
-x,y,-z
-x,-y,-z
x,-y,z
1/2+x,1/2+y,z
1/2-x,1/2+y,-z
1/2-x,1/2-y,-z
1/2+x,1/2-y,z
loop_
_atom_site_type_symbol
_atom_site_label
_atom_site_fract_x
_atom_site_fract_y
_atom_site_fract_z
Si Si1 0.348020 0.000000 0.314396
Si Si2 0.209036 0.637989 0.357572
Si Si3 0.598192 0.361334 0.717380
Si Si4 0.940281 0.500000 0.237033
Si Si5 0.000000 0.290758 0.000000
Si Si6 0.312928 0.251540 0.332647
Si Si7 0.979202 0.249815 0.208091
O O1 0.291507 0.111181 0.277312
O O2 0.350852 0.000000 0.180689
O O3 0.459864 0.000000 0.530307
O O4 0.249033 0.500000 0.449021
O O5 0.250000 0.750000 0.500000
O O6 0.229923 0.677650 0.263205
O O7 0.093618 0.628271 0.185085
O O8 0.500000 0.304788 0.500000
O O9 0.602913 0.500000 0.704866
O O10 0.685782 0.304519 0.792139
O O11 0.598130 0.330880 0.850246
O O12 0.939333 0.385207 0.153973
O O13 0.023005 0.210444 0.927107
O O14 0.412595 0.272077 0.566652
#
# Coordination Sequence:
#
# PCOD8094720 Si02
#       7
#     4   8   8   4   4   8   8
#     4   9  16  30  64 101 132 169 227 296 346 413
#     4  12  28  49  74 104 143 192 245 295 354 428
#     4   9  17  32  59  93 131 176 227 284 351 418
#     4   9  16  29  58 100 130 166 228 283 337 409
#     4  12  27  48  71 104 145 192 241 292 357 430
#     4  10  19  38  67  99 134 178 235 288 354 416
#     4  10  20  35  62  98 134 179 227 285 344 421
#
# _framework density 24.213526000000002
#
# number of rings (size 3 to 8) (size 9 to 14) (size 15 to 20)
#    0.000    1.818    3.636    0.818    3.818    0.727 
#    0.000    2.727    0.000    0.000    0.000    0.000 
#    0.000    0.000    0.000    0.000    0.000    0.000 
#
# Total GULP energy -272541.556986 kJ/mol
# GULP energy per Si atom -12388.252590 kJ/mol
# Density = 2.415842 g / cm^3
# Si number density = 24.213526 Si / 1000 Ang^3
#
#
#
# Elastic Constant Matrix: (Units=GPa)
#
#
# Indices 1 2 3 4 5 6 
#
# 1 170.4242 59.6787 39.8218 0.0000 -32.3694 0.0000
# 2 59.6787 128.8040 24.7932 0.0000 0.3012 0.0000
# 3 39.8218 24.7932 51.9112 0.0000 -8.6192 0.0000
# 4 0.0000 0.0000 0.0000 7.3971 0.0000 1.4892
# 5 -32.3694 0.3012 -8.6192 0.0000 44.7423 0.0000
# 6 0.0000 0.0000 0.0000 1.4892 0.0000 26.5895
#
#
#
# Elastic Compliance Matrix: (Units=1/GPa)
#
#
# Indices 1 2 3 4 5 6 
#
# 1 0.009219 -0.003425 -0.004468 0.000000 0.005832 0.000000
# 2 -0.003425 0.009855 -0.002585 0.000000 -0.003042 0.000000
# 3 -0.004468 -0.002585 0.024164 0.000000 0.001440 0.000000
# 4 0.000000 0.000000 0.000000 0.136729 0.000000 -0.007658
# 5 0.005832 -0.003042 0.001440 0.000000 0.026867 0.000000
# 6 0.000000 0.000000 0.000000 -0.007658 0.000000 0.038038
#
#
# Mechanical properties :
#
#
# Convention : Reuss Voigt Hill
#
# Bulk Modulus (GPa) = 44.87586 66.63631 55.75609
# Shear Modulus (GPa) = 18.29793 30.86885 24.58339
#
# Velocity S-wave (km/s) = 2.75196 3.57439 3.18979
# Velocity P-wave (km/s) = 5.35456 6.67945 6.05336
#
# Compressibility (1/GPa) = 0.02228369
#
# Stress axis : x y z
#
# Youngs Moduli (GPa) = 108.47622 101.46878 41.38306
#
# Poissons Ratio (x) = 0.34752 0.18489
# Poissons Ratio (y) = 0.37152 0.10696
# Poissons Ratio (z) = 0.48463 0.26227
#
# Static dielectric constant tensor:
#      x y z
#    x 4.821610 0.000000 -0.075270 
#    y 0.000000 4.267190 0.000000 
#    z -0.075270 0.000000 4.072000 
# 
# 
# High freq. dielectric constant tensor:
#      x y z
#    x 1.982190 0.000000 -0.007160 
#    y 0.000000 1.942280 0.000000 
#    z -0.007160 0.000000 1.932580 
# 
# From -- ./inp_files/175425.got.cif
#   From: 2010.06.25/outbox.cif.g09.slc.cpg/sg12_88_cif.got.tgz:175425.got - 2010.06.28 00:19:55.
