data_PCOD8094775
_publ_section_title
;
Structure prediction by ZEFSAII (Michael W. Deem and Ramdas Pophale) SiO2 
 PCOD8094775
Probable space group: C 2/M
;
_chemical_formula_sum "Si O2"
_cell_formula_units_Z 40
_cell_length_a 14.329525
_cell_length_b 14.677148
_cell_length_c 9.163127
_cell_angle_alpha 90.000000
_cell_angle_beta 96.457135
_cell_angle_gamma 90.000000
_cell_volume 1914.931974
_symmetry_space_group_name_H-M "C 2/M"
_symmetry_group_IT_number 12
_symmetry_cell_setting 'monoclinic'
loop_
_space_group_symop_operation_xyz
x,y,z
-x,y,-z
-x,-y,-z
x,-y,z
1/2+x,1/2+y,z
1/2-x,1/2+y,-z
1/2-x,1/2-y,-z
1/2+x,1/2-y,z
loop_
_atom_site_type_symbol
_atom_site_label
_atom_site_fract_x
_atom_site_fract_y
_atom_site_fract_z
Si Si1 0.562100 0.100303 0.379027
Si Si2 0.279222 0.763434 0.170895
Si Si3 0.629176 0.604342 0.290421
Si Si4 0.507172 0.752564 0.829646
Si Si5 0.261365 0.347990 0.432674
O O1 0.500000 0.141287 0.500000
O O2 0.560395 0.167545 0.240380
O O3 0.669658 0.091815 0.449027
O O4 0.524394 0.000000 0.329686
O O5 0.216460 0.846010 0.223521
O O6 0.389778 0.784079 0.201097
O O7 0.271239 0.668210 0.260142
O O8 0.250000 0.750000 0.000000
O O9 0.619688 0.500000 0.233930
O O10 0.531000 0.656748 0.242636
O O11 0.650570 0.604662 0.469292
O O12 0.500000 0.745537 0.000000
O O13 0.250000 0.250000 0.500000
#
# Coordination Sequence:
#
# PCOD8094775 Si02
#       5
#     8   8   8   8   8
#     4  11  22  38  66  99 128 166 217 270 330 399
#     4  11  22  43  68  93 131 177 215 272 334 390
#     4  11  24  44  69  98 134 177 223 272 332 403
#     4  12  24  42  68  94 135 174 221 274 337 392
#     4  10  19  39  64  91 129 171 211 265 328 391
#
# _framework density 20.888470999999999
#
# number of rings (size 3 to 8) (size 9 to 14) (size 15 to 20)
#    0.000    1.000    6.000    3.000    0.000    3.200 
#    0.000    7.000    0.000    0.000    0.000    0.000 
#    0.000    0.000    0.000    0.000    0.000    0.000 
#
# Total GULP energy -247843.013359 kJ/mol
# GULP energy per Si atom -12392.150668 kJ/mol
# Density = 2.084093 g / cm^3
# Si number density = 20.888471 Si / 1000 Ang^3
#
#
#
# Elastic Constant Matrix: (Units=GPa)
#
#
# Indices 1 2 3 4 5 6 
#
# 1 85.0722 23.4810 20.6005 0.0000 12.2966 0.0000
# 2 23.4810 125.4608 39.5987 0.0000 10.8945 0.0000
# 3 20.6005 39.5987 139.2067 0.0000 19.9945 0.0000
# 4 0.0000 0.0000 0.0000 17.0137 0.0000 -3.8413
# 5 12.2966 10.8945 19.9945 0.0000 29.3554 0.0000
# 6 0.0000 0.0000 0.0000 -3.8413 0.0000 15.5216
#
#
#
# Elastic Compliance Matrix: (Units=1/GPa)
#
#
# Indices 1 2 3 4 5 6 
#
# 1 0.013067 -0.001823 -0.000805 0.000000 -0.004249 0.000000
# 2 -0.001823 0.009090 -0.002152 0.000000 -0.001145 0.000000
# 3 -0.000805 -0.002152 0.008592 0.000000 -0.004717 0.000000
# 4 0.000000 0.000000 0.000000 0.062255 0.000000 0.015407
# 5 -0.004249 -0.001145 -0.004717 0.000000 0.039482 0.000000
# 6 0.000000 0.000000 0.000000 0.015407 0.000000 0.068239
#
#
# Mechanical properties :
#
#
# Convention : Reuss Voigt Hill
#
# Bulk Modulus (GPa) = 47.19020 57.45557 52.32289
# Shear Modulus (GPa) = 23.00461 30.11545 26.56003
#
# Velocity S-wave (km/s) = 3.32219 3.80113 3.56970
# Velocity P-wave (km/s) = 6.11200 6.84327 6.48794
#
# Compressibility (1/GPa) = 0.02119084
#
# Stress axis : x y z
#
# Youngs Moduli (GPa) = 76.52965 110.00808 116.38456
#
# Poissons Ratio (x) = 0.20049 0.09369
# Poissons Ratio (y) = 0.13948 0.25042
# Poissons Ratio (z) = 0.06161 0.23670
#
# Static dielectric constant tensor:
#      x y z
#    x 4.170760 0.000000 -0.078370 
#    y 0.000000 2.497650 0.000000 
#    z -0.078370 0.000000 4.556310 
# 
# 
# High freq. dielectric constant tensor:
#      x y z
#    x 1.824560 0.000000 0.015160 
#    y 0.000000 1.798650 0.000000 
#    z 0.015160 0.000000 1.819520 
# 
# From -- ./inp_files/58967.got.cif
#   From: 2010.06.25/outbox.cif.g09.slc.cpg/sg12_30_cif.got.tgz:58967.got - 2010.06.28 00:19:55.
