data_PCOD8094577
_publ_section_title
;
Structure prediction by ZEFSAII (Michael W. Deem and Ramdas Pophale) SiO2 
 PCOD8094577
Probable space group: C 2/M
;
_chemical_formula_sum "Si O2"
_cell_formula_units_Z 48
_cell_length_a 8.871492
_cell_length_b 16.158891
_cell_length_c 17.355865
_cell_angle_alpha 90.000000
_cell_angle_beta 94.404187
_cell_angle_gamma 90.000000
_cell_volume 2480.676734
_symmetry_space_group_name_H-M "C 2/M"
_symmetry_group_IT_number 12
_symmetry_cell_setting 'monoclinic'
loop_
_space_group_symop_operation_xyz
x,y,z
-x,y,-z
-x,-y,-z
x,-y,z
1/2+x,1/2+y,z
1/2-x,1/2+y,-z
1/2-x,1/2-y,-z
1/2+x,1/2-y,z
loop_
_atom_site_type_symbol
_atom_site_label
_atom_site_fract_x
_atom_site_fract_y
_atom_site_fract_z
Si Si1 0.593361 0.000000 0.581060
Si Si2 0.494066 0.261868 0.280811
Si Si3 0.755032 0.637954 0.335424
Si Si4 0.677805 0.838209 0.020950
Si Si5 0.833195 0.000000 0.959037
Si Si6 0.216120 0.655680 0.200809
Si Si7 0.428138 0.000000 0.736953
Si Si8 0.747115 0.500000 0.213151
O O1 0.500000 0.000000 0.500000
O O2 0.700971 0.081182 0.589434
O O3 0.483063 0.000000 0.650603
O O4 0.606026 0.307220 0.346832
O O5 0.403345 0.192044 0.322935
O O6 0.385017 0.324463 0.233146
O O7 0.599652 0.228240 0.216464
O O8 0.711033 0.582159 0.260201
O O9 0.712584 0.860099 0.110311
O O10 0.500000 0.832714 0.000000
O O11 0.750000 0.750000 0.000000
O O12 0.745258 0.915646 0.976647
O O13 0.851354 0.000000 0.867582
O O14 0.000000 0.000000 0.000000
O O15 0.174742 0.577754 0.250605
O O16 0.573284 0.000000 0.799437
#
# Coordination Sequence:
#
# PCOD8094577 Si02
#       8
#     4   8   8   8   4   8   4   4
#     4  10  20  40  64  91 125 157 187 229 301 370
#     4  10  20  34  62  89 112 145 203 249 284 347
#     4   9  20  37  62  88 114 155 196 238 296 354
#     4  12  26  41  59  85 122 165 210 266 335 368
#     4  12  28  41  55  83 123 162 213 267 321 378
#     4  11  21  36  60  81 117 150 207 247 298 354
#     4  10  19  38  60  88 105 162 194 243 292 361
#     4  10  20  37  58  73 117 152 204 240 301 359
#
# _framework density 19.349557999999998
#
# number of rings (size 3 to 8) (size 9 to 14) (size 15 to 20)
#    0.000    1.667    3.333    3.250    7.000    1.333 
#    0.000    0.833    0.000    1.000    0.000    0.000 
#    0.000    0.000    0.000    0.000    0.000    0.000 
#
# Total GULP energy -297528.531766 kJ/mol
# GULP energy per Si atom -12397.022157 kJ/mol
# Density = 1.930552 g / cm^3
# Si number density = 19.349558 Si / 1000 Ang^3
#
#
#
# Elastic Constant Matrix: (Units=GPa)
#
#
# Indices 1 2 3 4 5 6 
#
# 1 122.2594 49.3836 31.4052 0.0000 16.4578 0.0000
# 2 49.3836 121.1175 28.5222 0.0000 7.2460 0.0000
# 3 31.4052 28.5222 89.7846 0.0000 29.2795 0.0000
# 4 0.0000 0.0000 0.0000 8.8838 0.0000 15.8980
# 5 16.4578 7.2460 29.2795 0.0000 27.5378 0.0000
# 6 0.0000 0.0000 0.0000 15.8980 0.0000 13.1753
#
#
#
# Elastic Compliance Matrix: (Units=1/GPa)
#
#
# Indices 1 2 3 4 5 6 
#
# 1 0.010556 -0.003787 -0.001159 0.000000 -0.004080 0.000000
# 2 -0.003787 0.010301 -0.002758 0.000000 0.002486 0.000000
# 3 -0.001159 -0.002758 0.018303 0.000000 -0.018043 0.000000
# 4 0.000000 0.000000 0.000000 -0.097090 0.000000 0.117155
# 5 -0.004080 0.002486 -0.018043 0.000000 0.057282 0.000000
# 6 0.000000 0.000000 0.000000 0.117155 0.000000 -0.065466
#
#
# Mechanical properties :
#
#
# Convention : Reuss Voigt Hill
#
# Bulk Modulus (GPa) = 42.10116 61.30927 51.70522
# Shear Modulus (GPa) = -116.85591 24.84273 -46.00659
#
# Velocity S-wave (km/s) = -7.77966 3.58703 -4.88141
# Velocity P-wave (km/s) = 7.67412 6.99354 2.23411
#
# Compressibility (1/GPa) = 0.02375231
#
# Stress axis : x y z
#
# Youngs Moduli (GPa) = 94.73384 97.07399 54.63550
#
# Poissons Ratio (x) = 0.36762 0.06330
# Poissons Ratio (y) = 0.35876 0.15071
# Poissons Ratio (z) = 0.10976 0.26777
#
# Static dielectric constant tensor:
#      x y z
#    x 3.676230 0.000000 0.080200 
#    y 0.000000 3.974270 0.000000 
#    z 0.080200 0.000000 3.113600 
# 
# 
# High freq. dielectric constant tensor:
#      x y z
#    x 1.764280 0.000000 0.010790 
#    y 0.000000 1.776860 0.000000 
#    z 0.010790 0.000000 1.713080 
# 
# From -- ./inp_files/255841.got.cif
#   From: 2010.06.25/outbox.cif.g09.slc.cpg/sg12_128_cif.got.tgz:255841.got - 2010.06.28 00:19:55.
