data_PCOD8094758
_publ_section_title
;
Structure prediction by ZEFSAII (Michael W. Deem and Ramdas Pophale) SiO2 
 PCOD8094758
Probable space group: C 2/M
;
_chemical_formula_sum "Si O2"
_cell_formula_units_Z 64
_cell_length_a 25.413365
_cell_length_b 17.007147
_cell_length_c 20.618543
_cell_angle_alpha 90.000000
_cell_angle_beta 158.138486
_cell_angle_gamma 90.000000
_cell_volume 3318.332041
_symmetry_space_group_name_H-M "C 2/M"
_symmetry_group_IT_number 12
_symmetry_cell_setting 'monoclinic'
loop_
_space_group_symop_operation_xyz
x,y,z
-x,y,-z
-x,-y,-z
x,-y,z
1/2+x,1/2+y,z
1/2-x,1/2+y,-z
1/2-x,1/2-y,-z
1/2+x,1/2-y,z
loop_
_atom_site_type_symbol
_atom_site_label
_atom_site_fract_x
_atom_site_fract_y
_atom_site_fract_z
Si Si1 0.387073 0.324957 0.497124
Si Si2 0.538194 0.689782 0.973872
Si Si3 0.709256 0.591173 0.069570
Si Si4 0.748221 0.826810 0.208641
Si Si5 0.336970 0.212089 0.657718
Si Si6 0.944293 0.296932 0.369326
Si Si7 0.350824 0.409844 0.142698
Si Si8 0.416408 0.909226 0.083859
O O1 0.327580 0.362643 0.362146
O O2 0.271309 0.334684 0.420407
O O3 0.425387 0.232791 0.526407
O O4 0.530936 0.365487 0.682436
O O5 0.407749 0.718271 0.780475
O O6 0.500000 0.651917 0.000000
O O7 0.620182 0.623214 0.027794
O O8 0.633170 0.764237 0.101235
O O9 0.741172 0.500000 0.116859
O O10 0.857652 0.636542 0.233144
O O11 0.627712 0.606814 0.909086
O O12 0.854218 0.781912 0.281470
O O13 0.669483 0.897500 0.081554
O O14 0.250000 0.250000 0.500000
O O15 0.450587 0.149709 0.759842
O O16 0.000000 0.334597 0.500000
O O17 0.372461 0.500000 0.184692
O O18 0.191300 0.385847 0.981320
O O19 0.467203 0.000000 0.146582
#
# Coordination Sequence:
#
# PCOD8094758 Si02
#       8
#     8   8   8   8   8   8   8   8
#     4  11  20  35  60  89 117 151 198 249 294 350
#     4  10  19  39  62  84 120 154 197 250 299 361
#     4  10  22  38  58  83 114 155 200 246 301 360
#     4   9  18  36  58  89 115 149 197 244 295 347
#     4  11  24  38  59  90 120 158 205 247 302 358
#     4   9  19  34  58  84 110 141 190 253 294 339
#     4  10  22  38  57  86 123 161 197 240 294 355
#     4  10  22  40  60  84 123 165 200 241 299 363
#
# _framework density 19.286798999999998
#
# number of rings (size 3 to 8) (size 9 to 14) (size 15 to 20)
#    0.000    2.000    2.500    0.750    1.750    2.000 
#    0.000    2.500    0.000    0.000    0.000    0.000 
#    0.000    0.000    0.000    0.000    0.000    0.000 
#
# Total GULP energy -396701.441558 kJ/mol
# GULP energy per Si atom -12396.920049 kJ/mol
# Density = 1.924290 g / cm^3
# Si number density = 19.286799 Si / 1000 Ang^3
#
#
#
# Elastic Constant Matrix: (Units=GPa)
#
#
# Indices 1 2 3 4 5 6 
#
# 1 105.0124 35.5524 30.8518 -0.0060 0.1138 -0.0034
# 2 35.5524 63.6477 40.3103 -0.0058 -4.9826 -0.0035
# 3 30.8518 40.3103 102.8467 -0.0037 -10.9934 -0.0024
# 4 -0.0060 -0.0058 -0.0037 12.5303 -0.0019 -0.9182
# 5 0.1138 -4.9826 -10.9934 -0.0019 27.7484 -0.0011
# 6 -0.0034 -0.0035 -0.0024 -0.9182 -0.0011 22.4363
#
#
#
# Elastic Compliance Matrix: (Units=1/GPa)
#
#
# Indices 1 2 3 4 5 6 
#
# 1 0.011943 -0.005880 -0.001458 0.000002 -0.001682 0.000001
# 2 -0.005880 0.023801 -0.007420 0.000006 0.001358 0.000002
# 3 -0.001458 -0.007420 0.013499 0.000001 0.004022 0.000000
# 4 0.000002 0.000006 0.000001 0.080046 0.000007 0.003276
# 5 -0.001682 0.001358 0.004022 0.000007 0.037882 0.000003
# 6 0.000001 0.000002 0.000000 0.003276 0.000003 0.044705
#
#
# Mechanical properties :
#
#
# Convention : Reuss Voigt Hill
#
# Bulk Modulus (GPa) = 50.68878 53.88175 52.28526
# Shear Modulus (GPa) = 20.16390 23.52918 21.84654
#
# Velocity S-wave (km/s) = 3.23689 3.49659 3.36924
# Velocity P-wave (km/s) = 6.34891 6.65577 6.50415
#
# Compressibility (1/GPa) = 0.01972823
#
# Stress axis : x y z
#
# Youngs Moduli (GPa) = 83.72785 42.01452 74.08142
#
# Poissons Ratio (x) = 0.24703 0.10802
# Poissons Ratio (y) = 0.49229 0.54967
# Poissons Ratio (z) = 0.12209 0.31174
#
# Static dielectric constant tensor:
#      x y z
#    x 3.618710 0.000000 0.063740 
#    y 0.000000 3.199530 0.000000 
#    z 0.063740 0.000000 3.659470 
# 
# 
# High freq. dielectric constant tensor:
#      x y z
#    x 1.758330 0.000000 -0.001970 
#    y 0.000000 1.718680 0.000000 
#    z -0.001970 0.000000 1.759780 
# 
# From -- ./inp_files/328660.got.cif
#   From: 2010.06.25/outbox.cif.g09.slc.cpg/sg12_165_cif.got.tgz:328660.got - 2010.06.28 00:19:55.
