data_PCOD8094419
_publ_section_title
;
Structure prediction by ZEFSAII (Michael W. Deem and Ramdas Pophale) SiO2 
 PCOD8094419
Probable space group: C 2/M
;
_chemical_formula_sum "Si O2"
_cell_formula_units_Z 56
_cell_length_a 22.731461
_cell_length_b 17.010569
_cell_length_c 8.217716
_cell_angle_alpha 90.000000
_cell_angle_beta 116.674860
_cell_angle_gamma 90.000000
_cell_volume 2839.390640
_symmetry_space_group_name_H-M "C 2/M"
_symmetry_group_IT_number 12
_symmetry_cell_setting 'monoclinic'
loop_
_space_group_symop_operation_xyz
x,y,z
-x,y,-z
-x,-y,-z
x,-y,z
1/2+x,1/2+y,z
1/2-x,1/2+y,-z
1/2-x,1/2-y,-z
1/2+x,1/2-y,z
loop_
_atom_site_type_symbol
_atom_site_label
_atom_site_fract_x
_atom_site_fract_y
_atom_site_fract_z
Si Si1 0.189013 0.708762 0.122017
Si Si2 0.200097 0.120112 0.052554
Si Si3 0.844858 0.410973 0.186056
Si Si4 0.564617 0.749255 0.173487
Si Si5 0.115331 0.086768 0.267183
Si Si6 0.927233 0.287055 0.466442
Si Si7 0.672525 0.645958 0.667045
O O1 0.203083 0.785739 0.030742
O O2 0.134576 0.734217 0.182013
O O3 0.256920 0.683822 0.291028
O O4 0.159457 0.635923 0.987475
O O5 0.273054 0.088152 0.181163
O O6 0.156814 0.091809 0.150331
O O7 0.175937 0.093420 0.839591
O O8 0.868491 0.500000 0.183563
O O9 0.899629 0.368545 0.363046
O O10 0.559917 0.654776 0.198811
O O11 0.566594 0.801128 0.335389
O O12 0.500000 0.777381 0.000000
O O13 0.156736 0.094925 0.486465
O O14 0.082641 0.000000 0.229128
O O15 0.880923 0.213690 0.366293
O O16 0.000000 0.265998 0.500000
#
# Coordination Sequence:
#
# PCOD8094419 Si02
#       7
#     8   8   8   8   8   8   8
#     4  10  19  38  64  87 115 152 198 241 289 344
#     4  10  19  37  63  85 121 157 194 241 289 348
#     4  11  21  35  58  90 120 148 189 242 301 347
#     4  10  23  39  63  84 109 157 203 242 288 349
#     4  10  23  36  57  91 124 152 192 246 299 347
#     4  11  22  37  61  84 115 153 201 241 284 349
#     4  10  20  37  63  88 117 155 200 241 285 352
#
# _framework density 19.722542000000001
#
# number of rings (size 3 to 8) (size 9 to 14) (size 15 to 20)
#    0.000    1.714    2.857    2.143    4.000    5.143 
#    0.000    0.714    0.000    3.429    0.000    0.000 
#    0.000    0.000    0.000    0.000    0.000    0.000 
#
# Total GULP energy -346948.702514 kJ/mol
# GULP energy per Si atom -12391.025090 kJ/mol
# Density = 1.967765 g / cm^3
# Si number density = 19.722542 Si / 1000 Ang^3
#
#
#
# Elastic Constant Matrix: (Units=GPa)
#
#
# Indices 1 2 3 4 5 6 
#
# 1 59.2135 30.0640 41.1122 0.0000 11.7781 0.0000
# 2 30.0640 118.7929 30.5686 0.0000 0.6986 0.0000
# 3 41.1122 30.5686 120.3141 0.0000 1.9439 0.0000
# 4 0.0000 0.0000 0.0000 24.5814 0.0000 2.6233
# 5 11.7781 0.6986 1.9439 0.0000 34.2433 0.0000
# 6 0.0000 0.0000 0.0000 2.6233 0.0000 11.1030
#
#
#
# Elastic Compliance Matrix: (Units=1/GPa)
#
#
# Indices 1 2 3 4 5 6 
#
# 1 0.026239 -0.004621 -0.007655 0.000000 -0.008496 0.000000
# 2 -0.004621 0.009821 -0.000940 0.000000 0.001442 0.000000
# 3 -0.007655 -0.000940 0.011133 0.000000 0.002020 0.000000
# 4 0.000000 0.000000 0.000000 0.041733 0.000000 -0.009860
# 5 -0.008496 0.001442 0.002020 0.000000 0.031981 0.000000
# 6 0.000000 0.000000 0.000000 -0.009860 0.000000 0.092395
#
#
# Mechanical properties :
#
#
# Convention : Reuss Voigt Hill
#
# Bulk Modulus (GPa) = 48.16305 55.75668 51.95987
# Shear Modulus (GPa) = 20.27135 27.09059 23.68097
#
# Velocity S-wave (km/s) = 3.20945 3.71021 3.46888
# Velocity P-wave (km/s) = 6.18122 6.83273 6.51512
#
# Compressibility (1/GPa) = 0.02076280
#
# Stress axis : x y z
#
# Youngs Moduli (GPa) = 38.11153 101.82557 89.82049
#
# Poissons Ratio (x) = 0.47051 0.68755
# Poissons Ratio (y) = 0.17610 0.08439
# Poissons Ratio (z) = 0.29173 0.09567
#
# Static dielectric constant tensor:
#      x y z
#    x 3.061300 0.000000 -0.053360 
#    y 0.000000 3.563310 0.000000 
#    z -0.053360 0.000000 3.689460 
# 
# 
# High freq. dielectric constant tensor:
#      x y z
#    x 1.759930 0.000000 -0.004620 
#    y 0.000000 1.755510 0.000000 
#    z -0.004620 0.000000 1.777640 
# 
# From -- ./inp_files/96956.got.cif
#   From: 2010.06.25/outbox.cif.g09.slc.cpg/sg12_49_cif.got.tgz:96956.got - 2010.06.28 00:19:55.
