data_PCOD8094914
_publ_section_title
;
Structure prediction by ZEFSAII (Michael W. Deem and Ramdas Pophale) SiO2 
 PCOD8094914
Probable space group: C 2/M
;
_chemical_formula_sum "Si O2"
_cell_formula_units_Z 56
_cell_length_a 21.401145
_cell_length_b 13.863861
_cell_length_c 9.829408
_cell_angle_alpha 90.000000
_cell_angle_beta 88.112599
_cell_angle_gamma 90.000000
_cell_volume 2914.827719
_symmetry_space_group_name_H-M "C 2/M"
_symmetry_group_IT_number 12
_symmetry_cell_setting 'monoclinic'
loop_
_space_group_symop_operation_xyz
x,y,z
-x,y,-z
-x,-y,-z
x,-y,z
1/2+x,1/2+y,z
1/2-x,1/2+y,-z
1/2-x,1/2-y,-z
1/2+x,1/2-y,z
loop_
_atom_site_type_symbol
_atom_site_label
_atom_site_fract_x
_atom_site_fract_y
_atom_site_fract_z
Si Si1 0.548164 0.500000 0.614340
Si Si2 0.748683 0.111371 0.199671
Si Si3 0.148199 0.750204 0.255021
Si Si4 0.070556 0.801389 0.033049
Si Si5 0.753085 0.613112 0.122956
Si Si6 0.146698 0.748564 0.771288
Si Si7 0.426614 0.704341 0.469696
Si Si8 0.957951 0.000000 0.874059
O O1 0.500000 0.500000 0.500000
O O2 0.587230 0.598332 0.594124
O O3 0.507172 0.500000 0.750989
O O4 0.683912 0.148687 0.270578
O O5 0.802430 0.170830 0.272839
O O6 0.757309 0.000000 0.232417
O O7 0.749756 0.134154 0.038159
O O8 0.096441 0.726654 0.142466
O O9 0.196486 0.832077 0.200587
O O10 0.114727 0.783588 0.394078
O O11 0.082938 0.903190 0.112817
O O12 0.107580 0.799450 0.891833
O O13 0.000000 0.778033 0.000000
O O14 0.748287 0.500000 0.154605
O O15 0.819210 0.651409 0.178710
O O16 0.100912 0.724757 0.646051
O O17 0.500000 0.723375 0.500000
O O18 0.000000 0.000000 0.000000
#
# Coordination Sequence:
#
# PCOD8094914 Si02
#       8
#     4   8   8   8   8   8   8   4
#     4  10  20  38  48  78 126 160 190 222 279 350
#     4  10  21  39  62  90 116 148 198 260 298 332
#     4  11  21  38  59  87 116 158 196 236 296 357
#     4  11  20  32  56  84 115 153 197 236 286 354
#     4  10  21  39  63  89 116 149 199 258 297 335
#     4  11  21  38  59  89 118 156 199 240 293 357
#     4  11  24  38  57  85 129 160 188 238 294 355
#     4  10  20  30  48  82 114 150 196 226 275 346
#
# _framework density 19.212112999999999
#
# number of rings (size 3 to 8) (size 9 to 14) (size 15 to 20)
#    0.000    1.429    2.857    5.143    4.000    2.286 
#    0.000    2.143    0.000    5.143    0.000    0.000 
#    0.000    0.000    0.000    0.000    0.000    0.000 
#
# Total GULP energy -346975.989823 kJ/mol
# GULP energy per Si atom -12391.999637 kJ/mol
# Density = 1.916839 g / cm^3
# Si number density = 19.212113 Si / 1000 Ang^3
#
#
#
# Elastic Constant Matrix: (Units=GPa)
#
#
# Indices 1 2 3 4 5 6 
#
# 1 89.0702 25.4535 45.8032 0.0000 3.3138 0.0000
# 2 25.4535 63.4864 10.1557 0.0000 -2.2136 0.0000
# 3 45.8032 10.1557 116.6970 0.0000 -9.9913 0.0000
# 4 0.0000 0.0000 0.0000 18.0089 0.0000 0.6980
# 5 3.3138 -2.2136 -9.9913 0.0000 48.7206 0.0000
# 6 0.0000 0.0000 0.0000 0.6980 0.0000 9.7860
#
#
#
# Elastic Compliance Matrix: (Units=1/GPa)
#
#
# Indices 1 2 3 4 5 6 
#
# 1 0.016002 -0.005543 -0.006019 0.000000 -0.002574 0.000000
# 2 -0.005543 0.017903 0.000732 0.000000 0.001341 0.000000
# 3 -0.006019 0.000732 0.011101 0.000000 0.002719 0.000000
# 4 0.000000 0.000000 0.000000 0.055682 0.000000 -0.003972
# 5 -0.002574 0.001341 0.002719 0.000000 0.021319 0.000000
# 6 0.000000 0.000000 0.000000 -0.003972 0.000000 0.102470
#
#
# Mechanical properties :
#
#
# Convention : Reuss Voigt Hill
#
# Bulk Modulus (GPa) = 42.83138 48.00872 45.42005
# Shear Modulus (GPa) = 19.69147 27.82585 23.75866
#
# Velocity S-wave (km/s) = 3.20496 3.80985 3.52042
# Velocity P-wave (km/s) = 6.00317 6.66305 6.34170
#
# Compressibility (1/GPa) = 0.02334737
#
# Stress axis : x y z
#
# Youngs Moduli (GPa) = 62.49289 55.85595 90.08514
#
# Poissons Ratio (x) = 0.30959 0.54220
# Poissons Ratio (y) = 0.34637 -0.06596
# Poissons Ratio (z) = 0.37613 -0.04090
#
# Static dielectric constant tensor:
#      x y z
#    x 4.013600 0.000000 0.165320 
#    y 0.000000 3.298470 0.000000 
#    z 0.165320 0.000000 3.522200 
# 
# 
# High freq. dielectric constant tensor:
#      x y z
#    x 1.758080 0.000000 0.005230 
#    y 0.000000 1.718220 0.000000 
#    z 0.005230 0.000000 1.751140 
# 
# From -- ./inp_files/86412.got.cif
#   From: 2010.06.25/outbox.cif.g09.slc.cpg/sg12_44_cif.got.tgz:86412.got - 2010.06.28 00:19:55.
