data_PCOD8094254
_publ_section_title
;
Structure prediction by ZEFSAII (Michael W. Deem and Ramdas Pophale) SiO2 
 PCOD8094254
Probable space group: C 2/M
;
_chemical_formula_sum "Si O2"
_cell_formula_units_Z 48
_cell_length_a 23.645466
_cell_length_b 8.680389
_cell_length_c 12.551739
_cell_angle_alpha 90.000000
_cell_angle_beta 89.758710
_cell_angle_gamma 90.000000
_cell_volume 2576.244717
_symmetry_space_group_name_H-M "C 2/M"
_symmetry_group_IT_number 12
_symmetry_cell_setting 'monoclinic'
loop_
_space_group_symop_operation_xyz
x,y,z
-x,y,-z
-x,-y,-z
x,-y,z
1/2+x,1/2+y,z
1/2-x,1/2+y,-z
1/2-x,1/2-y,-z
1/2+x,1/2-y,z
loop_
_atom_site_type_symbol
_atom_site_label
_atom_site_fract_x
_atom_site_fract_y
_atom_site_fract_z
Si Si1 0.880060 0.179774 0.196999
Si Si2 0.314651 0.179690 0.380462
Si Si3 0.311530 0.181851 0.008453
Si Si4 0.505239 0.819469 0.875355
Si Si5 0.804530 0.680614 0.623758
Si Si6 0.883470 0.317786 0.811417
O O1 0.862217 0.226032 0.316614
O O2 0.944945 0.223032 0.178022
O O3 0.871262 0.000000 0.178642
O O4 0.839434 0.272848 0.119084
O O5 0.252065 0.228915 0.343840
O O6 0.323700 0.221106 0.504283
O O7 0.322694 0.000000 0.358173
O O8 0.349062 0.250553 0.911811
O O9 0.307407 0.000000 0.001184
O O10 0.250000 0.250000 0.000000
O O11 0.448316 0.762249 0.816523
O O12 0.517283 0.000000 0.858265
O O13 0.500000 0.781624 0.000000
O O14 0.791676 0.500000 0.636985
O O15 0.854656 0.736302 0.701560
O O16 0.882895 0.500000 0.821228
#
# Coordination Sequence:
#
# PCOD8094254 Si02
#       6
#     8   8   8   8   8   8
#     4  12  24  37  54  79 112 150 191 234 274 324
#     4  10  20  35  57  83 112 148 186 227 278 336
#     4  11  21  35  55  84 116 146 179 224 282 340
#     4  10  19  37  60  80 105 145 186 229 282 339
#     4   9  18  35  59  86 113 142 180 228 282 341
#     4   9  18  34  57  81 108 140 178 223 279 339
#
# _framework density 18.631769999999999
#
# number of rings (size 3 to 8) (size 9 to 14) (size 15 to 20)
#    0.000    1.833    1.667    3.500    0.000    2.333 
#    0.000    2.500    0.000    5.000    0.000    0.000 
#    0.000    0.000    0.000    0.000    0.000    0.000 
#
# Total GULP energy -297672.774212 kJ/mol
# GULP energy per Si atom -12403.032259 kJ/mol
# Density = 1.858936 g / cm^3
# Si number density = 18.631770 Si / 1000 Ang^3
#
#
#
# Elastic Constant Matrix: (Units=GPa)
#
#
# Indices 1 2 3 4 5 6 
#
# 1 140.7487 36.0246 61.0929 0.0000 -3.3317 0.0000
# 2 36.0246 52.7943 25.9333 0.0000 -4.0005 0.0000
# 3 61.0929 25.9333 99.6686 0.0000 -1.3002 0.0000
# 4 0.0000 0.0000 0.0000 21.6053 0.0000 -2.9743
# 5 -3.3317 -4.0005 -1.3002 0.0000 33.7704 0.0000
# 6 0.0000 0.0000 0.0000 -2.9743 0.0000 33.3517
#
#
#
# Elastic Compliance Matrix: (Units=1/GPa)
#
#
# Indices 1 2 3 4 5 6 
#
# 1 0.010585 -0.004603 -0.005286 0.000000 0.000295 0.000000
# 2 -0.004603 0.023908 -0.003370 0.000000 0.002248 0.000000
# 3 -0.005286 -0.003370 0.014145 0.000000 -0.000376 0.000000
# 4 0.000000 0.000000 0.000000 0.046860 0.000000 0.004179
# 5 0.000295 0.002248 -0.000376 0.000000 0.029893 0.000000
# 6 0.000000 0.000000 0.000000 0.004179 0.000000 0.030356
#
#
# Mechanical properties :
#
#
# Convention : Reuss Voigt Hill
#
# Bulk Modulus (GPa) = 45.20937 59.92369 52.56653
# Shear Modulus (GPa) = 26.36582 29.08956 27.72769
#
# Velocity S-wave (km/s) = 3.76586 3.95560 3.86190
# Velocity P-wave (km/s) = 6.57467 7.28658 6.93976
#
# Compressibility (1/GPa) = 0.02211931
#
# Stress axis : x y z
#
# Youngs Moduli (GPa) = 94.47627 41.82659 70.69407
#
# Poissons Ratio (x) = 0.19254 0.37371
# Poissons Ratio (y) = 0.43491 0.23822
# Poissons Ratio (z) = 0.49943 0.14095
#
# Static dielectric constant tensor:
#      x y z
#    x 3.528620 0.000000 -0.040440 
#    y 0.000000 3.258620 0.000000 
#    z -0.040440 0.000000 3.479190 
# 
# 
# High freq. dielectric constant tensor:
#      x y z
#    x 1.726470 0.000000 -0.001530 
#    y 0.000000 1.709720 0.000000 
#    z -0.001530 0.000000 1.725330 
# 
# From -- ./inp_files/172242.got.cif
#   From: 2010.06.25/outbox.cif.g09.slc.cpg/sg12_87_cif.got.tgz:172242.got - 2010.06.28 00:19:55.
