data_PCOD8094047
_publ_section_title
;
Structure prediction by ZEFSAII (Michael W. Deem and Ramdas Pophale) SiO2 
 PCOD8094047
Probable space group: C 2/M
;
_chemical_formula_sum "Si O2"
_cell_formula_units_Z 40
_cell_length_a 17.352032
_cell_length_b 25.236412
_cell_length_c 8.711514
_cell_angle_alpha 90.000000
_cell_angle_beta 146.181454
_cell_angle_gamma 90.000000
_cell_volume 2123.181599
_symmetry_space_group_name_H-M "C 2/M"
_symmetry_group_IT_number 12
_symmetry_cell_setting 'monoclinic'
loop_
_space_group_symop_operation_xyz
x,y,z
-x,y,-z
-x,-y,-z
x,-y,z
1/2+x,1/2+y,z
1/2-x,1/2+y,-z
1/2-x,1/2-y,-z
1/2+x,1/2-y,z
loop_
_atom_site_type_symbol
_atom_site_label
_atom_site_fract_x
_atom_site_fract_y
_atom_site_fract_z
Si Si1 0.342741 0.438823 0.272918
Si Si2 0.608229 0.845131 0.401399
Si Si3 0.347620 0.252111 0.307269
Si Si4 0.852959 0.559700 0.332126
Si Si5 0.798916 0.652248 0.789795
O O1 0.500000 0.422356 0.500000
O O2 0.329695 0.500000 0.303272
O O3 0.274476 0.403834 0.294875
O O4 0.264826 0.427897 0.985537
O O5 0.664422 0.800430 0.609363
O O6 0.662772 0.901595 0.550551
O O7 0.674232 0.839804 0.344501
O O8 0.441617 0.842787 0.120700
O O9 0.500000 0.261726 0.500000
O O10 0.306464 0.301709 0.341986
O O11 0.250000 0.250000 0.000000
O O12 0.841228 0.500000 0.375825
O O13 0.000000 0.570461 0.500000
#
# Coordination Sequence:
#
# PCOD8094047 Si02
#       5
#     8   8   8   8   8
#     4  10  21  39  62  89 121 157 198 241 288 351
#     4  11  23  39  59  90 125 149 195 253 297 348
#     4  12  23  41  63  84 115 157 201 243 289 352
#     4  10  19  36  62  88 116 154 199 239 286 348
#     4  11  23  39  60  89 122 156 193 245 304 352
#
# _framework density 18.839651
#
# number of rings (size 3 to 8) (size 9 to 14) (size 15 to 20)
#    0.000    1.200    4.000    3.000    0.000    0.800 
#    0.000    5.000    0.000    3.600    0.000    0.000 
#    0.000    0.000    0.000    0.000    0.000    0.000 
#
# Total GULP energy -248060.733707 kJ/mol
# GULP energy per Si atom -12403.036685 kJ/mol
# Density = 1.879677 g / cm^3
# Si number density = 18.839651 Si / 1000 Ang^3
#
#
#
# Elastic Constant Matrix: (Units=GPa)
#
#
# Indices 1 2 3 4 5 6 
#
# 1 107.9597 74.9555 62.2174 0.0000 4.0919 0.0000
# 2 74.9555 139.2600 52.7200 0.0000 -7.0344 0.0000
# 3 62.2174 52.7200 128.0231 0.0000 2.9091 0.0000
# 4 0.0000 0.0000 0.0000 39.4476 0.0000 -0.9538
# 5 4.0919 -7.0344 2.9091 0.0000 26.9332 0.0000
# 6 0.0000 0.0000 0.0000 -0.9538 0.0000 25.4274
#
#
#
# Elastic Compliance Matrix: (Units=1/GPa)
#
#
# Indices 1 2 3 4 5 6 
#
# 1 0.017990 -0.007844 -0.005417 0.000000 -0.004197 0.000000
# 2 -0.007844 0.012114 -0.001279 0.000000 0.004494 0.000000
# 3 -0.005417 -0.001279 0.010986 0.000000 -0.000698 0.000000
# 4 0.000000 0.000000 0.000000 0.025373 0.000000 0.000952
# 5 -0.004197 0.004494 -0.000698 0.000000 0.039015 0.000000
# 6 0.000000 0.000000 0.000000 0.000952 0.000000 0.039363
#
#
# Mechanical properties :
#
#
# Convention : Reuss Voigt Hill
#
# Bulk Modulus (GPa) = 83.26266 83.89205 83.57735
# Shear Modulus (GPa) = 28.10181 30.71831 29.41006
#
# Velocity S-wave (km/s) = 3.86635 4.04234 3.95533
# Velocity P-wave (km/s) = 8.01392 8.14945 8.08197
#
# Compressibility (1/GPa) = 0.01201019
#
# Stress axis : x y z
#
# Youngs Moduli (GPa) = 55.58715 82.55067 91.02389
#
# Poissons Ratio (x) = 0.64753 0.49310
# Poissons Ratio (y) = 0.43603 0.11637
# Poissons Ratio (z) = 0.30113 0.10554
#
# Static dielectric constant tensor:
#      x y z
#    x 3.309880 0.000000 0.149520 
#    y 0.000000 3.639800 0.000000 
#    z 0.149520 0.000000 3.236840 
# 
# 
# High freq. dielectric constant tensor:
#      x y z
#    x 1.724350 0.000000 0.002950 
#    y 0.000000 1.747410 0.000000 
#    z 0.002950 0.000000 1.741000 
# 
# From -- ./inp_files/39343.got.cif
#   From: 2010.06.25/outbox.cif.g09.slc.cpg/sg12_20_cif.got.tgz:39343.got - 2010.06.28 00:19:55.
