data_PCOD8094690
_publ_section_title
;
Structure prediction by ZEFSAII (Michael W. Deem and Ramdas Pophale) SiO2 
 PCOD8094690
Probable space group: C 2/M
;
_chemical_formula_sum "Si O2"
_cell_formula_units_Z 40
_cell_length_a 24.225221
_cell_length_b 8.690302
_cell_length_c 9.554524
_cell_angle_alpha 90.000000
_cell_angle_beta 76.648397
_cell_angle_gamma 90.000000
_cell_volume 1957.094047
_symmetry_space_group_name_H-M "C 2/M"
_symmetry_group_IT_number 12
_symmetry_cell_setting 'monoclinic'
loop_
_space_group_symop_operation_xyz
x,y,z
-x,y,-z
-x,-y,-z
x,-y,z
1/2+x,1/2+y,z
1/2-x,1/2+y,-z
1/2-x,1/2-y,-z
1/2+x,1/2-y,z
loop_
_atom_site_type_symbol
_atom_site_label
_atom_site_fract_x
_atom_site_fract_y
_atom_site_fract_z
Si Si1 0.738749 0.681813 0.854703
Si Si2 0.454716 0.826116 0.648547
Si Si3 0.025498 0.823256 0.835557
Si Si4 0.337373 0.182723 0.593828
Si Si5 0.145390 0.319425 0.726865
O O1 0.741498 0.500000 0.865320
O O2 0.785555 0.745291 0.717625
O O3 0.677550 0.732659 0.833373
O O4 0.750000 0.750000 0.000000
O O5 0.500000 0.826022 0.500000
O O6 0.475191 0.714157 0.758195
O O7 0.395777 0.755974 0.626491
O O8 0.446503 0.000000 0.710939
O O9 0.078842 0.714153 0.775925
O O10 0.044445 0.000000 0.809506
O O11 0.000000 0.785776 0.000000
O O12 0.331576 0.241446 0.437117
O O13 0.339450 0.000000 0.590160
O O14 0.155467 0.500000 0.738235
#
# Coordination Sequence:
#
# PCOD8094690 Si02
#       5
#     8   8   8   8   8
#     4  11  24  42  62  91 126 161 202 252 304 360
#     4  10  19  38  65  92 120 156 202 249 296 361
#     4  11  25  41  58  90 130 163 197 247 305 363
#     4   9  20  39  64  91 121 158 203 250 300 358
#     4  11  22  42  67  90 117 159 208 253 303 360
#
# _framework density 20.438465999999998
#
# number of rings (size 3 to 8) (size 9 to 14) (size 15 to 20)
#    0.000    1.600    2.000    2.400    2.800    2.000 
#    0.000    4.000    0.000    0.000    0.000    0.000 
#    0.000    0.000    0.000    0.000    0.000    0.000 
#
# Total GULP energy -248080.975320 kJ/mol
# GULP energy per Si atom -12404.048766 kJ/mol
# Density = 2.039195 g / cm^3
# Si number density = 20.438466 Si / 1000 Ang^3
#
#
#
# Elastic Constant Matrix: (Units=GPa)
#
#
# Indices 1 2 3 4 5 6 
#
# 1 93.2337 20.7320 40.2023 0.0000 21.8436 0.0000
# 2 20.7320 53.4402 45.6603 0.0000 -0.0158 0.0000
# 3 40.2023 45.6603 138.2201 0.0000 20.2631 0.0000
# 4 0.0000 0.0000 0.0000 30.0168 0.0000 7.7366
# 5 21.8436 -0.0158 20.2631 0.0000 38.1182 0.0000
# 6 0.0000 0.0000 0.0000 7.7366 0.0000 39.0221
#
#
#
# Elastic Compliance Matrix: (Units=1/GPa)
#
#
# Indices 1 2 3 4 5 6 
#
# 1 0.014019 -0.003969 -0.001723 0.000000 -0.007120 0.000000
# 2 -0.003969 0.028095 -0.009177 0.000000 0.007164 0.000000
# 3 -0.001723 -0.009177 0.011521 0.000000 -0.005141 0.000000
# 4 0.000000 0.000000 0.000000 0.035109 0.000000 -0.006961
# 5 -0.007120 0.007164 -0.005141 0.000000 0.033050 0.000000
# 6 0.000000 0.000000 0.000000 -0.006961 0.000000 0.027007
#
#
# Mechanical properties :
#
#
# Convention : Reuss Voigt Hill
#
# Bulk Modulus (GPa) = 41.84388 55.34257 48.59322
# Shear Modulus (GPa) = 26.80897 33.31804 30.06351
#
# Velocity S-wave (km/s) = 3.62566 4.04191 3.83943
# Velocity P-wave (km/s) = 6.16804 6.99422 6.59408
#
# Compressibility (1/GPa) = 0.02389836
#
# Stress axis : x y z
#
# Youngs Moduli (GPa) = 71.33100 35.59295 86.79634
#
# Poissons Ratio (x) = 0.14126 0.14953
# Poissons Ratio (y) = 0.28310 0.79654
# Poissons Ratio (z) = 0.12289 0.32664
#
# Static dielectric constant tensor:
#      x y z
#    x 3.577700 0.000000 -0.084520 
#    y 0.000000 3.474740 0.000000 
#    z -0.084520 0.000000 3.795760 
# 
# 
# High freq. dielectric constant tensor:
#      x y z
#    x 1.810550 0.000000 0.006230 
#    y 0.000000 1.780450 0.000000 
#    z 0.006230 0.000000 1.808140 
# 
# From -- ./inp_files/92790.got.cif
#   From: 2010.06.25/outbox.cif.g09.slc.cpg/sg12_47_cif.got.tgz:92790.got - 2010.06.28 00:19:55.
