data_PCOD8094561
_publ_section_title
;
Structure prediction by ZEFSAII (Michael W. Deem and Ramdas Pophale) SiO2 
 PCOD8094561
Probable space group: C 2/M
;
_chemical_formula_sum "Si O2"
_cell_formula_units_Z 56
_cell_length_a 27.786339
_cell_length_b 18.068155
_cell_length_c 8.755552
_cell_angle_alpha 90.000000
_cell_angle_beta 138.625003
_cell_angle_gamma 90.000000
_cell_volume 2905.493591
_symmetry_space_group_name_H-M "C 2/M"
_symmetry_group_IT_number 12
_symmetry_cell_setting 'monoclinic'
loop_
_space_group_symop_operation_xyz
x,y,z
-x,y,-z
-x,-y,-z
x,-y,z
1/2+x,1/2+y,z
1/2-x,1/2+y,-z
1/2-x,1/2-y,-z
1/2+x,1/2-y,z
loop_
_atom_site_type_symbol
_atom_site_label
_atom_site_fract_x
_atom_site_fract_y
_atom_site_fract_z
Si Si1 0.645294 0.915383 0.028368
Si Si2 0.068855 0.343130 0.568690
Si Si3 0.070015 0.086569 0.080250
Si Si4 0.056772 0.185535 0.770946
Si Si5 0.169905 0.783371 0.800450
Si Si6 0.686844 0.413585 0.607888
Si Si7 0.529359 0.171594 0.902206
O O1 0.729937 0.897183 0.234018
O O2 0.629567 0.000000 0.027400
O O3 0.613722 0.897774 0.783843
O O4 0.608283 0.866834 0.074385
O O5 0.119140 0.280863 0.608899
O O6 0.000000 0.305587 0.500000
O O7 0.028329 0.381733 0.328700
O O8 0.141316 0.107604 0.349117
O O9 0.062624 0.000000 0.047053
O O10 0.073008 0.114951 0.914604
O O11 0.000000 0.119822 0.000000
O O12 0.135831 0.206102 0.888223
O O13 0.029847 0.248360 0.824416
O O14 0.000000 0.164825 0.500000
O O15 0.164010 0.859749 0.692332
O O16 0.250000 0.750000 0.000000
O O17 0.674955 0.500000 0.627766
O O18 0.500000 0.179621 0.000000
#
# Coordination Sequence:
#
# PCOD8094561 Si02
#       7
#     8   8   8   8   8   8   8
#     4  10  20  41  64  85 119 159 194 238 299 354
#     4  10  19  38  59  88 118 152 194 245 291 344
#     4  10  23  40  59  85 116 157 201 239 294 352
#     4  12  21  38  59  82 117 153 192 249 296 340
#     4  12  20  36  61  88 117 152 201 239 288 353
#     4  10  22  40  60  86 123 158 193 242 297 349
#     4  11  22  37  59  88 121 151 197 243 301 342
#
# _framework density 19.273834000000001
#
# number of rings (size 3 to 8) (size 9 to 14) (size 15 to 20)
#    0.000    1.286    5.714    1.286    2.000    3.714 
#    2.571    1.429    0.000    0.429    0.000    0.000 
#    0.000    0.000    0.000    0.000    0.000    0.000 
#
# Total GULP energy -346878.683109 kJ/mol
# GULP energy per Si atom -12388.524397 kJ/mol
# Density = 1.922997 g / cm^3
# Si number density = 19.273834 Si / 1000 Ang^3
#
#
#
# Elastic Constant Matrix: (Units=GPa)
#
#
# Indices 1 2 3 4 5 6 
#
# 1 134.8677 38.4285 72.9209 0.0000 -2.3971 0.0000
# 2 38.4285 53.2292 33.4845 0.0000 -0.3195 0.0000
# 3 72.9209 33.4845 131.7431 0.0000 7.8975 0.0000
# 4 0.0000 0.0000 0.0000 24.2505 0.0000 1.1954
# 5 -2.3971 -0.3195 7.8975 0.0000 39.2346 0.0000
# 6 0.0000 0.0000 0.0000 1.1954 0.0000 24.5367
#
#
#
# Elastic Compliance Matrix: (Units=1/GPa)
#
#
# Indices 1 2 3 4 5 6 
#
# 1 0.011792 -0.005155 -0.005322 0.000000 0.001750 0.000000
# 2 -0.005155 0.024686 -0.003456 0.000000 0.000582 0.000000
# 3 -0.005322 -0.003456 0.011575 0.000000 -0.002683 0.000000
# 4 0.000000 0.000000 0.000000 0.041336 0.000000 -0.002014
# 5 0.001750 0.000582 -0.002683 0.000000 0.026139 0.000000
# 6 0.000000 0.000000 0.000000 -0.002014 0.000000 0.040853
#
#
# Mechanical properties :
#
#
# Convention : Reuss Voigt Hill
#
# Bulk Modulus (GPa) = 49.53402 67.72309 58.62855
# Shear Modulus (GPa) = 26.18139 29.27143 27.72641
#
# Velocity S-wave (km/s) = 3.68963 3.90129 3.79694
# Velocity P-wave (km/s) = 6.62624 7.45031 7.05033
#
# Compressibility (1/GPa) = 0.02018815
#
# Stress axis : x y z
#
# Youngs Moduli (GPa) = 84.80400 40.50929 86.39120
#
# Poissons Ratio (x) = 0.20882 0.45974
# Poissons Ratio (y) = 0.43716 0.29855
# Poissons Ratio (z) = 0.45129 0.13999
#
# Static dielectric constant tensor:
#      x y z
#    x 3.630630 0.000000 -0.012530 
#    y 0.000000 3.480600 0.000000 
#    z -0.012530 0.000000 3.988610 
# 
# 
# High freq. dielectric constant tensor:
#      x y z
#    x 1.744240 0.000000 0.013830 
#    y 0.000000 1.742600 0.000000 
#    z 0.013830 0.000000 1.757130 
# 
# From -- ./inp_files/106027.got.cif
#   From: 2010.06.25/outbox.cif.g09.slc.cpg/sg12_54_cif.got.tgz:106027.got - 2010.06.28 00:19:55.
