data_PCOD8094217
_publ_section_title
;
Structure prediction by ZEFSAII (Michael W. Deem and Ramdas Pophale) SiO2 
 PCOD8094217
Probable space group: C 2/M
;
_chemical_formula_sum "Si O2"
_cell_formula_units_Z 56
_cell_length_a 9.707415
_cell_length_b 22.395702
_cell_length_c 14.903800
_cell_angle_alpha 90.000000
_cell_angle_beta 54.616451
_cell_angle_gamma 90.000000
_cell_volume 2641.676200
_symmetry_space_group_name_H-M "C 2/M"
_symmetry_group_IT_number 12
_symmetry_cell_setting 'monoclinic'
loop_
_space_group_symop_operation_xyz
x,y,z
-x,y,-z
-x,-y,-z
x,-y,z
1/2+x,1/2+y,z
1/2-x,1/2+y,-z
1/2-x,1/2-y,-z
1/2+x,1/2-y,z
loop_
_atom_site_type_symbol
_atom_site_label
_atom_site_fract_x
_atom_site_fract_y
_atom_site_fract_z
Si Si1 0.237008 0.878146 0.356081
Si Si2 0.594730 0.067373 0.201570
Si Si3 0.143119 0.261172 0.759033
Si Si4 0.851366 0.876863 0.247411
Si Si5 0.900461 0.930008 0.416494
Si Si6 0.133915 0.895815 0.009754
Si Si7 0.239768 0.725848 0.102477
O O1 0.416868 0.901301 0.255489
O O2 0.229482 0.806644 0.339790
O O3 0.209097 0.891754 0.471428
O O4 0.095838 0.911583 0.350667
O O5 0.709364 0.099653 0.233328
O O6 0.564925 0.000000 0.243475
O O7 0.686933 0.069749 0.066981
O O8 0.182897 0.192671 0.717507
O O9 0.167433 0.267034 0.858168
O O10 0.956714 0.280608 0.798182
O O11 0.831800 0.915391 0.344210
O O12 0.049134 0.884560 0.138726
O O13 0.878895 0.000000 0.445045
O O14 0.163871 0.836658 0.936717
O O15 0.000000 0.933276 0.000000
O O16 0.250000 0.750000 0.000000
#
# Coordination Sequence:
#
# PCOD8094217 Si02
#       7
#     8   8   8   8   8   8   8
#     4  11  24  43  66  91 122 166 217 270 324 376
#     4  11  22  40  65  93 127 167 217 266 312 373
#     4  12  22  38  64  97 130 161 209 262 321 382
#     4  11  23  40  64  97 128 165 213 260 320 383
#     4  11  25  47  68  86 122 174 222 267 320 380
#     4  10  19  37  58  93 129 165 201 247 318 373
#     4  12  20  36  61  95 133 171 200 247 314 388
#
# _framework density 21.198661999999999
#
# number of rings (size 3 to 8) (size 9 to 14) (size 15 to 20)
#    0.000    0.857    5.714    3.429    0.000    4.286 
#    0.000    3.571    0.000    1.714    0.000    0.000 
#    0.000    0.000    0.000    0.000    0.000    0.000 
#
# Total GULP energy -346926.975705 kJ/mol
# GULP energy per Si atom -12390.249132 kJ/mol
# Density = 2.115041 g / cm^3
# Si number density = 21.198662 Si / 1000 Ang^3
#
#
#
# Elastic Constant Matrix: (Units=GPa)
#
#
# Indices 1 2 3 4 5 6 
#
# 1 69.4760 14.4351 23.4711 0.0000 -4.7203 0.0000
# 2 14.4351 123.4212 41.7968 0.0000 -0.2599 0.0000
# 3 23.4711 41.7968 79.3104 0.0000 5.6266 0.0000
# 4 0.0000 0.0000 0.0000 21.6914 0.0000 -3.3068
# 5 -4.7203 -0.2599 5.6266 0.0000 34.1459 0.0000
# 6 0.0000 0.0000 0.0000 -3.3068 0.0000 24.4685
#
#
#
# Elastic Compliance Matrix: (Units=1/GPa)
#
#
# Indices 1 2 3 4 5 6 
#
# 1 0.016313 -0.000235 -0.004921 0.000000 0.003064 0.000000
# 2 -0.000235 0.009896 -0.005210 0.000000 0.000901 0.000000
# 3 -0.004921 -0.005210 0.017061 0.000000 -0.003531 0.000000
# 4 0.000000 0.000000 0.000000 0.047071 0.000000 0.006361
# 5 0.003064 0.000901 -0.003531 0.000000 0.030298 0.000000
# 6 0.000000 0.000000 0.000000 0.006361 0.000000 0.041729
#
#
# Mechanical properties :
#
#
# Convention : Reuss Voigt Hill
#
# Bulk Modulus (GPa) = 44.36854 47.95707 46.16280
# Shear Modulus (GPa) = 26.23123 28.89480 27.56301
#
# Velocity S-wave (km/s) = 3.52149 3.69595 3.60977
# Velocity P-wave (km/s) = 6.12452 6.39416 6.26079
#
# Compressibility (1/GPa) = 0.02253849
#
# Stress axis : x y z
#
# Youngs Moduli (GPa) = 61.30079 101.05146 58.61287
#
# Poissons Ratio (x) = 0.02374 0.28845
# Poissons Ratio (y) = 0.01440 0.30535
# Poissons Ratio (z) = 0.30168 0.52644
#
# Static dielectric constant tensor:
#      x y z
#    x 3.748950 0.000000 -0.258480 
#    y 0.000000 3.213790 0.000000 
#    z -0.258480 0.000000 3.854890 
# 
# 
# High freq. dielectric constant tensor:
#      x y z
#    x 1.825450 0.000000 -0.012280 
#    y 0.000000 1.834690 0.000000 
#    z -0.012280 0.000000 1.821780 
# 
# From -- ./inp_files/198800.got.cif
#   From: 2010.06.25/outbox.cif.g09.slc.cpg/sg12_100_cif.got.tgz:198800.got - 2010.06.28 00:19:55.
