data_PCOD8094960
_publ_section_title
;
Structure prediction by ZEFSAII (Michael W. Deem and Ramdas Pophale) SiO2 
 PCOD8094960
Probable space group: C 2/M
;
_chemical_formula_sum "Si O2"
_cell_formula_units_Z 64
_cell_length_a 31.344168
_cell_length_b 9.193208
_cell_length_c 14.213317
_cell_angle_alpha 90.000000
_cell_angle_beta 90.834445
_cell_angle_gamma 90.000000
_cell_volume 4095.182073
_symmetry_space_group_name_H-M "C 2/M"
_symmetry_group_IT_number 12
_symmetry_cell_setting 'monoclinic'
loop_
_space_group_symop_operation_xyz
x,y,z
-x,y,-z
-x,-y,-z
x,-y,z
1/2+x,1/2+y,z
1/2-x,1/2+y,-z
1/2-x,1/2-y,-z
1/2+x,1/2-y,z
loop_
_atom_site_type_symbol
_atom_site_label
_atom_site_fract_x
_atom_site_fract_y
_atom_site_fract_z
Si Si1 0.591927 0.667938 0.890253
Si Si2 0.205199 0.330202 0.602989
Si Si3 0.253188 0.327709 0.900990
Si Si4 0.329574 0.169323 0.799578
Si Si5 0.499770 0.671656 0.102696
Si Si6 0.208350 0.666462 0.395338
Si Si7 0.333142 0.169007 0.209928
Si Si8 0.592713 0.331582 0.113151
O O1 0.599638 0.500000 0.868893
O O2 0.544896 0.719866 0.849554
O O3 0.627333 0.753042 0.835259
O O4 0.595389 0.697849 0.001773
O O5 0.213512 0.500000 0.615267
O O6 0.189027 0.289139 0.497212
O O7 0.250240 0.258471 0.627475
O O8 0.170817 0.281485 0.680587
O O9 0.259495 0.500000 0.914231
O O10 0.293561 0.263530 0.848417
O O11 0.210604 0.288823 0.843000
O O12 0.250000 0.250000 0.000000
O O13 0.326736 0.191437 0.686617
O O14 0.375548 0.225686 0.831917
O O15 0.324400 0.000000 0.827182
O O16 0.496871 0.500000 0.089084
O O17 0.545220 0.709362 0.152623
O O18 0.500000 0.745141 0.000000
O O19 0.223382 0.500000 0.399009
O O20 0.342454 0.000000 0.200642
O O21 0.603583 0.500000 0.134982
#
# Coordination Sequence:
#
# PCOD8094960 Si02
#       8
#     8   8   8   8   8   8   8   8
#     4   9  17  29  47  68  90 117 150 186 220 262
#     4   9  17  32  49  64  84 113 149 190 231 267
#     4  11  22  34  45  61  89 126 159 185 215 257
#     4  11  21  31  44  67  94 119 149 186 225 267
#     4   7  12  26  46  66  86 111 148 188 222 258
#     4   9  18  31  48  66  85 112 148 190 231 266
#     4  10  20  31  44  64  90 118 148 183 223 266
#     4   9  17  30  48  67  89 121 154 183 219 265
#
# _framework density 15.628119999999999
#
# number of rings (size 3 to 8) (size 9 to 14) (size 15 to 20)
#    0.000    2.625    1.250    3.000    0.000    4.500 
#    0.000    0.625    0.000    2.250    0.000    0.875 
#    0.000    7.000    0.000    0.000    0.000    0.000 
#
# Total GULP energy -396481.564693 kJ/mol
# GULP energy per Si atom -12390.048897 kJ/mol
# Density = 1.559255 g / cm^3
# Si number density = 15.628120 Si / 1000 Ang^3
#
#
#
# Elastic Constant Matrix: (Units=GPa)
#
#
# Indices 1 2 3 4 5 6 
#
# 1 126.6567 46.8136 53.7441 0.0000 -4.4524 0.0000
# 2 46.8136 48.9069 39.8372 0.0000 -2.9593 0.0000
# 3 53.7441 39.8372 86.6355 0.0000 4.0279 0.0000
# 4 0.0000 0.0000 0.0000 19.5727 0.0000 -1.2817
# 5 -4.4524 -2.9593 4.0279 0.0000 4.6925 0.0000
# 6 0.0000 0.0000 0.0000 -1.2817 0.0000 24.9202
#
#
#
# Elastic Compliance Matrix: (Units=1/GPa)
#
#
# Indices 1 2 3 4 5 6 
#
# 1 0.013490 -0.007780 -0.005373 0.000000 0.012505 0.000000
# 2 -0.007780 0.043779 -0.016920 0.000000 0.034751 0.000000
# 3 -0.005373 -0.016920 0.024361 0.000000 -0.036679 0.000000
# 4 0.000000 0.000000 0.000000 0.051264 0.000000 0.002637
# 5 0.012505 0.034751 -0.036679 0.000000 0.278369 0.000000
# 6 0.000000 0.000000 0.000000 0.002637 0.000000 0.040264
#
#
# Mechanical properties :
#
#
# Convention : Reuss Voigt Hill
#
# Bulk Modulus (GPa) = 46.54400 60.33209 53.43804
# Shear Modulus (GPa) = 9.63700 17.95738 13.79719
#
# Velocity S-wave (km/s) = 2.48593 3.39343 2.97449
# Velocity P-wave (km/s) = 6.17144 7.35136 6.78709
#
# Compressibility (1/GPa) = 0.02148505
#
# Stress axis : x y z
#
# Youngs Moduli (GPa) = 74.12762 22.84208 41.04898
#
# Poissons Ratio (x) = 0.17771 0.22054
# Poissons Ratio (y) = 0.57670 0.69455
# Poissons Ratio (z) = 0.39826 0.38649
#
# Static dielectric constant tensor:
#      x y z
#    x 3.103210 0.000000 -0.000750 
#    y 0.000000 2.936320 0.000000 
#    z -0.000750 0.000000 3.117110 
# 
# 
# High freq. dielectric constant tensor:
#      x y z
#    x 1.592010 0.000000 -0.002510 
#    y 0.000000 1.594650 0.000000 
#    z -0.002510 0.000000 1.583880 
# 
# From -- ./inp_files/248252.got.cif
#   From: 2010.06.25/outbox.cif.g09.slc.cpg/sg12_125_cif.got.tgz:248252.got - 2010.06.28 00:19:55.
