data_PCOD8094358
_publ_section_title
;
Structure prediction by ZEFSAII (Michael W. Deem and Ramdas Pophale) SiO2 
 PCOD8094358
Probable space group: C 2/M
;
_chemical_formula_sum "Si O2"
_cell_formula_units_Z 56
_cell_length_a 28.073362
_cell_length_b 8.864904
_cell_length_c 11.863306
_cell_angle_alpha 90.000000
_cell_angle_beta 73.207526
_cell_angle_gamma 90.000000
_cell_volume 2826.495632
_symmetry_space_group_name_H-M "C 2/M"
_symmetry_group_IT_number 12
_symmetry_cell_setting 'monoclinic'
loop_
_space_group_symop_operation_xyz
x,y,z
-x,y,-z
-x,-y,-z
x,-y,z
1/2+x,1/2+y,z
1/2-x,1/2+y,-z
1/2-x,1/2-y,-z
1/2+x,1/2-y,z
loop_
_atom_site_type_symbol
_atom_site_label
_atom_site_fract_x
_atom_site_fract_y
_atom_site_fract_z
Si Si1 0.744074 0.673799 0.324368
Si Si2 0.896675 0.679155 0.838446
Si Si3 0.570593 0.326622 0.721309
Si Si4 0.215098 0.321950 0.116862
Si Si5 0.320670 0.328524 0.420641
Si Si6 0.441434 0.174888 0.042827
Si Si7 0.012670 0.678830 0.367948
O O1 0.746137 0.500000 0.284960
O O2 0.736278 0.779583 0.223350
O O3 0.699156 0.706965 0.441032
O O4 0.796139 0.716465 0.347110
O O5 0.896886 0.500000 0.839036
O O6 0.841183 0.742126 0.856603
O O7 0.933286 0.735868 0.712790
O O8 0.917163 0.737646 0.944421
O O9 0.553874 0.500000 0.734083
O O10 0.620543 0.302518 0.615362
O O11 0.581643 0.271235 0.840129
O O12 0.527898 0.227863 0.694863
O O13 0.215673 0.500000 0.100650
O O14 0.250000 0.250000 0.000000
O O15 0.307174 0.500000 0.395324
O O16 0.428381 0.000000 0.070526
O O17 0.500000 0.201758 0.000000
O O18 0.011460 0.500000 0.374377
O O19 0.000000 0.747856 0.500000
#
# Coordination Sequence:
#
# PCOD8094358 Si02
#       7
#     8   8   8   8   8   8   8
#     4  10  21  40  63  86 114 152 200 246 298 352
#     4   9  20  39  60  86 116 153 197 245 292 342
#     4  11  23  37  57  89 124 153 188 236 297 355
#     4  11  24  41  61  87 121 157 201 248 297 353
#     4   9  21  40  60  86 120 154 191 242 298 356
#     4  10  19  37  62  83 112 150 194 243 285 334
#     4  10  21  39  63  89 117 154 203 243 282 346
#
# _framework density 19.812519000000002
#
# number of rings (size 3 to 8) (size 9 to 14) (size 15 to 20)
#    0.000    2.000    1.429    1.286    4.000    2.286 
#    0.000    2.143    0.000    0.000    0.000    0.000 
#    0.000    0.000    0.000    0.000    0.000    0.000 
#
# Total GULP energy -347272.079362 kJ/mol
# GULP energy per Si atom -12402.574263 kJ/mol
# Density = 1.976743 g / cm^3
# Si number density = 19.812519 Si / 1000 Ang^3
#
#
#
# Elastic Constant Matrix: (Units=GPa)
#
#
# Indices 1 2 3 4 5 6 
#
# 1 99.8837 26.0976 59.4369 0.0000 -14.9013 0.0000
# 2 26.0976 37.6401 29.9722 0.0000 -5.1378 0.0000
# 3 59.4369 29.9722 139.7046 0.0000 -5.0760 0.0000
# 4 0.0000 0.0000 0.0000 25.7608 0.0000 -3.1232
# 5 -14.9013 -5.1378 -5.0760 0.0000 31.3688 0.0000
# 6 0.0000 0.0000 0.0000 -3.1232 0.0000 21.9860
#
#
#
# Elastic Compliance Matrix: (Units=1/GPa)
#
#
# Indices 1 2 3 4 5 6 
#
# 1 0.015400 -0.005868 -0.005092 0.000000 0.005530 0.000000
# 2 -0.005868 0.034826 -0.004898 0.000000 0.002124 0.000000
# 3 -0.005092 -0.004898 0.010319 0.000000 -0.001551 0.000000
# 4 0.000000 0.000000 0.000000 0.039499 0.000000 0.005611
# 5 0.005530 0.002124 -0.001551 0.000000 0.034603 0.000000
# 6 0.000000 0.000000 0.000000 0.005611 0.000000 0.046281
#
#
# Mechanical properties :
#
#
# Convention : Reuss Voigt Hill
#
# Bulk Modulus (GPa) = 34.68725 56.47130 45.57927
# Shear Modulus (GPa) = 22.49695 26.60456 24.55076
#
# Velocity S-wave (km/s) = 3.37336 3.66842 3.52398
# Velocity P-wave (km/s) = 5.72001 6.81966 6.29390
#
# Compressibility (1/GPa) = 0.02882904
#
# Stress axis : x y z
#
# Youngs Moduli (GPa) = 64.93533 28.71422 96.91073
#
# Poissons Ratio (x) = 0.16849 0.49347
# Poissons Ratio (y) = 0.38103 0.47466
# Poissons Ratio (z) = 0.33065 0.14064
#
# Static dielectric constant tensor:
#      x y z
#    x 3.645980 0.000000 -0.138650 
#    y 0.000000 3.409260 0.000000 
#    z -0.138650 0.000000 3.905560 
# 
# 
# High freq. dielectric constant tensor:
#      x y z
#    x 1.773820 0.000000 -0.005730 
#    y 0.000000 1.754430 0.000000 
#    z -0.005730 0.000000 1.785210 
# 
# From -- ./inp_files/186434.got.cif
#   From: 2010.06.25/outbox.cif.g09.slc.cpg/sg12_94_cif.got.tgz:186434.got - 2010.06.28 00:19:55.
