data_PCOD8094042
_publ_section_title
;
Structure prediction by ZEFSAII (Michael W. Deem and Ramdas Pophale) SiO2 
 PCOD8094042
Probable space group: C 2/M
;
_chemical_formula_sum "Si O2"
_cell_formula_units_Z 40
_cell_length_a 16.841994
_cell_length_b 14.820408
_cell_length_c 14.564069
_cell_angle_alpha 90.000000
_cell_angle_beta 34.870040
_cell_angle_gamma 90.000000
_cell_volume 2078.344107
_symmetry_space_group_name_H-M "C 2/M"
_symmetry_group_IT_number 12
_symmetry_cell_setting 'monoclinic'
loop_
_space_group_symop_operation_xyz
x,y,z
-x,y,-z
-x,-y,-z
x,-y,z
1/2+x,1/2+y,z
1/2-x,1/2+y,-z
1/2-x,1/2-y,-z
1/2+x,1/2-y,z
loop_
_atom_site_type_symbol
_atom_site_label
_atom_site_fract_x
_atom_site_fract_y
_atom_site_fract_z
Si Si1 0.862338 0.859837 0.695300
Si Si2 0.104081 0.598833 0.510243
Si Si3 0.105129 0.000000 0.986117
Si Si4 0.220107 0.500000 0.556002
Si Si5 0.846892 0.500000 0.184860
Si Si6 0.809419 0.338751 0.756677
Si Si7 0.033141 0.000000 0.264743
O O1 0.790549 0.766670 0.796752
O O2 0.000000 0.848081 0.500000
O O3 0.741691 0.911889 0.756263
O O4 0.897977 0.911563 0.756012
O O5 0.096679 0.500000 0.469990
O O6 0.187636 0.590684 0.526857
O O7 0.180737 0.661300 0.363885
O O8 0.949208 0.632363 0.676266
O O9 0.032997 0.000000 0.154105
O O10 0.189718 0.093669 0.902878
O O11 0.000000 0.000000 0.000000
O O12 0.121148 0.500000 0.737277
O O13 0.374743 0.500000 0.446419
O O14 0.000000 0.500000 0.000000
#
# Coordination Sequence:
#
# PCOD8094042 Si02
#       7
#     8   8   4   4   4   8   4
#     4  11  22  42  70  88 123 170 214 261 304 375
#     4   9  17  31  61  89 115 162 202 245 315 357
#     4  12  24  39  62  91 138 162 199 266 315 372
#     4  10  19  36  62  86 122 158 216 245 314 382
#     4  11  24  43  63  87 124 167 212 267 315 361
#     4  11  19  38  62  92 120 164 208 253 311 373
#     4  11  23  41  62  90 121 177 211 249 313 373
#
# _framework density 19.246091
#
# number of rings (size 3 to 8) (size 9 to 14) (size 15 to 20)
#    0.600    0.800    6.000    2.400    0.000    4.800 
#    0.000    6.000    0.000    0.000    0.000    0.000 
#    0.000    0.000    0.000    0.000    0.000    0.000 
#
# Total GULP energy -247779.158567 kJ/mol
# GULP energy per Si atom -12388.957928 kJ/mol
# Density = 1.920229 g / cm^3
# Si number density = 19.246091 Si / 1000 Ang^3
#
#
#
# Elastic Constant Matrix: (Units=GPa)
#
#
# Indices 1 2 3 4 5 6 
#
# 1 114.2231 38.0759 29.8682 0.0000 12.9811 0.0001
# 2 38.0759 143.1178 29.5788 -0.0005 -5.6712 -0.0003
# 3 29.8682 29.5788 87.9642 -0.0006 2.2979 0.0001
# 4 0.0000 -0.0005 -0.0006 3.1879 0.0005 -7.1562
# 5 12.9811 -5.6712 2.2979 0.0005 30.3112 0.0001
# 6 0.0001 -0.0003 0.0001 -7.1562 0.0001 -30.8866
#
#
#
# Elastic Compliance Matrix: (Units=1/GPa)
#
#
# Indices 1 2 3 4 5 6 
#
# 1 0.010865 -0.002525 -0.002711 0.000000 -0.004920 0.000000
# 2 -0.002525 0.008174 -0.001963 0.000000 0.002760 0.000000
# 3 -0.002711 -0.001963 0.012954 0.000002 -0.000188 0.000000
# 4 0.000000 0.000000 0.000002 0.206360 -0.000003 -0.047812
# 5 -0.004920 0.002760 -0.000188 -0.000003 0.035629 0.000001
# 6 0.000000 0.000000 0.000000 -0.047812 0.000001 -0.021299
#
#
# Mechanical properties :
#
#
# Convention : Reuss Voigt Hill
#
# Bulk Modulus (GPa) = 56.84052 60.03899 58.43975
# Shear Modulus (GPa) = 18.31860 17.04132 17.67996
#
# Velocity S-wave (km/s) = 3.08849 2.97887 3.03417
# Velocity P-wave (km/s) = 6.50507 6.56465 6.53493
#
# Compressibility (1/GPa) = 0.01759308
#
# Stress axis : x y z
#
# Youngs Moduli (GPa) = 92.04159 122.33680 77.19591
#
# Poissons Ratio (x) = 0.30891 0.20932
# Poissons Ratio (y) = 0.23241 0.15156
# Poissons Ratio (z) = 0.24957 0.24019
#
# Static dielectric constant tensor:
#      x y z
#    x 3.449780 0.000000 -0.046110 
#    y 0.000000 3.531480 0.000000 
#    z -0.046110 0.000000 3.329070 
# 
# 
# High freq. dielectric constant tensor:
#      x y z
#    x 1.752710 0.000000 -0.002520 
#    y 0.000000 1.743570 0.000000 
#    z -0.002520 0.000000 1.730590 
# 
# From -- ./inp_files/225591.got.cif
#   From: 2010.06.25/outbox.cif.g09.slc.cpg/sg12_113_cif.got.tgz:225591.got - 2010.06.28 00:19:55.
