data_PCOD8094540
_publ_section_title
;
Structure prediction by ZEFSAII (Michael W. Deem and Ramdas Pophale) SiO2 
 PCOD8094540
Probable space group: C 2/M
;
_chemical_formula_sum "Si O2"
_cell_formula_units_Z 64
_cell_length_a 20.518880
_cell_length_b 18.397267
_cell_length_c 11.560056
_cell_angle_alpha 90.000000
_cell_angle_beta 131.243247
_cell_angle_gamma 90.000000
_cell_volume 3281.233234
_symmetry_space_group_name_H-M "C 2/M"
_symmetry_group_IT_number 12
_symmetry_cell_setting 'monoclinic'
loop_
_space_group_symop_operation_xyz
x,y,z
-x,y,-z
-x,-y,-z
x,-y,z
1/2+x,1/2+y,z
1/2-x,1/2+y,-z
1/2-x,1/2-y,-z
1/2+x,1/2-y,z
loop_
_atom_site_type_symbol
_atom_site_label
_atom_site_fract_x
_atom_site_fract_y
_atom_site_fract_z
Si Si1 0.145290 0.351206 0.605010
Si Si2 0.650222 0.707500 0.489882
Si Si3 0.402304 0.419106 0.423534
Si Si4 0.213195 0.844473 0.895713
Si Si5 0.355625 0.213675 0.741719
Si Si6 0.430988 0.082821 0.704518
Si Si7 0.197507 0.786959 0.111387
Si Si8 0.386075 0.084488 0.193144
O O1 0.113755 0.270722 0.531466
O O2 0.129583 0.405113 0.478849
O O3 0.249139 0.347513 0.752378
O O4 0.095182 0.378631 0.660431
O O5 0.609939 0.631255 0.479357
O O6 0.617865 0.727009 0.323191
O O7 0.753413 0.699492 0.615494
O O8 0.500000 0.413378 0.500000
O O9 0.377243 0.500000 0.433120
O O10 0.342741 0.399091 0.244805
O O11 0.229668 0.771811 0.841901
O O12 0.159342 0.823738 0.950294
O O13 0.304989 0.879941 0.034441
O O14 0.404993 0.137279 0.778786
O O15 0.375496 0.248257 0.892712
O O16 0.530564 0.097700 0.788790
O O17 0.418100 0.000000 0.732563
O O18 0.367544 0.000000 0.192444
#
# Coordination Sequence:
#
# PCOD8094540 Si02
#       8
#     8   8   8   8   8   8   8   8
#     4   9  16  31  53  77 107 147 186 231 270 303
#     4   9  18  34  55  80 111 143 179 229 273 320
#     4  11  23  38  60  87 108 134 181 239 290 330
#     4  10  19  38  58  78 106 143 180 231 284 322
#     4   9  17  34  55  78 115 149 183 218 259 320
#     4  10  20  31  48  83 121 152 186 218 256 324
#     4   9  18  35  57  81 106 141 187 231 266 321
#     4  10  20  32  50  78 116 152 183 219 268 329
#
# _framework density 19.504860999999998
#
# number of rings (size 3 to 8) (size 9 to 14) (size 15 to 20)
#    0.000    2.375    2.500    1.875    0.000    3.500 
#    0.000    0.625    0.000    3.000    0.000    1.750 
#    0.000    0.000    0.000    0.000    0.000    0.000 
#
# Total GULP energy -396631.126299 kJ/mol
# GULP energy per Si atom -12394.722697 kJ/mol
# Density = 1.946047 g / cm^3
# Si number density = 19.504861 Si / 1000 Ang^3
#
#
#
# Elastic Constant Matrix: (Units=GPa)
#
#
# Indices 1 2 3 4 5 6 
#
# 1 87.0975 69.1571 32.6192 0.0000 -22.3886 0.0000
# 2 69.1571 127.3061 29.1807 0.0000 -10.9478 0.0000
# 3 32.6192 29.1807 60.1775 0.0000 -12.3751 0.0000
# 4 0.0000 0.0000 0.0000 4.6602 0.0000 4.8519
# 5 -22.3886 -10.9478 -12.3751 0.0000 26.2945 0.0000
# 6 0.0000 0.0000 0.0000 4.8519 0.0000 35.8471
#
#
#
# Elastic Compliance Matrix: (Units=1/GPa)
#
#
# Indices 1 2 3 4 5 6 
#
# 1 0.027247 -0.012168 -0.005691 0.000000 0.015455 0.000000
# 2 -0.012168 0.014353 -0.001401 0.000000 -0.005044 0.000000
# 3 -0.005691 -0.001401 0.021330 0.000000 0.004610 0.000000
# 4 0.000000 0.000000 0.000000 0.249780 0.000000 -0.033808
# 5 0.015455 -0.005044 0.004610 0.000000 0.051259 0.000000
# 6 0.000000 0.000000 0.000000 -0.033808 0.000000 0.032472
#
#
# Mechanical properties :
#
#
# Convention : Reuss Voigt Hill
#
# Bulk Modulus (GPa) = 40.96812 59.61055 50.28934
# Shear Modulus (GPa) = 11.28422 22.93533 17.10977
#
# Velocity S-wave (km/s) = 2.40788 3.43283 2.96498
# Velocity P-wave (km/s) = 5.36472 6.80740 6.12866
#
# Compressibility (1/GPa) = 0.02440922
#
# Stress axis : x y z
#
# Youngs Moduli (GPa) = 36.70122 69.67364 46.88331
#
# Poissons Ratio (x) = 0.84779 0.26679
# Poissons Ratio (y) = 0.44658 0.06570
# Poissons Ratio (z) = 0.20885 0.09764
#
# Static dielectric constant tensor:
#      x y z
#    x 3.566140 0.000000 -0.317240 
#    y 0.000000 3.691170 0.000000 
#    z -0.317240 0.000000 3.504850 
# 
# 
# High freq. dielectric constant tensor:
#      x y z
#    x 1.744700 0.000000 -0.020310 
#    y 0.000000 1.755940 0.000000 
#    z -0.020310 0.000000 1.747930 
# 
# From -- ./inp_files/168809.got.cif
#   From: 2010.06.25/outbox.cif.g09.slc.cpg/sg12_85_cif.got.tgz:168809.got - 2010.06.28 00:19:55.
