data_PCOD8094702
_publ_section_title
;
Structure prediction by ZEFSAII (Michael W. Deem and Ramdas Pophale) SiO2 
 PCOD8094702
Probable space group: C 2/M
;
_chemical_formula_sum "Si O2"
_cell_formula_units_Z 52
_cell_length_a 9.425700
_cell_length_b 16.956562
_cell_length_c 23.632347
_cell_angle_alpha 90.000000
_cell_angle_beta 137.628360
_cell_angle_gamma 90.000000
_cell_volume 2545.525392
_symmetry_space_group_name_H-M "C 2/M"
_symmetry_group_IT_number 12
_symmetry_cell_setting 'monoclinic'
loop_
_space_group_symop_operation_xyz
x,y,z
-x,y,-z
-x,-y,-z
x,-y,z
1/2+x,1/2+y,z
1/2-x,1/2+y,-z
1/2-x,1/2-y,-z
1/2+x,1/2-y,z
loop_
_atom_site_type_symbol
_atom_site_label
_atom_site_fract_x
_atom_site_fract_y
_atom_site_fract_z
Si Si1 0.000000 0.702267 0.000000
Si Si2 0.774078 0.090352 0.003360
Si Si3 0.094625 0.590208 0.290881
Si Si4 0.785159 0.847740 0.884841
Si Si5 0.353820 0.809299 0.405889
Si Si6 0.507688 0.334434 0.619928
Si Si7 0.334785 0.909177 0.559320
O O1 0.119785 0.647402 0.991450
O O2 0.165164 0.757546 0.082636
O O3 0.013955 0.114712 0.087788
O O4 0.733452 0.000000 0.009163
O O5 0.730406 0.100611 0.923916
O O6 0.017377 0.500000 0.264910
O O7 0.309326 0.600351 0.317763
O O8 0.150623 0.616090 0.371165
O O9 0.911942 0.648122 0.215220
O O10 0.500000 0.779839 0.500000
O O11 0.367973 0.744958 0.360425
O O12 0.115368 0.823090 0.357096
O O13 0.444135 0.891359 0.406952
O O14 0.347470 0.357880 0.522923
O O15 0.276438 0.000000 0.535154
#
# Coordination Sequence:
#
# PCOD8094702 Si02
#       7
#     4   8   8   8   8   8   8
#     4  10  21  40  63  94 124 148 196 244 289 354
#     4  10  19  38  66  91 119 154 193 239 294 351
#     4  11  22  37  58  85 117 153 200 245 292 351
#     4  10  20  39  61  86 121 161 196 233 292 363
#     4  10  20  36  57  79 110 147 198 248 298 353
#     4  11  21  37  58  82 113 155 201 247 296 347
#     4  10  21  37  58  83 114 153 200 250 297 343
#
# _framework density 20.428004000000001
#
# number of rings (size 3 to 8) (size 9 to 14) (size 15 to 20)
#    0.000    1.846    0.000    8.538    0.000    4.615 
#   11.077    0.000    0.000    1.846    0.000    0.000 
#    0.000    0.000    0.000    0.000    0.000    0.000 
#
# Total GULP energy -322393.020298 kJ/mol
# GULP energy per Si atom -12399.731550 kJ/mol
# Density = 2.038151 g / cm^3
# Si number density = 20.428004 Si / 1000 Ang^3
#
#
#
# Elastic Constant Matrix: (Units=GPa)
#
#
# Indices 1 2 3 4 5 6 
#
# 1 135.4910 41.1093 38.6751 0.0000 13.3322 0.0000
# 2 41.1093 103.9336 30.0915 0.0000 3.5296 0.0000
# 3 38.6751 30.0915 72.0245 -0.0001 17.3810 0.0001
# 4 0.0000 0.0000 -0.0001 17.0433 0.0000 -0.2465
# 5 13.3322 3.5296 17.3810 0.0000 13.8514 0.0000
# 6 0.0000 0.0000 0.0001 -0.2465 0.0000 35.9237
#
#
#
# Elastic Compliance Matrix: (Units=1/GPa)
#
#
# Indices 1 2 3 4 5 6 
#
# 1 0.009500 -0.002799 -0.002721 0.000000 -0.005016 0.000000
# 2 -0.002799 0.011946 -0.004882 0.000000 0.005776 0.000000
# 3 -0.002721 -0.004882 0.023599 0.000000 -0.025749 0.000000
# 4 0.000000 0.000000 0.000000 0.058680 0.000000 0.000403
# 5 -0.005016 0.005776 -0.025749 0.000000 0.107861 0.000000
# 6 0.000000 0.000000 0.000000 0.000403 0.000000 0.027840
#
#
# Mechanical properties :
#
#
# Convention : Reuss Voigt Hill
#
# Bulk Modulus (GPa) = 41.25376 59.02232 50.13804
# Shear Modulus (GPa) = 18.63511 26.80190 22.71851
#
# Velocity S-wave (km/s) = 3.02360 3.62611 3.33847
# Velocity P-wave (km/s) = 5.69457 6.81815 6.28153
#
# Compressibility (1/GPa) = 0.02424021
#
# Stress axis : x y z
#
# Youngs Moduli (GPa) = 105.25977 83.70980 42.37519
#
# Poissons Ratio (x) = 0.23434 0.11532
# Poissons Ratio (y) = 0.29467 0.20686
# Poissons Ratio (z) = 0.28644 0.40864
#
# Static dielectric constant tensor:
#      x y z
#    x 4.015960 0.000000 0.055350 
#    y 0.000000 3.668460 0.000000 
#    z 0.055350 0.000000 3.315280 
# 
# 
# High freq. dielectric constant tensor:
#      x y z
#    x 1.808980 0.000000 0.004660 
#    y 0.000000 1.804530 0.000000 
#    z 0.004660 0.000000 1.760530 
# 
# From -- ./inp_files/301189.got.cif
#   From: 2010.06.25/outbox.cif.g09.slc.cpg/sg12_151_cif.got.tgz:301189.got - 2010.06.28 00:19:55.
