data_PCOD8094550
_publ_section_title
;
Structure prediction by ZEFSAII (Michael W. Deem and Ramdas Pophale) SiO2 
 PCOD8094550
Probable space group: C 2/M
;
_chemical_formula_sum "Si O2"
_cell_formula_units_Z 56
_cell_length_a 12.277052
_cell_length_b 31.931151
_cell_length_c 14.600730
_cell_angle_alpha 90.000000
_cell_angle_beta 29.403567
_cell_angle_gamma 90.000000
_cell_volume 2810.137509
_symmetry_space_group_name_H-M "C 2/M"
_symmetry_group_IT_number 12
_symmetry_cell_setting 'monoclinic'
loop_
_space_group_symop_operation_xyz
x,y,z
-x,y,-z
-x,-y,-z
x,-y,z
1/2+x,1/2+y,z
1/2-x,1/2+y,-z
1/2-x,1/2-y,-z
1/2+x,1/2-y,z
loop_
_atom_site_type_symbol
_atom_site_label
_atom_site_fract_x
_atom_site_fract_y
_atom_site_fract_z
Si Si1 0.291020 0.268740 0.592131
Si Si2 0.426393 0.307633 0.306326
Si Si3 0.623369 0.403189 0.650499
Si Si4 0.983567 0.548392 0.729424
Si Si5 0.123618 0.416497 0.997992
Si Si6 0.563592 0.178325 0.054570
Si Si7 0.245177 0.546067 0.280476
O O1 0.500000 0.277876 0.500000
O O2 0.382250 0.279256 0.426081
O O3 0.199169 0.221179 0.677211
O O4 0.094616 0.300972 0.755855
O O5 0.321802 0.353870 0.386218
O O6 0.687929 0.310402 0.097511
O O7 0.801061 0.424635 0.454055
O O8 0.620202 0.420624 0.757355
O O9 0.383046 0.412152 0.783285
O O10 0.047757 0.500000 0.668030
O O11 0.911719 0.555318 0.886409
O O12 0.778535 0.559624 0.809673
O O13 0.019880 0.371148 0.093195
O O14 0.000000 0.436689 0.000000
O O15 0.500000 0.194856 0.000000
O O16 0.358878 0.500000 0.204581
O O17 0.000000 0.543581 0.500000
#
# Coordination Sequence:
#
# PCOD8094550 Si02
#       7
#     8   8   8   8   8   8   8
#     4  11  21  35  58  84 112 146 192 233 284 342
#     4  10  22  36  55  85 113 148 186 237 286 337
#     4  10  20  38  60  83 115 150 189 235 290 339
#     4  10  21  38  60  86 116 150 188 235 290 344
#     4  10  23  38  56  84 113 153 201 237 275 336
#     4  10  19  38  59  76 110 153 191 234 281 335
#     4   8  16  33  59  84 108 143 183 226 282 345
#
# _framework density 19.927849999999999
#
# number of rings (size 3 to 8) (size 9 to 14) (size 15 to 20)
#    0.000    2.143    1.429    2.571    0.000    4.286 
#    0.000    2.143    3.143    0.000    0.000    0.000 
#    0.000    0.000    0.000    0.000    0.000    0.000 
#
# Total GULP energy -347096.424066 kJ/mol
# GULP energy per Si atom -12396.300859 kJ/mol
# Density = 1.988249 g / cm^3
# Si number density = 19.927850 Si / 1000 Ang^3
#
#
#
# Elastic Constant Matrix: (Units=GPa)
#
#
# Indices 1 2 3 4 5 6 
#
# 1 89.3579 30.4374 8.4308 0.0000 0.6882 0.0000
# 2 30.4374 96.3542 22.5209 0.0000 -14.3846 0.0000
# 3 8.4308 22.5209 49.2989 0.0000 -4.4751 -0.0001
# 4 0.0000 0.0000 0.0000 31.9970 0.0000 -7.3275
# 5 0.6882 -14.3846 -4.4751 0.0000 25.7363 0.0000
# 6 0.0000 0.0000 -0.0001 -7.3275 0.0000 30.9830
#
#
#
# Elastic Compliance Matrix: (Units=1/GPa)
#
#
# Indices 1 2 3 4 5 6 
#
# 1 0.012734 -0.004342 -0.000453 0.000000 -0.002846 0.000000
# 2 -0.004342 0.013972 -0.005000 0.000000 0.007056 0.000000
# 3 -0.000453 -0.005000 0.022752 0.000000 0.001174 0.000000
# 4 0.000000 0.000000 0.000000 0.033043 0.000000 0.007815
# 5 -0.002846 0.007056 0.001174 0.000000 0.043080 0.000000
# 6 0.000000 0.000000 0.000000 0.007815 0.000000 0.034124
#
#
# Mechanical properties :
#
#
# Convention : Reuss Voigt Hill
#
# Bulk Modulus (GPa) = 33.47790 39.75436 36.61613
# Shear Modulus (GPa) = 26.42009 29.31804 27.86907
#
# Velocity S-wave (km/s) = 3.64509 3.83980 3.74371
# Velocity P-wave (km/s) = 5.87806 6.29692 6.09109
#
# Compressibility (1/GPa) = 0.02987045
#
# Stress axis : x y z
#
# Youngs Moduli (GPa) = 78.52687 71.57245 43.95140
#
# Poissons Ratio (x) = 0.31075 0.01990
# Poissons Ratio (y) = 0.34095 0.21974
# Poissons Ratio (z) = 0.03555 0.35784
#
# Static dielectric constant tensor:
#      x y z
#    x 3.532330 0.000000 0.014540 
#    y 0.000000 3.704610 0.000000 
#    z 0.014540 0.000000 3.448030 
# 
# 
# High freq. dielectric constant tensor:
#      x y z
#    x 1.774820 0.000000 -0.005930 
#    y 0.000000 1.775710 0.000000 
#    z -0.005930 0.000000 1.775440 
# 
# From -- ./inp_files/209983.got.cif
#   From: 2010.06.25/outbox.cif.g09.slc.cpg/sg12_105_cif.got.tgz:209983.got - 2010.06.28 00:19:55.
