data_PCOD8094266
_publ_section_title
;
Structure prediction by ZEFSAII (Michael W. Deem and Ramdas Pophale) SiO2 
 PCOD8094266
Probable space group: C 2/M
;
_chemical_formula_sum "Si O2"
_cell_formula_units_Z 56
_cell_length_a 20.254189
_cell_length_b 8.984053
_cell_length_c 22.054641
_cell_angle_alpha 90.000000
_cell_angle_beta 131.761547
_cell_angle_gamma 90.000000
_cell_volume 2993.513697
_symmetry_space_group_name_H-M "C 2/M"
_symmetry_group_IT_number 12
_symmetry_cell_setting 'monoclinic'
loop_
_space_group_symop_operation_xyz
x,y,z
-x,y,-z
-x,-y,-z
x,-y,z
1/2+x,1/2+y,z
1/2-x,1/2+y,-z
1/2-x,1/2-y,-z
1/2+x,1/2-y,z
loop_
_atom_site_type_symbol
_atom_site_label
_atom_site_fract_x
_atom_site_fract_y
_atom_site_fract_z
Si Si1 0.818856 0.825213 0.997418
Si Si2 0.820807 0.325578 0.750150
Si Si3 0.950213 0.328463 0.273318
Si Si4 0.256774 0.825257 0.410397
Si Si5 0.978346 0.325769 0.152823
Si Si6 0.748273 0.328931 0.176000
Si Si7 0.615141 0.674354 0.424404
O O1 0.917228 0.765126 0.069210
O O2 0.814583 0.000000 0.006061
O O3 0.750000 0.750000 0.000000
O O4 0.793167 0.784154 0.913453
O O5 0.806836 0.500000 0.732675
O O6 0.757300 0.240806 0.664661
O O7 0.795683 0.278911 0.802284
O O8 0.921611 0.279216 0.799665
O O9 0.979766 0.500000 0.296106
O O10 0.953526 0.277085 0.205630
O O11 0.853014 0.301779 0.239675
O O12 0.015713 0.229847 0.353667
O O13 0.345369 0.754756 0.492488
O O14 0.172826 0.782896 0.400710
O O15 0.270819 0.000000 0.413856
O O16 0.961384 0.500000 0.132362
O O17 0.726909 0.500000 0.178903
O O18 0.615558 0.500000 0.437035
#
# Coordination Sequence:
#
# PCOD8094266 Si02
#       7
#     8   8   8   8   8   8   8
#     4  11  22  38  61  88 117 152 195 244 291 340
#     4  11  23  39  60  86 119 155 191 241 292 341
#     4  10  19  37  60  83 116 154 193 238 288 344
#     4  10  20  35  57  85 119 156 191 233 289 347
#     4  10  21  38  60  86 117 152 194 240 290 343
#     4  10  23  41  59  82 117 157 192 234 292 352
#     4  10  20  33  56  90 119 147 193 243 285 335
#
# _framework density 18.707114000000001
#
# number of rings (size 3 to 8) (size 9 to 14) (size 15 to 20)
#    0.000    1.714    2.857    1.714    0.000    5.143 
#    0.000    3.571    0.000    4.286    0.000    0.000 
#    0.000    0.000    0.000    0.000    0.000    0.000 
#
# Total GULP energy -347377.055967 kJ/mol
# GULP energy per Si atom -12406.323427 kJ/mol
# Density = 1.866454 g / cm^3
# Si number density = 18.707114 Si / 1000 Ang^3
#
#
#
# Elastic Constant Matrix: (Units=GPa)
#
#
# Indices 1 2 3 4 5 6 
#
# 1 67.1721 30.3074 30.1847 0.0000 -9.6334 0.0000
# 2 30.3074 79.0311 57.8538 0.0000 -3.0448 0.0000
# 3 30.1847 57.8538 132.4694 0.0000 -0.1055 0.0000
# 4 0.0000 0.0000 0.0000 39.9617 0.0000 1.2301
# 5 -9.6334 -3.0448 -0.1055 0.0000 23.9016 0.0000
# 6 0.0000 0.0000 0.0000 1.2301 0.0000 31.7476
#
#
#
# Elastic Compliance Matrix: (Units=1/GPa)
#
#
# Indices 1 2 3 4 5 6 
#
# 1 0.019348 -0.005769 -0.001884 0.000000 0.007055 0.000000
# 2 -0.005769 0.020451 -0.007617 0.000000 0.000246 0.000000
# 3 -0.001884 -0.007617 0.011303 0.000000 -0.001680 0.000000
# 4 0.000000 0.000000 0.000000 0.025054 0.000000 -0.000971
# 5 0.007055 0.000246 -0.001680 0.000000 0.044706 0.000000
# 6 0.000000 0.000000 0.000000 -0.000971 0.000000 0.031536
#
#
# Mechanical properties :
#
#
# Convention : Reuss Voigt Hill
#
# Bulk Modulus (GPa) = 48.63002 57.26272 52.94637
# Shear Modulus (GPa) = 26.34464 29.81061 28.07763
#
# Velocity S-wave (km/s) = 3.75676 3.99625 3.87836
# Velocity P-wave (km/s) = 6.69848 7.20902 6.95843
#
# Compressibility (1/GPa) = 0.02056343
#
# Stress axis : x y z
#
# Youngs Moduli (GPa) = 51.68404 48.89735 88.46978
#
# Poissons Ratio (x) = 0.28210 0.16663
# Poissons Ratio (y) = 0.29818 0.67386
# Poissons Ratio (z) = 0.09735 0.37244
#
# Static dielectric constant tensor:
#      x y z
#    x 3.270710 0.000000 0.070000 
#    y 0.000000 3.413200 0.000000 
#    z 0.070000 0.000000 3.551640 
# 
# 
# High freq. dielectric constant tensor:
#      x y z
#    x 1.710890 0.000000 0.006910 
#    y 0.000000 1.731340 0.000000 
#    z 0.006910 0.000000 1.738680 
# 
# From -- ./inp_files/320239.got.cif
#   From: 2010.06.25/outbox.cif.g09.slc.cpg/sg12_161_cif.got.tgz:320239.got - 2010.06.28 00:19:55.
