data_PCOD8094078
_publ_section_title
;
Structure prediction by ZEFSAII (Michael W. Deem and Ramdas Pophale) SiO2 
 PCOD8094078
Probable space group: C 2/M
;
_chemical_formula_sum "Si O2"
_cell_formula_units_Z 56
_cell_length_a 16.505784
_cell_length_b 21.285335
_cell_length_c 10.075997
_cell_angle_alpha 90.000000
_cell_angle_beta 53.656718
_cell_angle_gamma 90.000000
_cell_volume 2851.411454
_symmetry_space_group_name_H-M "C 2/M"
_symmetry_group_IT_number 12
_symmetry_cell_setting 'monoclinic'
loop_
_space_group_symop_operation_xyz
x,y,z
-x,y,-z
-x,-y,-z
x,-y,z
1/2+x,1/2+y,z
1/2-x,1/2+y,-z
1/2-x,1/2-y,-z
1/2+x,1/2-y,z
loop_
_atom_site_type_symbol
_atom_site_label
_atom_site_fract_x
_atom_site_fract_y
_atom_site_fract_z
Si Si1 0.116660 0.137056 0.878529
Si Si2 0.887992 0.381941 0.976270
Si Si3 0.279920 0.239304 0.122428
Si Si4 0.687340 0.572364 0.061368
Si Si5 0.387385 0.650703 0.629028
Si Si6 0.904861 0.570906 0.247981
Si Si7 0.688652 0.574523 0.543253
O O1 0.184545 0.197993 0.839823
O O2 0.138177 0.109969 0.713504
O O3 0.145817 0.082935 0.954276
O O4 0.000000 0.155387 0.000000
O O5 0.999066 0.386785 0.804105
O O6 0.871727 0.309834 0.033221
O O7 0.803923 0.406204 0.955290
O O8 0.879694 0.423905 0.116500
O O9 0.186433 0.210865 0.296847
O O10 0.250000 0.250000 0.000000
O O11 0.675790 0.500000 0.110661
O O12 0.620314 0.614176 0.224484
O O13 0.500000 0.676205 0.500000
O O14 0.359846 0.601166 0.542813
O O15 0.935583 0.500000 0.249557
O O16 0.807826 0.589967 0.428194
O O17 0.668566 0.500000 0.568894
#
# Coordination Sequence:
#
# PCOD8094078 Si02
#       7
#     8   8   8   8   8   8   8
#     4  12  27  43  63  91 131 173 209 256 323 387
#     4  10  19  36  66  92 121 164 208 259 317 363
#     4  11  23  45  63  88 127 164 216 259 300 379
#     4  11  21  40  66  92 125 169 216 259 316 379
#     4  11  23  41  66  96 121 163 216 269 313 365
#     4  10  19  36  63 100 128 152 205 267 321 374
#     4  11  24  42  62  96 135 160 208 272 320 375
#
# _framework density 19.639396000000001
#
# number of rings (size 3 to 8) (size 9 to 14) (size 15 to 20)
#    0.000    1.143    5.714    3.429    2.000    4.000 
#    2.571    0.714    0.000    2.571    0.000    0.000 
#    0.000    0.000    0.000    0.000    0.000    0.000 
#
# Total GULP energy -347237.502504 kJ/mol
# GULP energy per Si atom -12401.339375 kJ/mol
# Density = 1.959470 g / cm^3
# Si number density = 19.639396 Si / 1000 Ang^3
#
#
#
# Elastic Constant Matrix: (Units=GPa)
#
#
# Indices 1 2 3 4 5 6 
#
# 1 88.1189 36.0282 30.1131 0.0000 -24.1329 0.0000
# 2 36.0282 97.6609 42.0739 0.0000 -20.7206 0.0000
# 3 30.1131 42.0739 88.5472 0.0000 -23.1760 0.0000
# 4 0.0000 0.0000 0.0000 23.8631 0.0000 2.9189
# 5 -24.1329 -20.7206 -23.1760 0.0000 36.4289 0.0000
# 6 0.0000 0.0000 0.0000 2.9189 0.0000 21.3180
#
#
#
# Elastic Compliance Matrix: (Units=1/GPa)
#
#
# Indices 1 2 3 4 5 6 
#
# 1 0.015263 -0.003382 -0.001728 0.000000 0.007088 0.000000
# 2 -0.003382 0.014161 -0.004867 0.000000 0.002717 0.000000
# 3 -0.001728 -0.004867 0.015801 0.000000 0.006139 0.000000
# 4 0.000000 0.000000 0.000000 0.042619 0.000000 -0.005835
# 5 0.007088 0.002717 0.006139 0.000000 0.037597 0.000000
# 6 0.000000 0.000000 0.000000 -0.005835 0.000000 0.047708
#
#
# Mechanical properties :
#
#
# Convention : Reuss Voigt Hill
#
# Bulk Modulus (GPa) = 39.57449 54.52861 47.05155
# Shear Modulus (GPa) = 24.81059 27.39613 26.10336
#
# Velocity S-wave (km/s) = 3.55816 3.73897 3.64968
# Velocity P-wave (km/s) = 6.08892 6.81652 6.46297
#
# Compressibility (1/GPa) = 0.02526880
#
# Stress axis : x y z
#
# Youngs Moduli (GPa) = 65.51827 70.61836 63.28876
#
# Poissons Ratio (x) = 0.23885 0.10939
# Poissons Ratio (y) = 0.22160 0.30803
# Poissons Ratio (z) = 0.11324 0.34370
#
# Static dielectric constant tensor:
#      x y z
#    x 3.478370 0.000000 -0.073050 
#    y 0.000000 3.704270 0.000000 
#    z -0.073050 0.000000 3.505040 
# 
# 
# High freq. dielectric constant tensor:
#      x y z
#    x 1.771920 0.000000 -0.012760 
#    y 0.000000 1.767630 0.000000 
#    z -0.012760 0.000000 1.753150 
# 
# From -- ./inp_files/65730.got.cif
#   From: 2010.06.25/outbox.cif.g09.slc.cpg/sg12_33_cif.got.tgz:65730.got - 2010.06.28 00:19:55.
