data_PCOD8094862
_publ_section_title
;
Structure prediction by ZEFSAII (Michael W. Deem and Ramdas Pophale) SiO2 
 PCOD8094862
Probable space group: C 2/M
;
_chemical_formula_sum "Si O2"
_cell_formula_units_Z 64
_cell_length_a 30.813859
_cell_length_b 18.460252
_cell_length_c 9.103816
_cell_angle_alpha 90.000000
_cell_angle_beta 144.970705
_cell_angle_gamma 90.000000
_cell_volume 2972.456037
_symmetry_space_group_name_H-M "C 2/M"
_symmetry_group_IT_number 12
_symmetry_cell_setting 'monoclinic'
loop_
_space_group_symop_operation_xyz
x,y,z
-x,y,-z
-x,-y,-z
x,-y,z
1/2+x,1/2+y,z
1/2-x,1/2+y,-z
1/2-x,1/2-y,-z
1/2+x,1/2-y,z
loop_
_atom_site_type_symbol
_atom_site_label
_atom_site_fract_x
_atom_site_fract_y
_atom_site_fract_z
Si Si1 0.031761 0.580760 0.248395
Si Si2 0.461685 0.206541 0.544992
Si Si3 0.308918 0.080159 0.426863
Si Si4 0.804285 0.303501 0.987472
Si Si5 0.256548 0.834469 0.544605
Si Si6 0.450588 0.642172 0.656338
Si Si7 0.809568 0.147021 0.089485
Si Si8 0.102356 0.086430 0.177900
O O1 0.013862 0.500000 0.257050
O O2 0.995075 0.638990 0.258731
O O3 0.121151 0.596196 0.485672
O O4 0.000000 0.592726 0.000000
O O5 0.500000 0.232166 0.500000
O O6 0.379198 0.174007 0.281704
O O7 0.460976 0.271648 0.660956
O O8 0.310528 0.134182 0.568525
O O9 0.313927 0.000000 0.507571
O O10 0.234097 0.084697 0.118248
O O11 0.810745 0.216248 0.983023
O O12 0.798076 0.344901 0.815509
O O13 0.730238 0.326289 0.871811
O O14 0.250000 0.750000 0.500000
O O15 0.176964 0.877454 0.316735
O O16 0.392630 0.617109 0.366280
O O17 0.414228 0.625301 0.713527
O O18 0.531690 0.601763 0.871467
O O19 0.112716 0.000000 0.226718
#
# Coordination Sequence:
#
# PCOD8094862 Si02
#       8
#     8   8   8   8   8   8   8   8
#     4  10  24  44  64  89 132 179 220 278 347 406
#     4  11  25  40  66 102 134 167 233 283 335 410
#     4  11  24  41  63  95 130 170 222 275 336 407
#     4  10  21  40  63  94 126 168 221 278 326 389
#     4  12  25  40  70  96 132 174 220 278 333 385
#     4  10  23  40  69  97 134 180 225 277 330 403
#     4  10  19  41  65  92 126 169 225 275 329 393
#     4  11  25  45  66 102 141 181 227 275 337 413
#
# _framework density 21.531016000000001
#
# number of rings (size 3 to 8) (size 9 to 14) (size 15 to 20)
#    0.000    1.375    3.750    1.125    7.000    1.250 
#    0.000    1.250    0.000    3.000    0.000    0.000 
#    0.000    0.000    0.000    0.000    0.000    0.000 
#
# Total GULP energy -396682.799880 kJ/mol
# GULP energy per Si atom -12396.337496 kJ/mol
# Density = 2.148201 g / cm^3
# Si number density = 21.531016 Si / 1000 Ang^3
#
#
#
# Elastic Constant Matrix: (Units=GPa)
#
#
# Indices 1 2 3 4 5 6 
#
# 1 43.0993 47.4590 14.1532 0.0000 -9.5346 0.0000
# 2 47.4590 125.3252 38.8182 0.0000 -11.4537 0.0000
# 3 14.1532 38.8182 99.7849 0.0000 -1.2433 0.0000
# 4 0.0000 0.0000 0.0000 27.0003 0.0000 2.3519
# 5 -9.5346 -11.4537 -1.2433 0.0000 26.4861 0.0000
# 6 0.0000 0.0000 0.0000 2.3519 0.0000 24.6745
#
#
#
# Elastic Compliance Matrix: (Units=1/GPa)
#
#
# Indices 1 2 3 4 5 6 
#
# 1 0.041554 -0.014971 0.000036 0.000000 0.008486 0.000000
# 2 -0.014971 0.014857 -0.003645 0.000000 0.000864 0.000000
# 3 0.000036 -0.003645 0.011422 0.000000 -0.001027 0.000000
# 4 0.000000 0.000000 0.000000 0.037347 0.000000 -0.003560
# 5 0.008486 0.000864 -0.001027 0.000000 0.041136 0.000000
# 6 0.000000 0.000000 0.000000 -0.003560 0.000000 0.040867
#
#
# Mechanical properties :
#
#
# Convention : Reuss Voigt Hill
#
# Bulk Modulus (GPa) = 32.60432 52.11891 42.36162
# Shear Modulus (GPa) = 21.31592 26.81745 24.06668
#
# Velocity S-wave (km/s) = 3.14986 3.53303 3.34693
# Velocity P-wave (km/s) = 5.32960 6.39547 5.88671
#
# Compressibility (1/GPa) = 0.03067078
#
# Stress axis : x y z
#
# Youngs Moduli (GPa) = 24.06536 67.30947 87.55232
#
# Poissons Ratio (x) = 1.00771 -0.00315
# Poissons Ratio (y) = 0.36029 0.31915
# Poissons Ratio (z) = -0.00087 0.24536
#
# Static dielectric constant tensor:
#      x y z
#    x 3.822480 0.000000 0.136120 
#    y 0.000000 3.820400 0.000000 
#    z 0.136120 0.000000 4.168560 
# 
# 
# High freq. dielectric constant tensor:
#      x y z
#    x 1.831250 0.000000 -0.000040 
#    y 0.000000 1.835560 0.000000 
#    z -0.000040 0.000000 1.858690 
# 
# From -- ./inp_files/112884.got.cif
#   From: 2010.06.25/outbox.cif.g09.slc.cpg/sg12_57_cif.got.tgz:112884.got - 2010.06.28 00:19:55.
