data_PCOD8094687
_publ_section_title
;
Structure prediction by ZEFSAII (Michael W. Deem and Ramdas Pophale) SiO2 
 PCOD8094687
Probable space group: C 2/M
;
_chemical_formula_sum "Si O2"
_cell_formula_units_Z 40
_cell_length_a 32.239419
_cell_length_b 15.230161
_cell_length_c 9.246875
_cell_angle_alpha 90.000000
_cell_angle_beta 154.099654
_cell_angle_gamma 90.000000
_cell_volume 1983.245587
_symmetry_space_group_name_H-M "C 2/M"
_symmetry_group_IT_number 12
_symmetry_cell_setting 'monoclinic'
loop_
_space_group_symop_operation_xyz
x,y,z
-x,y,-z
-x,-y,-z
x,-y,z
1/2+x,1/2+y,z
1/2-x,1/2+y,-z
1/2-x,1/2-y,-z
1/2+x,1/2-y,z
loop_
_atom_site_type_symbol
_atom_site_label
_atom_site_fract_x
_atom_site_fract_y
_atom_site_fract_z
Si Si1 0.474450 0.186051 0.764313
Si Si2 0.648232 0.764978 0.115510
Si Si3 0.826648 0.175000 0.266287
Si Si4 0.609449 0.593987 0.832347
Si Si5 0.839283 0.399926 0.107260
O O1 0.420468 0.278787 0.626149
O O2 0.407840 0.123155 0.458067
O O3 0.500000 0.142578 0.000000
O O4 0.574510 0.202271 0.002245
O O5 0.750000 0.750000 0.500000
O O6 0.626880 0.666540 0.004988
O O7 0.639895 0.832767 0.956866
O O8 0.855055 0.125363 0.211255
O O9 0.750000 0.250000 0.000000
O O10 0.773022 0.107002 0.204583
O O11 0.500000 0.574969 0.500000
O O12 0.660875 0.500000 0.027667
O O13 0.860049 0.500000 0.123840
#
# Coordination Sequence:
#
# PCOD8094687 Si02
#       5
#     8   8   8   8   8
#     4  11  23  40  66  96 129 170 212 260 323 378
#     4  12  24  42  66  93 130 170 213 264 315 381
#     4  10  19  38  65  90 127 166 206 259 316 373
#     4  11  21  39  66  93 122 164 213 264 318 372
#     4  11  24  43  68  95 129 171 213 260 320 380
#
# _framework density 20.168960999999999
#
# number of rings (size 3 to 8) (size 9 to 14) (size 15 to 20)
#    0.000    1.000    6.000    2.400    2.800    2.800 
#    0.000    0.000    0.000    3.000    0.000    0.000 
#    0.000    0.000    0.000    0.000    0.000    0.000 
#
# Total GULP energy -247787.407115 kJ/mol
# GULP energy per Si atom -12389.370356 kJ/mol
# Density = 2.012306 g / cm^3
# Si number density = 20.168961 Si / 1000 Ang^3
#
#
#
# Elastic Constant Matrix: (Units=GPa)
#
#
# Indices 1 2 3 4 5 6 
#
# 1 132.0245 33.6613 36.2094 0.0000 11.2654 0.0000
# 2 33.6613 134.3178 22.4172 0.0000 -7.4570 0.0000
# 3 36.2094 22.4172 82.6281 0.0000 2.5348 0.0000
# 4 0.0000 0.0000 0.0000 16.5238 0.0000 46.3385
# 5 11.2654 -7.4570 2.5348 0.0000 43.3752 0.0000
# 6 0.0000 0.0000 0.0000 46.3385 0.0000 476.0836
#
#
#
# Elastic Compliance Matrix: (Units=1/GPa)
#
#
# Indices 1 2 3 4 5 6 
#
# 1 0.009213 -0.001872 -0.003452 0.000000 -0.002513 0.000000
# 2 -0.001872 0.008273 -0.001485 0.000000 0.001995 0.000000
# 3 -0.003452 -0.001485 0.014024 0.000000 -0.000178 0.000000
# 4 0.000000 0.000000 0.000000 0.083239 0.000000 -0.008102
# 5 -0.002513 0.001995 -0.000178 0.000000 0.024061 0.000000
# 6 0.000000 0.000000 0.000000 -0.008102 0.000000 0.002889
#
#
# Mechanical properties :
#
#
# Convention : Reuss Voigt Hill
#
# Bulk Modulus (GPa) = 55.89679 59.28290 57.58984
# Shear Modulus (GPa) = 31.00170 124.30869 77.65520
#
# Velocity S-wave (km/s) = 3.92484 7.85923 6.21176
# Velocity P-wave (km/s) = 6.95080 10.57419 8.94782
#
# Compressibility (1/GPa) = 0.01789012
#
# Stress axis : x y z
#
# Youngs Moduli (GPa) = 108.54297 120.87705 71.30783
#
# Poissons Ratio (x) = 0.22630 0.24618
# Poissons Ratio (y) = 0.20321 0.10591
# Poissons Ratio (z) = 0.37472 0.17953
#
# Static dielectric constant tensor:
#      x y z
#    x 3.972160 0.000000 0.320850 
#    y 0.000000 3.709890 0.000000 
#    z 0.320850 0.000000 3.688660 
# 
# 
# High freq. dielectric constant tensor:
#      x y z
#    x 1.801270 0.000000 0.022370 
#    y 0.000000 1.788510 0.000000 
#    z 0.022370 0.000000 1.779180 
# 
# From -- ./inp_files/58958.got.cif
#   From: 2010.06.25/outbox.cif.g09.slc.cpg/sg12_30_cif.got.tgz:58958.got - 2010.06.28 00:19:55.
