data_PCOD8094919
_publ_section_title
;
Structure prediction by ZEFSAII (Michael W. Deem and Ramdas Pophale) SiO2 
 PCOD8094919
Probable space group: C 2/M
;
_chemical_formula_sum "Si O2"
_cell_formula_units_Z 64
_cell_length_a 19.247805
_cell_length_b 9.502015
_cell_length_c 34.272080
_cell_angle_alpha 90.000000
_cell_angle_beta 147.051813
_cell_angle_gamma 90.000000
_cell_volume 3409.108238
_symmetry_space_group_name_H-M "C 2/M"
_symmetry_group_IT_number 12
_symmetry_cell_setting 'monoclinic'
loop_
_space_group_symop_operation_xyz
x,y,z
-x,y,-z
-x,-y,-z
x,-y,z
1/2+x,1/2+y,z
1/2-x,1/2+y,-z
1/2-x,1/2-y,-z
1/2+x,1/2-y,z
loop_
_atom_site_type_symbol
_atom_site_label
_atom_site_fract_x
_atom_site_fract_y
_atom_site_fract_z
Si Si1 0.060219 0.165547 0.444908
Si Si2 0.708496 0.332977 0.654785
Si Si3 0.584201 0.166054 0.188072
Si Si4 0.705463 0.165642 0.941463
Si Si5 0.490048 0.660478 0.665928
Si Si6 0.777946 0.662544 0.822718
Si Si7 0.850980 0.164645 0.931022
Si Si8 0.715466 0.834224 0.395262
O O1 0.067582 0.203096 0.403054
O O2 0.183013 0.226491 0.525432
O O3 0.929437 0.231878 0.399954
O O4 0.056245 0.000000 0.450503
O O5 0.706864 0.500000 0.659250
O O6 0.816849 0.267525 0.734249
O O7 0.736021 0.288587 0.623928
O O8 0.617365 0.217493 0.159547
O O9 0.601575 0.000000 0.196246
O O10 0.442188 0.208259 0.134520
O O11 0.720905 0.000000 0.956997
O O12 0.750000 0.250000 0.000000
O O13 0.788057 0.210769 0.942550
O O14 0.456854 0.500000 0.660518
O O15 0.641330 0.683892 0.737875
O O16 0.421637 0.761389 0.664464
O O17 0.801463 0.500000 0.845047
O O18 0.782063 0.752851 0.863892
O O19 0.828995 0.000000 0.913577
O O20 0.000000 0.204323 0.000000
O O21 0.695372 0.000000 0.389702
#
# Coordination Sequence:
#
# PCOD8094919 Si02
#       8
#     8   8   8   8   8   8   8   8
#     4   9  16  31  51  75 103 135 177 222 265 311
#     4   9  16  29  51  77 104 132 172 224 267 303
#     4   9  17  32  53  76 101 135 178 219 257 301
#     4  10  21  36  57  82 108 139 174 210 254 305
#     4  10  20  34  51  72 106 144 173 213 269 318
#     4  10  20  35  56  78 101 139 185 221 255 302
#     4  10  22  38  56  82 116 145 166 203 266 321
#     4  10  20  30  51  81 104 132 176 224 267 315
#
# _framework density 18.773237999999999
#
# number of rings (size 3 to 8) (size 9 to 14) (size 15 to 20)
#    0.000    2.375    1.250    1.500    1.750    2.750 
#    0.000    0.000    0.000    3.000    0.000    0.000 
#    0.000    0.000    0.000    0.000    0.000    0.000 
#
# Total GULP energy -396754.214503 kJ/mol
# GULP energy per Si atom -12398.569203 kJ/mol
# Density = 1.873051 g / cm^3
# Si number density = 18.773238 Si / 1000 Ang^3
#
#
#
# Elastic Constant Matrix: (Units=GPa)
#
#
# Indices 1 2 3 4 5 6 
#
# 1 130.2791 38.7324 53.3791 -0.0001 12.0451 0.0001
# 2 38.7324 30.6922 26.5414 -0.0002 -5.1202 0.0002
# 3 53.3791 26.5414 85.7497 0.0000 -9.1402 0.0001
# 4 -0.0001 -0.0002 0.0000 23.8403 0.0001 -0.4218
# 5 12.0451 -5.1202 -9.1402 0.0001 33.8875 -0.0001
# 6 0.0001 0.0002 0.0001 -0.4218 -0.0001 20.2442
#
#
#
# Elastic Compliance Matrix: (Units=1/GPa)
#
#
# Indices 1 2 3 4 5 6 
#
# 1 0.015907 -0.016711 -0.005767 0.000000 -0.009735 0.000000
# 2 -0.016711 0.062362 -0.007478 0.000001 0.013345 -0.000001
# 3 -0.005767 -0.007478 0.018188 0.000000 0.005826 0.000000
# 4 0.000000 0.000001 0.000000 0.041961 0.000000 0.000874
# 5 -0.009735 0.013345 0.005826 0.000000 0.036557 0.000000
# 6 0.000000 -0.000001 0.000000 0.000874 0.000000 0.049415
#
#
# Mechanical properties :
#
#
# Convention : Reuss Voigt Hill
#
# Bulk Modulus (GPa) = 27.36312 53.78075 40.57194
# Shear Modulus (GPa) = 16.86432 24.13227 20.49829
#
# Velocity S-wave (km/s) = 3.00045 3.58922 3.30796
# Velocity P-wave (km/s) = 5.15857 6.77395 6.02068
#
# Compressibility (1/GPa) = 0.03654554
#
# Stress axis : x y z
#
# Youngs Moduli (GPa) = 62.86519 16.03531 54.98259
#
# Poissons Ratio (x) = 0.26796 0.31711
# Poissons Ratio (y) = 1.05051 0.41114
# Poissons Ratio (z) = 0.36257 0.11991
#
# Static dielectric constant tensor:
#      x y z
#    x 3.588670 0.000000 0.092000 
#    y 0.000000 2.967620 0.000000 
#    z 0.092000 0.000000 3.619420 
# 
# 
# High freq. dielectric constant tensor:
#      x y z
#    x 1.744750 0.000000 0.003550 
#    y 0.000000 1.677510 0.000000 
#    z 0.003550 0.000000 1.739700 
# 
# From -- ./inp_files/376075.got.cif
#   From: 2010.06.25/outbox.cif.g09.slc.cpg/sg12_189_cif.got.tgz:376075.got - 2010.06.28 00:19:55.
