data_PCOD8094998
_publ_section_title
;
Structure prediction by ZEFSAII (Michael W. Deem and Ramdas Pophale) SiO2 
 PCOD8094998
Probable space group: C 2/M
;
_chemical_formula_sum "Si O2"
_cell_formula_units_Z 48
_cell_length_a 22.598574
_cell_length_b 9.027703
_cell_length_c 19.959921
_cell_angle_alpha 90.000000
_cell_angle_beta 43.870186
_cell_angle_gamma 90.000000
_cell_volume 2822.065842
_symmetry_space_group_name_H-M "C 2/M"
_symmetry_group_IT_number 12
_symmetry_cell_setting 'monoclinic'
loop_
_space_group_symop_operation_xyz
x,y,z
-x,y,-z
-x,-y,-z
x,-y,z
1/2+x,1/2+y,z
1/2-x,1/2+y,-z
1/2-x,1/2-y,-z
1/2+x,1/2-y,z
loop_
_atom_site_type_symbol
_atom_site_label
_atom_site_fract_x
_atom_site_fract_y
_atom_site_fract_z
Si Si1 0.665048 0.174507 0.710761
Si Si2 0.402434 0.826082 0.089030
Si Si3 0.448668 0.826818 0.318317
Si Si4 0.704399 0.174316 0.475055
Si Si5 0.812068 0.174253 0.042258
Si Si6 0.368637 0.174232 0.865224
O O1 0.627589 0.220214 0.812708
O O2 0.600206 0.237542 0.707181
O O3 0.757936 0.252599 0.623484
O O4 0.679151 0.000000 0.693474
O O5 0.341540 0.740061 0.088262
O O6 0.392795 0.000000 0.083696
O O7 0.500000 0.775325 0.000000
O O8 0.397074 0.792712 0.429693
O O9 0.546022 0.768108 0.242707
O O10 0.452708 0.000000 0.302621
O O11 0.750000 0.250000 0.500000
O O12 0.722486 0.000000 0.459814
O O13 0.712366 0.216288 0.114220
O O14 0.826875 0.000000 0.029785
O O15 0.866776 0.244672 0.937967
O O16 0.370564 0.000000 0.878597
#
# Coordination Sequence:
#
# PCOD8094998 Si02
#       6
#     8   8   8   8   8   8
#     4   9  17  29  46  68  91 117 151 188 226 268
#     4  10  20  34  51  67  89 126 161 184 218 277
#     4   8  14  27  48  69  87 114 154 188 215 264
#     4   9  16  27  44  66  92 119 148 185 227 267
#     4  10  20  31  46  71  97 119 149 193 236 267
#     4   9  17  32  51  67  90 124 157 187 223 273
#
# _framework density 17.008815999999999
#
# number of rings (size 3 to 8) (size 9 to 14) (size 15 to 20)
#    0.000    2.833    0.000    3.000    0.000    4.333 
#    0.000    7.500    0.000    1.000    0.000    7.000 
#    0.000    0.000    0.000    0.000    0.000    0.000 
#
# Total GULP energy -297428.810226 kJ/mol
# GULP energy per Si atom -12392.867093 kJ/mol
# Density = 1.697010 g / cm^3
# Si number density = 17.008816 Si / 1000 Ang^3
#
#
#
# Elastic Constant Matrix: (Units=GPa)
#
#
# Indices 1 2 3 4 5 6 
#
# 1 71.2629 25.4260 59.6021 0.0000 -3.1034 0.0000
# 2 25.4260 44.2031 45.2964 0.0001 0.7146 0.0001
# 3 59.6021 45.2964 182.7720 0.0001 -12.6742 -0.0001
# 4 0.0000 0.0001 0.0001 27.3130 0.0000 2.8436
# 5 -3.1034 0.7146 -12.6742 0.0000 24.4879 0.0000
# 6 0.0000 0.0001 -0.0001 2.8436 0.0000 23.5349
#
#
#
# Elastic Compliance Matrix: (Units=1/GPa)
#
#
# Indices 1 2 3 4 5 6 
#
# 1 0.020669 -0.006701 -0.005066 0.000000 0.000193 0.000000
# 2 -0.006701 0.033086 -0.006369 0.000000 -0.005111 0.000000
# 3 -0.005066 -0.006369 0.008993 0.000000 0.004198 0.000000
# 4 0.000000 0.000000 0.000000 0.037079 0.000000 -0.004480
# 5 0.000193 -0.005111 0.004198 0.000000 0.043183 0.000000
# 6 0.000000 0.000000 0.000000 -0.004480 0.000000 0.043031
#
#
# Mechanical properties :
#
#
# Convention : Reuss Voigt Hill
#
# Bulk Modulus (GPa) = 37.76944 62.09856 49.93400
# Shear Modulus (GPa) = 21.63202 26.26141 23.94671
#
# Velocity S-wave (km/s) = 3.57012 3.93362 3.75627
# Velocity P-wave (km/s) = 6.26485 7.56440 6.94508
#
# Compressibility (1/GPa) = 0.02647643
#
# Stress axis : x y z
#
# Youngs Moduli (GPa) = 48.38207 30.22386 111.19800
#
# Poissons Ratio (x) = 0.20252 0.56334
# Poissons Ratio (y) = 0.32419 0.70824
# Poissons Ratio (z) = 0.24511 0.19250
#
# Static dielectric constant tensor:
#      x y z
#    x 3.090580 0.000000 -0.266150 
#    y 0.000000 3.111370 0.000000 
#    z -0.266150 0.000000 3.770520 
# 
# 
# High freq. dielectric constant tensor:
#      x y z
#    x 1.620120 0.000000 -0.012500 
#    y 0.000000 1.644510 0.000000 
#    z -0.012500 0.000000 1.672420 
# 
# From -- ./inp_files/281816.got.cif
#   From: 2010.06.25/outbox.cif.g09.slc.cpg/sg12_141_cif.got.tgz:281816.got - 2010.06.28 00:19:55.
