data_PCOD8094348
_publ_section_title
;
Structure prediction by ZEFSAII (Michael W. Deem and Ramdas Pophale) SiO2 
 PCOD8094348
Probable space group: C 2/M
;
_chemical_formula_sum "Si O2"
_cell_formula_units_Z 64
_cell_length_a 19.146453
_cell_length_b 31.309299
_cell_length_c 9.625006
_cell_angle_alpha 90.000000
_cell_angle_beta 146.904025
_cell_angle_gamma 90.000000
_cell_volume 3150.573493
_symmetry_space_group_name_H-M "C 2/M"
_symmetry_group_IT_number 12
_symmetry_cell_setting 'monoclinic'
loop_
_space_group_symop_operation_xyz
x,y,z
-x,y,-z
-x,-y,-z
x,-y,z
1/2+x,1/2+y,z
1/2-x,1/2+y,-z
1/2-x,1/2-y,-z
1/2+x,1/2-y,z
loop_
_atom_site_type_symbol
_atom_site_label
_atom_site_fract_x
_atom_site_fract_y
_atom_site_fract_z
Si Si1 0.949554 0.951467 0.265374
Si Si2 0.139939 0.621349 0.259774
Si Si3 0.699918 0.833024 0.075162
Si Si4 0.100232 0.088551 0.293142
Si Si5 0.910713 0.330936 0.550920
Si Si6 0.278778 0.626596 0.936748
Si Si7 0.397042 0.738035 0.450180
Si Si8 0.993932 0.176496 0.150200
O O1 0.000000 0.937619 0.500000
O O2 0.067872 0.946724 0.355394
O O3 0.899338 0.000000 0.182306
O O4 0.834832 0.921240 0.020147
O O5 0.189984 0.642566 0.202797
O O6 0.247216 0.586309 0.489923
O O7 0.123598 0.658276 0.347163
O O8 0.000000 0.599423 0.000000
O O9 0.768110 0.787349 0.198463
O O10 0.561339 0.825210 0.778500
O O11 0.780965 0.861738 0.102690
O O12 0.086814 0.136216 0.333827
O O13 0.000000 0.082439 0.000000
O O14 0.861335 0.369247 0.367102
O O15 0.849473 0.285633 0.405784
O O16 0.355609 0.660631 0.970148
O O17 0.500000 0.735970 0.500000
O O18 0.461141 0.717707 0.692664
O O19 0.000000 0.189560 0.000000
#
# Coordination Sequence:
#
# PCOD8094348 Si02
#       8
#     8   8   8   8   8   8   8   8
#     4  10  22  38  66 104 128 147 191 252 310 376
#     4  10  21  39  57  84 117 164 213 250 307 370
#     4  11  23  39  59  83 114 163 211 254 308 362
#     4  10  19  37  61  90 123 158 202 250 309 369
#     4  11  26  40  55  82 122 163 211 264 302 361
#     4  11  22  40  63  84 124 161 194 246 317 369
#     4  12  24  38  58  84 117 160 219 269 307 350
#     4  10  21  35  58  86 115 159 207 257 310 360
#
# _framework density 20.313761
#
# number of rings (size 3 to 8) (size 9 to 14) (size 15 to 20)
#    0.000    1.375    2.500    4.125    3.500    3.250 
#    0.000    0.000    0.000    1.875    0.000    7.000 
#    0.000    0.000    0.000    0.000    0.000    0.000 
#
# Total GULP energy -396670.952309 kJ/mol
# GULP energy per Si atom -12395.967260 kJ/mol
# Density = 2.026753 g / cm^3
# Si number density = 20.313761 Si / 1000 Ang^3
#
#
#
# Elastic Constant Matrix: (Units=GPa)
#
#
# Indices 1 2 3 4 5 6 
#
# 1 132.8992 33.7246 53.1126 0.0000 -9.2637 0.0000
# 2 33.7246 83.6778 53.6040 0.0000 -2.0927 0.0000
# 3 53.1126 53.6040 142.4987 0.0000 15.0294 0.0000
# 4 0.0000 0.0000 0.0000 17.9094 0.0000 -1.1960
# 5 -9.2637 -2.0927 15.0294 0.0000 33.4976 0.0000
# 6 0.0000 0.0000 0.0000 -1.1960 0.0000 21.6113
#
#
#
# Elastic Compliance Matrix: (Units=1/GPa)
#
#
# Indices 1 2 3 4 5 6 
#
# 1 0.009568 -0.001574 -0.003404 0.000000 0.004075 0.000000
# 2 -0.001574 0.016484 -0.005959 0.000000 0.003268 0.000000
# 3 -0.003404 -0.005959 0.011196 0.000000 -0.006337 0.000000
# 4 0.000000 0.000000 0.000000 0.056044 0.000000 0.003102
# 5 0.004075 0.003268 -0.006337 0.000000 0.034027 0.000000
# 6 0.000000 0.000000 0.000000 0.003102 0.000000 0.046444
#
#
# Mechanical properties :
#
#
# Convention : Reuss Voigt Hill
#
# Bulk Modulus (GPa) = 65.04050 71.10645 68.07348
# Shear Modulus (GPa) = 24.90511 29.17929 27.04220
#
# Velocity S-wave (km/s) = 3.50526 3.79414 3.65255
# Velocity P-wave (km/s) = 6.96203 7.36709 7.16742
#
# Compressibility (1/GPa) = 0.01537503
#
# Stress axis : x y z
#
# Youngs Moduli (GPa) = 104.51110 60.66547 89.31467
#
# Poissons Ratio (x) = 0.09547 0.30404
# Poissons Ratio (y) = 0.16447 0.53222
# Poissons Ratio (z) = 0.35577 0.36150
#
# Static dielectric constant tensor:
#      x y z
#    x 3.931340 0.000000 0.114820 
#    y 0.000000 3.277270 0.000000 
#    z 0.114820 0.000000 3.918920 
# 
# 
# High freq. dielectric constant tensor:
#      x y z
#    x 1.810700 0.000000 -0.006380 
#    y 0.000000 1.744610 0.000000 
#    z -0.006380 0.000000 1.808440 
# 
# From -- ./inp_files/80749.got.cif
#   From: 2010.06.25/outbox.cif.g09.slc.cpg/sg12_41_cif.got.tgz:80749.got - 2010.06.28 00:19:55.
