data_PCOD8094543
_publ_section_title
;
Structure prediction by ZEFSAII (Michael W. Deem and Ramdas Pophale) SiO2 
 PCOD8094543
Probable space group: C 2/M
;
_chemical_formula_sum "Si O2"
_cell_formula_units_Z 40
_cell_length_a 12.641594
_cell_length_b 23.955011
_cell_length_c 12.537945
_cell_angle_alpha 90.000000
_cell_angle_beta 146.086455
_cell_angle_gamma 90.000000
_cell_volume 2118.425000
_symmetry_space_group_name_H-M "C 2/M"
_symmetry_group_IT_number 12
_symmetry_cell_setting 'monoclinic'
loop_
_space_group_symop_operation_xyz
x,y,z
-x,y,-z
-x,-y,-z
x,-y,z
1/2+x,1/2+y,z
1/2-x,1/2+y,-z
1/2-x,1/2-y,-z
1/2+x,1/2-y,z
loop_
_atom_site_type_symbol
_atom_site_label
_atom_site_fract_x
_atom_site_fract_y
_atom_site_fract_z
Si Si1 0.000000 0.110782 0.000000
Si Si2 0.651582 0.635283 0.460368
Si Si3 0.353619 0.563857 0.083118
Si Si4 0.958120 0.434640 0.841812
Si Si5 0.000000 0.214882 0.500000
Si Si6 0.194074 0.678358 0.620837
O O1 0.870110 0.151676 0.825177
O O2 0.117717 0.071466 0.019233
O O3 0.519151 0.592839 0.287203
O O4 0.781369 0.602005 0.653548
O O5 0.508267 0.676687 0.401922
O O6 0.783196 0.669732 0.487585
O O7 0.366551 0.500000 0.127331
O O8 0.143985 0.586005 0.934029
O O9 0.912761 0.500000 0.783916
O O10 0.000000 0.422557 0.000000
O O11 0.184567 0.255834 0.646734
O O12 0.000000 0.648778 0.500000
#
# Coordination Sequence:
#
# PCOD8094543 Si02
#       6
#     4   8   8   8   4   8
#     4  10  19  38  58  82 112 144 177 226 276 320
#     4  11  20  38  58  79 112 147 179 225 277 318
#     4  10  21  36  58  86 111 142 180 221 273 333
#     4  10  21  36  56  83 112 142 180 224 272 330
#     4  10  22  38  55  80 109 146 188 230 264 316
#     4   9  21  37  55  80 109 144 183 228 266 318
#
# _framework density 18.881951999999998
#
# number of rings (size 3 to 8) (size 9 to 14) (size 15 to 20)
#    0.600    1.400    0.000    3.900    0.000    0.000 
#    5.400    6.000    0.000    9.600    0.000    0.000 
#    0.000    0.000    0.000    0.000    0.000    0.000 
#
# Total GULP energy -247889.524833 kJ/mol
# GULP energy per Si atom -12394.476242 kJ/mol
# Density = 1.883898 g / cm^3
# Si number density = 18.881952 Si / 1000 Ang^3
#
#
#
# Elastic Constant Matrix: (Units=GPa)
#
#
# Indices 1 2 3 4 5 6 
#
# 1 122.1757 40.8916 22.2581 0.0000 -8.4717 0.0000
# 2 40.8916 75.1733 33.2868 0.0000 -0.5949 0.0000
# 3 22.2581 33.2868 72.5321 0.0001 -9.4558 0.0000
# 4 0.0000 0.0000 0.0001 12.2727 0.0000 5.4105
# 5 -8.4717 -0.5949 -9.4558 0.0000 23.7977 0.0000
# 6 0.0000 0.0000 0.0000 5.4105 0.0000 42.7241
#
#
#
# Elastic Compliance Matrix: (Units=1/GPa)
#
#
# Indices 1 2 3 4 5 6 
#
# 1 0.010296 -0.005489 -0.000190 0.000000 0.003452 0.000000
# 2 -0.005489 0.019797 -0.008006 0.000000 -0.004640 0.000000
# 3 -0.000190 -0.008006 0.018440 0.000000 0.007059 0.000000
# 4 0.000000 0.000000 0.000000 0.086300 0.000000 -0.010929
# 5 0.003452 -0.004640 0.007059 0.000000 0.045939 0.000000
# 6 0.000000 0.000000 0.000000 -0.010929 0.000000 0.024790
#
#
# Mechanical properties :
#
#
# Convention : Reuss Voigt Hill
#
# Bulk Modulus (GPa) = 47.25419 51.41712 49.33566
# Shear Modulus (GPa) = 20.83458 27.32187 24.07823
#
# Velocity S-wave (km/s) = 3.32537 3.80805 3.57487
# Velocity P-wave (km/s) = 6.31067 6.82825 6.57455
#
# Compressibility (1/GPa) = 0.02116214
#
# Stress axis : x y z
#
# Youngs Moduli (GPa) = 97.12323 50.51360 54.23085
#
# Poissons Ratio (x) = 0.27727 0.01033
# Poissons Ratio (y) = 0.53312 0.43415
# Poissons Ratio (z) = 0.01850 0.40439
#
# Static dielectric constant tensor:
#      x y z
#    x 3.881460 0.000000 -0.083520 
#    y 0.000000 3.388780 0.000000 
#    z -0.083520 0.000000 3.080390 
# 
# 
# High freq. dielectric constant tensor:
#      x y z
#    x 1.758640 0.000000 -0.001950 
#    y 0.000000 1.728700 0.000000 
#    z -0.001950 0.000000 1.716990 
# 
# From -- ./inp_files/12038.got.cif
#   From: 2010.06.25/outbox.cif.g09.slc.cpg/sg12_7_cif.got.tgz:12038.got - 2010.06.28 00:19:55.
