data_PCOD8094013
_publ_section_title
;
Structure prediction by ZEFSAII (Michael W. Deem and Ramdas Pophale) SiO2 
 PCOD8094013
Probable space group: C 2/M
;
_chemical_formula_sum "Si O2"
_cell_formula_units_Z 56
_cell_length_a 25.334994
_cell_length_b 8.772651
_cell_length_c 14.632789
_cell_angle_alpha 90.000000
_cell_angle_beta 120.709712
_cell_angle_gamma 90.000000
_cell_volume 2796.139876
_symmetry_space_group_name_H-M "C 2/M"
_symmetry_group_IT_number 12
_symmetry_cell_setting 'monoclinic'
loop_
_space_group_symop_operation_xyz
x,y,z
-x,y,-z
-x,-y,-z
x,-y,z
1/2+x,1/2+y,z
1/2-x,1/2+y,-z
1/2-x,1/2-y,-z
1/2+x,1/2-y,z
loop_
_atom_site_type_symbol
_atom_site_label
_atom_site_fract_x
_atom_site_fract_y
_atom_site_fract_z
Si Si1 0.449509 0.676365 0.378243
Si Si2 0.495201 0.680936 0.221708
Si Si3 0.231910 0.180176 0.078693
Si Si4 0.385764 0.678857 0.772635
Si Si5 0.758604 0.320252 0.606057
Si Si6 0.322717 0.179374 0.316876
Si Si7 0.401398 0.320719 0.990100
O O1 0.500000 0.698923 0.500000
O O2 0.429837 0.500000 0.351902
O O3 0.475951 0.739018 0.305090
O O4 0.392108 0.776851 0.356488
O O5 0.492138 0.500000 0.215296
O O6 0.565224 0.730682 0.261092
O O7 0.450307 0.751788 0.104261
O O8 0.280999 0.234765 0.196238
O O9 0.165691 0.246258 0.047613
O O10 0.230727 0.000000 0.069813
O O11 0.250000 0.250000 0.000000
O O12 0.369790 0.500000 0.752145
O O13 0.322858 0.769428 0.706583
O O14 0.416899 0.716889 0.898337
O O15 0.756894 0.500000 0.596873
O O16 0.750000 0.250000 0.500000
O O17 0.700817 0.265321 0.614271
O O18 0.317508 0.000000 0.329147
O O19 0.401207 0.500000 0.005529
#
# Coordination Sequence:
#
# PCOD8094013 Si02
#       7
#     8   8   8   8   8   8   8
#     4  10  22  39  59  88 122 162 210 253 299 363
#     4   9  18  32  57  88 121 162 205 248 297 356
#     4  10  20  34  56  86 122 160 202 250 301 360
#     4  10  19  36  61  90 121 156 203 253 301 360
#     4  12  26  43  65  92 122 160 203 253 311 370
#     4  11  23  42  64  91 123 161 205 255 310 363
#     4   9  16  31  54  84 119 155 199 247 297 353
#
# _framework density 20.027609999999999
#
# number of rings (size 3 to 8) (size 9 to 14) (size 15 to 20)
#    0.000    1.857    1.429    3.000    2.000    4.286 
#    0.000    0.714    0.000    2.571    0.000    0.000 
#    0.000    0.000    0.000    0.000    0.000    0.000 
#
# Total GULP energy -347221.904145 kJ/mol
# GULP energy per Si atom -12400.782291 kJ/mol
# Density = 1.998203 g / cm^3
# Si number density = 20.027610 Si / 1000 Ang^3
#
#
#
# Elastic Constant Matrix: (Units=GPa)
#
#
# Indices 1 2 3 4 5 6 
#
# 1 153.4854 35.3252 48.2596 0.0000 -16.3169 0.0000
# 2 35.3252 60.7218 29.3776 0.0000 -7.0814 0.0000
# 3 48.2596 29.3776 104.9967 0.0000 -18.3751 0.0000
# 4 0.0000 0.0000 0.0000 18.8183 0.0000 -2.3532
# 5 -16.3169 -7.0814 -18.3751 0.0000 38.8182 0.0000
# 6 0.0000 0.0000 0.0000 -2.3532 0.0000 28.7720
#
#
#
# Elastic Compliance Matrix: (Units=1/GPa)
#
#
# Indices 1 2 3 4 5 6 
#
# 1 0.008276 -0.003379 -0.002571 0.000000 0.001646 0.000000
# 2 -0.003379 0.020465 -0.004108 0.000000 0.000368 0.000000
# 3 -0.002571 -0.004108 0.012577 0.000000 0.004123 0.000000
# 4 0.000000 0.000000 0.000000 0.053689 0.000000 0.004391
# 5 0.001646 0.000368 0.004123 0.000000 0.028472 0.000000
# 6 0.000000 0.000000 0.000000 0.004391 0.000000 0.035115
#
#
# Mechanical properties :
#
#
# Convention : Reuss Voigt Hill
#
# Bulk Modulus (GPa) = 47.16598 60.56984 53.86791
# Shear Modulus (GPa) = 26.91395 31.03113 28.97254
#
# Velocity S-wave (km/s) = 3.66982 3.94053 3.80759
# Velocity P-wave (km/s) = 6.44658 7.14231 6.80334
#
# Compressibility (1/GPa) = 0.02120172
#
# Stress axis : x y z
#
# Youngs Moduli (GPa) = 120.82869 48.86388 79.51192
#
# Poissons Ratio (x) = 0.16512 0.20439
# Poissons Ratio (y) = 0.40830 0.32667
# Poissons Ratio (z) = 0.31059 0.20075
#
# Static dielectric constant tensor:
#      x y z
#    x 3.819230 0.000000 -0.061480 
#    y 0.000000 3.287100 0.000000 
#    z -0.061480 0.000000 3.813300 
# 
# 
# High freq. dielectric constant tensor:
#      x y z
#    x 1.799720 0.000000 -0.004100 
#    y 0.000000 1.741120 0.000000 
#    z -0.004100 0.000000 1.794270 
# 
# From -- ./inp_files/239004.got.cif
#   From: 2010.06.25/outbox.cif.g09.slc.cpg/sg12_120_cif.got.tgz:239004.got - 2010.06.28 00:19:55.
