data_PCOD8094024
_publ_section_title
;
Structure prediction by ZEFSAII (Michael W. Deem and Ramdas Pophale) SiO2 
 PCOD8094024
Probable space group: C 2/M
;
_chemical_formula_sum "Si O2"
_cell_formula_units_Z 56
_cell_length_a 8.720419
_cell_length_b 16.807606
_cell_length_c 22.318412
_cell_angle_alpha 90.000000
_cell_angle_beta 121.460794
_cell_angle_gamma 90.000000
_cell_volume 2790.321584
_symmetry_space_group_name_H-M "C 2/M"
_symmetry_group_IT_number 12
_symmetry_cell_setting 'monoclinic'
loop_
_space_group_symop_operation_xyz
x,y,z
-x,y,-z
-x,-y,-z
x,-y,z
1/2+x,1/2+y,z
1/2-x,1/2+y,-z
1/2-x,1/2-y,-z
1/2+x,1/2-y,z
loop_
_atom_site_type_symbol
_atom_site_label
_atom_site_fract_x
_atom_site_fract_y
_atom_site_fract_z
Si Si1 0.451787 0.707172 0.225371
Si Si2 0.678567 0.163695 0.999101
Si Si3 0.219726 0.411925 0.255630
Si Si4 0.792212 0.310428 0.639513
Si Si5 0.502043 0.589597 0.134911
Si Si6 0.346943 0.135477 0.140174
Si Si7 0.941386 0.289581 0.548451
O O1 0.305480 0.657049 0.232538
O O2 0.598690 0.744938 0.299488
O O3 0.550505 0.646538 0.200639
O O4 0.350374 0.773232 0.164617
O O5 0.634299 0.124053 0.926814
O O6 0.500000 0.171709 0.000000
O O7 0.750000 0.250000 0.000000
O O8 0.816777 0.111752 0.065203
O O9 0.301848 0.500000 0.260754
O O10 0.245100 0.390075 0.330596
O O11 0.007628 0.414685 0.201345
O O12 0.914442 0.335534 0.606192
O O13 0.596819 0.276529 0.584082
O O14 0.484822 0.500000 0.155714
O O15 0.659977 0.595707 0.119232
O O16 0.750000 0.250000 0.500000
O O17 0.000000 0.340587 0.500000
#
# Coordination Sequence:
#
# PCOD8094024 Si02
#       7
#     8   8   8   8   8   8   8
#     4  11  22  38  62  88 124 162 211 254 297 366
#     4  12  25  42  66  88 116 161 210 259 316 376
#     4  11  23  38  59  89 128 164 201 252 308 358
#     4  10  19  36  61  95 119 162 204 245 291 356
#     4  12  26  41  62  93 124 159 205 264 318 364
#     4  11  23  41  64  88 119 162 209 258 306 372
#     4   9  18  34  62  97 123 150 200 253 286 339
#
# _framework density 20.069369999999999
#
# number of rings (size 3 to 8) (size 9 to 14) (size 15 to 20)
#    0.000    1.143    2.857    4.714    2.000    2.000 
#    0.000    0.000    0.000    4.286    0.000    0.000 
#    0.000    0.000    0.000    0.000    0.000    0.000 
#
# Total GULP energy -347052.426311 kJ/mol
# GULP energy per Si atom -12394.729511 kJ/mol
# Density = 2.002369 g / cm^3
# Si number density = 20.069370 Si / 1000 Ang^3
#
#
#
# Elastic Constant Matrix: (Units=GPa)
#
#
# Indices 1 2 3 4 5 6 
#
# 1 140.4932 18.6913 47.7554 0.0000 -10.7779 0.0000
# 2 18.6913 99.3351 22.2096 0.0000 -2.9081 0.0000
# 3 47.7554 22.2096 96.7487 0.0000 -8.2188 0.0000
# 4 0.0000 0.0000 0.0000 9.7416 0.0000 1.5814
# 5 -10.7779 -2.9081 -8.2188 0.0000 50.5774 0.0000
# 6 0.0000 0.0000 0.0000 1.5814 0.0000 16.3051
#
#
#
# Elastic Compliance Matrix: (Units=1/GPa)
#
#
# Indices 1 2 3 4 5 6 
#
# 1 0.008665 -0.000698 -0.004019 0.000000 0.001153 0.000000
# 2 -0.000698 0.010670 -0.002094 0.000000 0.000124 0.000000
# 3 -0.004019 -0.002094 0.012896 0.000000 0.001119 0.000000
# 4 0.000000 0.000000 0.000000 0.104295 0.000000 -0.010115
# 5 0.001153 0.000124 0.001119 0.000000 0.020206 0.000000
# 6 0.000000 0.000000 0.000000 -0.010115 0.000000 0.062312
#
#
# Mechanical properties :
#
#
# Convention : Reuss Voigt Hill
#
# Bulk Modulus (GPa) = 53.73943 57.09884 55.41914
# Shear Modulus (GPa) = 20.93196 31.85287 26.39242
#
# Velocity S-wave (km/s) = 3.23302 3.98821 3.63031
# Velocity P-wave (km/s) = 6.38526 7.05126 6.72651
#
# Compressibility (1/GPa) = 0.01860831
#
# Stress axis : x y z
#
# Youngs Moduli (GPa) = 115.40384 93.71905 77.54585
#
# Poissons Ratio (x) = 0.06543 0.31165
# Poissons Ratio (y) = 0.08057 0.16240
# Poissons Ratio (z) = 0.46380 0.19627
#
# Static dielectric constant tensor:
#      x y z
#    x 4.239740 0.000000 -0.455350 
#    y 0.000000 3.597010 0.000000 
#    z -0.455350 0.000000 4.061760 
# 
# 
# High freq. dielectric constant tensor:
#      x y z
#    x 1.808110 0.000000 -0.008790 
#    y 0.000000 1.747300 0.000000 
#    z -0.008790 0.000000 1.793270 
# 
# From -- ./inp_files/333398.got.cif
#   From: 2010.06.25/outbox.cif.g09.slc.cpg/sg12_167_cif.got.tgz:333398.got - 2010.06.28 00:19:55.
