data_PCOD8094602
_publ_section_title
;
Structure prediction by ZEFSAII (Michael W. Deem and Ramdas Pophale) SiO2 
 PCOD8094602
Probable space group: C 2/M
;
_chemical_formula_sum "Si O2"
_cell_formula_units_Z 64
_cell_length_a 14.570933
_cell_length_b 8.919811
_cell_length_c 33.657778
_cell_angle_alpha 90.000000
_cell_angle_beta 49.653670
_cell_angle_gamma 90.000000
_cell_volume 3334.003911
_symmetry_space_group_name_H-M "C 2/M"
_symmetry_group_IT_number 12
_symmetry_cell_setting 'monoclinic'
loop_
_space_group_symop_operation_xyz
x,y,z
-x,y,-z
-x,-y,-z
x,-y,z
1/2+x,1/2+y,z
1/2-x,1/2+y,-z
1/2-x,1/2-y,-z
1/2+x,1/2-y,z
loop_
_atom_site_type_symbol
_atom_site_label
_atom_site_fract_x
_atom_site_fract_y
_atom_site_fract_z
Si Si1 0.425564 0.671645 0.637470
Si Si2 0.384484 0.326334 0.006429
Si Si3 0.801032 0.176526 0.446500
Si Si4 0.965281 0.677395 0.270862
Si Si5 0.807566 0.676779 0.743198
Si Si6 0.245192 0.827875 0.384704
Si Si7 0.938297 0.322209 0.189347
Si Si8 0.634083 0.673500 0.080266
O O1 0.415977 0.500000 0.654836
O O2 0.561913 0.729653 0.598916
O O3 0.344241 0.771956 0.688932
O O4 0.376158 0.687078 0.606704
O O5 0.355010 0.500000 0.023373
O O6 0.269792 0.227695 0.050806
O O7 0.500000 0.274387 0.000000
O O8 0.408649 0.300162 0.953021
O O9 0.750000 0.250000 0.500000
O O10 0.724703 0.231973 0.430157
O O11 0.791525 0.000000 0.453862
O O12 0.953005 0.500000 0.272883
O O13 0.856671 0.740341 0.328255
O O14 0.957615 0.740952 0.228481
O O15 0.090923 0.729486 0.254320
O O16 0.789666 0.500000 0.748362
O O17 0.685646 0.754013 0.792337
O O18 0.270545 0.000000 0.389452
O O19 0.930600 0.500000 0.190457
O O20 0.047627 0.270173 0.131796
O O21 0.625399 0.500000 0.094351
#
# Coordination Sequence:
#
# PCOD8094602 Si02
#       8
#     8   8   8   8   8   8   8   8
#     4  10  21  38  60  83 111 147 187 225 279 347
#     4   9  19  38  63  85 112 156 199 234 286 353
#     4  11  24  40  59  86 115 147 187 237 288 338
#     4   9  19  35  57  81 109 150 189 224 275 341
#     4  11  21  35  57  85 112 144 188 236 281 326
#     4  10  19  38  62  82 109 146 187 228 277 338
#     4  11  22  39  58  81 118 159 195 229 282 347
#     4  10  21  37  57  87 120 148 191 247 291 330
#
# _framework density 19.196138000000001
#
# number of rings (size 3 to 8) (size 9 to 14) (size 15 to 20)
#    0.000    1.875    2.500    1.500    0.000    3.250 
#    0.000   10.000    0.000    0.000    0.000    0.000 
#    0.000    0.000    0.000    0.000    0.000    0.000 
#
# Total GULP energy -396911.515878 kJ/mol
# GULP energy per Si atom -12403.484871 kJ/mol
# Density = 1.915245 g / cm^3
# Si number density = 19.196138 Si / 1000 Ang^3
#
#
#
# Elastic Constant Matrix: (Units=GPa)
#
#
# Indices 1 2 3 4 5 6 
#
# 1 97.3004 26.9521 14.1785 -0.0001 2.5156 -0.0002
# 2 26.9521 63.4721 23.8628 -0.0005 -1.6364 -0.0004
# 3 14.1785 23.8628 68.4452 0.0000 2.6755 0.0000
# 4 -0.0001 -0.0005 0.0000 36.2377 -0.0001 -1.9147
# 5 2.5156 -1.6364 2.6755 -0.0001 23.8610 -0.0001
# 6 -0.0002 -0.0004 0.0000 -1.9147 -0.0001 29.6447
#
#
#
# Elastic Compliance Matrix: (Units=1/GPa)
#
#
# Indices 1 2 3 4 5 6 
#
# 1 0.011737 -0.004753 -0.000716 0.000000 -0.001483 0.000000
# 2 -0.004753 0.020148 -0.006140 0.000000 0.002571 0.000000
# 3 -0.000716 -0.006140 0.016987 0.000000 -0.002250 0.000000
# 4 0.000000 0.000000 0.000000 0.027690 0.000000 0.001788
# 5 -0.001483 0.002571 -0.002250 0.000000 0.042494 0.000000
# 6 0.000000 0.000000 0.000000 0.001788 0.000000 0.033848
#
#
# Mechanical properties :
#
#
# Convention : Reuss Voigt Hill
#
# Bulk Modulus (GPa) = 38.98149 39.91161 39.44655
# Shear Modulus (GPa) = 27.07467 28.89698 27.98583
#
# Velocity S-wave (km/s) = 3.75963 3.88410 3.82237
# Velocity P-wave (km/s) = 6.26079 6.39934 6.33044
#
# Compressibility (1/GPa) = 0.02565320
#
# Stress axis : x y z
#
# Youngs Moduli (GPa) = 85.20320 49.63302 58.86722
#
# Poissons Ratio (x) = 0.23589 0.04217
# Poissons Ratio (y) = 0.40494 0.36147
# Poissons Ratio (z) = 0.06103 0.30477
#
# Static dielectric constant tensor:
#      x y z
#    x 3.716710 0.000000 0.010530 
#    y 0.000000 3.404000 0.000000 
#    z 0.010530 0.000000 3.432170 
# 
# 
# High freq. dielectric constant tensor:
#      x y z
#    x 1.757710 0.000000 -0.000280 
#    y 0.000000 1.737990 0.000000 
#    z -0.000280 0.000000 1.742160 
# 
# From -- ./inp_files/359945.got.cif
#   From: 2010.06.25/outbox.cif.g09.slc.cpg/sg12_180_cif.got.tgz:359945.got - 2010.06.28 00:19:55.
