data_PCOD8094852
_publ_section_title
;
Structure prediction by ZEFSAII (Michael W. Deem and Ramdas Pophale) SiO2 
 PCOD8094852
Probable space group: C 2/M
;
_chemical_formula_sum "Si O2"
_cell_formula_units_Z 52
_cell_length_a 32.175290
_cell_length_b 7.574949
_cell_length_c 16.670819
_cell_angle_alpha 90.000000
_cell_angle_beta 37.306723
_cell_angle_gamma 90.000000
_cell_volume 2462.579820
_symmetry_space_group_name_H-M "C 2/M"
_symmetry_group_IT_number 12
_symmetry_cell_setting 'monoclinic'
loop_
_space_group_symop_operation_xyz
x,y,z
-x,y,-z
-x,-y,-z
x,-y,z
1/2+x,1/2+y,z
1/2-x,1/2+y,-z
1/2-x,1/2-y,-z
1/2+x,1/2-y,z
loop_
_atom_site_type_symbol
_atom_site_label
_atom_site_fract_x
_atom_site_fract_y
_atom_site_fract_z
Si Si1 0.638836 0.000000 0.165161
Si Si2 0.795720 0.295412 0.353300
Si Si3 0.948627 0.199941 0.143620
Si Si4 0.240020 0.797150 0.268669
Si Si5 0.019770 0.500000 0.612690
Si Si6 0.489860 0.298742 0.250571
Si Si7 0.346986 0.000000 0.675822
Si Si8 0.149279 0.200724 0.026506
O O1 0.557176 0.000000 0.301016
O O2 0.663593 0.176129 0.081435
O O3 0.673399 0.000000 0.199407
O O4 0.812330 0.500000 0.324973
O O5 0.750000 0.250000 0.500000
O O6 0.869212 0.201082 0.240756
O O7 0.754227 0.236277 0.338114
O O8 0.958499 0.282989 0.216761
O O9 0.974340 0.000000 0.113026
O O10 0.000000 0.292726 0.000000
O O11 0.181131 0.675789 0.322619
O O12 0.215417 0.000000 0.303125
O O13 0.309363 0.772736 0.112493
O O14 0.070853 0.500000 0.458911
O O15 0.036514 0.675642 0.637709
O O16 0.465309 0.500000 0.305179
O O17 0.571366 0.287766 0.118552
O O18 0.170756 0.000000 0.015465
#
# Coordination Sequence:
#
# PCOD8094852 Si02
#       8
#     4   8   8   8   4   8   4   8
#     4  10  23  44  68  98 124 156 209 267 317 375
#     4  11  26  41  61  88 128 171 215 262 312 370
#     4  10  21  37  59  90 122 162 211 263 310 370
#     4  11  25  43  61  94 128 170 208 260 313 375
#     4  10  23  42  65  90 126 159 209 253 311 381
#     4   9  20  36  62  92 121 163 207 261 312 363
#     4  12  27  42  68  90 127 173 204 255 321 389
#     4  10  19  40  68  94 129 163 202 258 324 375
#
# _framework density 21.116066
#
# number of rings (size 3 to 8) (size 9 to 14) (size 15 to 20)
#    0.000    1.692    1.538    1.615    5.385    3.385 
#    0.000    0.000    0.000    4.615    0.000    0.000 
#    0.000    0.000    0.000    0.000    0.000    0.000 
#
# Total GULP energy -322432.173722 kJ/mol
# GULP energy per Si atom -12401.237451 kJ/mol
# Density = 2.106800 g / cm^3
# Si number density = 21.116066 Si / 1000 Ang^3
#
#
#
# Elastic Constant Matrix: (Units=GPa)
#
#
# Indices 1 2 3 4 5 6 
#
# 1 104.4845 42.3354 41.6333 0.0004 24.1459 0.0001
# 2 42.3354 100.9662 23.4535 -0.0005 11.9821 -0.0041
# 3 41.6333 23.4535 118.5667 0.0006 15.1182 -0.0015
# 4 0.0004 -0.0005 0.0006 19.8144 -0.0005 0.9025
# 5 24.1459 11.9821 15.1182 -0.0005 31.4237 0.0003
# 6 0.0001 -0.0041 -0.0015 0.9025 0.0003 20.2458
#
#
#
# Elastic Compliance Matrix: (Units=1/GPa)
#
#
# Indices 1 2 3 4 5 6 
#
# 1 0.014442 -0.004376 -0.003200 0.000000 -0.007889 -0.000001
# 2 -0.004376 0.012011 -0.000729 0.000000 -0.000867 0.000002
# 3 -0.003200 -0.000729 0.009964 0.000000 -0.002057 0.000001
# 4 0.000000 0.000000 0.000000 0.050571 0.000001 -0.002254
# 5 -0.007889 -0.000867 -0.002057 0.000001 0.039205 -0.000001
# 6 -0.000001 0.000002 0.000001 -0.002254 -0.000001 0.049493
#
#
# Mechanical properties :
#
#
# Convention : Reuss Voigt Hill
#
# Bulk Modulus (GPa) = 50.48344 59.87352 55.17848
# Shear Modulus (GPa) = 25.13836 28.73647 26.93742
#
# Velocity S-wave (km/s) = 3.45408 3.69302 3.57555
# Velocity P-wave (km/s) = 6.31404 6.82646 6.57524
#
# Compressibility (1/GPa) = 0.01980848
#
# Stress axis : x y z
#
# Youngs Moduli (GPa) = 69.24259 83.25447 100.36074
#
# Poissons Ratio (x) = 0.36433 0.32111
# Poissons Ratio (y) = 0.30301 0.07314
# Poissons Ratio (z) = 0.22155 0.06068
#
# Static dielectric constant tensor:
#      x y z
#    x 3.622980 -0.000010 0.123250 
#    y -0.000010 4.026090 0.000000 
#    z 0.123250 0.000000 3.771890 
# 
# 
# High freq. dielectric constant tensor:
#      x y z
#    x 1.822090 0.000000 0.002850 
#    y 0.000000 1.832780 0.000000 
#    z 0.002850 0.000000 1.830630 
# 
# From -- ./inp_files/249631.got.cif
#   From: 2010.06.25/outbox.cif.g09.slc.cpg/sg12_125_cif.got.tgz:249631.got - 2010.06.28 00:19:55.
