data_PCOD8094610
_publ_section_title
;
Structure prediction by ZEFSAII (Michael W. Deem and Ramdas Pophale) SiO2 
 PCOD8094610
Probable space group: C 2/M
;
_chemical_formula_sum "Si O2"
_cell_formula_units_Z 60
_cell_length_a 18.236706
_cell_length_b 15.119220
_cell_length_c 12.380139
_cell_angle_alpha 90.000000
_cell_angle_beta 62.842098
_cell_angle_gamma 90.000000
_cell_volume 3037.178171
_symmetry_space_group_name_H-M "C 2/M"
_symmetry_group_IT_number 12
_symmetry_cell_setting 'monoclinic'
loop_
_space_group_symop_operation_xyz
x,y,z
-x,y,-z
-x,-y,-z
x,-y,z
1/2+x,1/2+y,z
1/2-x,1/2+y,-z
1/2-x,1/2-y,-z
1/2+x,1/2-y,z
loop_
_atom_site_type_symbol
_atom_site_label
_atom_site_fract_x
_atom_site_fract_y
_atom_site_fract_z
Si Si1 0.500000 0.203332 0.500000
Si Si2 0.918147 0.771516 0.759171
Si Si3 0.730290 0.597871 0.180454
Si Si4 0.144052 0.602966 0.722819
Si Si5 0.284150 0.841285 0.931128
Si Si6 0.839235 0.398459 0.535965
Si Si7 0.691635 0.396737 0.784303
Si Si8 0.540874 0.735029 0.857998
O O1 0.476455 0.264277 0.616552
O O2 0.577368 0.145475 0.481229
O O3 0.849643 0.843411 0.779605
O O4 0.874115 0.677242 0.818433
O O5 0.972609 0.804179 0.822936
O O6 0.699304 0.500000 0.227704
O O7 0.783782 0.633363 0.244666
O O8 0.787428 0.595586 0.033806
O O9 0.117780 0.500000 0.759786
O O10 0.177006 0.616767 0.579623
O O11 0.068336 0.669020 0.794557
O O12 0.223200 0.883543 0.884752
O O13 0.250000 0.750000 0.000000
O O14 0.849765 0.500000 0.558588
O O15 0.760645 0.361613 0.654096
O O16 0.669709 0.500000 0.780777
O O17 0.612100 0.337473 0.817248
O O18 0.500000 0.751348 0.000000
#
# Coordination Sequence:
#
# PCOD8094610 Si02
#       8
#     4   8   8   8   8   8   8   8
#     4  12  21  40  61  92 122 158 196 256 321 364
#     4  11  23  37  60  93 120 159 205 252 312 370
#     4  10  21  39  62  86 121 161 204 254 304 368
#     4  10  22  41  64  91 122 164 211 259 313 368
#     4  10  19  38  62  86 119 158 208 254 299 359
#     4  10  22  41  65  92 122 159 208 260 310 369
#     4  11  24  41  65  94 125 168 214 257 308 370
#     4  12  24  40  61  91 131 167 204 256 310 373
#
# _framework density 19.755181
#
# number of rings (size 3 to 8) (size 9 to 14) (size 15 to 20)
#    0.000    1.333    2.667    4.600    0.000    2.667 
#    0.000    1.667    0.000    0.000    0.000    0.000 
#    0.000    0.000    0.000    0.000    0.000    0.000 
#
# Total GULP energy -372002.306642 kJ/mol
# GULP energy per Si atom -12400.076888 kJ/mol
# Density = 1.971022 g / cm^3
# Si number density = 19.755181 Si / 1000 Ang^3
#
#
#
# Elastic Constant Matrix: (Units=GPa)
#
#
# Indices 1 2 3 4 5 6 
#
# 1 96.6618 23.5486 22.8168 0.0000 9.0134 0.0000
# 2 23.5486 63.9170 18.3163 0.0000 -8.2774 0.0000
# 3 22.8168 18.3163 115.9290 0.0000 0.2794 0.0000
# 4 0.0000 0.0000 0.0000 33.2464 0.0000 -1.7124
# 5 9.0134 -8.2774 0.2794 0.0000 37.8627 0.0000
# 6 0.0000 0.0000 0.0000 -1.7124 0.0000 25.7102
#
#
#
# Elastic Compliance Matrix: (Units=1/GPa)
#
#
# Indices 1 2 3 4 5 6 
#
# 1 0.012204 -0.004518 -0.001679 0.000000 -0.003880 0.000000
# 2 -0.004518 0.018566 -0.002057 0.000000 0.005149 0.000000
# 3 -0.001679 -0.002057 0.009282 0.000000 -0.000118 0.000000
# 4 0.000000 0.000000 0.000000 0.030182 0.000000 0.002010
# 5 -0.003880 0.005149 -0.000118 0.000000 0.028462 0.000000
# 6 0.000000 0.000000 0.000000 0.002010 0.000000 0.039029
#
#
# Mechanical properties :
#
#
# Convention : Reuss Voigt Hill
#
# Bulk Modulus (GPa) = 42.47126 45.09680 43.78403
# Shear Modulus (GPa) = 30.84918 33.48561 32.16740
#
# Velocity S-wave (km/s) = 3.95596 4.12154 4.03960
# Velocity P-wave (km/s) = 6.51242 6.74736 6.63093
#
# Compressibility (1/GPa) = 0.02354533
#
# Stress axis : x y z
#
# Youngs Moduli (GPa) = 81.93979 53.86208 107.73996
#
# Poissons Ratio (x) = 0.24333 0.18088
# Poissons Ratio (y) = 0.37018 0.22158
# Poissons Ratio (z) = 0.13756 0.11077
#
# Static dielectric constant tensor:
#      x y z
#    x 3.661630 0.000000 -0.045400 
#    y 0.000000 3.741200 0.000000 
#    z -0.045400 0.000000 4.324520 
# 
# 
# High freq. dielectric constant tensor:
#      x y z
#    x 1.771170 0.000000 0.011630 
#    y 0.000000 1.762380 0.000000 
#    z 0.011630 0.000000 1.787720 
# 
# From -- ./inp_files/156594.got.cif
#   From: 2010.06.25/outbox.cif.g09.slc.cpg/sg12_79_cif.got.tgz:156594.got - 2010.06.28 00:19:55.
