data_PCOD8094732
_publ_section_title
;
Structure prediction by ZEFSAII (Michael W. Deem and Ramdas Pophale) SiO2 
 PCOD8094732
Probable space group: C 2/M
;
_chemical_formula_sum "Si O2"
_cell_formula_units_Z 64
_cell_length_a 15.266053
_cell_length_b 17.512957
_cell_length_c 14.548098
_cell_angle_alpha 90.000000
_cell_angle_beta 53.668852
_cell_angle_gamma 90.000000
_cell_volume 3133.396340
_symmetry_space_group_name_H-M "C 2/M"
_symmetry_group_IT_number 12
_symmetry_cell_setting 'monoclinic'
loop_
_space_group_symop_operation_xyz
x,y,z
-x,y,-z
-x,-y,-z
x,-y,z
1/2+x,1/2+y,z
1/2-x,1/2+y,-z
1/2-x,1/2-y,-z
1/2+x,1/2-y,z
loop_
_atom_site_type_symbol
_atom_site_label
_atom_site_fract_x
_atom_site_fract_y
_atom_site_fract_z
Si Si1 0.431658 0.711306 0.232383
Si Si2 0.435196 0.843643 0.919365
Si Si3 0.871510 0.259989 0.455508
Si Si4 0.681645 0.154640 0.192554
Si Si5 0.352619 0.089679 0.159801
Si Si6 0.602889 0.583584 0.872096
Si Si7 0.292330 0.715990 0.688938
Si Si8 0.519142 0.083177 0.594455
O O1 0.520862 0.756937 0.116351
O O2 0.450597 0.718625 0.331219
O O3 0.433834 0.623565 0.200127
O O4 0.313193 0.742273 0.283025
O O5 0.342068 0.850649 0.901039
O O6 0.541715 0.899105 0.839154
O O7 0.379746 0.862659 0.050602
O O8 0.750000 0.250000 0.500000
O O9 0.883970 0.223527 0.550615
O O10 0.896211 0.350303 0.433903
O O11 0.804755 0.129495 0.131296
O O12 0.663887 0.239469 0.247731
O O13 0.598768 0.095947 0.289234
O O14 0.241929 0.127798 0.268680
O O15 0.332741 0.000000 0.153587
O O16 0.646522 0.500000 0.818453
O O17 0.500000 0.577558 0.000000
O O18 0.500000 0.082358 0.500000
O O19 0.564043 0.000000 0.599551
#
# Coordination Sequence:
#
# PCOD8094732 Si02
#       8
#     8   8   8   8   8   8   8   8
#     4   9  19  35  58  83 114 161 213 241 299 386
#     4  10  20  35  62  90 116 157 201 266 322 381
#     4  10  19  39  56  84 123 167 204 240 302 385
#     4  11  21  38  63  93 118 158 211 256 323 386
#     4  10  22  39  57  86 126 162 202 259 319 376
#     4  10  23  41  60  85 127 169 205 261 320 377
#     4   9  20  36  57  80 118 166 202 244 302 373
#     4  11  22  36  59  95 129 151 191 267 332 363
#
# _framework density 20.42512
#
# number of rings (size 3 to 8) (size 9 to 14) (size 15 to 20)
#    0.000    2.000    2.500    1.125    5.250    2.500 
#    0.000    0.625    0.000    0.000    0.000    0.875 
#    0.000    0.000    0.000    0.000    0.000    0.000 
#
# Total GULP energy -396473.698825 kJ/mol
# GULP energy per Si atom -12389.803088 kJ/mol
# Density = 2.037863 g / cm^3
# Si number density = 20.425120 Si / 1000 Ang^3
#
#
#
# Elastic Constant Matrix: (Units=GPa)
#
#
# Indices 1 2 3 4 5 6 
#
# 1 76.1893 53.8295 34.0851 0.0000 6.8111 0.0000
# 2 53.8295 119.7654 54.5596 0.0000 11.0791 0.0000
# 3 34.0851 54.5596 85.3805 0.0000 11.5774 0.0000
# 4 0.0000 0.0000 0.0000 26.2189 0.0000 -3.0033
# 5 6.8111 11.0791 11.5774 0.0000 24.9254 0.0000
# 6 0.0000 0.0000 0.0000 -3.0033 0.0000 26.6564
#
#
#
# Elastic Compliance Matrix: (Units=1/GPa)
#
#
# Indices 1 2 3 4 5 6 
#
# 1 0.019819 -0.007452 -0.003058 0.000000 -0.000683 0.000000
# 2 -0.007452 0.014661 -0.006175 0.000000 -0.001612 0.000000
# 3 -0.003058 -0.006175 0.017496 0.000000 -0.004546 0.000000
# 4 0.000000 0.000000 0.000000 0.038639 0.000000 0.004353
# 5 -0.000683 -0.001612 -0.004546 0.000000 0.043135 0.000000
# 6 0.000000 0.000000 0.000000 0.004353 0.000000 0.038005
#
#
# Mechanical properties :
#
#
# Convention : Reuss Voigt Hill
#
# Bulk Modulus (GPa) = 53.74490 62.92040 58.33265
# Shear Modulus (GPa) = 23.66018 24.81755 24.23886
#
# Velocity S-wave (km/s) = 3.40720 3.48954 3.44861
# Velocity P-wave (km/s) = 6.46908 6.86354 6.66922
#
# Compressibility (1/GPa) = 0.01860642
#
# Stress axis : x y z
#
# Youngs Moduli (GPa) = 50.45674 68.20722 57.15755
#
# Poissons Ratio (x) = 0.50826 0.17477
# Poissons Ratio (y) = 0.37599 0.35297
# Poissons Ratio (z) = 0.15428 0.42120
#
# Static dielectric constant tensor:
#      x y z
#    x 3.608460 0.000000 0.207480 
#    y 0.000000 4.063080 0.000000 
#    z 0.207480 0.000000 4.059730 
# 
# 
# High freq. dielectric constant tensor:
#      x y z
#    x 1.785150 0.000000 0.007680 
#    y 0.000000 1.780610 0.000000 
#    z 0.007680 0.000000 1.802080 
# 
# From -- ./inp_files/216796.got.cif
#   From: 2010.06.25/outbox.cif.g09.slc.cpg/sg12_109_cif.got.tgz:216796.got - 2010.06.28 00:19:55.
