data_PCOD8094463
_publ_section_title
;
Structure prediction by ZEFSAII (Michael W. Deem and Ramdas Pophale) SiO2 
 PCOD8094463
Probable space group: C 2/M
;
_chemical_formula_sum "Si O2"
_cell_formula_units_Z 64
_cell_length_a 27.488115
_cell_length_b 18.490261
_cell_length_c 10.813728
_cell_angle_alpha 90.000000
_cell_angle_beta 145.435168
_cell_angle_gamma 90.000000
_cell_volume 3118.211874
_symmetry_space_group_name_H-M "C 2/M"
_symmetry_group_IT_number 12
_symmetry_cell_setting 'monoclinic'
loop_
_space_group_symop_operation_xyz
x,y,z
-x,y,-z
-x,-y,-z
x,-y,z
1/2+x,1/2+y,z
1/2-x,1/2+y,-z
1/2-x,1/2-y,-z
1/2+x,1/2-y,z
loop_
_atom_site_type_symbol
_atom_site_label
_atom_site_fract_x
_atom_site_fract_y
_atom_site_fract_z
Si Si1 0.561902 0.656980 0.742026
Si Si2 0.249846 0.675188 0.923098
Si Si3 0.993257 0.080344 0.846287
Si Si4 0.685187 0.188092 0.324460
Si Si5 0.057398 0.307776 0.840309
Si Si6 0.871697 0.707599 0.541751
Si Si7 0.318420 0.369847 0.440253
Si Si8 0.822685 0.585510 0.034224
O O1 0.500000 0.630975 0.500000
O O2 0.537649 0.624410 0.826420
O O3 0.560770 0.743801 0.747712
O O4 0.657825 0.637170 0.900915
O O5 0.213718 0.690320 0.712211
O O6 0.183779 0.616236 0.841022
O O7 0.250000 0.750000 0.000000
O O8 0.891649 0.070670 0.608930
O O9 0.034153 0.000000 0.932896
O O10 0.000000 0.115458 0.000000
O O11 0.750000 0.250000 0.500000
O O12 0.634643 0.164861 0.341276
O O13 0.745595 0.124894 0.395106
O O14 0.615348 0.215275 0.078905
O O15 0.094352 0.381501 0.859732
O O16 0.958973 0.321725 0.666651
O O17 0.872032 0.794612 0.554284
O O18 0.267724 0.384500 0.208125
O O19 0.830838 0.500000 0.045206
#
# Coordination Sequence:
#
# PCOD8094463 Si02
#       8
#     8   8   8   8   8   8   8   8
#     4  12  24  39  68  95 127 171 218 275 324 385
#     4  12  22  40  63  93 126 162 214 269 318 376
#     4  11  26  41  60  94 135 174 213 266 333 400
#     4   9  20  33  58  97 122 158 206 264 319 370
#     4  11  22  38  63  94 128 164 211 269 323 378
#     4  11  21  35  63  96 124 158 213 276 310 374
#     4  10  19  37  64  88 124 166 209 259 319 381
#     4  11  24  42  64  90 126 171 212 258 324 395
#
# _framework density 20.524584999999998
#
# number of rings (size 3 to 8) (size 9 to 14) (size 15 to 20)
#    0.000    1.125    3.750    3.750    5.250    0.750 
#    0.000    1.250    0.000    7.500    0.000    0.000 
#    0.000    0.000    0.000    0.000    0.000    0.000 
#
# Total GULP energy -396561.641381 kJ/mol
# GULP energy per Si atom -12392.551293 kJ/mol
# Density = 2.047787 g / cm^3
# Si number density = 20.524585 Si / 1000 Ang^3
#
#
#
# Elastic Constant Matrix: (Units=GPa)
#
#
# Indices 1 2 3 4 5 6 
#
# 1 130.1263 47.6683 41.3806 0.0000 2.5170 0.0000
# 2 47.6683 89.1836 13.5428 0.0000 4.4204 0.0000
# 3 41.3806 13.5428 92.5957 0.0000 8.2837 0.0000
# 4 0.0000 0.0000 0.0000 18.3411 0.0000 2.0457
# 5 2.5170 4.4204 8.2837 0.0000 40.1867 0.0000
# 6 0.0000 0.0000 0.0000 2.0457 0.0000 21.0140
#
#
#
# Elastic Compliance Matrix: (Units=1/GPa)
#
#
# Indices 1 2 3 4 5 6 
#
# 1 0.010919 -0.005239 -0.004181 0.000000 0.000754 0.000000
# 2 -0.005239 0.014015 0.000407 0.000000 -0.001297 0.000000
# 3 -0.004181 0.000407 0.012826 0.000000 -0.002427 0.000000
# 4 0.000000 0.000000 0.000000 0.055121 0.000000 -0.005366
# 5 0.000754 -0.001297 -0.002427 0.000000 0.025480 0.000000
# 6 0.000000 0.000000 0.000000 -0.005366 0.000000 0.048110
#
#
# Mechanical properties :
#
#
# Convention : Reuss Voigt Hill
#
# Bulk Modulus (GPa) = 50.67022 57.45433 54.06228
# Shear Modulus (GPa) = 26.16811 29.86262 28.01537
#
# Velocity S-wave (km/s) = 3.57454 3.81854 3.69855
# Velocity P-wave (km/s) = 6.46356 6.89169 6.68106
#
# Compressibility (1/GPa) = 0.01973546
#
# Stress axis : x y z
#
# Youngs Moduli (GPa) = 91.58528 71.35070 77.96939
#
# Poissons Ratio (x) = 0.37378 0.32598
# Poissons Ratio (y) = 0.47978 -0.03176
# Poissons Ratio (z) = 0.38290 -0.02906
#
# Static dielectric constant tensor:
#      x y z
#    x 4.391920 0.000000 -0.067570 
#    y 0.000000 3.327470 0.000000 
#    z -0.067570 0.000000 3.800970 
# 
# 
# High freq. dielectric constant tensor:
#      x y z
#    x 1.821510 0.000000 0.000930 
#    y 0.000000 1.754770 0.000000 
#    z 0.000930 0.000000 1.812330 
# 
# From -- ./inp_files/190106.got.cif
#   From: 2010.06.25/outbox.cif.g09.slc.cpg/sg12_96_cif.got.tgz:190106.got - 2010.06.28 00:19:55.
