data_PCOD8094513
_publ_section_title
;
Structure prediction by ZEFSAII (Michael W. Deem and Ramdas Pophale) SiO2 
 PCOD8094513
Probable space group: C 2/M
;
_chemical_formula_sum "Si O2"
_cell_formula_units_Z 56
_cell_length_a 11.975300
_cell_length_b 13.747475
_cell_length_c 17.255769
_cell_angle_alpha 90.000000
_cell_angle_beta 116.025068
_cell_angle_gamma 90.000000
_cell_volume 2552.766660
_symmetry_space_group_name_H-M "C 2/M"
_symmetry_group_IT_number 12
_symmetry_cell_setting 'monoclinic'
loop_
_space_group_symop_operation_xyz
x,y,z
-x,y,-z
-x,-y,-z
x,-y,z
1/2+x,1/2+y,z
1/2-x,1/2+y,-z
1/2-x,1/2-y,-z
1/2+x,1/2-y,z
loop_
_atom_site_type_symbol
_atom_site_label
_atom_site_fract_x
_atom_site_fract_y
_atom_site_fract_z
Si Si1 0.635109 0.611762 0.023108
Si Si2 0.661088 0.610383 0.284991
Si Si3 0.319548 0.196050 0.201142
Si Si4 0.162371 0.888380 0.597570
Si Si5 0.616053 0.392730 0.841134
Si Si6 0.074509 0.199819 0.414641
Si Si7 0.438983 0.111101 0.671072
O O1 0.634001 0.500000 0.049333
O O2 0.741151 0.664060 0.103704
O O3 0.500000 0.658128 0.000000
O O4 0.668867 0.623962 0.943299
O O5 0.706795 0.500000 0.309972
O O6 0.762539 0.668221 0.266348
O O7 0.532838 0.614144 0.198806
O O8 0.651914 0.660627 0.365426
O O9 0.330635 0.312795 0.201147
O O10 0.456029 0.146046 0.235992
O O11 0.148111 0.824878 0.514928
O O12 0.303687 0.878945 0.671164
O O13 0.062728 0.849471 0.629549
O O14 0.130628 0.000000 0.567989
O O15 0.655073 0.500000 0.821901
O O16 0.057291 0.316590 0.402148
O O17 0.462011 0.000000 0.650762
#
# Coordination Sequence:
#
# PCOD8094513 Si02
#       7
#     8   8   8   8   8   8   8
#     4  10  19  37  67  96 126 170 225 272 310 376
#     4  11  22  39  66  97 125 166 221 266 313 383
#     4  12  23  41  65  95 137 174 209 266 334 382
#     4  10  23  46  70  95 126 167 220 270 327 388
#     4  10  22  40  64  96 127 167 224 270 314 383
#     4  11  22  42  72  92 123 171 222 267 314 383
#     4  11  25  41  61  96 136 169 208 264 335 394
#
# _framework density 21.936983999999999
#
# number of rings (size 3 to 8) (size 9 to 14) (size 15 to 20)
#    0.000    1.286    2.857    3.857    2.000    0.000 
#    0.000    2.143    0.000    0.429    0.000    0.000 
#    0.000    0.000    0.000    0.000    0.000    0.000 
#
# Total GULP energy -347216.610934 kJ/mol
# GULP energy per Si atom -12400.593248 kJ/mol
# Density = 2.188705 g / cm^3
# Si number density = 21.936984 Si / 1000 Ang^3
#
#
#
# Elastic Constant Matrix: (Units=GPa)
#
#
# Indices 1 2 3 4 5 6 
#
# 1 105.8326 63.7003 49.1624 0.0000 11.2765 0.0000
# 2 63.7003 188.6232 42.8197 0.0000 -2.3148 0.0000
# 3 49.1624 42.8197 76.2823 0.0000 15.8042 0.0000
# 4 0.0000 0.0000 0.0000 28.9902 0.0000 -2.8549
# 5 11.2765 -2.3148 15.8042 0.0000 38.3899 0.0000
# 6 0.0000 0.0000 0.0000 -2.8549 0.0000 30.6432
#
#
#
# Elastic Compliance Matrix: (Units=1/GPa)
#
#
# Indices 1 2 3 4 5 6 
#
# 1 0.015183 -0.003437 -0.007531 0.000000 -0.001567 0.000000
# 2 -0.003437 0.006988 -0.002191 0.000000 0.002333 0.000000
# 3 -0.007531 -0.002191 0.020511 0.000000 -0.006364 0.000000
# 4 0.000000 0.000000 0.000000 0.034814 0.000000 0.003243
# 5 -0.001567 0.002333 -0.006364 0.000000 0.029269 0.000000
# 6 0.000000 0.000000 0.000000 0.003243 0.000000 0.032936
#
#
# Mechanical properties :
#
#
# Convention : Reuss Voigt Hill
#
# Bulk Modulus (GPa) = 61.10961 75.78921 68.44941
# Shear Modulus (GPa) = 29.15878 33.94171 31.55025
#
# Velocity S-wave (km/s) = 3.64978 3.93776 3.79650
# Velocity P-wave (km/s) = 6.75859 7.43628 7.10552
#
# Compressibility (1/GPa) = 0.01636404
#
# Stress axis : x y z
#
# Youngs Moduli (GPa) = 65.86288 143.09604 48.75352
#
# Poissons Ratio (x) = 0.49183 0.36718
# Poissons Ratio (y) = 0.22637 0.10682
# Poissons Ratio (z) = 0.49603 0.31352
#
# Static dielectric constant tensor:
#      x y z
#    x 3.933950 0.000000 0.231460 
#    y 0.000000 4.236870 0.000000 
#    z 0.231460 0.000000 3.803070 
# 
# 
# High freq. dielectric constant tensor:
#      x y z
#    x 1.851590 0.000000 0.013860 
#    y 0.000000 1.875620 0.000000 
#    z 0.013860 0.000000 1.857980 
# 
# From -- ./inp_files/263426.got.cif
#   From: 2010.06.25/outbox.cif.g09.slc.cpg/sg12_132_cif.got.tgz:263426.got - 2010.06.28 00:19:55.
