data_PCOD8094029
_publ_section_title
;
Structure prediction by ZEFSAII (Michael W. Deem and Ramdas Pophale) SiO2 
 PCOD8094029
Probable space group: C 2/M
;
_chemical_formula_sum "Si O2"
_cell_formula_units_Z 64
_cell_length_a 19.568468
_cell_length_b 9.074883
_cell_length_c 24.100455
_cell_angle_alpha 90.000000
_cell_angle_beta 128.117886
_cell_angle_gamma 90.000000
_cell_volume 3367.097087
_symmetry_space_group_name_H-M "C 2/M"
_symmetry_group_IT_number 12
_symmetry_cell_setting 'monoclinic'
loop_
_space_group_symop_operation_xyz
x,y,z
-x,y,-z
-x,-y,-z
x,-y,z
1/2+x,1/2+y,z
1/2-x,1/2+y,-z
1/2-x,1/2-y,-z
1/2+x,1/2-y,z
loop_
_atom_site_type_symbol
_atom_site_label
_atom_site_fract_x
_atom_site_fract_y
_atom_site_fract_z
Si Si1 0.837746 0.332436 0.289906
Si Si2 0.834887 0.673067 0.800406
Si Si3 0.599433 0.334575 0.065761
Si Si4 0.748631 0.174979 0.939528
Si Si5 0.414818 0.169525 0.213281
Si Si6 0.400283 0.827840 0.442704
Si Si7 0.743526 0.324138 0.556305
Si Si8 0.603845 0.175506 0.286538
O O1 0.803065 0.500000 0.274391
O O2 0.761688 0.223424 0.234978
O O3 0.906790 0.312268 0.275440
O O4 0.878854 0.286421 0.368726
O O5 0.840681 0.500000 0.802795
O O6 0.897487 0.732172 0.879153
O O7 0.862582 0.738435 0.754982
O O8 0.628803 0.500000 0.096335
O O9 0.663391 0.278186 0.048953
O O10 0.500000 0.329525 0.000000
O O11 0.665674 0.236002 0.862558
O O12 0.744727 0.000000 0.945694
O O13 0.750000 0.250000 0.000000
O O14 0.507620 0.244394 0.246190
O O15 0.418820 0.000000 0.198256
O O16 0.500000 0.783285 0.500000
O O17 0.342018 0.732185 0.454900
O O18 0.384969 0.000000 0.447900
O O19 0.738117 0.500000 0.547936
O O20 0.750000 0.250000 0.500000
O O21 0.829335 0.272324 0.632608
O O22 0.600012 0.000000 0.285017
#
# Coordination Sequence:
#
# PCOD8094029 Si02
#       8
#     8   8   8   8   8   8   8   8
#     4  10  19  36  62  84 111 149 191 236 285 340
#     4  11  21  36  59  86 115 146 189 239 288 340
#     4  10  22  40  59  82 114 153 192 234 286 342
#     4  10  21  37  57  80 110 145 184 226 278 335
#     4   9  18  35  58  81 107 146 190 229 276 337
#     4  10  22  38  61  91 117 152 201 244 289 353
#     4  11  23  40  60  84 121 159 195 242 297 355
#     4   9  20  36  57  84 114 148 186 236 290 338
#
# _framework density 19.007470999999999
#
# number of rings (size 3 to 8) (size 9 to 14) (size 15 to 20)
#    0.000    2.000    2.500    0.750    3.500    1.000 
#    0.000    0.000    0.000    3.000    0.000    0.000 
#    0.000    0.000    0.000    0.000    0.000    0.000 
#
# Total GULP energy -396753.966956 kJ/mol
# GULP energy per Si atom -12398.561467 kJ/mol
# Density = 1.896421 g / cm^3
# Si number density = 19.007471 Si / 1000 Ang^3
#
#
#
# Elastic Constant Matrix: (Units=GPa)
#
#
# Indices 1 2 3 4 5 6 
#
# 1 127.6715 34.9156 69.1157 0.0000 2.7631 0.0000
# 2 34.9156 49.6427 40.3005 0.0000 -5.6882 0.0000
# 3 69.1157 40.3005 127.6882 0.0000 -10.3558 0.0000
# 4 0.0000 0.0000 0.0000 22.6332 0.0000 -12.9084
# 5 2.7631 -5.6882 -10.3558 0.0000 41.1835 0.0000
# 6 0.0000 0.0000 0.0000 -12.9084 0.0000 17.0744
#
#
#
# Elastic Compliance Matrix: (Units=1/GPa)
#
#
# Indices 1 2 3 4 5 6 
#
# 1 0.011977 -0.004430 -0.005308 0.000000 -0.002750 0.000000
# 2 -0.004430 0.028829 -0.006486 0.000000 0.002648 0.000000
# 3 -0.005308 -0.006486 0.012973 0.000000 0.002722 0.000000
# 4 0.000000 0.000000 0.000000 0.077674 0.000000 0.058722
# 5 -0.002750 0.002648 0.002722 0.000000 0.025516 0.000000
# 6 0.000000 0.000000 0.000000 0.058722 0.000000 0.102961
#
#
# Mechanical properties :
#
#
# Convention : Reuss Voigt Hill
#
# Bulk Modulus (GPa) = 46.88176 65.96288 56.42232
# Shear Modulus (GPa) = 16.69516 26.88960 21.79238
#
# Velocity S-wave (km/s) = 2.96691 3.76531 3.38970
# Velocity P-wave (km/s) = 6.03781 7.32683 6.71333
#
# Compressibility (1/GPa) = 0.02133026
#
# Stress axis : x y z
#
# Youngs Moduli (GPa) = 83.49263 34.68761 77.08583
#
# Poissons Ratio (x) = 0.15367 0.40916
# Poissons Ratio (y) = 0.36988 0.49999
# Poissons Ratio (z) = 0.44317 0.22499
#
# Static dielectric constant tensor:
#      x y z
#    x 3.654820 0.000000 0.059760 
#    y 0.000000 3.255200 0.000000 
#    z 0.059760 0.000000 3.771090 
# 
# 
# High freq. dielectric constant tensor:
#      x y z
#    x 1.751160 0.000000 -0.001970 
#    y 0.000000 1.708050 0.000000 
#    z -0.001970 0.000000 1.751940 
# 
# From -- ./inp_files/346251.got.cif
#   From: 2010.06.25/outbox.cif.g09.slc.cpg/sg12_174_cif.got.tgz:346251.got - 2010.06.28 00:19:55.
