data_PCOD8094147
_publ_section_title
;
Structure prediction by ZEFSAII (Michael W. Deem and Ramdas Pophale) SiO2 
 PCOD8094147
Probable space group: C 2/M
;
_chemical_formula_sum "Si O2"
_cell_formula_units_Z 52
_cell_length_a 9.632002
_cell_length_b 26.962221
_cell_length_c 11.030579
_cell_angle_alpha 90.000000
_cell_angle_beta 121.921823
_cell_angle_gamma 90.000000
_cell_volume 2431.424223
_symmetry_space_group_name_H-M "C 2/M"
_symmetry_group_IT_number 12
_symmetry_cell_setting 'monoclinic'
loop_
_space_group_symop_operation_xyz
x,y,z
-x,y,-z
-x,-y,-z
x,-y,z
1/2+x,1/2+y,z
1/2-x,1/2+y,-z
1/2-x,1/2-y,-z
1/2+x,1/2-y,z
loop_
_atom_site_type_symbol
_atom_site_label
_atom_site_fract_x
_atom_site_fract_y
_atom_site_fract_z
Si Si1 0.678238 0.444419 0.810291
Si Si2 0.379985 0.899328 0.694232
Si Si3 0.224037 0.442327 0.873045
Si Si4 0.410773 0.376874 0.586484
Si Si5 0.115989 0.700087 0.160874
Si Si6 0.036806 0.798557 0.801861
Si Si7 0.000000 0.870222 0.000000
O O1 0.614792 0.500000 0.769601
O O2 0.807427 0.434150 0.764736
O O3 0.517121 0.411130 0.725004
O O4 0.769866 0.435084 0.979169
O O5 0.554692 0.921876 0.741064
O O6 0.268843 0.899810 0.520646
O O7 0.381557 0.842520 0.737840
O O8 0.251110 0.500000 0.849049
O O9 0.362908 0.406983 0.879598
O O10 0.500000 0.371255 0.500000
O O11 0.405109 0.323402 0.649509
O O12 0.041710 0.748409 0.188011
O O13 0.295091 0.711963 0.191406
O O14 0.000000 0.681383 0.000000
O O15 0.076261 0.835030 0.932178
#
# Coordination Sequence:
#
# PCOD8094147 Si02
#       7
#     8   8   8   8   8   8   4
#     4  10  19  36  65  94 126 168 217 265 322 383
#     4  11  22  38  64  92 138 165 214 273 326 386
#     4  11  23  39  65  99 128 172 223 272 325 390
#     4  10  21  43  61  94 138 173 212 265 327 402
#     4  12  24  40  68  99 133 170 227 279 331 386
#     4  12  25  43  67  99 129 180 224 272 335 394
#     4  12  23  44  70  90 136 168 221 280 332 392
#
# _framework density 21.386641999999998
#
# number of rings (size 3 to 8) (size 9 to 14) (size 15 to 20)
#    0.000    0.923    5.385    3.462    2.154    5.231 
#    0.000    0.769    0.000    0.923    0.000    0.000 
#    0.000    0.000    0.000    0.000    0.000    0.000 
#
# Total GULP energy -322415.626238 kJ/mol
# GULP energy per Si atom -12400.601009 kJ/mol
# Density = 2.133797 g / cm^3
# Si number density = 21.386642 Si / 1000 Ang^3
#
#
#
# Elastic Constant Matrix: (Units=GPa)
#
#
# Indices 1 2 3 4 5 6 
#
# 1 66.3224 37.3614 7.8448 0.0000 22.6779 0.0000
# 2 37.3614 113.9799 18.4371 0.0000 3.7932 0.0000
# 3 7.8448 18.4371 74.4059 0.0000 30.2764 0.0000
# 4 0.0000 0.0000 0.0000 19.7722 0.0000 4.8849
# 5 22.6779 3.7932 30.2764 0.0000 31.8277 0.0000
# 6 0.0000 0.0000 0.0000 4.8849 0.0000 27.6202
#
#
#
# Elastic Compliance Matrix: (Units=1/GPa)
#
#
# Indices 1 2 3 4 5 6 
#
# 1 0.031297 -0.011264 0.013083 0.000000 -0.033403 0.000000
# 2 -0.011264 0.013253 -0.007700 0.000000 0.013770 0.000000
# 3 0.013083 -0.007700 0.028369 0.000000 -0.035391 0.000000
# 4 0.000000 0.000000 0.000000 0.052887 0.000000 -0.009354
# 5 -0.033403 0.013770 -0.035391 0.000000 0.087245 0.000000
# 6 0.000000 0.000000 0.000000 -0.009354 0.000000 0.037860
#
#
# Mechanical properties :
#
#
# Convention : Reuss Voigt Hill
#
# Bulk Modulus (GPa) = 16.35073 42.44387 29.39730
# Shear Modulus (GPa) = 17.66429 28.58166 23.12297
#
# Velocity S-wave (km/s) = 2.87705 3.65968 3.29171
# Velocity P-wave (km/s) = 4.32417 6.14384 5.31250
#
# Compressibility (1/GPa) = 0.06115934
#
# Stress axis : x y z
#
# Youngs Moduli (GPa) = 31.95183 75.45605 35.24938
#
# Poissons Ratio (x) = 0.84990 -0.46118
# Poissons Ratio (y) = 0.35989 0.27141
# Poissons Ratio (z) = -0.41804 0.58099
#
# Static dielectric constant tensor:
#      x y z
#    x 3.765580 0.000000 0.185250 
#    y 0.000000 4.046670 0.000000 
#    z 0.185250 0.000000 4.153790 
# 
# 
# High freq. dielectric constant tensor:
#      x y z
#    x 1.828520 0.000000 0.006910 
#    y 0.000000 1.851570 0.000000 
#    z 0.006910 0.000000 1.834880 
# 
# From -- ./inp_files/124419.got.cif
#   From: 2010.06.25/outbox.cif.g09.slc.cpg/sg12_63_cif.got.tgz:124419.got - 2010.06.28 00:19:55.
