data_PCOD8094175
_publ_section_title
;
Structure prediction by ZEFSAII (Michael W. Deem and Ramdas Pophale) SiO2 
 PCOD8094175
Probable space group: C 2/M
;
_chemical_formula_sum "Si O2"
_cell_formula_units_Z 56
_cell_length_a 9.967939
_cell_length_b 27.302103
_cell_length_c 18.465189
_cell_angle_alpha 90.000000
_cell_angle_beta 37.646441
_cell_angle_gamma 90.000000
_cell_volume 3069.340875
_symmetry_space_group_name_H-M "C 2/M"
_symmetry_group_IT_number 12
_symmetry_cell_setting 'monoclinic'
loop_
_space_group_symop_operation_xyz
x,y,z
-x,y,-z
-x,-y,-z
x,-y,z
1/2+x,1/2+y,z
1/2-x,1/2+y,-z
1/2-x,1/2-y,-z
1/2+x,1/2-y,z
loop_
_atom_site_type_symbol
_atom_site_label
_atom_site_fract_x
_atom_site_fract_y
_atom_site_fract_z
Si Si1 0.367039 0.557571 0.399606
Si Si2 0.494846 0.899776 0.342355
Si Si3 0.418334 0.442840 0.215235
Si Si4 0.973845 0.198974 0.594198
Si Si5 0.388552 0.055752 0.970143
Si Si6 0.537221 0.191969 0.564116
Si Si7 0.208124 0.606269 0.727552
O O1 0.324214 0.500000 0.418924
O O2 0.165601 0.583033 0.525418
O O3 0.379215 0.578880 0.312516
O O4 0.591729 0.569194 0.345262
O O5 0.716726 0.931510 0.247863
O O6 0.562668 0.843887 0.332334
O O7 0.377342 0.903592 0.316284
O O8 0.451056 0.500000 0.211106
O O9 0.641956 0.422949 0.083553
O O10 0.788654 0.162557 0.706011
O O11 0.000000 0.182546 0.500000
O O12 0.200945 0.194063 0.539217
O O13 0.908685 0.256177 0.627776
O O14 0.511660 0.093877 0.865796
O O15 0.393989 0.000000 0.936174
O O16 0.500000 0.055703 0.000000
O O17 0.500000 0.171130 0.500000
#
# Coordination Sequence:
#
# PCOD8094175 Si02
#       7
#     8   8   8   8   8   8   8
#     4  11  21  35  56  83 118 154 187 233 290 347
#     4  12  23  35  54  91 123 148 181 238 303 351
#     4  10  22  39  57  80 115 156 201 239 272 337
#     4  10  19  37  55  86 120 148 186 237 291 347
#     4  10  21  40  62  82 108 155 209 240 269 333
#     4  10  20  33  58  83 118 156 186 226 290 354
#     4  12  22  36  58  84 117 150 191 243 288 336
#
# _framework density 18.244959000000001
#
# number of rings (size 3 to 8) (size 9 to 14) (size 15 to 20)
#    0.000    1.286    4.286    2.571    0.000    4.571 
#    0.000    1.429    0.000    0.857    0.000    0.000 
#    0.000    0.000    0.000    0.000    0.000    0.000 
#
# Total GULP energy -347180.048793 kJ/mol
# GULP energy per Si atom -12399.287457 kJ/mol
# Density = 1.820343 g / cm^3
# Si number density = 18.244959 Si / 1000 Ang^3
#
#
#
# Elastic Constant Matrix: (Units=GPa)
#
#
# Indices 1 2 3 4 5 6 
#
# 1 101.4058 21.2582 26.9270 0.0000 -9.7812 0.0000
# 2 21.2582 66.9884 48.0940 0.0001 11.9381 -0.0001
# 3 26.9270 48.0940 119.2273 -0.0007 -13.6407 0.0008
# 4 0.0000 0.0001 -0.0007 25.9487 0.0001 -0.7973
# 5 -9.7812 11.9381 -13.6407 0.0001 25.1363 -0.0001
# 6 0.0000 -0.0001 0.0008 -0.7973 -0.0001 25.6879
#
#
#
# Elastic Compliance Matrix: (Units=1/GPa)
#
#
# Indices 1 2 3 4 5 6 
#
# 1 0.011544 -0.005110 0.000262 0.000000 0.007061 0.000000
# 2 -0.005110 0.031092 -0.014185 0.000000 -0.024453 0.000000
# 3 0.000262 -0.014185 0.015815 0.000000 0.015421 0.000000
# 4 0.000000 0.000000 0.000000 0.038574 0.000000 0.001197
# 5 0.007061 -0.024453 0.015421 0.000000 0.062513 0.000000
# 6 0.000000 0.000000 0.000000 0.001197 0.000000 0.038966
#
#
# Mechanical properties :
#
#
# Convention : Reuss Voigt Hill
#
# Bulk Modulus (GPa) = 49.05867 53.35332 51.20600
# Shear Modulus (GPa) = 20.54526 28.11071 24.32799
#
# Velocity S-wave (km/s) = 3.35935 3.92948 3.65555
# Velocity P-wave (km/s) = 6.48030 7.06357 6.77821
#
# Compressibility (1/GPa) = 0.02038376
#
# Stress axis : x y z
#
# Youngs Moduli (GPa) = 86.62429 32.16294 63.23245
#
# Poissons Ratio (x) = 0.16435 -0.01656
# Poissons Ratio (y) = 0.44263 0.89698
# Poissons Ratio (z) = -0.02268 0.45624
#
# Static dielectric constant tensor:
#      x y z
#    x 3.499290 0.000000 -0.039020 
#    y 0.000000 3.571580 0.000000 
#    z -0.039020 0.000000 3.343690 
# 
# 
# High freq. dielectric constant tensor:
#      x y z
#    x 1.725240 0.000000 -0.007630 
#    y 0.000000 1.702930 0.000000 
#    z -0.007630 0.000000 1.677640 
# 
# From -- ./inp_files/124208.got.cif
#   From: 2010.06.25/outbox.cif.g09.slc.cpg/sg12_63_cif.got.tgz:124208.got - 2010.06.28 00:19:55.
