data_PCOD8094424
_publ_section_title
;
Structure prediction by ZEFSAII (Michael W. Deem and Ramdas Pophale) SiO2 
 PCOD8094424
Probable space group: C 2/M
;
_chemical_formula_sum "Si O2"
_cell_formula_units_Z 64
_cell_length_a 17.695458
_cell_length_b 12.770210
_cell_length_c 29.580743
_cell_angle_alpha 90.000000
_cell_angle_beta 151.901432
_cell_angle_gamma 90.000000
_cell_volume 3148.331526
_symmetry_space_group_name_H-M "C 2/M"
_symmetry_group_IT_number 12
_symmetry_cell_setting 'monoclinic'
loop_
_space_group_symop_operation_xyz
x,y,z
-x,y,-z
-x,-y,-z
x,-y,z
1/2+x,1/2+y,z
1/2-x,1/2+y,-z
1/2-x,1/2-y,-z
1/2+x,1/2-y,z
loop_
_atom_site_type_symbol
_atom_site_label
_atom_site_fract_x
_atom_site_fract_y
_atom_site_fract_z
Si Si1 0.695709 0.880004 0.910209
Si Si2 0.544750 0.116091 0.142268
Si Si3 0.704059 0.380342 0.645029
Si Si4 0.961587 0.291939 0.716946
Si Si5 0.836092 0.875873 0.591622
Si Si6 0.638214 0.116468 0.730511
Si Si7 0.466338 0.701041 0.930825
Si Si8 0.528046 0.262010 0.420683
O O1 0.625236 0.861036 0.922970
O O2 0.609037 0.800510 0.829732
O O3 0.659011 0.000000 0.875514
O O4 0.884539 0.860212 0.012309
O O5 0.685188 0.128334 0.252572
O O6 0.569742 0.191755 0.113646
O O7 0.546472 0.000000 0.122524
O O8 0.664243 0.500000 0.611951
O O9 0.793611 0.328412 0.649776
O O10 0.538647 0.319655 0.569495
O O11 0.946670 0.172749 0.690264
O O12 0.996730 0.365214 0.692249
O O13 0.663841 0.820843 0.505789
O O14 0.908777 0.850438 0.580734
O O15 0.822851 0.000000 0.591338
O O16 0.811091 0.127725 0.845484
O O17 0.618617 0.196947 0.678913
O O18 0.620966 0.000000 0.702119
O O19 0.500000 0.729227 0.000000
#
# Coordination Sequence:
#
# PCOD8094424 Si02
#       8
#     8   8   8   8   8   8   8   8
#     4  10  20  37  59  81 115 158 194 241 287 332
#     4   9  20  38  57  78 113 159 197 236 288 336
#     4  10  19  37  63  86 113 152 196 242 284 334
#     4  10  21  37  58  84 114 154 195 237 287 341
#     4  10  22  41  62  87 119 153 186 238 299 344
#     4  11  21  36  57  85 119 153 189 239 291 343
#     4  12  22  33  55  89 119 149 193 241 288 349
#     4  10  21  39  63  89 113 148 199 236 282 353
#
# _framework density 20.328229
#
# number of rings (size 3 to 8) (size 9 to 14) (size 15 to 20)
#    0.000    1.750    2.500    3.375    0.000    1.250 
#    0.000    6.250    0.000    0.000    0.000    0.000 
#    0.000    0.000    0.000    0.000    0.000    0.000 
#
# Total GULP energy -396825.238322 kJ/mol
# GULP energy per Si atom -12400.788698 kJ/mol
# Density = 2.028196 g / cm^3
# Si number density = 20.328229 Si / 1000 Ang^3
#
#
#
# Elastic Constant Matrix: (Units=GPa)
#
#
# Indices 1 2 3 4 5 6 
#
# 1 80.3442 45.2704 8.2669 -0.0001 25.6499 0.0000
# 2 45.2704 137.6399 24.7727 0.0003 7.7783 0.0000
# 3 8.2669 24.7727 61.0474 0.0009 16.6063 -0.0001
# 4 -0.0001 0.0003 0.0009 26.9605 -0.0002 -0.5732
# 5 25.6499 7.7783 16.6063 -0.0002 30.5200 0.0000
# 6 0.0000 0.0000 -0.0001 -0.5732 0.0000 24.4530
#
#
#
# Elastic Compliance Matrix: (Units=1/GPa)
#
#
# Indices 1 2 3 4 5 6 
#
# 1 0.022223 -0.007140 0.005251 0.000000 -0.019714 0.000000
# 2 -0.007140 0.010134 -0.004783 0.000000 0.006021 0.000000
# 3 0.005251 -0.004783 0.021690 -0.000001 -0.014995 0.000000
# 4 0.000000 0.000000 -0.000001 0.037110 0.000001 0.000870
# 5 -0.019714 0.006021 -0.014995 0.000001 0.055958 0.000000
# 6 0.000000 0.000000 0.000000 0.000870 0.000000 0.040915
#
#
# Mechanical properties :
#
#
# Convention : Reuss Voigt Hill
#
# Bulk Modulus (GPa) = 24.56899 48.40575 36.48737
# Shear Modulus (GPa) = 23.26189 29.76812 26.51500
#
# Velocity S-wave (km/s) = 3.38644 3.83087 3.61549
# Velocity P-wave (km/s) = 5.23479 6.59023 5.95123
#
# Compressibility (1/GPa) = 0.04070172
#
# Stress axis : x y z
#
# Youngs Moduli (GPa) = 44.99814 98.67308 46.10459
#
# Poissons Ratio (x) = 0.70455 -0.24208
# Poissons Ratio (y) = 0.32130 0.22053
# Poissons Ratio (z) = -0.23627 0.47199
#
# Static dielectric constant tensor:
#      x y z
#    x 3.719890 0.000000 0.165410 
#    y 0.000000 3.579270 0.000000 
#    z 0.165410 0.000000 3.697670 
# 
# 
# High freq. dielectric constant tensor:
#      x y z
#    x 1.794090 0.000000 0.014060 
#    y 0.000000 1.784310 0.000000 
#    z 0.014060 0.000000 1.794340 
# 
# From -- ./inp_files/379102.got.cif
#   From: 2010.06.25/outbox.cif.g09.slc.cpg/sg12_190_cif.got.tgz:379102.got - 2010.06.28 00:19:55.
