data_PCOD8094491
_publ_section_title
;
Structure prediction by ZEFSAII (Michael W. Deem and Ramdas Pophale) SiO2 
 PCOD8094491
Probable space group: C 2/M
;
_chemical_formula_sum "Si O2"
_cell_formula_units_Z 64
_cell_length_a 32.001755
_cell_length_b 16.496153
_cell_length_c 12.795367
_cell_angle_alpha 90.000000
_cell_angle_beta 27.120141
_cell_angle_gamma 90.000000
_cell_volume 3079.205128
_symmetry_space_group_name_H-M "C 2/M"
_symmetry_group_IT_number 12
_symmetry_cell_setting 'monoclinic'
loop_
_space_group_symop_operation_xyz
x,y,z
-x,y,-z
-x,-y,-z
x,-y,z
1/2+x,1/2+y,z
1/2-x,1/2+y,-z
1/2-x,1/2-y,-z
1/2+x,1/2-y,z
loop_
_atom_site_type_symbol
_atom_site_label
_atom_site_fract_x
_atom_site_fract_y
_atom_site_fract_z
Si Si1 0.187521 0.591170 0.284547
Si Si2 0.393655 0.909661 0.212763
Si Si3 0.985863 0.592976 0.648237
Si Si4 0.504283 0.404728 0.314805
Si Si5 0.517707 0.304850 0.840504
Si Si6 0.632196 0.593147 0.213645
Si Si7 0.800017 0.717076 0.565359
Si Si8 0.617499 0.818991 0.951515
O O1 0.204579 0.500000 0.291250
O O2 0.213831 0.660223 0.305422
O O3 0.082810 0.600319 0.488286
O O4 0.257605 0.605340 0.030972
O O5 0.328795 0.841981 0.407767
O O6 0.370722 0.902363 0.140208
O O7 0.367032 0.000000 0.310291
O O8 0.500000 0.893245 0.000000
O O9 0.949932 0.500000 0.729281
O O10 0.000000 0.624584 0.500000
O O11 0.914121 0.654128 0.862375
O O12 0.502963 0.500000 0.300044
O O13 0.512311 0.369773 0.180114
O O14 0.413390 0.370594 0.579106
O O15 0.589128 0.374580 0.199313
O O16 0.624922 0.286863 0.585884
O O17 0.500000 0.334514 0.000000
O O18 0.461441 0.224145 0.940677
O O19 0.602984 0.500000 0.282208
O O20 0.705148 0.761983 0.756091
#
# Coordination Sequence:
#
# PCOD8094491 Si02
#       8
#     8   8   8   8   8   8   8   8
#     4  10  19  37  65  94 121 155 210 266 314 379
#     4  11  21  40  70  95 120 163 219 268 313 376
#     4  10  22  42  66  92 127 166 209 270 328 381
#     4   9  19  38  61  86 124 171 212 255 308 382
#     4  12  24  41  59  87 129 167 211 259 322 375
#     4   8  16  35  63  92 116 153 213 268 310 356
#     4  12  23  39  62  93 128 165 203 261 326 375
#     4  12  23  42  62  91 129 165 204 265 327 380
#
# _framework density 20.784583999999999
#
# number of rings (size 3 to 8) (size 9 to 14) (size 15 to 20)
#    0.000    1.500    3.750    2.625    0.000    3.250 
#    4.500    4.375    0.000    0.000    0.000    0.000 
#    0.000    0.000    0.000    0.000    0.000    0.000 
#
# Total GULP energy -396516.261997 kJ/mol
# GULP energy per Si atom -12391.133187 kJ/mol
# Density = 2.073728 g / cm^3
# Si number density = 20.784584 Si / 1000 Ang^3
#
#
#
# Elastic Constant Matrix: (Units=GPa)
#
#
# Indices 1 2 3 4 5 6 
#
# 1 88.4360 42.0075 33.5456 0.0000 24.6876 0.0000
# 2 42.0075 78.6666 47.1631 0.0000 4.9333 0.0000
# 3 33.5456 47.1631 117.8695 0.0000 8.4207 0.0000
# 4 0.0000 0.0000 0.0000 31.7279 0.0000 5.3744
# 5 24.6876 4.9333 8.4207 0.0000 31.2892 0.0000
# 6 0.0000 0.0000 0.0000 5.3744 0.0000 32.8024
#
#
#
# Elastic Compliance Matrix: (Units=1/GPa)
#
#
# Indices 1 2 3 4 5 6 
#
# 1 0.019968 -0.009179 -0.001008 0.000000 -0.014037 0.000000
# 2 -0.009179 0.020965 -0.006176 0.000000 0.005599 0.000000
# 3 -0.001008 -0.006176 0.011334 0.000000 -0.001281 0.000000
# 4 0.000000 0.000000 0.000000 0.032418 0.000000 -0.005311
# 5 -0.014037 0.005599 -0.001281 0.000000 0.042497 0.000000
# 6 0.000000 0.000000 0.000000 -0.005311 0.000000 0.031356
#
#
# Mechanical properties :
#
#
# Convention : Reuss Voigt Hill
#
# Bulk Modulus (GPa) = 51.17262 58.93383 55.05323
# Shear Modulus (GPa) = 25.28105 29.98096 27.63101
#
# Velocity S-wave (km/s) = 3.49139 3.80210 3.65005
# Velocity P-wave (km/s) = 6.39742 6.90585 6.65649
#
# Compressibility (1/GPa) = 0.01954170
#
# Stress axis : x y z
#
# Youngs Moduli (GPa) = 50.07983 47.69846 88.23292
#
# Poissons Ratio (x) = 0.43780 0.08890
# Poissons Ratio (y) = 0.45966 0.54497
# Poissons Ratio (z) = 0.05046 0.29461
#
# Static dielectric constant tensor:
#      x y z
#    x 3.829320 0.000000 0.149250 
#    y 0.000000 3.595500 0.000000 
#    z 0.149250 0.000000 3.960150 
# 
# 
# High freq. dielectric constant tensor:
#      x y z
#    x 1.801040 0.000000 0.009330 
#    y 0.000000 1.799430 0.000000 
#    z 0.009330 0.000000 1.825480 
# 
# From -- ./inp_files/190040.got.cif
#   From: 2010.06.25/outbox.cif.g09.slc.cpg/sg12_96_cif.got.tgz:190040.got - 2010.06.28 00:19:55.
