data_PCOD8094238
_publ_section_title
;
Structure prediction by ZEFSAII (Michael W. Deem and Ramdas Pophale) SiO2 
 PCOD8094238
Probable space group: C 2/M
;
_chemical_formula_sum "Si O2"
_cell_formula_units_Z 60
_cell_length_a 26.686802
_cell_length_b 21.186137
_cell_length_c 14.286983
_cell_angle_alpha 90.000000
_cell_angle_beta 19.179630
_cell_angle_gamma 90.000000
_cell_volume 2653.780704
_symmetry_space_group_name_H-M "C 2/M"
_symmetry_group_IT_number 12
_symmetry_cell_setting 'monoclinic'
loop_
_space_group_symop_operation_xyz
x,y,z
-x,y,-z
-x,-y,-z
x,-y,z
1/2+x,1/2+y,z
1/2-x,1/2+y,-z
1/2-x,1/2-y,-z
1/2+x,1/2-y,z
loop_
_atom_site_type_symbol
_atom_site_label
_atom_site_fract_x
_atom_site_fract_y
_atom_site_fract_z
Si Si1 0.571007 0.815471 0.477018
Si Si2 0.644453 0.708045 0.122358
Si Si3 0.000000 0.894107 0.500000
Si Si4 0.580103 0.765495 0.955051
Si Si5 0.341369 0.071936 0.332206
Si Si6 0.837128 0.068651 0.611835
Si Si7 0.372907 0.333445 0.398240
Si Si8 0.995324 0.381337 0.789591
O O1 0.500000 0.830739 0.500000
O O2 0.506595 0.749079 0.633213
O O3 0.535646 0.873444 0.608908
O O4 0.755489 0.808140 0.146343
O O5 0.611906 0.646084 0.238376
O O6 0.750000 0.750000 0.000000
O O7 0.896090 0.935017 0.614218
O O8 0.526554 0.694826 0.080476
O O9 0.529103 0.812168 0.126200
O O10 0.500000 0.784570 0.000000
O O11 0.762243 0.773620 0.617754
O O12 0.210474 0.118006 0.524708
O O13 0.367610 0.084123 0.396623
O O14 0.288875 0.000000 0.408315
O O15 0.500000 0.086982 0.000000
O O16 0.918029 0.126119 0.411748
O O17 0.870755 0.000000 0.506550
O O18 0.656002 0.077399 0.930777
#
# Coordination Sequence:
#
# PCOD8094238 Si02
#       8
#     8   8   4   8   8   8   8   8
#     4  10  21  35  57  90 137 168 207 257 331 399
#     4  10  19  37  59  89 133 168 207 260 321 407
#     4  12  23  40  66  94 128 174 229 276 334 376
#     4  11  22  38  62  99 143 163 208 267 347 396
#     4  11  20  40  67  94 126 171 229 275 310 381
#     4  11  24  43  66  93 125 177 236 274 317 388
#     4  11  23  41  65 101 134 170 207 273 335 404
#     4  11  22  37  66  97 129 168 216 277 331 385
#
# _framework density 22.609254
#
# number of rings (size 3 to 8) (size 9 to 14) (size 15 to 20)
#    0.000    1.200    6.000    3.000    1.867    1.067 
#    0.000    0.000    0.000   12.000    0.000    0.000 
#    0.000    0.000    0.000    0.000    0.000    0.000 
#
# Total GULP energy -371892.841161 kJ/mol
# GULP energy per Si atom -12396.428039 kJ/mol
# Density = 2.255779 g / cm^3
# Si number density = 22.609254 Si / 1000 Ang^3
#
#
#
# Elastic Constant Matrix: (Units=GPa)
#
#
# Indices 1 2 3 4 5 6 
#
# 1 127.0258 30.9272 20.7691 0.0005 -5.0553 -0.0012
# 2 30.9272 119.1965 38.3604 -0.0006 3.7340 -0.0003
# 3 20.7691 38.3604 74.9461 0.0008 12.8400 -0.0007
# 4 0.0005 -0.0006 0.0008 20.0590 -0.0034 5.7037
# 5 -5.0553 3.7340 12.8400 -0.0034 31.9615 0.0031
# 6 -0.0012 -0.0003 -0.0007 5.7037 0.0031 5.0373
#
#
#
# Elastic Compliance Matrix: (Units=1/GPa)
#
#
# Indices 1 2 3 4 5 6 
#
# 1 0.008699 -0.001706 -0.001941 0.000000 0.002355 0.000000
# 2 -0.001706 0.010406 -0.004939 0.000001 0.000498 -0.000002
# 3 -0.001941 -0.004939 0.017572 -0.000005 -0.006789 0.000012
# 4 0.000000 0.000001 -0.000005 0.073525 0.000018 -0.083252
# 5 0.002355 0.000498 -0.006789 0.000018 0.034329 -0.000042
# 6 0.000000 -0.000002 0.000012 -0.083252 -0.000042 0.292782
#
#
# Mechanical properties :
#
#
# Convention : Reuss Voigt Hill
#
# Bulk Modulus (GPa) = 51.26872 55.69801 53.48336
# Shear Modulus (GPa) = 10.84629 26.81901 18.83265
#
# Velocity S-wave (km/s) = 2.19265 3.44786 2.88924
# Velocity P-wave (km/s) = 5.39773 6.36701 5.90230
#
# Compressibility (1/GPa) = 0.01950507
#
# Stress axis : x y z
#
# Youngs Moduli (GPa) = 114.95731 96.09819 56.90949
#
# Poissons Ratio (x) = 0.16397 0.11045
# Poissons Ratio (y) = 0.19614 0.28106
# Poissons Ratio (z) = 0.22311 0.47461
#
# Static dielectric constant tensor:
#      x y z
#    x 4.272920 -0.000010 0.067880 
#    y -0.000010 3.898190 0.000030 
#    z 0.067880 0.000030 4.459090 
# 
# 
# High freq. dielectric constant tensor:
#      x y z
#    x 1.910010 0.000000 -0.010970 
#    y 0.000000 1.872160 0.000000 
#    z -0.010970 0.000000 1.865250 
# 
# From -- ./inp_files/247421.got.cif
#   From: 2010.06.25/outbox.cif.g09.slc.cpg/sg12_124_cif.got.tgz:247421.got - 2010.06.28 00:19:55.
