data_PCOD8094101
_publ_section_title
;
Structure prediction by ZEFSAII (Michael W. Deem and Ramdas Pophale) SiO2 
 PCOD8094101
Probable space group: C 2/M
;
_chemical_formula_sum "Si O2"
_cell_formula_units_Z 40
_cell_length_a 13.781112
_cell_length_b 18.068914
_cell_length_c 11.028471
_cell_angle_alpha 90.000000
_cell_angle_beta 138.996015
_cell_angle_gamma 90.000000
_cell_volume 1801.811194
_symmetry_space_group_name_H-M "C 2/M"
_symmetry_group_IT_number 12
_symmetry_cell_setting 'monoclinic'
loop_
_space_group_symop_operation_xyz
x,y,z
-x,y,-z
-x,-y,-z
x,-y,z
1/2+x,1/2+y,z
1/2-x,1/2+y,-z
1/2-x,1/2-y,-z
1/2+x,1/2-y,z
loop_
_atom_site_type_symbol
_atom_site_label
_atom_site_fract_x
_atom_site_fract_y
_atom_site_fract_z
Si Si1 0.796254 0.760052 0.394051
Si Si2 0.214599 0.916655 0.968921
Si Si3 0.325779 0.418247 0.346933
Si Si4 0.499753 0.688785 0.856959
Si Si5 0.381164 0.214399 0.221481
O O1 0.777726 0.849988 0.388594
O O2 0.662501 0.717781 0.341195
O O3 0.778826 0.743644 0.234258
O O4 0.948570 0.724817 0.580958
O O5 0.239316 0.908067 0.848956
O O6 0.046815 0.892719 0.854479
O O7 0.234891 0.000000 0.031129
O O8 0.342166 0.870809 0.158602
O O9 0.500000 0.414431 0.500000
O O10 0.277852 0.500000 0.353059
O O11 0.632055 0.736836 0.916369
O O12 0.500000 0.696673 0.000000
#
# Coordination Sequence:
#
# PCOD8094101 Si02
#       5
#     8   8   8   8   8
#     4  11  21  39  64  92 123 163 211 256 299 365
#     4  11  23  41  62  90 128 164 205 257 308 368
#     4  10  19  36  63  92 123 157 198 259 316 358
#     4  12  22  36  64  93 121 161 209 258 301 371
#     4  11  22  41  61  91 124 164 212 247 308 367
#
# _framework density 22.199884999999998
#
# number of rings (size 3 to 8) (size 9 to 14) (size 15 to 20)
#    0.000    1.000    6.000    2.400    0.000    0.400 
#    0.000    4.000    0.000    3.600    0.000    0.000 
#    0.000    0.000    0.000    0.000    0.000    0.000 
#
# Total GULP energy -247822.283005 kJ/mol
# GULP energy per Si atom -12391.114150 kJ/mol
# Density = 2.214936 g / cm^3
# Si number density = 22.199885 Si / 1000 Ang^3
#
#
#
# Elastic Constant Matrix: (Units=GPa)
#
#
# Indices 1 2 3 4 5 6 
#
# 1 85.8658 46.2225 1.5732 0.0000 6.2026 0.0000
# 2 46.2225 209.3151 62.2331 0.0000 8.3665 0.0000
# 3 1.5732 62.2331 55.9352 0.0000 3.0216 0.0000
# 4 0.0000 0.0000 0.0000 27.8202 0.0000 -7.7919
# 5 6.2026 8.3665 3.0216 0.0000 26.7389 0.0000
# 6 0.0000 0.0000 0.0000 -7.7919 0.0000 29.8636
#
#
#
# Elastic Compliance Matrix: (Units=1/GPa)
#
#
# Indices 1 2 3 4 5 6 
#
# 1 0.014099 -0.004390 0.004618 0.000000 -0.002419 0.000000
# 2 -0.004390 0.008554 -0.009361 0.000000 -0.000600 0.000000
# 3 0.004618 -0.009361 0.028235 0.000000 -0.001333 0.000000
# 4 0.000000 0.000000 0.000000 0.038779 0.000000 0.010118
# 5 -0.002419 -0.000600 -0.001333 0.000000 0.038298 0.000000
# 6 0.000000 0.000000 0.000000 0.010118 0.000000 0.036126
#
#
# Mechanical properties :
#
#
# Convention : Reuss Voigt Hill
#
# Bulk Modulus (GPa) = 30.65337 63.46378 47.05857
# Shear Modulus (GPa) = 25.87559 32.95704 29.41631
#
# Velocity S-wave (km/s) = 3.41775 3.85718 3.64409
# Velocity P-wave (km/s) = 5.42334 6.96323 6.24096
#
# Compressibility (1/GPa) = 0.03262284
#
# Stress axis : x y z
#
# Youngs Moduli (GPa) = 70.92528 116.90109 35.41648
#
# Poissons Ratio (x) = 0.51319 -0.16357
# Poissons Ratio (y) = 0.31136 0.33155
# Poissons Ratio (z) = -0.32756 1.09437
#
# Static dielectric constant tensor:
#      x y z
#    x 4.491180 0.000000 -0.250510 
#    y 0.000000 4.207410 0.000000 
#    z -0.250510 0.000000 4.313510 
# 
# 
# High freq. dielectric constant tensor:
#      x y z
#    x 1.871790 0.000000 -0.014170 
#    y 0.000000 1.859280 0.000000 
#    z -0.014170 0.000000 1.899260 
# 
# From -- ./inp_files/145842.got.cif
#   From: 2010.06.25/outbox.cif.g09.slc.cpg/sg12_73_cif.got.tgz:145842.got - 2010.06.28 00:19:55.
