data_PCOD8094843
_publ_section_title
;
Structure prediction by ZEFSAII (Michael W. Deem and Ramdas Pophale) SiO2 
 PCOD8094843
Probable space group: C 2/M
;
_chemical_formula_sum "Si O2"
_cell_formula_units_Z 64
_cell_length_a 20.473109
_cell_length_b 8.587808
_cell_length_c 18.542561
_cell_angle_alpha 90.000000
_cell_angle_beta 96.676262
_cell_angle_gamma 90.000000
_cell_volume 3238.029620
_symmetry_space_group_name_H-M "C 2/M"
_symmetry_group_IT_number 12
_symmetry_cell_setting 'monoclinic'
loop_
_space_group_symop_operation_xyz
x,y,z
-x,y,-z
-x,-y,-z
x,-y,z
1/2+x,1/2+y,z
1/2-x,1/2+y,-z
1/2-x,1/2-y,-z
1/2+x,1/2-y,z
loop_
_atom_site_type_symbol
_atom_site_label
_atom_site_fract_x
_atom_site_fract_y
_atom_site_fract_z
Si Si1 0.129059 0.817206 0.937992
Si Si2 0.627615 0.817727 0.092989
Si Si3 0.232440 0.815604 0.833518
Si Si4 0.480212 0.180007 0.303587
Si Si5 0.339791 0.683917 0.314812
Si Si6 0.006394 0.819824 0.157691
Si Si7 0.686714 0.684131 0.530332
Si Si8 0.550632 0.317402 0.443909
O O1 0.185497 0.755628 0.891468
O O2 0.059116 0.777990 0.894104
O O3 0.135675 0.000000 0.956624
O O4 0.137462 0.716363 0.010447
O O5 0.692975 0.762489 0.143731
O O6 0.567562 0.717516 0.114631
O O7 0.614117 0.000000 0.102830
O O8 0.207171 0.746288 0.753854
O O9 0.226469 0.000000 0.830960
O O10 0.415096 0.279562 0.307714
O O11 0.511285 0.217297 0.230084
O O12 0.534430 0.222543 0.370004
O O13 0.462057 0.000000 0.306250
O O14 0.333245 0.500000 0.316391
O O15 0.318134 0.753852 0.389234
O O16 0.007156 0.000000 0.179849
O O17 0.691087 0.500000 0.534285
O O18 0.750000 0.750000 0.500000
O O19 0.622824 0.736105 0.477564
O O20 0.500000 0.271494 0.500000
O O21 0.546705 0.500000 0.426468
#
# Coordination Sequence:
#
# PCOD8094843 Si02
#       8
#     8   8   8   8   8   8   8   8
#     4  10  20  38  63  85 110 158 210 242 287 361
#     4  11  23  37  56  89 128 155 191 252 307 347
#     4   9  19  37  62  87 115 156 202 243 294 357
#     4  12  24  37  60  94 123 149 193 255 309 345
#     4  10  19  40  65  84 113 161 205 238 288 359
#     4  11  23  41  63  84 115 160 205 243 292 364
#     4  10  22  38  62  91 122 159 199 245 295 349
#     4  10  20  39  64  88 118 160 205 237 282 354
#
# _framework density 19.765107
#
# number of rings (size 3 to 8) (size 9 to 14) (size 15 to 20)
#    0.000    1.625    2.500    2.625    0.000    4.750 
#    0.000    3.125    0.000    0.000    0.000    0.000 
#    0.000    0.000    0.000    0.000    0.000    0.000 
#
# Total GULP energy -396933.824245 kJ/mol
# GULP energy per Si atom -12404.182008 kJ/mol
# Density = 1.972012 g / cm^3
# Si number density = 19.765107 Si / 1000 Ang^3
#
#
#
# Elastic Constant Matrix: (Units=GPa)
#
#
# Indices 1 2 3 4 5 6 
#
# 1 105.2885 18.8733 27.6132 0.0000 9.0418 0.0000
# 2 18.8733 23.7616 22.9295 0.0000 8.6818 0.0000
# 3 27.6132 22.9295 118.2057 0.0000 14.5883 0.0000
# 4 0.0000 0.0000 0.0000 25.9118 0.0000 -1.1505
# 5 9.0418 8.6818 14.5883 0.0000 32.5267 0.0000
# 6 0.0000 0.0000 0.0000 -1.1505 0.0000 26.7118
#
#
#
# Elastic Compliance Matrix: (Units=1/GPa)
#
#
# Indices 1 2 3 4 5 6 
#
# 1 0.011199 -0.007657 -0.001057 0.000000 -0.000595 0.000000
# 2 -0.007657 0.060183 -0.008644 0.000000 -0.010058 0.000000
# 3 -0.001057 -0.008644 0.010652 0.000000 -0.002176 0.000000
# 4 0.000000 0.000000 0.000000 0.038666 0.000000 0.001665
# 5 -0.000595 -0.010058 -0.002176 0.000000 0.034570 0.000000
# 6 0.000000 0.000000 0.000000 0.001665 0.000000 0.037508
#
#
# Mechanical properties :
#
#
# Convention : Reuss Voigt Hill
#
# Bulk Modulus (GPa) = 21.13422 42.89863 32.01642
# Shear Modulus (GPa) = 20.55341 28.88602 24.71971
#
# Velocity S-wave (km/s) = 3.22822 3.82706 3.54032
# Velocity P-wave (km/s) = 4.96096 6.42494 5.73982
#
# Compressibility (1/GPa) = 0.04731663
#
# Stress axis : x y z
#
# Youngs Moduli (GPa) = 89.29628 16.61595 93.87722
#
# Poissons Ratio (x) = 0.12723 0.09925
# Poissons Ratio (y) = 0.68376 0.81150
# Poissons Ratio (z) = 0.09441 0.14363
#
# Static dielectric constant tensor:
#      x y z
#    x 3.587460 0.000000 0.254290 
#    y 0.000000 3.310340 0.000000 
#    z 0.254290 0.000000 3.931760 
# 
# 
# High freq. dielectric constant tensor:
#      x y z
#    x 1.775950 0.000000 0.005070 
#    y 0.000000 1.749190 0.000000 
#    z 0.005070 0.000000 1.786450 
# 
# From -- ./inp_files/281329.got.cif
#   From: 2010.06.25/outbox.cif.g09.slc.cpg/sg12_141_cif.got.tgz:281329.got - 2010.06.28 00:19:55.
