data_PCOD8094293
_publ_section_title
;
Structure prediction by ZEFSAII (Michael W. Deem and Ramdas Pophale) SiO2 
 PCOD8094293
Probable space group: C 2/M
;
_chemical_formula_sum "Si O2"
_cell_formula_units_Z 56
_cell_length_a 8.336246
_cell_length_b 28.881038
_cell_length_c 16.184932
_cell_angle_alpha 90.000000
_cell_angle_beta 42.013422
_cell_angle_gamma 90.000000
_cell_volume 2608.062880
_symmetry_space_group_name_H-M "C 2/M"
_symmetry_group_IT_number 12
_symmetry_cell_setting 'monoclinic'
loop_
_space_group_symop_operation_xyz
x,y,z
-x,y,-z
-x,-y,-z
x,-y,z
1/2+x,1/2+y,z
1/2-x,1/2+y,-z
1/2-x,1/2-y,-z
1/2+x,1/2-y,z
loop_
_atom_site_type_symbol
_atom_site_label
_atom_site_fract_x
_atom_site_fract_y
_atom_site_fract_z
Si Si1 0.845978 0.312045 0.414020
Si Si2 0.145918 0.673157 0.866326
Si Si3 0.058369 0.411884 0.300303
Si Si4 0.877144 0.228969 0.653295
Si Si5 0.244925 0.880844 0.938233
Si Si6 0.566011 0.411116 0.176872
Si Si7 0.775908 0.500000 0.363849
Si Si8 0.198913 0.500000 0.847312
O O1 0.821502 0.283442 0.338241
O O2 0.597979 0.307055 0.557904
O O3 0.909291 0.365400 0.376741
O O4 0.053569 0.283151 0.382507
O O5 0.271959 0.718801 0.783721
O O6 0.346561 0.634921 0.810190
O O7 0.955428 0.655413 0.871879
O O8 0.000000 0.690371 0.000000
O O9 0.168994 0.414623 0.166594
O O10 0.278053 0.413175 0.281176
O O11 0.886337 0.455855 0.369794
O O12 0.196608 0.912171 0.037502
O O13 0.000000 0.855643 0.000000
O O14 0.644325 0.454568 0.200428
O O15 0.500000 0.500000 0.500000
O O16 0.845236 0.500000 0.237423
O O17 0.000000 0.500000 0.000000
#
# Coordination Sequence:
#
# PCOD8094293 Si02
#       8
#     8   8   8   8   8   8   4   4
#     4  10  23  40  68  90 127 165 221 271 314 379
#     4  10  19  37  60  90 129 166 206 261 328 391
#     4  11  22  42  64  95 133 177 213 271 330 392
#     4  10  22  41  63  93 122 163 222 263 319 382
#     4   9  18  35  62  95 129 170 220 267 317 383
#     4  10  22  36  63  95 129 168 219 272 326 382
#     4  12  29  44  67  98 138 176 225 267 344 407
#     4  12  23  42  69  94 126 174 230 277 327 393
#
# _framework density 21.471875000000001
#
# number of rings (size 3 to 8) (size 9 to 14) (size 15 to 20)
#    0.000    1.714    1.429    3.429    4.000    0.000 
#    0.000    8.571    0.000    0.000    0.000    0.000 
#    0.000    0.000    0.000    0.000    0.000    0.000 
#
# Total GULP energy -346869.104216 kJ/mol
# GULP energy per Si atom -12388.182293 kJ/mol
# Density = 2.142300 g / cm^3
# Si number density = 21.471875 Si / 1000 Ang^3
#
#
#
# Elastic Constant Matrix: (Units=GPa)
#
#
# Indices 1 2 3 4 5 6 
#
# 1 97.8020 32.6572 33.8624 0.0000 -14.6853 0.0000
# 2 32.6572 113.4337 37.2625 0.0000 -7.2105 0.0000
# 3 33.8624 37.2625 84.5656 0.0000 -5.6531 0.0000
# 4 0.0000 0.0000 0.0000 34.8446 0.0000 -3.4429
# 5 -14.6853 -7.2105 -5.6531 0.0000 30.9913 0.0000
# 6 0.0000 0.0000 0.0000 -3.4429 0.0000 18.6010
#
#
#
# Elastic Compliance Matrix: (Units=1/GPa)
#
#
# Indices 1 2 3 4 5 6 
#
# 1 0.013054 -0.002145 -0.003950 0.000000 0.004966 0.000000
# 2 -0.002145 0.010738 -0.003820 0.000000 0.000785 0.000000
# 3 -0.003950 -0.003820 0.015090 0.000000 -0.000008 0.000000
# 4 0.000000 0.000000 0.000000 0.029233 0.000000 0.005411
# 5 0.004966 0.000785 -0.000008 0.000000 0.034802 0.000000
# 6 0.000000 0.000000 0.000000 0.005411 0.000000 0.054762
#
#
# Mechanical properties :
#
#
# Convention : Reuss Voigt Hill
#
# Bulk Modulus (GPa) = 52.48959 55.92950 54.20954
# Shear Modulus (GPa) = 27.19453 29.68865 28.44159
#
# Velocity S-wave (km/s) = 3.56268 3.72247 3.64345
# Velocity P-wave (km/s) = 6.43602 6.67683 6.55753
#
# Compressibility (1/GPa) = 0.01905140
#
# Stress axis : x y z
#
# Youngs Moduli (GPa) = 76.60265 93.12653 66.27057
#
# Poissons Ratio (x) = 0.19976 0.26178
# Poissons Ratio (y) = 0.16431 0.25316
# Poissons Ratio (z) = 0.30259 0.35576
#
# Static dielectric constant tensor:
#      x y z
#    x 4.407870 0.000000 0.024360 
#    y 0.000000 3.561500 0.000000 
#    z 0.024360 0.000000 3.926560 
# 
# 
# High freq. dielectric constant tensor:
#      x y z
#    x 1.856600 0.000000 -0.004110 
#    y 0.000000 1.821170 0.000000 
#    z -0.004110 0.000000 1.841470 
# 
# From -- ./inp_files/260139.got.cif
#   From: 2010.06.25/outbox.cif.g09.slc.cpg/sg12_131_cif.got.tgz:260139.got - 2010.06.28 00:19:55.
