data_PCOD8094592
_publ_section_title
;
Structure prediction by ZEFSAII (Michael W. Deem and Ramdas Pophale) SiO2 
 PCOD8094592
Probable space group: C 2/M
;
_chemical_formula_sum "Si O2"
_cell_formula_units_Z 40
_cell_length_a 14.231047
_cell_length_b 14.493671
_cell_length_c 25.392607
_cell_angle_alpha 90.000000
_cell_angle_beta 158.661287
_cell_angle_gamma 90.000000
_cell_volume 1905.818419
_symmetry_space_group_name_H-M "C 2/M"
_symmetry_group_IT_number 12
_symmetry_cell_setting 'monoclinic'
loop_
_space_group_symop_operation_xyz
x,y,z
-x,y,-z
-x,-y,-z
x,-y,z
1/2+x,1/2+y,z
1/2-x,1/2+y,-z
1/2-x,1/2-y,-z
1/2+x,1/2-y,z
loop_
_atom_site_type_symbol
_atom_site_label
_atom_site_fract_x
_atom_site_fract_y
_atom_site_fract_z
Si Si1 0.389301 0.258356 0.651127
Si Si2 0.233924 0.898729 0.883960
Si Si3 0.860986 0.149233 0.054224
Si Si4 0.148253 0.751285 0.675927
Si Si5 0.956810 0.394525 0.767484
O O1 0.492422 0.332234 0.746957
O O2 0.540069 0.278917 0.676258
O O3 0.437664 0.156318 0.700846
O O4 0.085853 0.276391 0.484768
O O5 0.249270 0.910069 0.954853
O O6 0.191709 0.000000 0.836595
O O7 0.500000 0.855564 0.000000
O O8 0.171274 0.161236 0.220010
O O9 0.750000 0.250000 0.000000
O O10 0.754929 0.104378 0.944466
O O11 0.287424 0.840183 0.722799
O O12 0.859170 0.500000 0.709675
#
# Coordination Sequence:
#
# PCOD8094592 Si02
#       5
#     8   8   8   8   8
#     4  11  23  40  65  94 129 167 210 265 329 374
#     4  11  22  37  63  93 120 161 215 263 314 383
#     4  10  19  38  61  87 125 163 203 257 316 375
#     4  10  23  41  63  90 131 171 207 261 322 384
#     4  11  23  41  69  97 126 170 220 265 317 385
#
# _framework density 20.988358999999999
#
# number of rings (size 3 to 8) (size 9 to 14) (size 15 to 20)
#    0.000    1.400    4.000    3.600    0.000    4.000 
#    0.000    9.000    0.000    0.000    0.000    0.000 
#    0.000    0.000    0.000    0.000    0.000    0.000 
#
# Total GULP energy -247879.912413 kJ/mol
# GULP energy per Si atom -12393.995621 kJ/mol
# Density = 2.094059 g / cm^3
# Si number density = 20.988359 Si / 1000 Ang^3
#
#
#
# Elastic Constant Matrix: (Units=GPa)
#
#
# Indices 1 2 3 4 5 6 
#
# 1 62.9580 21.7889 27.4282 -0.0078 -7.4371 0.0058
# 2 21.7889 105.9834 41.6168 0.0538 4.8930 -0.0128
# 3 27.4282 41.6168 157.6575 0.0389 -5.2917 0.0194
# 4 -0.0078 0.0538 0.0389 12.2375 -0.0164 5.3334
# 5 -7.4371 4.8930 -5.2917 -0.0164 28.1491 0.0059
# 6 0.0058 -0.0128 0.0194 5.3334 0.0059 16.2111
#
#
#
# Elastic Compliance Matrix: (Units=1/GPa)
#
#
# Indices 1 2 3 4 5 6 
#
# 1 0.018543 -0.003173 -0.002219 0.000050 0.005034 -0.000025
# 2 -0.003173 0.011229 -0.002522 -0.000063 -0.003264 0.000035
# 3 -0.002219 -0.002522 0.007437 -0.000009 0.001250 -0.000008
# 4 0.000050 -0.000063 -0.000009 0.095395 0.000085 -0.031385
# 5 0.005034 -0.003264 0.001250 0.000085 0.037657 -0.000048
# 6 -0.000025 0.000035 -0.000008 -0.031385 -0.000048 0.072012
#
#
# Mechanical properties :
#
#
# Convention : Reuss Voigt Hill
#
# Bulk Modulus (GPa) = 46.77222 56.47405 51.62313
# Shear Modulus (GPa) = 18.85171 27.03720 22.94445
#
# Velocity S-wave (km/s) = 3.00025 3.59304 3.30994
# Velocity P-wave (km/s) = 5.85962 6.64673 6.26555
#
# Compressibility (1/GPa) = 0.02138021
#
# Stress axis : x y z
#
# Youngs Moduli (GPa) = 53.92771 89.05764 134.47082
#
# Poissons Ratio (x) = 0.28259 0.29846
# Poissons Ratio (y) = 0.17112 0.33907
# Poissons Ratio (z) = 0.11969 0.22456
#
# Static dielectric constant tensor:
#      x y z
#    x 5.220970 -0.000460 0.725600 
#    y -0.000460 3.430330 -0.000400 
#    z 0.725600 -0.000400 5.051440 
# 
# 
# High freq. dielectric constant tensor:
#      x y z
#    x 1.820060 0.000000 -0.011990 
#    y 0.000000 1.798770 0.000000 
#    z -0.011990 0.000000 1.832740 
# 
# From -- ./inp_files/155760.got.cif
#   From: 2010.06.25/outbox.cif.g09.slc.cpg/sg12_78_cif.got.tgz:155760.got - 2010.06.28 00:19:55.
