data_PCOD8094746
_publ_section_title
;
Structure prediction by ZEFSAII (Michael W. Deem and Ramdas Pophale) SiO2 
 PCOD8094746
Probable space group: C 2/M
;
_chemical_formula_sum "Si O2"
_cell_formula_units_Z 56
_cell_length_a 27.121534
_cell_length_b 18.816065
_cell_length_c 18.232719
_cell_angle_alpha 90.000000
_cell_angle_beta 17.213697
_cell_angle_gamma 90.000000
_cell_volume 2753.549522
_symmetry_space_group_name_H-M "C 2/M"
_symmetry_group_IT_number 12
_symmetry_cell_setting 'monoclinic'
loop_
_space_group_symop_operation_xyz
x,y,z
-x,y,-z
-x,-y,-z
x,-y,z
1/2+x,1/2+y,z
1/2-x,1/2+y,-z
1/2-x,1/2-y,-z
1/2+x,1/2-y,z
loop_
_atom_site_type_symbol
_atom_site_label
_atom_site_fract_x
_atom_site_fract_y
_atom_site_fract_z
Si Si1 0.819463 0.351185 0.919366
Si Si2 0.150295 0.580453 0.481624
Si Si3 0.672279 0.244460 0.228743
Si Si4 0.022745 0.080081 0.267175
Si Si5 0.273925 0.669276 0.438453
Si Si6 0.141403 0.867576 0.946895
Si Si7 0.330393 0.915676 0.278566
O O1 0.880740 0.307186 0.762328
O O2 0.953415 0.412713 0.743855
O O3 0.804752 0.302581 0.012747
O O4 0.632194 0.378766 0.170993
O O5 0.180269 0.500000 0.470215
O O6 0.200907 0.645846 0.463164
O O7 0.253805 0.586670 0.259551
O O8 0.500000 0.280080 0.500000
O O9 0.758621 0.202880 0.172512
O O10 0.105950 0.084604 0.068689
O O11 0.832820 0.110408 0.535261
O O12 0.017597 0.000000 0.301105
O O13 0.250000 0.750000 0.500000
O O14 0.469214 0.655145 0.154690
O O15 0.176162 0.618077 0.632370
O O16 0.327430 0.000000 0.291903
O O17 0.500000 0.888949 0.000000
#
# Coordination Sequence:
#
# PCOD8094746 Si02
#       7
#     8   8   8   8   8   8   8
#     4  10  21  36  58  91 121 160 201 245 302 364
#     4  12  24  39  62  91 128 163 198 254 316 372
#     4  10  19  39  61  84 121 159 201 250 301 358
#     4   9  18  35  59  85 116 151 197 248 294 357
#     4  11  24  41  58  88 123 159 202 251 303 369
#     4  10  21  38  60  89 117 155 201 247 308 367
#     4   9  19  39  64  85 111 156 207 250 297 354
#
# _framework density 20.337387
#
# number of rings (size 3 to 8) (size 9 to 14) (size 15 to 20)
#    0.000    1.857    1.429    2.571    0.000    4.571 
#    5.143    2.143    0.000    0.857    0.000    0.000 
#    0.000    0.000    0.000    0.000    0.000    0.000 
#
# Total GULP energy -347106.963173 kJ/mol
# GULP energy per Si atom -12396.677256 kJ/mol
# Density = 2.029110 g / cm^3
# Si number density = 20.337387 Si / 1000 Ang^3
#
#
#
# Elastic Constant Matrix: (Units=GPa)
#
#
# Indices 1 2 3 4 5 6 
#
# 1 74.0762 29.7683 41.7121 0.0085 -5.8422 -0.0006
# 2 29.7683 76.4616 32.4137 0.0426 -1.8253 -0.0073
# 3 41.7121 32.4137 140.8202 0.0389 -10.4166 -0.0087
# 4 0.0085 0.0426 0.0389 18.1923 -0.0071 1.1370
# 5 -5.8422 -1.8253 -10.4166 -0.0071 21.8356 0.0035
# 6 -0.0006 -0.0073 -0.0087 1.1370 0.0035 32.6840
#
#
#
# Elastic Compliance Matrix: (Units=1/GPa)
#
#
# Indices 1 2 3 4 5 6 
#
# 1 0.018044 -0.005295 -0.003941 0.000014 0.002505 -0.000003
# 2 -0.005295 0.016049 -0.002209 -0.000031 -0.001129 0.000004
# 3 -0.003941 -0.002209 0.009003 -0.000011 0.003056 0.000002
# 4 0.000014 -0.000031 -0.000011 0.055088 0.000014 -0.001916
# 5 0.002505 -0.001129 0.003056 0.000014 0.047830 -0.000005
# 6 -0.000003 0.000004 0.000002 -0.001916 -0.000005 0.030663
#
#
# Mechanical properties :
#
#
# Convention : Reuss Voigt Hill
#
# Bulk Modulus (GPa) = 49.48778 55.46068 52.47423
# Shear Modulus (GPa) = 24.23620 27.03998 25.63809
#
# Velocity S-wave (km/s) = 3.45586 3.65028 3.55440
# Velocity P-wave (km/s) = 6.34903 6.71533 6.53474
#
# Compressibility (1/GPa) = 0.02020701
#
# Stress axis : x y z
#
# Youngs Moduli (GPa) = 55.42050 62.30753 111.07219
#
# Poissons Ratio (x) = 0.32989 0.43771
# Poissons Ratio (y) = 0.29343 0.24541
# Poissons Ratio (z) = 0.21840 0.13766
#
# Static dielectric constant tensor:
#      x y z
#    x 3.531080 0.000000 -0.131340 
#    y 0.000000 3.524110 0.000040 
#    z -0.131340 0.000040 3.816580 
# 
# 
# High freq. dielectric constant tensor:
#      x y z
#    x 1.783180 0.000000 -0.009530 
#    y 0.000000 1.783270 0.000000 
#    z -0.009530 0.000000 1.807130 
# 
# From -- ./inp_files/293856.got.cif
#   From: 2010.06.25/outbox.cif.g09.slc.cpg/sg12_147_cif.got.tgz:293856.got - 2010.06.28 00:19:55.
