data_PCOD8094208
_publ_section_title
;
Structure prediction by ZEFSAII (Michael W. Deem and Ramdas Pophale) SiO2 
 PCOD8094208
Probable space group: C 2/M
;
_chemical_formula_sum "Si O2"
_cell_formula_units_Z 56
_cell_length_a 9.781815
_cell_length_b 18.217519
_cell_length_c 31.110275
_cell_angle_alpha 90.000000
_cell_angle_beta 148.135232
_cell_angle_gamma 90.000000
_cell_volume 2926.695280
_symmetry_space_group_name_H-M "C 2/M"
_symmetry_group_IT_number 12
_symmetry_cell_setting 'monoclinic'
loop_
_space_group_symop_operation_xyz
x,y,z
-x,y,-z
-x,-y,-z
x,-y,z
1/2+x,1/2+y,z
1/2-x,1/2+y,-z
1/2-x,1/2-y,-z
1/2+x,1/2-y,z
loop_
_atom_site_type_symbol
_atom_site_label
_atom_site_fract_x
_atom_site_fract_y
_atom_site_fract_z
Si Si1 0.086000 0.813781 0.400957
Si Si2 0.428371 0.584928 0.731405
Si Si3 0.053724 0.788589 0.916861
Si Si4 0.810587 0.633026 0.761948
Si Si5 0.555581 0.176791 0.582736
Si Si6 0.391223 0.416678 0.925016
Si Si7 0.940312 0.217509 0.177474
O O1 0.253476 0.793817 0.403425
O O2 0.275283 0.845292 0.488680
O O3 0.871501 0.876013 0.329659
O O4 0.955239 0.740121 0.384268
O O5 0.420899 0.500000 0.744319
O O6 0.675577 0.599815 0.767655
O O7 0.168619 0.603878 0.635440
O O8 0.448307 0.639054 0.777718
O O9 0.033756 0.872799 0.925822
O O10 0.169893 0.790380 0.900130
O O11 0.777699 0.746983 0.847920
O O12 0.250000 0.750000 0.000000
O O13 0.834936 0.721670 0.768405
O O14 0.085126 0.592981 0.835556
O O15 0.472619 0.500000 0.941004
O O16 0.500000 0.387640 0.000000
#
# Coordination Sequence:
#
# PCOD8094208 Si02
#       7
#     8   8   8   8   8   8   8
#     4   9  17  31  57  83 114 144 201 236 284 334
#     4  11  22  36  57  88 125 153 186 243 305 343
#     4  11  22  39  60  85 111 146 196 246 283 346
#     4  10  19  37  58  84 113 155 196 240 283 352
#     4   9  18  33  53  87 113 152 186 242 283 346
#     4  10  22  38  57  81 115 153 190 239 299 350
#     4  11  21  36  60  85 113 148 199 232 287 351
#
# _framework density 19.134208999999998
#
# number of rings (size 3 to 8) (size 9 to 14) (size 15 to 20)
#    0.000    1.857    2.857    2.571    0.000    0.571 
#    0.000    6.429    0.000    1.714    0.000    8.000 
#    0.000    0.000    0.000    0.000    0.000    0.000 
#
# Total GULP energy -346939.619108 kJ/mol
# GULP energy per Si atom -12390.700682 kJ/mol
# Density = 1.909066 g / cm^3
# Si number density = 19.134209 Si / 1000 Ang^3
#
#
#
# Elastic Constant Matrix: (Units=GPa)
#
#
# Indices 1 2 3 4 5 6 
#
# 1 52.3061 22.9097 20.5604 -0.0015 -10.2761 -0.0005
# 2 22.9097 111.1103 24.8252 -0.0002 -7.2588 -0.0002
# 3 20.5604 24.8252 93.8097 -0.0021 -4.7097 -0.0005
# 4 -0.0015 -0.0002 -0.0021 27.0922 -0.0013 -2.9420
# 5 -10.2761 -7.2588 -4.7097 -0.0013 31.0066 -0.0007
# 6 -0.0005 -0.0002 -0.0005 -2.9420 -0.0007 20.4505
#
#
#
# Elastic Compliance Matrix: (Units=1/GPa)
#
#
# Indices 1 2 3 4 5 6 
#
# 1 0.023447 -0.003553 -0.003880 0.000001 0.006350 0.000001
# 2 -0.003553 0.010213 -0.001877 0.000000 0.000928 0.000000
# 3 -0.003880 -0.001877 0.012012 0.000001 0.000099 0.000000
# 4 0.000001 0.000000 0.000001 0.037497 0.000002 0.005394
# 5 0.006350 0.000928 0.000099 0.000002 0.034588 0.000002
# 6 0.000001 0.000000 0.000000 0.005394 0.000002 0.049675
#
#
# Mechanical properties :
#
#
# Convention : Reuss Voigt Hill
#
# Bulk Modulus (GPa) = 36.96652 43.75741 40.36196
# Shear Modulus (GPa) = 25.63208 28.30526 26.96867
#
# Velocity S-wave (km/s) = 3.66402 3.85034 3.75833
# Velocity P-wave (km/s) = 6.10423 6.53339 6.32245
#
# Compressibility (1/GPa) = 0.02705151
#
# Stress axis : x y z
#
# Youngs Moduli (GPa) = 42.64961 97.91731 83.24978
#
# Poissons Ratio (x) = 0.34788 0.32300
# Poissons Ratio (y) = 0.15152 0.15629
# Poissons Ratio (z) = 0.16548 0.18383
#
# Static dielectric constant tensor:
#      x y z
#    x 3.538740 0.000010 0.030180 
#    y 0.000010 3.272850 0.000000 
#    z 0.030180 0.000000 3.886920 
# 
# 
# High freq. dielectric constant tensor:
#      x y z
#    x 1.729060 0.000000 -0.000080 
#    y 0.000000 1.716840 0.000000 
#    z -0.000080 0.000000 1.767560 
# 
# From -- ./inp_files/356728.got.cif
#   From: 2010.06.25/outbox.cif.g09.slc.cpg/sg12_179_cif.got.tgz:356728.got - 2010.06.28 00:19:55.
