data_PCOD8094329
_publ_section_title
;
Structure prediction by ZEFSAII (Michael W. Deem and Ramdas Pophale) SiO2 
 PCOD8094329
Probable space group: C 2/M
;
_chemical_formula_sum "Si O2"
_cell_formula_units_Z 48
_cell_length_a 31.726556
_cell_length_b 7.823589
_cell_length_c 9.573005
_cell_angle_alpha 90.000000
_cell_angle_beta 85.953022
_cell_angle_gamma 90.000000
_cell_volume 2370.243625
_symmetry_space_group_name_H-M "C 2/M"
_symmetry_group_IT_number 12
_symmetry_cell_setting 'monoclinic'
loop_
_space_group_symop_operation_xyz
x,y,z
-x,y,-z
-x,-y,-z
x,-y,z
1/2+x,1/2+y,z
1/2-x,1/2+y,-z
1/2-x,1/2-y,-z
1/2+x,1/2-y,z
loop_
_atom_site_type_symbol
_atom_site_label
_atom_site_fract_x
_atom_site_fract_y
_atom_site_fract_z
Si Si1 0.653450 0.192445 0.288757
Si Si2 0.626719 0.296431 0.871379
Si Si3 0.489140 0.500000 0.843378
Si Si4 0.956848 0.000000 0.422321
Si Si5 0.202942 0.809569 0.033606
Si Si6 0.607548 0.197747 0.567506
Si Si7 0.429106 0.806261 0.872367
O O1 0.689646 0.299492 0.200471
O O2 0.646255 0.243460 0.452348
O O3 0.608993 0.220918 0.224327
O O4 0.669443 0.000000 0.271635
O O5 0.627005 0.500000 0.861842
O O6 0.625585 0.217054 0.718226
O O7 0.668060 0.217984 0.942020
O O8 0.585391 0.236509 0.966301
O O9 0.532049 0.500000 0.744338
O O10 0.464197 0.673360 0.812396
O O11 0.500000 0.500000 0.000000
O O12 0.930592 0.827349 0.457974
O O13 0.000000 0.000000 0.500000
O O14 0.201725 0.000000 0.981828
O O15 0.250000 0.750000 0.000000
O O16 0.592969 0.000000 0.545361
O O17 0.446999 0.000000 0.862346
#
# Coordination Sequence:
#
# PCOD8094329 Si02
#       7
#     8   8   4   4   8   8   8
#     4   9  20  37  60  85 110 147 198 240 278 356
#     4  10  19  37  61  86 116 156 201 246 288 357
#     4  12  24  36  54  82 116 146 196 252 296 352
#     4  12  26  40  60  86 124 158 196 262 306 348
#     4  10  21  35  60  91 123 154 189 240 297 349
#     4  11  23  40  62  87 116 158 206 242 296 360
#     4  10  20  37  59  80 109 151 196 241 297 350
#
# _framework density 20.251080999999999
#
# number of rings (size 3 to 8) (size 9 to 14) (size 15 to 20)
#    0.000    1.667    1.667    3.000    2.333    3.333 
#    0.000    0.833    0.000    0.000    0.000    0.000 
#    0.000    0.000    0.000    0.000    0.000    0.000 
#
# Total GULP energy -297492.152307 kJ/mol
# GULP energy per Si atom -12395.506346 kJ/mol
# Density = 2.020499 g / cm^3
# Si number density = 20.251081 Si / 1000 Ang^3
#
#
#
# Elastic Constant Matrix: (Units=GPa)
#
#
# Indices 1 2 3 4 5 6 
#
# 1 79.8302 42.2198 21.7877 0.0000 -18.1069 0.0000
# 2 42.2198 116.2613 20.6263 0.0000 -13.9467 0.0000
# 3 21.7877 20.6263 111.8857 0.0000 -14.6778 0.0000
# 4 0.0000 0.0000 0.0000 27.0502 0.0000 -2.2337
# 5 -18.1069 -13.9467 -14.6778 0.0000 27.4588 0.0000
# 6 0.0000 0.0000 0.0000 -2.2337 0.0000 28.6979
#
#
#
# Elastic Compliance Matrix: (Units=1/GPa)
#
#
# Indices 1 2 3 4 5 6 
#
# 1 0.017465 -0.005116 -0.001385 0.000000 0.008178 0.000000
# 2 -0.005116 0.010800 -0.000772 0.000000 0.001699 0.000000
# 3 -0.001385 -0.000772 0.009871 0.000000 0.003971 0.000000
# 4 0.000000 0.000000 0.000000 0.037207 0.000000 0.002896
# 5 0.008178 0.001699 0.003971 0.000000 0.044797 0.000000
# 6 0.000000 0.000000 0.000000 0.002896 0.000000 0.035071
#
#
# Mechanical properties :
#
#
# Convention : Reuss Voigt Hill
#
# Bulk Modulus (GPa) = 42.39003 53.02721 47.70862
# Shear Modulus (GPa) = 28.15010 31.53096 29.84053
#
# Velocity S-wave (km/s) = 3.73239 3.95017 3.84282
# Velocity P-wave (km/s) = 6.28904 6.85907 6.58023
#
# Compressibility (1/GPa) = 0.02359045
#
# Stress axis : x y z
#
# Youngs Moduli (GPa) = 57.25722 92.59414 101.31080
#
# Poissons Ratio (x) = 0.47367 0.14032
# Poissons Ratio (y) = 0.29290 0.07820
# Poissons Ratio (z) = 0.07931 0.07147
#
# Static dielectric constant tensor:
#      x y z
#    x 3.440440 0.000000 -0.279820 
#    y 0.000000 3.941910 0.000000 
#    z -0.279820 0.000000 3.867150 
# 
# 
# High freq. dielectric constant tensor:
#      x y z
#    x 1.763010 0.000000 -0.011720 
#    y 0.000000 1.800660 0.000000 
#    z -0.011720 0.000000 1.801400 
# 
# From -- ./inp_files/108830.got.cif
#   From: 2010.06.25/outbox.cif.g09.slc.cpg/sg12_55_cif.got.tgz:108830.got - 2010.06.28 00:19:55.
