data_PCOD8094128
_publ_section_title
;
Structure prediction by ZEFSAII (Michael W. Deem and Ramdas Pophale) SiO2 
 PCOD8094128
Probable space group: C 2/M
;
_chemical_formula_sum "Si O2"
_cell_formula_units_Z 64
_cell_length_a 11.110187
_cell_length_b 14.307162
_cell_length_c 28.239603
_cell_angle_alpha 90.000000
_cell_angle_beta 134.246482
_cell_angle_gamma 90.000000
_cell_volume 3215.552134
_symmetry_space_group_name_H-M "C 2/M"
_symmetry_group_IT_number 12
_symmetry_cell_setting 'monoclinic'
loop_
_space_group_symop_operation_xyz
x,y,z
-x,y,-z
-x,-y,-z
x,-y,z
1/2+x,1/2+y,z
1/2-x,1/2+y,-z
1/2-x,1/2-y,-z
1/2+x,1/2-y,z
loop_
_atom_site_type_symbol
_atom_site_label
_atom_site_fract_x
_atom_site_fract_y
_atom_site_fract_z
Si Si1 0.002475 0.799545 0.354392
Si Si2 0.849336 0.244579 0.768207
Si Si3 0.056884 0.397002 0.396163
Si Si4 0.683982 0.394046 0.322732
Si Si5 0.388902 0.100450 0.135394
Si Si6 0.370562 0.317494 0.004052
Si Si7 0.135508 0.101131 0.146874
Si Si8 0.922405 0.105894 0.528967
O O1 0.809999 0.810241 0.285589
O O2 0.058996 0.691068 0.360818
O O3 0.119183 0.869621 0.357237
O O4 0.012017 0.825159 0.412452
O O5 0.898310 0.181988 0.735729
O O6 0.810106 0.171369 0.797914
O O7 0.990634 0.311169 0.828308
O O8 0.058877 0.500000 0.370991
O O9 0.220026 0.389322 0.474022
O O10 0.886270 0.387052 0.379763
O O11 0.628057 0.500000 0.294375
O O12 0.300253 0.093992 0.161011
O O13 0.480854 0.000000 0.151185
O O14 0.251068 0.111573 0.056469
O O15 0.474608 0.370748 0.072274
O O16 0.500000 0.271629 0.000000
O O17 0.250000 0.250000 0.000000
O O18 0.095774 0.000000 0.158846
O O19 0.000000 0.139344 0.500000
O O20 0.983745 0.000000 0.556060
#
# Coordination Sequence:
#
# PCOD8094128 Si02
#       8
#     8   8   8   8   8   8   8   8
#     4  11  23  38  63  86 120 155 197 241 305 356
#     4  11  22  38  58  85 122 162 196 243 302 356
#     4   9  21  40  61  86 113 147 189 241 295 352
#     4  10  22  40  60  86 118 154 200 245 293 357
#     4  10  21  37  59  90 122 159 208 252 294 358
#     4  10  19  36  64  92 124 160 205 260 309 357
#     4  10  20  37  62  88 117 161 208 248 296 350
#     4  10  22  40  62  89 118 148 193 249 306 360
#
# _framework density 19.903269999999999
#
# number of rings (size 3 to 8) (size 9 to 14) (size 15 to 20)
#    0.000    1.875    1.250    2.250    3.500    3.500 
#    0.000    2.500    0.000    3.000    0.000    0.000 
#    0.000    0.000    0.000    0.000    0.000    0.000 
#
# Total GULP energy -396536.002087 kJ/mol
# GULP energy per Si atom -12391.750065 kJ/mol
# Density = 1.985797 g / cm^3
# Si number density = 19.903270 Si / 1000 Ang^3
#
#
#
# Elastic Constant Matrix: (Units=GPa)
#
#
# Indices 1 2 3 4 5 6 
#
# 1 68.4640 25.9183 7.5742 0.0000 -9.9536 0.0000
# 2 25.9183 84.8364 0.3850 0.0000 -6.0668 0.0000
# 3 7.5742 0.3850 59.1512 0.0000 -7.5428 0.0000
# 4 0.0000 0.0000 0.0000 17.7497 0.0000 0.5864
# 5 -9.9536 -6.0668 -7.5428 0.0000 28.4744 0.0000
# 6 0.0000 0.0000 0.0000 0.5864 0.0000 25.7625
#
#
#
# Elastic Compliance Matrix: (Units=1/GPa)
#
#
# Indices 1 2 3 4 5 6 
#
# 1 0.017326 -0.004959 -0.001603 0.000000 0.004575 0.000000
# 2 -0.004959 0.013393 0.000715 0.000000 0.001309 0.000000
# 3 -0.001603 0.000715 0.017651 0.000000 0.004268 0.000000
# 4 0.000000 0.000000 0.000000 0.056381 0.000000 -0.001283
# 5 0.004575 0.001309 0.004268 0.000000 0.038128 0.000000
# 6 0.000000 0.000000 0.000000 -0.001283 0.000000 0.038845
#
#
# Mechanical properties :
#
#
# Convention : Reuss Voigt Hill
#
# Bulk Modulus (GPa) = 27.26607 31.13407 29.20007
# Shear Modulus (GPa) = 24.31399 26.30226 25.30812
#
# Velocity S-wave (km/s) = 3.49894 3.63919 3.56976
# Velocity P-wave (km/s) = 5.48202 5.77364 5.62972
#
# Compressibility (1/GPa) = 0.03667562
#
# Stress axis : x y z
#
# Youngs Moduli (GPa) = 57.71688 74.66734 56.65529
#
# Poissons Ratio (x) = 0.37026 0.09081
# Poissons Ratio (y) = 0.28620 -0.04049
# Poissons Ratio (z) = 0.09251 -0.05337
#
# Static dielectric constant tensor:
#      x y z
#    x 3.606510 0.000000 0.061060 
#    y 0.000000 4.023740 0.000000 
#    z 0.061060 0.000000 3.635670 
# 
# 
# High freq. dielectric constant tensor:
#      x y z
#    x 1.760480 0.000000 0.005870 
#    y 0.000000 1.788010 0.000000 
#    z 0.005870 0.000000 1.776660 
# 
# From -- ./inp_files/358478.got.cif
#   From: 2010.06.25/outbox.cif.g09.slc.cpg/sg12_180_cif.got.tgz:358478.got - 2010.06.28 00:19:55.
