data_PCOD8094978
_publ_section_title
;
Structure prediction by ZEFSAII (Michael W. Deem and Ramdas Pophale) SiO2 
 PCOD8094978
Probable space group: C 2/M
;
_chemical_formula_sum "Si O2"
_cell_formula_units_Z 56
_cell_length_a 22.582076
_cell_length_b 8.838250
_cell_length_c 25.784269
_cell_angle_alpha 90.000000
_cell_angle_beta 39.275349
_cell_angle_gamma 90.000000
_cell_volume 3257.778300
_symmetry_space_group_name_H-M "C 2/M"
_symmetry_group_IT_number 12
_symmetry_cell_setting 'monoclinic'
loop_
_space_group_symop_operation_xyz
x,y,z
-x,y,-z
-x,-y,-z
x,-y,z
1/2+x,1/2+y,z
1/2-x,1/2+y,-z
1/2-x,1/2-y,-z
1/2+x,1/2-y,z
loop_
_atom_site_type_symbol
_atom_site_label
_atom_site_fract_x
_atom_site_fract_y
_atom_site_fract_z
Si Si1 0.380656 0.825163 0.234069
Si Si2 0.475737 0.174330 0.943237
Si Si3 0.186108 0.674862 0.610404
Si Si4 0.869437 0.173776 0.093225
Si Si5 0.275587 0.173625 0.727194
Si Si6 0.373988 0.177352 0.461269
Si Si7 0.529776 0.322034 0.423351
O O1 0.485655 0.790009 0.141106
O O2 0.381678 0.794056 0.294942
O O3 0.303885 0.717826 0.260035
O O4 0.354454 0.000000 0.239780
O O5 0.563190 0.215869 0.920439
O O6 0.448516 0.000000 0.967618
O O7 0.384234 0.273298 0.022831
O O8 0.215155 0.500000 0.586585
O O9 0.281532 0.767650 0.553961
O O10 0.132458 0.726208 0.594777
O O11 0.764577 0.194331 0.186666
O O12 0.900819 0.000000 0.078369
O O13 0.363891 0.280208 0.660448
O O14 0.304477 0.000000 0.697796
O O15 0.465655 0.252244 0.422438
O O16 0.383657 0.000000 0.461709
O O17 0.500000 0.259043 0.500000
O O18 0.517789 0.500000 0.429677
#
# Coordination Sequence:
#
# PCOD8094978 Si02
#       7
#     8   8   8   8   8   8   8
#     4   9  17  29  45  67  95 124 152 183 223 269
#     4   9  15  23  39  62  87 117 151 182 214 260
#     4   9  18  33  50  68  93 122 150 184 227 269
#     4   9  16  26  39  58  88 120 147 180 223 265
#     4  10  20  31  45  67  93 122 155 188 224 267
#     4  10  20  33  50  70  91 118 153 190 225 264
#     4  11  23  36  49  66  91 122 152 185 227 271
#
# _framework density 17.189629
#
# number of rings (size 3 to 8) (size 9 to 14) (size 15 to 20)
#    0.000    2.429    0.000    3.857    0.000    8.000 
#    0.000    0.000    0.000    0.000    0.000    1.000 
#    0.000    0.000    0.000    0.000    0.000    0.000 
#
# Total GULP energy -347017.927947 kJ/mol
# GULP energy per Si atom -12393.497427 kJ/mol
# Density = 1.715051 g / cm^3
# Si number density = 17.189629 Si / 1000 Ang^3
#
#
#
# Elastic Constant Matrix: (Units=GPa)
#
#
# Indices 1 2 3 4 5 6 
#
# 1 47.3061 15.7723 31.0849 -0.0013 3.2234 0.0043
# 2 15.7723 49.2218 30.5519 -0.0036 2.7623 0.0117
# 3 31.0849 30.5519 142.3858 0.0007 13.1214 -0.0007
# 4 -0.0013 -0.0036 0.0007 28.5227 -0.0007 -2.9024
# 5 3.2234 2.7623 13.1214 -0.0007 18.8067 -0.0008
# 6 0.0043 0.0117 -0.0007 -2.9024 -0.0008 21.1392
#
#
#
# Elastic Compliance Matrix: (Units=1/GPa)
#
#
# Indices 1 2 3 4 5 6 
#
# 1 0.025927 -0.005532 -0.004423 0.000000 -0.000545 -0.000002
# 2 -0.005532 0.024618 -0.004092 0.000002 0.000187 -0.000012
# 3 -0.004423 -0.004092 0.009342 -0.000001 -0.005159 0.000003
# 4 0.000000 0.000002 -0.000001 0.035557 0.000002 0.004882
# 5 -0.000545 0.000187 -0.005159 0.000002 0.056838 0.000002
# 6 -0.000002 -0.000012 0.000003 0.004882 0.000002 0.047976
#
#
# Mechanical properties :
#
#
# Convention : Reuss Voigt Hill
#
# Bulk Modulus (GPa) = 31.45283 43.74798 37.60040
# Shear Modulus (GPa) = 20.92500 24.46070 22.69285
#
# Velocity S-wave (km/s) = 3.49277 3.77635 3.63733
# Velocity P-wave (km/s) = 5.88245 6.67232 6.28980
#
# Compressibility (1/GPa) = 0.03179364
#
# Stress axis : x y z
#
# Youngs Moduli (GPa) = 38.57012 40.62048 107.04129
#
# Poissons Ratio (x) = 0.22471 0.47344
# Poissons Ratio (y) = 0.21337 0.43800
# Poissons Ratio (z) = 0.17059 0.16622
#
# Static dielectric constant tensor:
#      x y z
#    x 2.789550 0.000000 0.226160 
#    y 0.000000 3.277360 0.000000 
#    z 0.226160 0.000000 3.912510 
# 
# 
# High freq. dielectric constant tensor:
#      x y z
#    x 1.599820 0.000000 0.012690 
#    y 0.000000 1.675410 0.000000 
#    z 0.012690 0.000000 1.685590 
# 
# From -- ./inp_files/345494.got.cif
#   From: 2010.06.25/outbox.cif.g09.slc.cpg/sg12_173_cif.got.tgz:345494.got - 2010.06.28 00:19:55.
