data_PCOD8094031
_publ_section_title
;
Structure prediction by ZEFSAII (Michael W. Deem and Ramdas Pophale) SiO2 
 PCOD8094031
Probable space group: C 2/M
;
_chemical_formula_sum "Si O2"
_cell_formula_units_Z 64
_cell_length_a 19.013517
_cell_length_b 17.514848
_cell_length_c 15.188973
_cell_angle_alpha 90.000000
_cell_angle_beta 140.052642
_cell_angle_gamma 90.000000
_cell_volume 3247.796131
_symmetry_space_group_name_H-M "C 2/M"
_symmetry_group_IT_number 12
_symmetry_cell_setting 'monoclinic'
loop_
_space_group_symop_operation_xyz
x,y,z
-x,y,-z
-x,-y,-z
x,-y,z
1/2+x,1/2+y,z
1/2-x,1/2+y,-z
1/2-x,1/2-y,-z
1/2+x,1/2-y,z
loop_
_atom_site_type_symbol
_atom_site_label
_atom_site_fract_x
_atom_site_fract_y
_atom_site_fract_z
Si Si1 0.336162 0.089021 0.802455
Si Si2 0.036529 0.411597 0.729931
Si Si3 0.765733 0.411777 0.208422
Si Si4 0.445479 0.329500 0.039646
Si Si5 0.809327 0.411571 0.442796
Si Si6 0.405347 0.590490 0.472463
Si Si7 0.086274 0.088385 0.319379
Si Si8 0.452811 0.847634 0.075964
O O1 0.213921 0.122520 0.670370
O O2 0.419759 0.131908 0.817445
O O3 0.339906 0.000000 0.782476
O O4 0.373227 0.101660 0.938547
O O5 0.024860 0.500000 0.746562
O O6 0.119613 0.400838 0.729977
O O7 0.079308 0.364258 0.854595
O O8 0.920725 0.375606 0.587920
O O9 0.729479 0.500000 0.176840
O O10 0.777124 0.376047 0.317318
O O11 0.674158 0.365814 0.067671
O O12 0.514987 0.358940 0.188341
O O13 0.432933 0.239434 0.032576
O O14 0.500000 0.355256 0.000000
O O15 0.833518 0.500000 0.448279
O O16 0.714085 0.398174 0.421982
O O17 0.500000 0.624811 0.500000
O O18 0.402183 0.500000 0.460117
O O19 0.433934 0.614050 0.599731
O O20 0.054458 0.000000 0.273336
#
# Coordination Sequence:
#
# PCOD8094031 Si02
#       8
#     8   8   8   8   8   8   8   8
#     4  10  19  36  62  85 110 148 194 240 287 340
#     4  10  20  36  58  86 116 144 187 241 292 344
#     4  10  21  36  59  86 113 151 190 234 289 343
#     4  12  23  39  57  80 118 157 196 241 283 336
#     4   9  17  32  57  87 115 142 183 237 288 340
#     4   9  19  36  59  89 119 145 185 244 297 340
#     4  10  20  35  61  88 111 150 196 237 288 343
#     4  11  22  37  57  84 114 153 195 238 288 337
#
# _framework density 19.705670999999999
#
# number of rings (size 3 to 8) (size 9 to 14) (size 15 to 20)
#    0.000    1.875    2.500    3.000    0.000    5.500 
#    0.000    6.250    0.000    0.000    0.000    0.000 
#    0.000    0.000    0.000    0.000    0.000    0.000 
#
# Total GULP energy -396895.524175 kJ/mol
# GULP energy per Si atom -12402.985130 kJ/mol
# Density = 1.966082 g / cm^3
# Si number density = 19.705671 Si / 1000 Ang^3
#
#
#
# Elastic Constant Matrix: (Units=GPa)
#
#
# Indices 1 2 3 4 5 6 
#
# 1 112.1822 23.9261 43.8945 0.0000 -11.8914 0.0000
# 2 23.9261 49.4176 22.3950 0.0000 5.1346 0.0000
# 3 43.8945 22.3950 103.5181 0.0000 2.0053 0.0000
# 4 0.0000 0.0000 0.0000 3.0360 0.0000 -2.0901
# 5 -11.8914 5.1346 2.0053 0.0000 32.7307 0.0000
# 6 0.0000 0.0000 0.0000 -2.0901 0.0000 15.9642
#
#
#
# Elastic Compliance Matrix: (Units=1/GPa)
#
#
# Indices 1 2 3 4 5 6 
#
# 1 0.012110 -0.004486 -0.004268 0.000000 0.005365 0.000000
# 2 -0.004486 0.024443 -0.003284 0.000000 -0.005263 0.000000
# 3 -0.004268 -0.003284 0.012215 0.000000 -0.001784 0.000000
# 4 0.000000 0.000000 0.000000 0.362003 0.000000 0.047394
# 5 0.005365 -0.005263 -0.001784 0.000000 0.033436 0.000000
# 6 0.000000 0.000000 0.000000 0.047394 0.000000 0.068845
#
#
# Mechanical properties :
#
#
# Convention : Reuss Voigt Hill
#
# Bulk Modulus (GPa) = 40.50043 49.50546 45.00294
# Shear Modulus (GPa) = 9.16828 22.00634 15.58731
#
# Velocity S-wave (km/s) = 2.15933 3.34541 2.81553
# Velocity P-wave (km/s) = 5.17825 6.33240 5.78418
#
# Compressibility (1/GPa) = 0.02469110
#
# Stress axis : x y z
#
# Youngs Moduli (GPa) = 82.57909 40.91206 81.86707
#
# Poissons Ratio (x) = 0.18354 0.34942
# Poissons Ratio (y) = 0.37046 0.26883
# Poissons Ratio (z) = 0.35246 0.13434
#
# Static dielectric constant tensor:
#      x y z
#    x 3.631890 0.000000 0.007660 
#    y 0.000000 3.250590 0.000000 
#    z 0.007660 0.000000 3.712480 
# 
# 
# High freq. dielectric constant tensor:
#      x y z
#    x 1.771060 0.000000 -0.003600 
#    y 0.000000 1.730630 0.000000 
#    z -0.003600 0.000000 1.779860 
# 
# From -- ./inp_files/226852.got.cif
#   From: 2010.06.25/outbox.cif.g09.slc.cpg/sg12_114_cif.got.tgz:226852.got - 2010.06.28 00:19:55.
