data_PCOD8094966
_publ_section_title
;
Structure prediction by ZEFSAII (Michael W. Deem and Ramdas Pophale) SiO2 
 PCOD8094966
Probable space group: C 2/M
;
_chemical_formula_sum "Si O2"
_cell_formula_units_Z 56
_cell_length_a 33.611034
_cell_length_b 9.231821
_cell_length_c 12.441672
_cell_angle_alpha 90.000000
_cell_angle_beta 123.355959
_cell_angle_gamma 90.000000
_cell_volume 3224.595690
_symmetry_space_group_name_H-M "C 2/M"
_symmetry_group_IT_number 12
_symmetry_cell_setting 'monoclinic'
loop_
_space_group_symop_operation_xyz
x,y,z
-x,y,-z
-x,-y,-z
x,-y,z
1/2+x,1/2+y,z
1/2-x,1/2+y,-z
1/2-x,1/2-y,-z
1/2+x,1/2-y,z
loop_
_atom_site_type_symbol
_atom_site_label
_atom_site_fract_x
_atom_site_fract_y
_atom_site_fract_z
Si Si1 0.643420 0.329551 0.959228
Si Si2 0.872008 0.170684 0.527572
Si Si3 0.281061 0.833757 0.461244
Si Si4 0.439822 0.327420 0.015918
Si Si5 0.955164 0.828628 0.800825
Si Si6 0.246734 0.165408 0.171971
Si Si7 0.162047 0.168143 0.752378
O O1 0.644156 0.500000 0.981398
O O2 0.695116 0.266479 0.068280
O O3 0.601896 0.259447 0.971421
O O4 0.633190 0.293917 0.818372
O O5 0.832020 0.257276 0.532145
O O6 0.922425 0.221838 0.652379
O O7 0.870309 0.212194 0.398448
O O8 0.863563 0.000000 0.532754
O O9 0.250000 0.750000 0.500000
O O10 0.253665 0.821402 0.308869
O O11 0.288079 0.000000 0.506520
O O12 0.438303 0.500000 0.021025
O O13 0.491068 0.269433 0.135049
O O14 0.433249 0.275435 0.882538
O O15 0.957656 0.000000 0.809003
O O16 0.287526 0.251340 0.169776
O O17 0.249880 0.000000 0.137343
O O18 0.174814 0.000000 0.766430
#
# Coordination Sequence:
#
# PCOD8094966 Si02
#       7
#     8   8   8   8   8   8   8
#     4   9  16  26  42  63  89 117 149 185 223 260
#     4   9  17  29  46  65  90 120 148 179 224 270
#     4  10  20  31  44  66  93 118 150 185 220 263
#     4   8  14  24  40  64  89 113 148 190 223 260
#     4   8  14  25  42  64  89 116 147 184 226 266
#     4   9  18  30  45  64  86 119 154 182 214 259
#     4   9  17  29  43  64  92 120 145 180 225 265
#
# _framework density 17.366519
#
# number of rings (size 3 to 8) (size 9 to 14) (size 15 to 20)
#    0.000    3.143    0.000    1.714    2.000    0.571 
#    0.000    0.714    0.000    4.286    0.000    4.000 
#    0.000    4.571    0.000    0.000    0.000    0.000 
#
# Total GULP energy -347029.001047 kJ/mol
# GULP energy per Si atom -12393.892895 kJ/mol
# Density = 1.732699 g / cm^3
# Si number density = 17.366519 Si / 1000 Ang^3
#
#
#
# Elastic Constant Matrix: (Units=GPa)
#
#
# Indices 1 2 3 4 5 6 
#
# 1 131.7352 19.6400 76.4935 0.0000 -1.9161 0.0000
# 2 19.6400 27.1766 15.1006 0.0000 0.4435 0.0000
# 3 76.4935 15.1006 113.2373 0.0000 16.5131 0.0000
# 4 0.0000 0.0000 0.0000 13.0647 0.0000 0.1964
# 5 -1.9161 0.4435 16.5131 0.0000 26.0893 0.0000
# 6 0.0000 0.0000 0.0000 0.1964 0.0000 16.8555
#
#
#
# Elastic Compliance Matrix: (Units=1/GPa)
#
#
# Indices 1 2 3 4 5 6 
#
# 1 0.014289 -0.004834 -0.010106 0.000000 0.007528 0.000000
# 2 -0.004834 0.041584 -0.002341 0.000000 0.000420 0.000000
# 3 -0.010106 -0.002341 0.017706 0.000000 -0.011910 0.000000
# 4 0.000000 0.000000 0.000000 0.076555 0.000000 -0.000892
# 5 0.007528 0.000420 -0.011910 0.000000 0.046414 0.000000
# 6 0.000000 0.000000 0.000000 -0.000892 0.000000 0.059338
#
#
# Mechanical properties :
#
#
# Convention : Reuss Voigt Hill
#
# Bulk Modulus (GPa) = 25.62934 54.95747 40.29341
# Shear Modulus (GPa) = 16.47694 21.92958 19.20326
#
# Velocity S-wave (km/s) = 3.08356 3.55737 3.32891
# Velocity P-wave (km/s) = 5.24097 6.97048 6.16666
#
# Compressibility (1/GPa) = 0.03901778
#
# Stress axis : x y z
#
# Youngs Moduli (GPa) = 69.98320 24.04780 56.47656
#
# Poissons Ratio (x) = 0.11625 0.57073
# Poissons Ratio (y) = 0.33831 0.13221
# Poissons Ratio (z) = 0.70723 0.05630
#
# Static dielectric constant tensor:
#      x y z
#    x 3.489100 0.000000 0.061500 
#    y 0.000000 2.888780 0.000000 
#    z 0.061500 0.000000 3.543510 
# 
# 
# High freq. dielectric constant tensor:
#      x y z
#    x 1.664250 0.000000 -0.002400 
#    y 0.000000 1.622260 0.000000 
#    z -0.002400 0.000000 1.680150 
# 
# From -- ./inp_files/186791.got.cif
#   From: 2010.06.25/outbox.cif.g09.slc.cpg/sg12_94_cif.got.tgz:186791.got - 2010.06.28 00:19:55.
