data_PCOD8094747
_publ_section_title
;
Structure prediction by ZEFSAII (Michael W. Deem and Ramdas Pophale) SiO2 
 PCOD8094747
Probable space group: C 2/M
;
_chemical_formula_sum "Si O2"
_cell_formula_units_Z 44
_cell_length_a 16.663358
_cell_length_b 17.199246
_cell_length_c 13.237040
_cell_angle_alpha 90.000000
_cell_angle_beta 141.530971
_cell_angle_gamma 90.000000
_cell_volume 2360.027637
_symmetry_space_group_name_H-M "C 2/M"
_symmetry_group_IT_number 12
_symmetry_cell_setting 'monoclinic'
loop_
_space_group_symop_operation_xyz
x,y,z
-x,y,-z
-x,-y,-z
x,-y,z
1/2+x,1/2+y,z
1/2-x,1/2+y,-z
1/2-x,1/2-y,-z
1/2+x,1/2-y,z
loop_
_atom_site_type_symbol
_atom_site_label
_atom_site_fract_x
_atom_site_fract_y
_atom_site_fract_z
Si Si1 0.991326 0.087740 0.183309
Si Si2 0.367037 0.790973 0.174550
Si Si3 0.133810 0.205476 0.435159
Si Si4 0.252825 0.284201 0.240888
Si Si5 0.767485 0.412096 0.947467
Si Si6 0.000000 0.808408 0.000000
O O1 0.116995 0.122129 0.364044
O O2 0.875877 0.091323 0.149502
O O3 0.021572 0.000000 0.179210
O O4 0.957663 0.138057 0.051625
O O5 0.503951 0.753581 0.284727
O O6 0.334465 0.781608 0.260769
O O7 0.250000 0.750000 0.000000
O O8 0.366101 0.879374 0.131112
O O9 0.250000 0.250000 0.500000
O O10 0.159793 0.191269 0.578525
O O11 0.226262 0.360990 0.148117
O O12 0.119233 0.246837 0.147343
O O13 0.808886 0.500000 0.962149
#
# Coordination Sequence:
#
# PCOD8094747 Si02
#       6
#     8   8   8   8   8   4
#     4  11  22  39  62  91 122 156 202 257 306 350
#     4  10  19  39  61  85 117 158 205 238 292 366
#     4  12  23  38  61  93 121 158 202 253 302 357
#     4  11  22  35  65  88 122 154 211 242 302 361
#     4  10  21  39  64  90 119 160 204 251 304 357
#     4  12  21  40  63  92 114 168 206 250 289 364
#
# _framework density 18.643851000000002
#
# number of rings (size 3 to 8) (size 9 to 14) (size 15 to 20)
#    0.000    1.091    7.273    1.909    0.000    0.727 
#    0.000    3.182    0.000    1.091    0.000    0.000 
#    0.000    0.000    0.000    0.000    0.000    0.000 
#
# Total GULP energy -272741.917724 kJ/mol
# GULP energy per Si atom -12397.359897 kJ/mol
# Density = 1.860142 g / cm^3
# Si number density = 18.643851 Si / 1000 Ang^3
#
#
#
# Elastic Constant Matrix: (Units=GPa)
#
#
# Indices 1 2 3 4 5 6 
#
# 1 64.9081 29.9985 25.7991 0.0000 -1.8531 0.0000
# 2 29.9985 134.5013 44.8559 0.0000 -5.4944 0.0000
# 3 25.7991 44.8559 95.9826 0.0000 -4.1070 0.0000
# 4 0.0000 0.0000 0.0000 22.0721 0.0000 -1.5262
# 5 -1.8531 -5.4944 -4.1070 0.0000 43.6854 0.0000
# 6 0.0000 0.0000 0.0000 -1.5262 0.0000 27.1223
#
#
#
# Elastic Compliance Matrix: (Units=1/GPa)
#
#
# Indices 1 2 3 4 5 6 
#
# 1 0.018136 -0.002864 -0.003533 0.000000 0.000077 0.000000
# 2 -0.002864 0.009283 -0.003538 0.000000 0.000713 0.000000
# 3 -0.003533 -0.003538 0.013049 0.000000 0.000632 0.000000
# 4 0.000000 0.000000 0.000000 0.045483 0.000000 0.002559
# 5 0.000077 0.000713 0.000632 0.000000 0.023043 0.000000
# 6 0.000000 0.000000 0.000000 0.002559 0.000000 0.037014
#
#
# Mechanical properties :
#
#
# Convention : Reuss Voigt Hill
#
# Bulk Modulus (GPa) = 48.54796 55.18879 51.86838
# Shear Modulus (GPa) = 28.94465 31.55854 30.25159
#
# Velocity S-wave (km/s) = 3.94446 4.11871 4.03253
# Velocity P-wave (km/s) = 6.84406 7.23079 7.04008
#
# Compressibility (1/GPa) = 0.02059819
#
# Stress axis : x y z
#
# Youngs Moduli (GPa) = 55.13761 107.72903 76.63614
#
# Poissons Ratio (x) = 0.30849 0.27078
# Poissons Ratio (y) = 0.15789 0.27113
# Poissons Ratio (z) = 0.19482 0.38113
#
# Static dielectric constant tensor:
#      x y z
#    x 3.498940 0.000000 -0.171010 
#    y 0.000000 3.878850 0.000000 
#    z -0.171010 0.000000 3.614070 
# 
# 
# High freq. dielectric constant tensor:
#      x y z
#    x 1.731960 0.000000 -0.007310 
#    y 0.000000 1.712290 0.000000 
#    z -0.007310 0.000000 1.716100 
# 
# From -- ./inp_files/226646.got.cif
#   From: 2010.06.25/outbox.cif.g09.slc.cpg/sg12_114_cif.got.tgz:226646.got - 2010.06.28 00:19:55.
