data_PCOD8094426
_publ_section_title
;
Structure prediction by ZEFSAII (Michael W. Deem and Ramdas Pophale) SiO2 
 PCOD8094426
Probable space group: C 2/M
;
_chemical_formula_sum "Si O2"
_cell_formula_units_Z 48
_cell_length_a 29.063210
_cell_length_b 8.901375
_cell_length_c 19.011202
_cell_angle_alpha 90.000000
_cell_angle_beta 148.042272
_cell_angle_gamma 90.000000
_cell_volume 2603.195395
_symmetry_space_group_name_H-M "C 2/M"
_symmetry_group_IT_number 12
_symmetry_cell_setting 'monoclinic'
loop_
_space_group_symop_operation_xyz
x,y,z
-x,y,-z
-x,-y,-z
x,-y,z
1/2+x,1/2+y,z
1/2-x,1/2+y,-z
1/2-x,1/2-y,-z
1/2+x,1/2-y,z
loop_
_atom_site_type_symbol
_atom_site_label
_atom_site_fract_x
_atom_site_fract_y
_atom_site_fract_z
Si Si1 0.737201 0.177001 0.908169
Si Si2 0.785314 0.175949 0.615424
Si Si3 0.900615 0.823179 0.368088
Si Si4 0.140620 0.669956 0.037855
Si Si5 0.723238 0.328979 0.668383
Si Si6 0.964235 0.326356 0.878473
O O1 0.648717 0.238356 0.758554
O O2 0.821196 0.216274 0.969846
O O3 0.729774 0.000000 0.906646
O O4 0.750000 0.250000 0.000000
O O5 0.750000 0.250000 0.500000
O O6 0.724802 0.224252 0.602263
O O7 0.884424 0.223045 0.754607
O O8 0.779189 0.000000 0.598895
O O9 0.857216 0.781577 0.386448
O O10 0.000000 0.769197 0.500000
O O11 0.892543 0.000000 0.342643
O O12 0.159034 0.500000 0.035486
O O13 0.186814 0.693027 0.172982
O O14 0.038418 0.698440 0.915664
O O15 0.712927 0.500000 0.629532
O O16 0.934262 0.500000 0.842476
O O17 0.000000 0.274454 0.000000
#
# Coordination Sequence:
#
# PCOD8094426 Si02
#       6
#     8   8   8   8   8   8
#     4  11  22  37  58  84 118 153 189 234 284 333
#     4  12  25  39  56  81 116 154 193 235 283 333
#     4   9  19  38  63  87 112 147 188 232 284 342
#     4   9  18  35  61  87 113 147 186 229 282 340
#     4   9  17  35  60  84 112 148 186 228 284 341
#     4  10  19  37  63  87 113 147 185 229 282 339
#
# _framework density 18.438876
#
# number of rings (size 3 to 8) (size 9 to 14) (size 15 to 20)
#    0.000    2.000    1.667    4.000    0.000    4.000 
#    3.000    0.000    0.000    0.000    0.000    0.000 
#    0.000    0.000    0.000    0.000    0.000    0.000 
#
# Total GULP energy -297656.374899 kJ/mol
# GULP energy per Si atom -12402.348954 kJ/mol
# Density = 1.839691 g / cm^3
# Si number density = 18.438876 Si / 1000 Ang^3
#
#
#
# Elastic Constant Matrix: (Units=GPa)
#
#
# Indices 1 2 3 4 5 6 
#
# 1 115.0820 63.2067 80.4100 0.0000 -2.5474 0.0000
# 2 63.2067 127.8696 70.8614 0.0000 -12.1105 0.0000
# 3 80.4100 70.8614 114.3070 0.0000 -4.4519 0.0000
# 4 0.0000 0.0000 0.0000 30.6544 0.0000 -2.4412
# 5 -2.5474 -12.1105 -4.4519 0.0000 32.6881 0.0000
# 6 0.0000 0.0000 0.0000 -2.4412 0.0000 32.9727
#
#
#
# Elastic Compliance Matrix: (Units=1/GPa)
#
#
# Indices 1 2 3 4 5 6 
#
# 1 0.017776 -0.002959 -0.010716 0.000000 -0.001171 0.000000
# 2 -0.002959 0.012800 -0.005708 0.000000 0.003734 0.000000
# 3 -0.010716 -0.005708 0.019815 0.000000 -0.000251 0.000000
# 4 0.000000 0.000000 0.000000 0.032815 0.000000 0.002430
# 5 -0.001171 0.003734 -0.000251 0.000000 0.031850 0.000000
# 6 0.000000 0.000000 0.000000 0.002430 0.000000 0.030508
#
#
# Mechanical properties :
#
#
# Convention : Reuss Voigt Hill
#
# Bulk Modulus (GPa) = 86.01854 87.35720 86.68787
# Shear Modulus (GPa) = 26.56659 28.78172 27.67416
#
# Velocity S-wave (km/s) = 3.79990 3.95514 3.87830
# Velocity P-wave (km/s) = 8.12430 8.26662 8.19577
#
# Compressibility (1/GPa) = 0.01162540
#
# Stress axis : x y z
#
# Youngs Moduli (GPa) = 56.25464 78.12460 50.46652
#
# Poissons Ratio (x) = 0.23120 0.54079
# Poissons Ratio (y) = 0.16648 0.28805
# Poissons Ratio (z) = 0.60282 0.44592
#
# Static dielectric constant tensor:
#      x y z
#    x 3.531880 0.000000 0.106860 
#    y 0.000000 3.304200 0.000000 
#    z 0.106860 0.000000 2.948820 
# 
# 
# High freq. dielectric constant tensor:
#      x y z
#    x 1.725010 0.000000 0.005990 
#    y 0.000000 1.708230 0.000000 
#    z 0.005990 0.000000 1.702990 
# 
# From -- ./inp_files/295896.got.cif
#   From: 2010.06.25/outbox.cif.g09.slc.cpg/sg12_148_cif.got.tgz:295896.got - 2010.06.28 00:19:55.
