data_PCOD8094605
_publ_section_title
;
Structure prediction by ZEFSAII (Michael W. Deem and Ramdas Pophale) SiO2 
 PCOD8094605
Probable space group: C 2/M
;
_chemical_formula_sum "Si O2"
_cell_formula_units_Z 64
_cell_length_a 9.158518
_cell_length_b 30.784102
_cell_length_c 18.174645
_cell_angle_alpha 90.000000
_cell_angle_beta 40.895033
_cell_angle_gamma 90.000000
_cell_volume 3354.621885
_symmetry_space_group_name_H-M "C 2/M"
_symmetry_group_IT_number 12
_symmetry_cell_setting 'monoclinic'
loop_
_space_group_symop_operation_xyz
x,y,z
-x,y,-z
-x,-y,-z
x,-y,z
1/2+x,1/2+y,z
1/2-x,1/2+y,-z
1/2-x,1/2-y,-z
1/2+x,1/2-y,z
loop_
_atom_site_type_symbol
_atom_site_label
_atom_site_fract_x
_atom_site_fract_y
_atom_site_fract_z
Si Si1 0.008972 0.049083 0.215951
Si Si2 0.169054 0.670154 0.999983
Si Si3 0.598809 0.624348 0.381953
Si Si4 0.310834 0.206859 0.239275
Si Si5 0.255349 0.624383 0.381950
Si Si6 0.326744 0.420423 0.999912
Si Si7 0.528422 0.293111 0.760777
Si Si8 0.656751 0.049088 0.784195
O O1 0.067354 0.054396 0.108743
O O2 0.228538 0.059897 0.180910
O O3 0.810195 0.081331 0.314256
O O4 0.926466 0.000000 0.261498
O O5 0.271283 0.628553 0.999791
O O6 0.368693 0.698766 0.891299
O O7 0.000000 0.654950 0.000000
O O8 0.042653 0.698674 0.108784
O O9 0.500000 0.623693 0.500000
O O10 0.757710 0.666123 0.311880
O O11 0.396409 0.625739 0.402398
O O12 0.747220 0.581327 0.314092
O O13 0.327902 0.249984 0.281469
O O14 0.112018 0.214421 0.258709
O O15 0.307021 0.666126 0.311706
O O16 0.000000 0.623843 0.500000
O O17 0.500000 0.420861 0.000000
O O18 0.106458 0.445571 0.108532
O O19 0.710705 0.000000 0.738709
#
# Coordination Sequence:
#
# PCOD8094605 Si02
#       8
#     8   8   8   8   8   8   8   8
#     4  10  21  40  64  85 113 157 198 230 282 355
#     4  10  19  38  62  83 116 156 192 231 283 355
#     4  10  22  40  60  84 114 152 197 243 287 335
#     4  10  21  37  60  86 116 151 190 237 285 343
#     4  10  22  40  60  84 114 152 197 243 287 335
#     4  12  23  34  57  92 125 151 184 239 293 338
#     4  10  21  37  60  86 116 151 190 237 285 343
#     4  10  21  40  64  85 113 157 198 230 282 355
#
# _framework density 19.078157000000001
#
# number of rings (size 3 to 8) (size 9 to 14) (size 15 to 20)
#    0.000    1.750    2.500    1.875    0.000    6.000 
#    0.000    2.500    0.000    0.000    0.000    0.000 
#    0.000    0.000    0.000    0.000    0.000    0.000 
#
# Total GULP energy -396931.462059 kJ/mol
# GULP energy per Si atom -12404.108189 kJ/mol
# Density = 1.903473 g / cm^3
# Si number density = 19.078157 Si / 1000 Ang^3
#
#
#
# Elastic Constant Matrix: (Units=GPa)
#
#
# Indices 1 2 3 4 5 6 
#
# 1 67.4619 53.0425 53.3314 0.0000 0.7329 0.0000
# 2 53.0425 166.8663 74.1465 0.0000 0.4433 0.0000
# 3 53.3314 74.1465 151.2178 0.0000 0.6247 0.0000
# 4 0.0000 0.0000 0.0000 14.9084 0.0000 -0.1301
# 5 0.7329 0.4433 0.6247 0.0000 31.9173 0.0000
# 6 0.0000 0.0000 0.0000 -0.1301 0.0000 27.5658
#
#
#
# Elastic Compliance Matrix: (Units=1/GPa)
#
#
# Indices 1 2 3 4 5 6 
#
# 1 0.023200 -0.004780 -0.005837 0.000000 -0.000352 0.000000
# 2 -0.004780 0.008647 -0.002554 0.000000 0.000040 0.000000
# 3 -0.005837 -0.002554 0.009924 0.000000 -0.000025 0.000000
# 4 0.000000 0.000000 0.000000 0.067079 0.000000 0.000317
# 5 -0.000352 0.000040 -0.000025 0.000000 0.031339 0.000000
# 6 0.000000 0.000000 0.000000 0.000317 0.000000 0.036278
#
#
# Mechanical properties :
#
#
# Convention : Reuss Voigt Hill
#
# Bulk Modulus (GPa) = 64.81490 82.95409 73.88450
# Shear Modulus (GPa) = 24.04398 28.54667 26.29533
#
# Velocity S-wave (km/s) = 3.55391 3.87240 3.71657
# Velocity P-wave (km/s) = 7.13354 7.97305 7.56495
#
# Compressibility (1/GPa) = 0.01542855
#
# Stress axis : x y z
#
# Youngs Moduli (GPa) = 43.10419 115.64473 100.76563
#
# Poissons Ratio (x) = 0.55279 0.58814
# Poissons Ratio (y) = 0.20604 0.25738
# Poissons Ratio (z) = 0.25159 0.29539
#
# Static dielectric constant tensor:
#      x y z
#    x 3.337740 0.000000 0.001640 
#    y 0.000000 3.649640 0.000000 
#    z 0.001640 0.000000 3.450750 
# 
# 
# High freq. dielectric constant tensor:
#      x y z
#    x 1.728320 0.000000 0.000130 
#    y 0.000000 1.757200 0.000000 
#    z 0.000130 0.000000 1.738320 
# 
# From -- ./inp_files/260322.got.cif
#   From: 2010.06.25/outbox.cif.g09.slc.cpg/sg12_131_cif.got.tgz:260322.got - 2010.06.28 00:19:55.
