data_PCOD8094849
_publ_section_title
;
Structure prediction by ZEFSAII (Michael W. Deem and Ramdas Pophale) SiO2 
 PCOD8094849
Probable space group: C 2/M
;
_chemical_formula_sum "Si O2"
_cell_formula_units_Z 36
_cell_length_a 8.892511
_cell_length_b 28.060564
_cell_length_c 10.673564
_cell_angle_alpha 90.000000
_cell_angle_beta 41.398774
_cell_angle_gamma 90.000000
_cell_volume 1761.270412
_symmetry_space_group_name_H-M "C 2/M"
_symmetry_group_IT_number 12
_symmetry_cell_setting 'monoclinic'
loop_
_space_group_symop_operation_xyz
x,y,z
-x,y,-z
-x,-y,-z
x,-y,z
1/2+x,1/2+y,z
1/2-x,1/2+y,-z
1/2-x,1/2-y,-z
1/2+x,1/2-y,z
loop_
_atom_site_type_symbol
_atom_site_label
_atom_site_fract_x
_atom_site_fract_y
_atom_site_fract_z
Si Si1 0.192130 0.105802 0.651645
Si Si2 0.425325 0.055758 0.724923
Si Si3 0.500000 0.191979 0.500000
Si Si4 0.749443 0.789828 0.106460
Si Si5 0.820526 0.617641 0.005450
O O1 0.233291 0.082797 0.762913
O O2 0.321324 0.072318 0.471624
O O3 0.289585 0.159282 0.588079
O O4 0.928695 0.109914 0.780273
O O5 0.388402 0.068955 0.892681
O O6 0.398743 0.000000 0.720991
O O7 0.416522 0.223659 0.671823
O O8 0.664754 0.839320 0.102057
O O9 0.750000 0.750000 0.000000
O O10 0.000000 0.797502 0.000000
O O11 0.000000 0.629320 0.000000
#
# Coordination Sequence:
#
# PCOD8094849 Si02
#       5
#     8   8   4   8   8
#     4  10  19  40  67  90 124 161 221 265 315 382
#     4  10  21  39  66  94 122 167 221 268 322 384
#     4  10  20  42  71  92 122 168 211 268 324 368
#     4  12  24  45  68  98 130 168 219 269 322 389
#     4  12  24  40  61  93 133 174 209 264 326 383
#
# _framework density 20.439791
#
# number of rings (size 3 to 8) (size 9 to 14) (size 15 to 20)
#    0.000    1.333    6.667    2.667    0.000    4.889 
#    0.000    1.111    0.000    0.000    0.000    0.000 
#    0.000    0.000    0.000    0.000    0.000    0.000 
#
# Total GULP energy -223190.165566 kJ/mol
# GULP energy per Si atom -12399.453643 kJ/mol
# Density = 2.039327 g / cm^3
# Si number density = 20.439791 Si / 1000 Ang^3
#
#
#
# Elastic Constant Matrix: (Units=GPa)
#
#
# Indices 1 2 3 4 5 6 
#
# 1 130.1391 30.2137 73.7036 0.0000 -13.8018 0.0000
# 2 30.2137 80.4724 40.9906 0.0000 10.8626 0.0000
# 3 73.7036 40.9906 143.9854 0.0000 -0.2941 0.0000
# 4 0.0000 0.0000 0.0000 29.7202 0.0000 13.9991
# 5 -13.8018 10.8626 -0.2941 0.0000 33.8195 0.0000
# 6 0.0000 0.0000 0.0000 13.9991 0.0000 22.1356
#
#
#
# Elastic Compliance Matrix: (Units=1/GPa)
#
#
# Indices 1 2 3 4 5 6 
#
# 1 0.011898 -0.002489 -0.005371 0.000000 0.005608 0.000000
# 2 -0.002489 0.015844 -0.003249 0.000000 -0.006133 0.000000
# 3 -0.005371 -0.003249 0.010617 0.000000 -0.001056 0.000000
# 4 0.000000 0.000000 0.000000 0.047923 0.000000 -0.030308
# 5 0.005608 -0.006133 -0.001056 0.000000 0.033818 0.000000
# 6 0.000000 0.000000 0.000000 -0.030308 0.000000 0.064343
#
#
# Mechanical properties :
#
#
# Convention : Reuss Voigt Hill
#
# Bulk Modulus (GPa) = 61.94847 71.60139 66.77493
# Shear Modulus (GPa) = 23.58030 31.11433 27.34731
#
# Velocity S-wave (km/s) = 3.40022 3.90583 3.66176
# Velocity P-wave (km/s) = 6.76675 7.44628 7.11463
#
# Compressibility (1/GPa) = 0.01614245
#
# Stress axis : x y z
#
# Youngs Moduli (GPa) = 84.04605 63.11589 94.18793
#
# Poissons Ratio (x) = 0.15707 0.50584
# Poissons Ratio (y) = 0.20916 0.30603
# Poissons Ratio (z) = 0.45137 0.20507
#
# Static dielectric constant tensor:
#      x y z
#    x 3.585780 0.000000 0.195300 
#    y 0.000000 3.636270 0.000000 
#    z 0.195300 0.000000 4.069150 
# 
# 
# High freq. dielectric constant tensor:
#      x y z
#    x 1.775440 0.000000 0.002980 
#    y 0.000000 1.786930 0.000000 
#    z 0.002980 0.000000 1.815280 
# 
# From -- ./inp_files/123360.got.cif
#   From: 2010.06.25/outbox.cif.g09.slc.cpg/sg12_62_cif.got.tgz:123360.got - 2010.06.28 00:19:55.
