data_PCOD8094537
_publ_section_title
;
Structure prediction by ZEFSAII (Michael W. Deem and Ramdas Pophale) SiO2 
 PCOD8094537
Probable space group: C 2/M
;
_chemical_formula_sum "Si O2"
_cell_formula_units_Z 44
_cell_length_a 13.693779
_cell_length_b 21.131033
_cell_length_c 11.061114
_cell_angle_alpha 90.000000
_cell_angle_beta 40.699328
_cell_angle_gamma 90.000000
_cell_volume 2087.133007
_symmetry_space_group_name_H-M "C 2/M"
_symmetry_group_IT_number 12
_symmetry_cell_setting 'monoclinic'
loop_
_space_group_symop_operation_xyz
x,y,z
-x,y,-z
-x,-y,-z
x,-y,z
1/2+x,1/2+y,z
1/2-x,1/2+y,-z
1/2-x,1/2-y,-z
1/2+x,1/2-y,z
loop_
_atom_site_type_symbol
_atom_site_label
_atom_site_fract_x
_atom_site_fract_y
_atom_site_fract_z
Si Si1 0.000000 0.358862 0.000000
Si Si2 0.590922 0.768659 0.704235
Si Si3 0.368915 0.346414 0.195738
Si Si4 0.360952 0.071086 0.926875
Si Si5 0.197661 0.306076 0.136216
Si Si6 0.893935 0.429503 0.494727
O O1 0.092039 0.317258 0.816169
O O2 0.881199 0.404612 0.044649
O O3 0.750000 0.750000 0.500000
O O4 0.534919 0.700807 0.808642
O O5 0.484756 0.797749 0.698395
O O6 0.263852 0.301748 0.208108
O O7 0.262343 0.392257 0.371897
O O8 0.500000 0.383862 0.000000
O O9 0.258863 0.122959 0.952952
O O10 0.524505 0.069570 0.710300
O O11 0.289979 0.000000 0.990604
O O12 0.250000 0.250000 0.000000
O O13 0.851517 0.500000 0.577810
O O14 0.000000 0.399174 0.500000
#
# Coordination Sequence:
#
# PCOD8094537 Si02
#       6
#     4   8   8   8   8   8
#     4  10  19  38  56  92 123 152 206 252 307 374
#     4  11  23  37  59  90 123 159 203 253 313 372
#     4  12  21  36  57  82 118 160 199 252 310 368
#     4  10  20  36  61  86 116 159 205 254 312 370
#     4  11  21  38  58  87 124 158 202 259 311 371
#     4  10  21  37  58  87 117 154 207 258 309 372
#
# _framework density 21.081551999999999
#
# number of rings (size 3 to 8) (size 9 to 14) (size 15 to 20)
#    0.000    1.273    4.545    3.545    0.000    0.364 
#    0.000    0.000    0.000    0.000    0.000    1.273 
#    0.000    0.000    0.000    0.000    0.000    0.000 
#
# Total GULP energy -272541.204111 kJ/mol
# GULP energy per Si atom -12388.236551 kJ/mol
# Density = 2.103357 g / cm^3
# Si number density = 21.081552 Si / 1000 Ang^3
#
#
#
# Elastic Constant Matrix: (Units=GPa)
#
#
# Indices 1 2 3 4 5 6 
#
# 1 60.7184 9.4029 2.4639 0.0006 4.0351 -0.0004
# 2 9.4029 133.9264 16.6314 -0.0001 -2.8175 0.0000
# 3 2.4639 16.6314 72.0414 0.0005 3.2964 -0.0004
# 4 0.0006 -0.0001 0.0005 35.5462 -0.0006 -3.9597
# 5 4.0351 -2.8175 3.2964 -0.0006 22.1915 0.0005
# 6 -0.0004 0.0000 -0.0004 -3.9597 0.0005 25.3478
#
#
#
# Elastic Compliance Matrix: (Units=1/GPa)
#
#
# Indices 1 2 3 4 5 6 
#
# 1 0.016879 -0.001234 -0.000146 0.000000 -0.003204 0.000000
# 2 -0.001234 0.007812 -0.001829 0.000000 0.001488 0.000000
# 3 -0.000146 -0.001829 0.014416 0.000000 -0.002347 0.000000
# 4 0.000000 0.000000 0.000000 0.028631 0.000001 0.004473
# 5 -0.003204 0.001488 -0.002347 0.000001 0.046183 -0.000001
# 6 0.000000 0.000000 0.000000 0.004473 -0.000001 0.040150
#
#
# Mechanical properties :
#
#
# Convention : Reuss Voigt Hill
#
# Bulk Modulus (GPa) = 30.59216 35.96475 33.27845
# Shear Modulus (GPa) = 29.17407 32.49629 30.83518
#
# Velocity S-wave (km/s) = 3.72407 3.93040 3.82863
# Velocity P-wave (km/s) = 5.74756 6.13956 5.94679
#
# Compressibility (1/GPa) = 0.03268812
#
# Stress axis : x y z
#
# Youngs Moduli (GPa) = 59.24353 128.00933 69.36926
#
# Poissons Ratio (x) = 0.15802 0.01011
# Poissons Ratio (y) = 0.07313 0.12690
# Poissons Ratio (z) = 0.00863 0.23417
#
# Static dielectric constant tensor:
#      x y z
#    x 3.906930 0.000000 0.097300 
#    y 0.000000 4.240350 0.000000 
#    z 0.097300 0.000000 3.766660 
# 
# 
# High freq. dielectric constant tensor:
#      x y z
#    x 1.809410 0.000000 0.012240 
#    y 0.000000 1.837860 0.000000 
#    z 0.012240 0.000000 1.807090 
# 
# From -- ./inp_files/147479.got.cif
#   From: 2010.06.25/outbox.cif.g09.slc.cpg/sg12_74_cif.got.tgz:147479.got - 2010.06.28 00:19:55.
