data_PCOD8094493
_publ_section_title
;
Structure prediction by ZEFSAII (Michael W. Deem and Ramdas Pophale) SiO2 
 PCOD8094493
Probable space group: C 2/M
;
_chemical_formula_sum "Si O2"
_cell_formula_units_Z 40
_cell_length_a 16.226643
_cell_length_b 14.348434
_cell_length_c 14.177066
_cell_angle_alpha 90.000000
_cell_angle_beta 35.368172
_cell_angle_gamma 90.000000
_cell_volume 1910.597856
_symmetry_space_group_name_H-M "C 2/M"
_symmetry_group_IT_number 12
_symmetry_cell_setting 'monoclinic'
loop_
_space_group_symop_operation_xyz
x,y,z
-x,y,-z
-x,-y,-z
x,-y,z
1/2+x,1/2+y,z
1/2-x,1/2+y,-z
1/2-x,1/2-y,-z
1/2+x,1/2-y,z
loop_
_atom_site_type_symbol
_atom_site_label
_atom_site_fract_x
_atom_site_fract_y
_atom_site_fract_z
Si Si1 0.515314 0.096610 0.592958
Si Si2 0.298997 0.392566 0.076295
Si Si3 0.340845 0.207137 0.138919
Si Si4 0.830083 0.777231 0.518989
Si Si5 0.885824 0.109022 0.783315
O O1 0.500000 0.070466 0.500000
O O2 0.627698 0.176312 0.487227
O O3 0.569475 0.000000 0.592310
O O4 0.368787 0.126786 0.779694
O O5 0.326065 0.500000 0.085545
O O6 0.371023 0.374555 0.908448
O O7 0.356428 0.317381 0.098441
O O8 0.272713 0.184636 0.304058
O O9 0.246617 0.156127 0.147181
O O10 0.500000 0.165366 0.000000
O O11 0.750000 0.750000 0.500000
O O12 0.963006 0.846676 0.386314
O O13 0.888416 0.000000 0.755296
#
# Coordination Sequence:
#
# PCOD8094493 Si02
#       5
#     8   8   8   8   8
#     4  10  19  37  65  94 125 163 209 263 321 377
#     4  10  21  40  69  97 125 164 208 266 329 379
#     4  12  25  41  66  97 130 170 216 267 319 379
#     4  12  25  41  65  96 129 172 213 262 319 381
#     4  11  25  46  68  92 130 175 216 260 317 383
#
# _framework density 20.935855
#
# number of rings (size 3 to 8) (size 9 to 14) (size 15 to 20)
#    0.000    1.000    4.000    2.400    2.800    3.200 
#    0.000    0.000    0.000    0.000    0.000    0.000 
#    0.000    0.000    0.000    0.000    0.000    0.000 
#
# Total GULP energy -247788.614581 kJ/mol
# GULP energy per Si atom -12389.430729 kJ/mol
# Density = 2.088820 g / cm^3
# Si number density = 20.935855 Si / 1000 Ang^3
#
#
#
# Elastic Constant Matrix: (Units=GPa)
#
#
# Indices 1 2 3 4 5 6 
#
# 1 78.6071 36.7145 38.3487 0.0001 -5.4679 0.0000
# 2 36.7145 101.9473 37.8702 0.0000 -8.6953 0.0000
# 3 38.3487 37.8702 156.1805 0.0001 -2.0540 -0.0001
# 4 0.0001 0.0000 0.0001 22.7171 -0.0001 15.6045
# 5 -5.4679 -8.6953 -2.0540 -0.0001 36.8652 0.0001
# 6 0.0000 0.0000 -0.0001 15.6045 0.0001 5.2454
#
#
#
# Elastic Compliance Matrix: (Units=1/GPa)
#
#
# Indices 1 2 3 4 5 6 
#
# 1 0.016418 -0.004750 -0.002864 0.000000 0.001155 0.000000
# 2 -0.004750 0.012370 -0.001805 0.000000 0.002113 0.000000
# 3 -0.002864 -0.001805 0.007538 0.000000 -0.000431 0.000000
# 4 0.000000 0.000000 0.000000 -0.042186 0.000000 0.125500
# 5 0.001155 0.002113 -0.000431 0.000000 0.027771 0.000001
# 6 0.000000 0.000000 0.000000 0.125500 0.000001 -0.182703
#
#
# Mechanical properties :
#
#
# Convention : Reuss Voigt Hill
#
# Bulk Modulus (GPa) = 57.18536 62.51130 59.84833
# Shear Modulus (GPa) = -36.73148 27.88565 -4.42292
#
# Velocity S-wave (km/s) = -4.19319 3.65356 -1.45506
# Velocity P-wave (km/s) = 1.98243 6.90806 5.08190
#
# Compressibility (1/GPa) = 0.01748699
#
# Stress axis : x y z
#
# Youngs Moduli (GPa) = 60.90963 80.83755 132.65667
#
# Poissons Ratio (x) = 0.38398 0.37996
# Poissons Ratio (y) = 0.28932 0.23950
# Poissons Ratio (z) = 0.17446 0.14595
#
# Static dielectric constant tensor:
#      x y z
#    x 3.525310 0.000000 0.068370 
#    y 0.000000 3.883980 0.000000 
#    z 0.068370 0.000000 3.979800 
# 
# 
# High freq. dielectric constant tensor:
#      x y z
#    x 1.798340 0.000000 0.006880 
#    y 0.000000 1.833540 0.000000 
#    z 0.006880 0.000000 1.837910 
# 
# From -- ./inp_files/58941.got.cif
#   From: 2010.06.25/outbox.cif.g09.slc.cpg/sg12_30_cif.got.tgz:58941.got - 2010.06.28 00:19:55.
