data_PCOD8094004
_publ_section_title
;
Structure prediction by ZEFSAII (Michael W. Deem and Ramdas Pophale) SiO2 
 PCOD8094004
Probable space group: C 2/M
;
_chemical_formula_sum "Si O2"
_cell_formula_units_Z 60
_cell_length_a 27.711810
_cell_length_b 17.242552
_cell_length_c 6.441728
_cell_angle_alpha 90.000000
_cell_angle_beta 110.043997
_cell_angle_gamma 90.000000
_cell_volume 2891.566006
_symmetry_space_group_name_H-M "C 2/M"
_symmetry_group_IT_number 12
_symmetry_cell_setting 'monoclinic'
loop_
_space_group_symop_operation_xyz
x,y,z
-x,y,-z
-x,-y,-z
x,-y,z
1/2+x,1/2+y,z
1/2-x,1/2+y,-z
1/2-x,1/2-y,-z
1/2+x,1/2-y,z
loop_
_atom_site_type_symbol
_atom_site_label
_atom_site_fract_x
_atom_site_fract_y
_atom_site_fract_z
Si Si1 0.058272 0.733392 0.031168
Si Si2 0.295683 0.916425 0.945461
Si Si3 0.815148 0.668252 0.368917
Si Si4 0.112146 0.413694 0.235756
Si Si5 0.226246 0.911829 0.481497
Si Si6 0.975584 0.000000 0.209430
Si Si7 0.366425 0.320751 0.553468
Si Si8 0.944305 0.153752 0.321400
O O1 0.068951 0.641346 0.068189
O O2 0.095103 0.779183 0.236936
O O3 0.069288 0.766180 0.817784
O O4 0.000000 0.751926 0.000000
O O5 0.306567 0.846274 0.114007
O O6 0.295673 0.000000 0.062934
O O7 0.339007 0.916830 0.836958
O O8 0.241768 0.905629 0.747223
O O9 0.865969 0.620549 0.515994
O O10 0.762482 0.644319 0.402409
O O11 0.824845 0.759312 0.406756
O O12 0.088719 0.500000 0.235432
O O13 0.166761 0.886027 0.376669
O O14 0.231557 0.000000 0.407143
O O15 0.943837 0.920073 0.163084
O O16 0.000000 0.000000 0.500000
O O17 0.000000 0.000000 0.000000
O O18 0.400268 0.361031 0.425398
O O19 0.000000 0.166370 0.500000
#
# Coordination Sequence:
#
# PCOD8094004 Si02
#       8
#     8   8   8   8   8   4   8   8
#     4  11  22  40  61  84 122 164 217 266 335 394
#     4   9  17  33  58  81 116 155 197 244 317 391
#     4  10  19  36  61  89 122 164 208 256 330 401
#     4   9  19  34  57  91 122 161 209 264 318 397
#     4  10  22  38  57  86 126 156 204 265 333 396
#     4  10  24  42  72 100 128 176 240 296 350 410
#     4  11  24  38  60  92 122 166 213 274 325 409
#     4  11  23  42  65  87 124 168 224 279 344 398
#
# _framework density 20.750003
#
# number of rings (size 3 to 8) (size 9 to 14) (size 15 to 20)
#    0.000    1.867    1.333    3.600    2.800    1.867 
#    1.200    0.000    0.000    0.400    0.000    0.000 
#    0.000    0.000    0.000    0.000    0.000    0.000 
#
# Total GULP energy -371647.371070 kJ/mol
# GULP energy per Si atom -12388.245702 kJ/mol
# Density = 2.070278 g / cm^3
# Si number density = 20.750003 Si / 1000 Ang^3
#
#
#
# Elastic Constant Matrix: (Units=GPa)
#
#
# Indices 1 2 3 4 5 6 
#
# 1 83.5276 30.9682 10.6449 0.0000 7.3495 0.0000
# 2 30.9682 96.1572 23.7526 0.0000 3.8705 0.0000
# 3 10.6449 23.7526 52.4238 0.0000 -3.7800 0.0000
# 4 0.0000 0.0000 0.0000 31.1431 0.0000 -1.1015
# 5 7.3495 3.8705 -3.7800 0.0000 24.4300 0.0000
# 6 0.0000 0.0000 0.0000 -1.1015 0.0000 28.9094
#
#
#
# Elastic Compliance Matrix: (Units=1/GPa)
#
#
# Indices 1 2 3 4 5 6 
#
# 1 0.013960 -0.004028 -0.001281 0.000000 -0.003759 0.000000
# 2 -0.004028 0.013052 -0.005216 0.000000 -0.001663 0.000000
# 3 -0.001281 -0.005216 0.022032 0.000000 0.004621 0.000000
# 4 0.000000 0.000000 0.000000 0.032153 0.000000 0.001225
# 5 -0.003759 -0.001663 0.004621 0.000000 0.043043 0.000000
# 6 0.000000 0.000000 0.000000 0.001225 0.000000 0.034637
#
#
# Mechanical properties :
#
#
# Convention : Reuss Voigt Hill
#
# Bulk Modulus (GPa) = 35.72124 40.31555 38.01840
# Shear Modulus (GPa) = 26.41908 28.01272 27.21590
#
# Velocity S-wave (km/s) = 3.57208 3.67823 3.62554
# Velocity P-wave (km/s) = 5.85366 6.12459 5.99066
#
# Compressibility (1/GPa) = 0.02799455
#
# Stress axis : x y z
#
# Youngs Moduli (GPa) = 71.63573 76.61497 45.38911
#
# Poissons Ratio (x) = 0.30862 0.05812
# Poissons Ratio (y) = 0.28856 0.23674
# Poissons Ratio (z) = 0.09173 0.39961
#
# Static dielectric constant tensor:
#      x y z
#    x 3.572860 0.000000 -0.338190 
#    y 0.000000 4.223570 0.000000 
#    z -0.338190 0.000000 5.494870 
# 
# 
# High freq. dielectric constant tensor:
#      x y z
#    x 1.794710 0.000000 -0.000420 
#    y 0.000000 1.821970 0.000000 
#    z -0.000420 0.000000 1.806240 
# 
# From -- ./inp_files/32070.got.cif
#   From: 2010.06.25/outbox.cif.g09.slc.cpg/sg12_17_cif.got.tgz:32070.got - 2010.06.28 00:19:55.
