data_PCOD8094542
_publ_section_title
;
Structure prediction by ZEFSAII (Michael W. Deem and Ramdas Pophale) SiO2 
 PCOD8094542
Probable space group: C 2/M
;
_chemical_formula_sum "Si O2"
_cell_formula_units_Z 56
_cell_length_a 23.499528
_cell_length_b 15.050621
_cell_length_c 15.974501
_cell_angle_alpha 90.000000
_cell_angle_beta 30.909981
_cell_angle_gamma 90.000000
_cell_volume 2902.301860
_symmetry_space_group_name_H-M "C 2/M"
_symmetry_group_IT_number 12
_symmetry_cell_setting 'monoclinic'
loop_
_space_group_symop_operation_xyz
x,y,z
-x,y,-z
-x,-y,-z
x,-y,z
1/2+x,1/2+y,z
1/2-x,1/2+y,-z
1/2-x,1/2-y,-z
1/2+x,1/2-y,z
loop_
_atom_site_type_symbol
_atom_site_label
_atom_site_fract_x
_atom_site_fract_y
_atom_site_fract_z
Si Si1 0.859257 0.802157 0.831490
Si Si2 0.864694 0.754763 0.310740
Si Si3 0.723823 0.292268 0.343237
Si Si4 0.488851 0.902451 0.245942
Si Si5 0.550873 0.392798 0.681464
Si Si6 0.276071 0.900645 0.120953
Si Si7 0.466602 0.165214 0.452328
O O1 0.829656 0.876291 0.800821
O O2 0.928066 0.855212 0.815678
O O3 0.938637 0.735912 0.683595
O O4 0.750000 0.750000 0.000000
O O5 0.750000 0.750000 0.500000
O O6 0.832939 0.745651 0.253586
O O7 0.931852 0.671576 0.261963
O O8 0.922455 0.849040 0.261070
O O9 0.642948 0.356759 0.499416
O O10 0.784566 0.343013 0.192884
O O11 0.653530 0.211721 0.392518
O O12 0.462343 0.901121 0.378686
O O13 0.453250 0.000000 0.257639
O O14 0.618814 0.886184 0.071425
O O15 0.552956 0.500000 0.683503
O O16 0.263524 0.000000 0.168669
O O17 0.500000 0.119778 0.500000
#
# Coordination Sequence:
#
# PCOD8094542 Si02
#       7
#     8   8   8   8   8   8   8
#     4  11  19  35  58  82 118 156 193 235 295 356
#     4  10  19  38  58  81 117 153 201 236 293 348
#     4  10  21  36  56  87 118 155 193 235 293 353
#     4  11  23  39  59  86 118 154 199 242 289 348
#     4  10  20  34  58  89 117 152 199 248 291 350
#     4  11  22  35  56  90 123 152 189 241 302 356
#     4  11  20  37  60  85 111 150 199 241 284 343
#
# _framework density 19.295030000000001
#
# number of rings (size 3 to 8) (size 9 to 14) (size 15 to 20)
#    0.000    1.429    7.143    0.857    0.000    3.714 
#    0.000    3.571    0.000    0.000    0.000    5.000 
#    0.000    0.000    0.000    0.000    0.000    0.000 
#
# Total GULP energy -346895.169521 kJ/mol
# GULP energy per Si atom -12389.113197 kJ/mol
# Density = 1.925111 g / cm^3
# Si number density = 19.295030 Si / 1000 Ang^3
#
#
#
# Elastic Constant Matrix: (Units=GPa)
#
#
# Indices 1 2 3 4 5 6 
#
# 1 139.4018 45.2031 18.7621 0.0000 0.2951 0.0000
# 2 45.2031 96.5149 26.0093 0.0000 -9.5984 0.0000
# 3 18.7621 26.0093 35.3474 0.0000 5.5693 0.0000
# 4 0.0000 0.0000 0.0000 25.2688 0.0000 3.4028
# 5 0.2951 -9.5984 5.5693 0.0000 26.8760 0.0000
# 6 0.0000 0.0000 0.0000 3.4028 0.0000 12.4859
#
#
#
# Elastic Compliance Matrix: (Units=1/GPa)
#
#
# Indices 1 2 3 4 5 6 
#
# 1 0.008595 -0.003675 -0.001692 0.000000 -0.001056 0.000000
# 2 -0.003675 0.015824 -0.010947 0.000000 0.007960 0.000000
# 3 -0.001692 -0.010947 0.039135 0.000000 -0.012001 0.000000
# 4 0.000000 0.000000 0.000000 0.041082 0.000000 -0.011196
# 5 -0.001056 0.007960 -0.012001 0.000000 0.042549 0.000000
# 6 0.000000 0.000000 0.000000 -0.011196 0.000000 0.083142
#
#
# Mechanical properties :
#
#
# Convention : Reuss Voigt Hill
#
# Bulk Modulus (GPa) = 32.33523 50.13480 41.23501
# Shear Modulus (GPa) = 18.29739 25.01209 21.65474
#
# Velocity S-wave (km/s) = 3.08278 3.60432 3.35370
# Velocity P-wave (km/s) = 5.42827 6.58492 6.03437
#
# Compressibility (1/GPa) = 0.03092602
#
# Stress axis : x y z
#
# Youngs Moduli (GPa) = 116.34669 63.19576 25.55280
#
# Poissons Ratio (x) = 0.23222 0.04323
# Poissons Ratio (y) = 0.42753 0.27973
# Poissons Ratio (z) = 0.19685 0.69182
#
# Static dielectric constant tensor:
#      x y z
#    x 0.000000 0.000000 0.000000 
#    y 0.000000 0.000000 0.000000 
#    z 0.000000 0.000000 0.000000 
# 
# 
# High freq. dielectric constant tensor:
#      x y z
#    x 1.764880 0.000000 -0.011810 
#    y 0.000000 1.741170 0.000000 
#    z -0.011810 0.000000 1.733950 
# 
# From -- ./inp_files/240861.got.cif
#   From: 2010.06.25/outbox.cif.g09.slc.cpg/sg12_121_cif.got.tgz:240861.got - 2010.06.28 00:19:55.
