data_PCOD8094202
_publ_section_title
;
Structure prediction by ZEFSAII (Michael W. Deem and Ramdas Pophale) SiO2 
 PCOD8094202
Probable space group: C 2/M
;
_chemical_formula_sum "Si O2"
_cell_formula_units_Z 56
_cell_length_a 19.192112
_cell_length_b 18.458773
_cell_length_c 14.533732
_cell_angle_alpha 90.000000
_cell_angle_beta 34.173549
_cell_angle_gamma 90.000000
_cell_volume 2892.066815
_symmetry_space_group_name_H-M "C 2/M"
_symmetry_group_IT_number 12
_symmetry_cell_setting 'monoclinic'
loop_
_space_group_symop_operation_xyz
x,y,z
-x,y,-z
-x,-y,-z
x,-y,z
1/2+x,1/2+y,z
1/2-x,1/2+y,-z
1/2-x,1/2-y,-z
1/2+x,1/2-y,z
loop_
_atom_site_type_symbol
_atom_site_label
_atom_site_fract_x
_atom_site_fract_y
_atom_site_fract_z
Si Si1 0.689110 0.419399 0.338176
Si Si2 0.934408 0.918683 0.718161
Si Si3 0.364464 0.288107 0.922689
Si Si4 0.088791 0.696926 0.623810
Si Si5 0.135809 0.837969 0.870349
Si Si6 0.218310 0.709609 0.666193
Si Si7 0.892120 0.585060 0.545849
O O1 0.747226 0.500000 0.279290
O O2 0.576772 0.413795 0.532844
O O3 0.649204 0.400988 0.278673
O O4 0.788614 0.359288 0.258628
O O5 0.903457 0.862935 0.832076
O O6 0.906058 0.000000 0.785452
O O7 0.466297 0.226288 0.803919
O O8 0.250000 0.250000 0.000000
O O9 0.341265 0.306310 0.053740
O O10 0.184332 0.682303 0.601810
O O11 0.143382 0.755739 0.491496
O O12 0.066842 0.621820 0.594679
O O13 0.130596 0.772214 0.802572
O O14 0.251989 0.891466 0.726494
O O15 0.000000 0.875888 0.000000
O O16 0.890705 0.500000 0.531524
O O17 0.000000 0.607306 0.500000
#
# Coordination Sequence:
#
# PCOD8094202 Si02
#       7
#     8   8   8   8   8   8   8
#     4   9  17  32  57  84 110 147 190 241 297 345
#     4   9  19  34  53  83 117 145 191 248 293 346
#     4  12  22  36  58  90 118 158 203 247 307 370
#     4  10  21  36  59  84 110 154 203 246 290 353
#     4  11  23  39  61  90 126 160 197 258 319 362
#     4  10  19  37  58  81 119 149 191 250 294 358
#     4  10  23  43  63  87 122 166 211 253 303 370
#
# _framework density 19.363315
#
# number of rings (size 3 to 8) (size 9 to 14) (size 15 to 20)
#    0.000    1.857    2.857    2.571    0.000    2.571 
#    0.000    2.143    0.000    1.286    0.000    0.000 
#    0.000    0.000    0.000    0.000    0.000    0.000 
#
# Total GULP energy -347073.643353 kJ/mol
# GULP energy per Si atom -12395.487263 kJ/mol
# Density = 1.931924 g / cm^3
# Si number density = 19.363315 Si / 1000 Ang^3
#
#
#
# Elastic Constant Matrix: (Units=GPa)
#
#
# Indices 1 2 3 4 5 6 
#
# 1 86.9874 47.1854 14.7111 0.0003 4.0364 -0.0002
# 2 47.1854 101.1054 23.8187 0.0001 2.3049 -0.0001
# 3 14.7111 23.8187 47.5278 0.0002 5.3102 -0.0001
# 4 0.0003 0.0001 0.0002 23.4946 -0.0002 4.3837
# 5 4.0364 2.3049 5.3102 -0.0002 36.3818 0.0001
# 6 -0.0002 -0.0001 -0.0001 4.3837 0.0001 27.4289
#
#
#
# Elastic Compliance Matrix: (Units=1/GPa)
#
#
# Indices 1 2 3 4 5 6 
#
# 1 0.015510 -0.006929 -0.001204 0.000000 -0.001106 0.000000
# 2 -0.006929 0.014311 -0.005095 0.000000 0.000606 0.000000
# 3 -0.001204 -0.005095 0.024312 0.000000 -0.003092 0.000000
# 4 0.000000 0.000000 0.000000 0.043871 0.000000 -0.007011
# 5 -0.001106 0.000606 -0.003092 0.000000 0.028022 0.000000
# 6 0.000000 0.000000 0.000000 -0.007011 0.000000 0.037578
#
#
# Mechanical properties :
#
#
# Convention : Reuss Voigt Hill
#
# Bulk Modulus (GPa) = 36.13327 45.22787 40.68057
# Shear Modulus (GPa) = 25.08949 27.45474 26.27212
#
# Velocity S-wave (km/s) = 3.60352 3.76955 3.68747
# Velocity P-wave (km/s) = 6.00125 6.50801 6.25976
#
# Compressibility (1/GPa) = 0.02767532
#
# Stress axis : x y z
#
# Youngs Moduli (GPa) = 64.47593 69.87629 41.13212
#
# Poissons Ratio (x) = 0.48420 0.04954
# Poissons Ratio (y) = 0.44677 0.20956
# Poissons Ratio (z) = 0.07766 0.35601
#
# Static dielectric constant tensor:
#      x y z
#    x 3.407100 0.000000 0.087180 
#    y 0.000000 3.706860 0.000000 
#    z 0.087180 0.000000 3.417100 
# 
# 
# High freq. dielectric constant tensor:
#      x y z
#    x 1.757590 0.000000 0.005480 
#    y 0.000000 1.751570 0.000000 
#    z 0.005480 0.000000 1.743350 
# 
# From -- ./inp_files/226576.got.cif
#   From: 2010.06.25/outbox.cif.g09.slc.cpg/sg12_114_cif.got.tgz:226576.got - 2010.06.28 00:19:55.
