data_PCOD8094149
_publ_section_title
;
Structure prediction by ZEFSAII (Michael W. Deem and Ramdas Pophale) SiO2 
 PCOD8094149
Probable space group: C 2/M
;
_chemical_formula_sum "Si O2"
_cell_formula_units_Z 48
_cell_length_a 30.183921
_cell_length_b 7.592427
_cell_length_c 18.688955
_cell_angle_alpha 90.000000
_cell_angle_beta 33.340578
_cell_angle_gamma 90.000000
_cell_volume 2353.962673
_symmetry_space_group_name_H-M "C 2/M"
_symmetry_group_IT_number 12
_symmetry_cell_setting 'monoclinic'
loop_
_space_group_symop_operation_xyz
x,y,z
-x,y,-z
-x,-y,-z
x,-y,z
1/2+x,1/2+y,z
1/2-x,1/2+y,-z
1/2-x,1/2-y,-z
1/2+x,1/2-y,z
loop_
_atom_site_type_symbol
_atom_site_label
_atom_site_fract_x
_atom_site_fract_y
_atom_site_fract_z
Si Si1 0.229304 0.294330 0.808166
Si Si2 0.701775 0.294538 0.135729
Si Si3 0.126360 0.204460 0.495255
Si Si4 0.976112 0.790050 0.609772
Si Si5 0.840535 0.304344 0.393709
Si Si6 0.386711 0.500000 0.089455
Si Si7 0.571492 0.500000 0.804615
O O1 0.203659 0.500000 0.841811
O O2 0.250986 0.224471 0.858452
O O3 0.306659 0.260633 0.654861
O O4 0.155521 0.178284 0.879931
O O5 0.691427 0.500000 0.160299
O O6 0.611909 0.213383 0.250994
O O7 0.750000 0.250000 0.000000
O O8 0.147145 0.311457 0.537943
O O9 0.041021 0.275122 0.580412
O O10 0.122027 0.000000 0.521561
O O11 0.000000 0.715210 0.500000
O O12 0.977256 0.000000 0.606215
O O13 0.855834 0.500000 0.342362
O O14 0.750000 0.250000 0.500000
O O15 0.902883 0.174257 0.272157
O O16 0.386189 0.500000 0.175708
O O17 0.475806 0.500000 0.937710
#
# Coordination Sequence:
#
# PCOD8094149 Si02
#       7
#     8   8   8   8   8   4   4
#     4  10  22  40  66  95 126 172 221 264 324 390
#     4  10  21  37  58  89 127 170 219 266 322 387
#     4  10  19  36  65  96 129 169 218 270 331 389
#     4   9  16  33  59  86 121 164 213 268 317 378
#     4  12  24  42  68  98 136 165 208 272 329 389
#     4  11  26  44  72  89 133 172 219 265 316 402
#     4  11  26  48  64 102 128 170 216 263 330 392
#
# _framework density 20.391147
#
# number of rings (size 3 to 8) (size 9 to 14) (size 15 to 20)
#    0.000    1.667    3.333    1.000    2.333    4.000 
#    0.000    4.167    0.000    2.000    0.000    0.000 
#    0.000    0.000    0.000    0.000    0.000    0.000 
#
# Total GULP energy -297637.370265 kJ/mol
# GULP energy per Si atom -12401.557094 kJ/mol
# Density = 2.034474 g / cm^3
# Si number density = 20.391147 Si / 1000 Ang^3
#
#
#
# Elastic Constant Matrix: (Units=GPa)
#
#
# Indices 1 2 3 4 5 6 
#
# 1 174.1695 43.4241 78.6210 -0.0065 -5.7297 -0.0002
# 2 43.4241 101.6107 39.5278 -0.0158 -3.6120 0.0033
# 3 78.6210 39.5278 140.3971 -0.0230 0.5853 -0.0095
# 4 -0.0065 -0.0158 -0.0230 24.0778 0.0059 0.8211
# 5 -5.7297 -3.6120 0.5853 0.0059 38.0009 0.0006
# 6 -0.0002 0.0033 -0.0095 0.8211 0.0006 22.8247
#
#
#
# Elastic Compliance Matrix: (Units=1/GPa)
#
#
# Indices 1 2 3 4 5 6 
#
# 1 0.008037 -0.001845 -0.003986 -0.000003 0.001098 -0.000001
# 2 -0.001845 0.011522 -0.002214 0.000005 0.000851 -0.000003
# 3 -0.003986 -0.002214 0.009982 0.000007 -0.000965 0.000004
# 4 -0.000003 0.000005 0.000007 0.041583 -0.000007 -0.001496
# 5 0.001098 0.000851 -0.000965 -0.000007 0.026576 -0.000001
# 6 -0.000001 -0.000003 0.000004 -0.001496 -0.000001 0.043866
#
#
# Mechanical properties :
#
#
# Convention : Reuss Voigt Hill
#
# Bulk Modulus (GPa) = 74.34603 82.14704 78.24653
# Shear Modulus (GPa) = 30.83772 33.95431 32.39602
#
# Velocity S-wave (km/s) = 3.89306 4.08505 3.99021
# Velocity P-wave (km/s) = 7.53306 7.91349 7.72562
#
# Compressibility (1/GPa) = 0.01345062
#
# Stress axis : x y z
#
# Youngs Moduli (GPa) = 124.42750 86.79366 100.18065
#
# Poissons Ratio (x) = 0.16014 0.39928
# Poissons Ratio (y) = 0.22958 0.22181
# Poissons Ratio (z) = 0.49592 0.19217
#
# Static dielectric constant tensor:
#      x y z
#    x 3.922780 -0.000010 -0.072260 
#    y -0.000010 3.977730 0.000200 
#    z -0.072260 0.000200 3.593850 
# 
# 
# High freq. dielectric constant tensor:
#      x y z
#    x 1.812560 0.000000 -0.001150 
#    y 0.000000 1.790030 0.000010 
#    z -0.001150 0.000010 1.792560 
# 
# From -- ./inp_files/295388.got.cif
#   From: 2010.06.25/outbox.cif.g09.slc.cpg/sg12_148_cif.got.tgz:295388.got - 2010.06.28 00:19:55.
