data_PCOD8094834
_publ_section_title
;
Structure prediction by ZEFSAII (Michael W. Deem and Ramdas Pophale) SiO2 
 PCOD8094834
Probable space group: C 2/M
;
_chemical_formula_sum "Si O2"
_cell_formula_units_Z 60
_cell_length_a 18.226678
_cell_length_b 19.895251
_cell_length_c 8.324510
_cell_angle_alpha 90.000000
_cell_angle_beta 71.087843
_cell_angle_gamma 90.000000
_cell_volume 2855.711855
_symmetry_space_group_name_H-M "C 2/M"
_symmetry_group_IT_number 12
_symmetry_cell_setting 'monoclinic'
loop_
_space_group_symop_operation_xyz
x,y,z
-x,y,-z
-x,-y,-z
x,-y,z
1/2+x,1/2+y,z
1/2-x,1/2+y,-z
1/2-x,1/2-y,-z
1/2+x,1/2-y,z
loop_
_atom_site_type_symbol
_atom_site_label
_atom_site_fract_x
_atom_site_fract_y
_atom_site_fract_z
Si Si1 0.067877 0.624264 0.557294
Si Si2 0.043483 0.777437 0.632636
Si Si3 0.419283 0.075913 0.110366
Si Si4 0.500000 0.653501 0.000000
Si Si5 0.795373 0.190217 0.614719
Si Si6 0.341900 0.576138 0.115255
Si Si7 0.222387 0.333618 0.356628
Si Si8 0.252304 0.076026 0.140026
O O1 0.040985 0.696938 0.641821
O O2 0.088124 0.577186 0.692440
O O3 0.141863 0.627544 0.384072
O O4 0.000000 0.590871 0.500000
O O5 0.009220 0.803631 0.828248
O O6 0.129745 0.805165 0.552267
O O7 0.000000 0.802292 0.500000
O O8 0.340708 0.105650 0.083518
O O9 0.423818 0.000000 0.044936
O O10 0.500000 0.112962 0.000000
O O11 0.425999 0.606247 0.018709
O O12 0.781297 0.259768 0.726863
O O13 0.721704 0.181273 0.549360
O O14 0.803448 0.125769 0.722323
O O15 0.352554 0.500000 0.171529
O O16 0.298672 0.622857 0.273133
O O17 0.281790 0.576706 0.012057
O O18 0.249633 0.000000 0.213896
#
# Coordination Sequence:
#
# PCOD8094834 Si02
#       8
#     8   8   8   4   8   8   8   8
#     4  10  22  39  60  89 121 158 203 257 311 376
#     4  10  22  40  62  94 129 159 208 262 314 383
#     4  10  22  38  55  81 118 158 202 251 306 373
#     4  12  23  42  68  92 125 174 204 264 333 364
#     4  10  19  40  62  86 120 154 208 255 305 376
#     4  11  25  42  61  92 127 162 213 263 314 382
#     4  10  21  38  62  86 120 159 196 261 309 362
#     4  10  22  40  62  88 123 164 207 257 311 377
#
# _framework density 21.010524
#
# number of rings (size 3 to 8) (size 9 to 14) (size 15 to 20)
#    0.000    1.733    2.667    1.000    2.800    1.867 
#    0.000    0.000    0.000    2.800    0.000    0.000 
#    0.000    0.000    0.000    0.000    0.000    0.000 
#
# Total GULP energy -371700.096496 kJ/mol
# GULP energy per Si atom -12390.003217 kJ/mol
# Density = 2.096270 g / cm^3
# Si number density = 21.010524 Si / 1000 Ang^3
#
#
#
# Elastic Constant Matrix: (Units=GPa)
#
#
# Indices 1 2 3 4 5 6 
#
# 1 121.3948 9.8371 29.4099 0.0000 -7.8344 0.0000
# 2 9.8371 70.3183 35.4907 0.0000 -10.4558 0.0000
# 3 29.4099 35.4907 81.9467 0.0000 -9.7392 0.0000
# 4 0.0000 0.0000 0.0000 25.3017 0.0000 3.9077
# 5 -7.8344 -10.4558 -9.7392 0.0000 37.6176 0.0000
# 6 0.0000 0.0000 0.0000 3.9077 0.0000 19.9157
#
#
#
# Elastic Compliance Matrix: (Units=1/GPa)
#
#
# Indices 1 2 3 4 5 6 
#
# 1 0.009085 0.000614 -0.003385 0.000000 0.001186 0.000000
# 2 0.000614 0.018601 -0.007890 0.000000 0.003256 0.000000
# 3 -0.003385 -0.007890 0.017014 0.000000 0.001507 0.000000
# 4 0.000000 0.000000 0.000000 0.040758 0.000000 -0.007997
# 5 0.001186 0.003256 0.001507 0.000000 0.028125 0.000000
# 6 0.000000 0.000000 0.000000 -0.007997 0.000000 0.051781
#
#
# Mechanical properties :
#
#
# Convention : Reuss Voigt Hill
#
# Bulk Modulus (GPa) = 42.77487 47.01501 44.89494
# Shear Modulus (GPa) = 25.70979 29.82848 27.76914
#
# Velocity S-wave (km/s) = 3.50188 3.77197 3.63943
# Velocity P-wave (km/s) = 6.06250 6.43396 6.25099
#
# Compressibility (1/GPa) = 0.02337821
#
# Stress axis : x y z
#
# Youngs Moduli (GPa) = 110.07721 53.75997 58.77488
#
# Poissons Ratio (x) = -0.03302 0.19897
# Poissons Ratio (y) = -0.06760 0.46371
# Poissons Ratio (z) = 0.37265 0.42414
#
# Static dielectric constant tensor:
#      x y z
#    x 4.029380 0.000000 -0.086030 
#    y 0.000000 3.855090 0.000000 
#    z -0.086030 0.000000 3.486370 
# 
# 
# High freq. dielectric constant tensor:
#      x y z
#    x 1.845550 0.000000 -0.006920 
#    y 0.000000 1.814830 0.000000 
#    z -0.006920 0.000000 1.796430 
# 
# From -- ./inp_files/78009.got.cif
#   From: 2010.06.25/outbox.cif.g09.slc.cpg/sg12_40_cif.got.tgz:78009.got - 2010.06.28 00:19:55.
