data_PCOD8094737
_publ_section_title
;
Structure prediction by ZEFSAII (Michael W. Deem and Ramdas Pophale) SiO2 
 PCOD8094737
Probable space group: C 2/M
;
_chemical_formula_sum "Si O2"
_cell_formula_units_Z 64
_cell_length_a 24.365480
_cell_length_b 18.197130
_cell_length_c 9.772403
_cell_angle_alpha 90.000000
_cell_angle_beta 52.830678
_cell_angle_gamma 90.000000
_cell_volume 3452.691184
_symmetry_space_group_name_H-M "C 2/M"
_symmetry_group_IT_number 12
_symmetry_cell_setting 'monoclinic'
loop_
_space_group_symop_operation_xyz
x,y,z
-x,y,-z
-x,-y,-z
x,-y,z
1/2+x,1/2+y,z
1/2-x,1/2+y,-z
1/2-x,1/2-y,-z
1/2+x,1/2-y,z
loop_
_atom_site_type_symbol
_atom_site_label
_atom_site_fract_x
_atom_site_fract_y
_atom_site_fract_z
Si Si1 0.065117 0.683845 0.641252
Si Si2 0.312212 0.085757 0.617801
Si Si3 0.589594 0.204080 0.148715
Si Si4 0.923524 0.772401 0.120118
Si Si5 0.693400 0.082468 0.060803
Si Si6 0.421305 0.693986 0.588916
Si Si7 0.187136 0.915913 0.331708
Si Si8 0.714271 0.329512 0.562470
O O1 0.110912 0.614473 0.530718
O O2 0.070603 0.699127 0.795014
O O3 0.091347 0.757550 0.527199
O O4 0.986570 0.670523 0.714114
O O5 0.292776 0.104530 0.803055
O O6 0.255608 0.123335 0.609433
O O7 0.311875 0.000000 0.587091
O O8 0.638720 0.134782 0.072353
O O9 0.610233 0.260595 0.237080
O O10 0.599144 0.248371 0.995295
O O11 0.865252 0.826337 0.267918
O O12 0.000000 0.810592 0.000000
O O13 0.663513 0.000000 0.098782
O O14 0.763312 0.089219 0.872443
O O15 0.500000 0.674529 0.500000
O O16 0.383975 0.617209 0.617499
O O17 0.218263 0.869602 0.410471
O O18 0.175198 0.000000 0.396205
O O19 0.750000 0.250000 0.500000
#
# Coordination Sequence:
#
# PCOD8094737 Si02
#       8
#     8   8   8   8   8   8   8   8
#     4  10  19  39  57  88 117 146 195 239 286 343
#     4  11  23  38  57  84 119 155 194 239 285 346
#     4  10  21  35  61  88 116 151 191 241 289 343
#     4  10  21  37  60  89 117 145 192 250 289 336
#     4  10  23  39  55  83 122 155 191 237 290 348
#     4  10  20  37  62  86 111 145 194 244 282 339
#     4  11  24  41  59  84 119 154 191 240 296 350
#     4  12  22  39  64  86 113 154 200 240 286 345
#
# _framework density 18.536265
#
# number of rings (size 3 to 8) (size 9 to 14) (size 15 to 20)
#    0.000    1.500    3.750    1.125    1.750    1.250 
#    0.000    1.250    0.000    3.750    0.000    0.000 
#    0.000    0.000    0.000    0.000    0.000    0.000 
#
# Total GULP energy -396837.660498 kJ/mol
# GULP energy per Si atom -12401.176891 kJ/mol
# Density = 1.849408 g / cm^3
# Si number density = 18.536265 Si / 1000 Ang^3
#
#
#
# Elastic Constant Matrix: (Units=GPa)
#
#
# Indices 1 2 3 4 5 6 
#
# 1 81.0663 44.4043 24.4533 0.0000 -0.4271 0.0000
# 2 44.4043 93.6860 27.5912 0.0000 -10.1939 0.0000
# 3 24.4533 27.5912 87.4848 0.0000 1.7370 0.0000
# 4 0.0000 0.0000 0.0000 26.6697 0.0000 -2.7266
# 5 -0.4271 -10.1939 1.7370 0.0000 30.2732 0.0000
# 6 0.0000 0.0000 0.0000 -2.7266 0.0000 23.6072
#
#
#
# Elastic Compliance Matrix: (Units=1/GPa)
#
#
# Indices 1 2 3 4 5 6 
#
# 1 0.017269 -0.007737 -0.002342 0.000000 -0.002227 0.000000
# 2 -0.007737 0.015787 -0.002923 0.000000 0.005374 0.000000
# 3 -0.002342 -0.002923 0.013042 0.000000 -0.001766 0.000000
# 4 0.000000 0.000000 0.000000 0.037944 0.000000 0.004383
# 5 -0.002227 0.005374 -0.001766 0.000000 0.034912 0.000000
# 6 0.000000 0.000000 0.000000 0.004383 0.000000 0.042866
#
#
# Mechanical properties :
#
#
# Convention : Reuss Voigt Hill
#
# Bulk Modulus (GPa) = 49.77009 50.57050 50.17030
# Shear Modulus (GPa) = 25.70401 27.16257 26.43329
#
# Velocity S-wave (km/s) = 3.72787 3.83217 3.78038
# Velocity P-wave (km/s) = 6.74075 6.84996 6.79557
#
# Compressibility (1/GPa) = 0.02009239
#
# Stress axis : x y z
#
# Youngs Moduli (GPa) = 57.90878 63.34411 76.67430
#
# Poissons Ratio (x) = 0.49011 0.17960
# Poissons Ratio (y) = 0.44806 0.22411
# Poissons Ratio (z) = 0.13564 0.18515
#
# Static dielectric constant tensor:
#      x y z
#    x 3.478320 0.000000 0.041250 
#    y 0.000000 3.297720 0.000000 
#    z 0.041250 0.000000 3.643330 
# 
# 
# High freq. dielectric constant tensor:
#      x y z
#    x 1.731240 0.000000 0.008330 
#    y 0.000000 1.698560 0.000000 
#    z 0.008330 0.000000 1.734530 
# 
# From -- ./inp_files/99068.got.cif
#   From: 2010.06.25/outbox.cif.g09.slc.cpg/sg12_50_cif.got.tgz:99068.got - 2010.06.28 00:19:55.
