data_PCOD8094858
_publ_section_title
;
Structure prediction by ZEFSAII (Michael W. Deem and Ramdas Pophale) SiO2 
 PCOD8094858
Probable space group: C 2/M
;
_chemical_formula_sum "Si O2"
_cell_formula_units_Z 48
_cell_length_a 28.756730
_cell_length_b 17.561013
_cell_length_c 9.671747
_cell_angle_alpha 90.000000
_cell_angle_beta 28.840673
_cell_angle_gamma 90.000000
_cell_volume 2356.022016
_symmetry_space_group_name_H-M "C 2/M"
_symmetry_group_IT_number 12
_symmetry_cell_setting 'monoclinic'
loop_
_space_group_symop_operation_xyz
x,y,z
-x,y,-z
-x,-y,-z
x,-y,z
1/2+x,1/2+y,z
1/2-x,1/2+y,-z
1/2-x,1/2-y,-z
1/2+x,1/2-y,z
loop_
_atom_site_type_symbol
_atom_site_label
_atom_site_fract_x
_atom_site_fract_y
_atom_site_fract_z
Si Si1 0.609053 0.351020 0.752735
Si Si2 0.900535 0.145012 0.706335
Si Si3 0.152031 0.703097 0.246495
Si Si4 0.895099 0.322192 0.316921
Si Si5 0.789382 0.090740 0.250491
Si Si6 0.722032 0.587160 0.214199
O O1 0.623317 0.261519 0.695199
O O2 0.632287 0.373639 0.849389
O O3 0.688765 0.395709 0.456145
O O4 0.500000 0.376136 0.000000
O O5 0.918728 0.236560 0.644305
O O6 0.870118 0.110496 0.638528
O O7 0.000000 0.107677 0.500000
O O8 0.815371 0.122430 0.031771
O O9 0.110538 0.677900 0.502109
O O10 0.250000 0.750000 0.000000
O O11 0.177876 0.630079 0.085158
O O12 0.818757 0.378701 0.443133
O O13 0.000000 0.352273 0.000000
O O14 0.791343 0.000000 0.251925
O O15 0.747988 0.500000 0.128466
#
# Coordination Sequence:
#
# PCOD8094858 Si02
#       6
#     8   8   8   8   8   8
#     4  11  23  40  63  92 127 165 207 251 310 377
#     4  11  22  37  63  91 122 158 201 257 308 368
#     4  10  19  41  62  89 119 157 209 255 300 363
#     4  11  23  42  67  90 120 167 217 256 305 363
#     4  12  25  40  61  95 131 162 205 258 313 370
#     4  11  21  38  63  86 123 166 197 247 314 367
#
# _framework density 20.373324
#
# number of rings (size 3 to 8) (size 9 to 14) (size 15 to 20)
#    0.000    1.000    6.667    2.500    2.333    4.333 
#    0.000    0.000    0.000    0.500    0.000    0.000 
#    0.000    0.000    0.000    0.000    0.000    0.000 
#
# Total GULP energy -297583.195109 kJ/mol
# GULP energy per Si atom -12399.299796 kJ/mol
# Density = 2.032695 g / cm^3
# Si number density = 20.373324 Si / 1000 Ang^3
#
#
#
# Elastic Constant Matrix: (Units=GPa)
#
#
# Indices 1 2 3 4 5 6 
#
# 1 55.2526 17.8197 17.9764 0.0000 -7.7739 0.0000
# 2 17.8197 116.1193 21.1305 0.0000 1.6404 0.0000
# 3 17.9764 21.1305 101.5766 0.0000 2.1508 0.0000
# 4 0.0000 0.0000 0.0000 18.1926 0.0000 -3.3994
# 5 -7.7739 1.6404 2.1508 0.0000 26.1684 0.0000
# 6 0.0000 0.0000 0.0000 -3.3994 0.0000 7.9993
#
#
#
# Elastic Compliance Matrix: (Units=1/GPa)
#
#
# Indices 1 2 3 4 5 6 
#
# 1 0.020984 -0.002716 -0.003290 0.000000 0.006674 0.000000
# 2 -0.002716 0.009307 -0.001428 0.000000 -0.001273 0.000000
# 3 -0.003290 -0.001428 0.010762 0.000000 -0.001772 0.000000
# 4 0.000000 0.000000 0.000000 0.059709 0.000000 0.025374
# 5 0.006674 -0.001273 -0.001772 0.000000 0.040422 0.000000
# 6 0.000000 0.000000 0.000000 0.025374 0.000000 0.135795
#
#
# Mechanical properties :
#
#
# Convention : Reuss Voigt Hill
#
# Bulk Modulus (GPa) = 38.19154 42.97798 40.58476
# Shear Modulus (GPa) = 16.63482 24.87352 20.75417
#
# Velocity S-wave (km/s) = 2.86055 3.49791 3.19516
# Velocity P-wave (km/s) = 5.44948 6.12004 5.79447
#
# Compressibility (1/GPa) = 0.02618381
#
# Stress axis : x y z
#
# Youngs Moduli (GPa) = 47.65524 107.45166 92.92207
#
# Poissons Ratio (x) = 0.29182 0.30571
# Poissons Ratio (y) = 0.12942 0.13273
# Poissons Ratio (z) = 0.15679 0.15348
#
# Static dielectric constant tensor:
#      x y z
#    x 3.674850 0.000000 -0.002700 
#    y 0.000000 4.030650 0.000000 
#    z -0.002700 0.000000 3.832070 
# 
# 
# High freq. dielectric constant tensor:
#      x y z
#    x 1.785030 0.000000 0.010950 
#    y 0.000000 1.790540 0.000000 
#    z 0.010950 0.000000 1.800760 
# 
# From -- ./inp_files/112723.got.cif
#   From: 2010.06.25/outbox.cif.g09.slc.cpg/sg12_57_cif.got.tgz:112723.got - 2010.06.28 00:19:55.
