data_PCOD8094490
_publ_section_title
;
Structure prediction by ZEFSAII (Michael W. Deem and Ramdas Pophale) SiO2 
 PCOD8094490
Probable space group: C 2/M
;
_chemical_formula_sum "Si O2"
_cell_formula_units_Z 56
_cell_length_a 19.195687
_cell_length_b 15.411516
_cell_length_c 15.867849
_cell_angle_alpha 90.000000
_cell_angle_beta 30.174676
_cell_angle_gamma 90.000000
_cell_volume 2359.512660
_symmetry_space_group_name_H-M "C 2/M"
_symmetry_group_IT_number 12
_symmetry_cell_setting 'monoclinic'
loop_
_space_group_symop_operation_xyz
x,y,z
-x,y,-z
-x,-y,-z
x,-y,z
1/2+x,1/2+y,z
1/2-x,1/2+y,-z
1/2-x,1/2-y,-z
1/2+x,1/2-y,z
loop_
_atom_site_type_symbol
_atom_site_label
_atom_site_fract_x
_atom_site_fract_y
_atom_site_fract_z
Si Si1 0.891889 0.669289 0.997746
Si Si2 0.975151 0.289779 0.427168
Si Si3 0.159983 0.405244 0.770820
Si Si4 0.207309 0.903171 0.714400
Si Si5 0.675921 0.904197 0.106551
Si Si6 0.901909 0.131794 0.990782
Si Si7 0.028752 0.905629 0.568463
O O1 0.814901 0.633952 0.996422
O O2 0.058514 0.656109 0.822675
O O3 0.824354 0.623845 0.148850
O O4 0.860260 0.768902 0.039362
O O5 0.819042 0.327562 0.575084
O O6 0.011472 0.191065 0.356028
O O7 0.000000 0.297748 0.500000
O O8 0.079871 0.349108 0.267728
O O9 0.091119 0.500000 0.840095
O O10 0.310456 0.406809 0.574293
O O11 0.166331 0.909780 0.855296
O O12 0.262380 0.000000 0.631646
O O13 0.066336 0.882712 0.810550
O O14 0.831660 0.908014 0.980776
O O15 0.612200 0.000000 0.167997
O O16 0.000000 0.906740 0.500000
O O17 0.966860 0.000000 0.668832
#
# Coordination Sequence:
#
# PCOD8094490 Si02
#       7
#     8   8   8   8   8   8   8
#     4  11  22  38  63  90 122 160 210 261 314 366
#     4  11  22  38  65  93 124 166 213 255 306 376
#     4  10  19  37  65  92 117 155 209 258 311 376
#     4  11  21  38  65  96 128 169 213 254 304 371
#     4  12  25  41  61  92 131 168 209 263 316 368
#     4  11  22  38  60  89 126 167 208 258 308 367
#     4   9  19  36  61  91 122 158 204 258 313 371
#
# _framework density 23.733713999999999
#
# number of rings (size 3 to 8) (size 9 to 14) (size 15 to 20)
#    0.000    1.286    1.429    7.714    2.000    0.571 
#    0.000    2.857    0.000    3.429    0.000    0.000 
#    0.000    0.000    0.000    0.000    0.000    0.000 
#
# Total GULP energy -346898.150954 kJ/mol
# GULP energy per Si atom -12389.219677 kJ/mol
# Density = 2.367969 g / cm^3
# Si number density = 23.733714 Si / 1000 Ang^3
#
#
#
# Elastic Constant Matrix: (Units=GPa)
#
#
# Indices 1 2 3 4 5 6 
#
# 1 122.5577 8.0505 25.2460 -0.0004 -13.4227 -0.0001
# 2 8.0505 155.0762 30.6250 -0.0011 4.0763 -0.0002
# 3 25.2460 30.6250 37.5840 -0.0008 -21.4750 -0.0001
# 4 -0.0004 -0.0011 -0.0008 35.2035 0.0009 1.5122
# 5 -13.4227 4.0763 -21.4750 0.0009 25.4276 0.0002
# 6 -0.0001 -0.0002 -0.0001 1.5122 0.0002 38.1320
#
#
#
# Elastic Compliance Matrix: (Units=1/GPa)
#
#
# Indices 1 2 3 4 5 6 
#
# 1 0.009671 0.001446 -0.009450 0.000000 -0.003108 0.000000
# 2 0.001446 0.010771 -0.019903 0.000000 -0.017773 0.000000
# 3 -0.009450 -0.019903 0.093047 0.000000 0.076785 0.000000
# 4 0.000000 0.000000 0.000000 0.028455 -0.000001 -0.001128
# 5 -0.003108 -0.017773 0.076785 -0.000001 0.105385 0.000000
# 6 0.000000 0.000000 0.000000 -0.001128 0.000000 0.026269
#
#
# Mechanical properties :
#
#
# Convention : Reuss Voigt Hill
#
# Bulk Modulus (GPa) = 17.33870 49.22899 33.28385
# Shear Modulus (GPa) = 14.34156 36.50572 25.42364
#
# Velocity S-wave (km/s) = 2.46086 3.92616 3.27648
# Velocity P-wave (km/s) = 3.92375 6.42964 5.32616
#
# Compressibility (1/GPa) = 0.05767444
#
# Stress axis : x y z
#
# Youngs Moduli (GPa) = 103.40514 92.84133 10.74727
#
# Poissons Ratio (x) = -0.13424 0.10156
# Poissons Ratio (y) = -0.14951 0.21390
# Poissons Ratio (z) = 0.97718 1.84782
#
# Static dielectric constant tensor:
#      x y z
#    x 4.082680 0.000000 -0.146840 
#    y 0.000000 5.003360 0.000000 
#    z -0.146840 0.000000 3.621280 
# 
# 
# High freq. dielectric constant tensor:
#      x y z
#    x 1.927870 0.000000 -0.033200 
#    y 0.000000 1.973320 0.000000 
#    z -0.033200 0.000000 1.913370 
# 
# From -- ./inp_files/277816.got.cif
#   From: 2010.06.25/outbox.cif.g09.slc.cpg/sg12_139_cif.got.tgz:277816.got - 2010.06.28 00:19:55.
