data_PCOD8094897
_publ_section_title
;
Structure prediction by ZEFSAII (Michael W. Deem and Ramdas Pophale) SiO2 
 PCOD8094897
Probable space group: C 2/M
;
_chemical_formula_sum "Si O2"
_cell_formula_units_Z 56
_cell_length_a 26.606138
_cell_length_b 14.384683
_cell_length_c 23.622812
_cell_angle_alpha 90.000000
_cell_angle_beta 20.878370
_cell_angle_gamma 90.000000
_cell_volume 3222.059146
_symmetry_space_group_name_H-M "C 2/M"
_symmetry_group_IT_number 12
_symmetry_cell_setting 'monoclinic'
loop_
_space_group_symop_operation_xyz
x,y,z
-x,y,-z
-x,-y,-z
x,-y,z
1/2+x,1/2+y,z
1/2-x,1/2+y,-z
1/2-x,1/2-y,-z
1/2+x,1/2-y,z
loop_
_atom_site_type_symbol
_atom_site_label
_atom_site_fract_x
_atom_site_fract_y
_atom_site_fract_z
Si Si1 0.047676 0.892361 0.058543
Si Si2 0.347911 0.750007 0.131424
Si Si3 0.896695 0.606346 0.869910
Si Si4 0.882449 0.750004 0.401696
Si Si5 0.696155 0.750023 0.702097
Si Si6 0.603300 0.393659 0.130070
Si Si7 0.452275 0.107643 0.941487
O O1 0.105857 0.879852 0.060259
O O2 0.896299 0.842233 0.212920
O O3 0.031140 0.000000 0.058875
O O4 0.162410 0.842796 0.896430
O O5 0.244402 0.750022 0.295033
O O6 0.500000 0.750047 0.000000
O O7 0.337543 0.842769 0.103587
O O8 0.916917 0.500000 0.831131
O O9 0.894140 0.620172 0.939716
O O10 0.026506 0.658709 0.705009
O O11 0.749999 0.645829 0.999985
O O12 0.750000 0.750000 0.500000
O O13 0.832907 0.750029 0.518789
O O14 0.973505 0.841283 0.294954
O O15 0.603682 0.842269 0.787095
O O16 0.583040 0.500000 0.168895
O O17 0.468724 0.000000 0.941246
#
# Coordination Sequence:
#
# PCOD8094897 Si02
#       7
#     8   8   8   8   8   8   8
#     4   9  16  30  51  70  95 130 165 205 244 284
#     4   8  17  29  43  69 101 125 166 202 236 295
#     4  10  21  35  53  76 100 133 173 205 243 300
#     4  12  20  33  52  75 107 135 158 203 263 299
#     4  10  20  30  43  75 104 126 161 201 246 303
#     4  10  21  35  53  76 100 133 173 205 243 300
#     4   9  16  30  51  70  95 130 165 205 244 284
#
# _framework density 17.380191
#
# number of rings (size 3 to 8) (size 9 to 14) (size 15 to 20)
#    0.000    2.571    2.857    1.286    0.000    6.857 
#    0.000    0.000    0.000    3.429    0.000    6.000 
#    0.000    0.000    0.000    0.000    0.000    0.000 
#
# Total GULP energy -347055.008929 kJ/mol
# GULP energy per Si atom -12394.821747 kJ/mol
# Density = 1.734063 g / cm^3
# Si number density = 17.380191 Si / 1000 Ang^3
#
#
#
# Elastic Constant Matrix: (Units=GPa)
#
#
# Indices 1 2 3 4 5 6 
#
# 1 99.3330 53.1091 64.1907 0.0011 24.5065 -0.0007
# 2 53.1091 138.5573 51.3668 0.0026 9.8124 -0.0023
# 3 64.1907 51.3668 105.1137 0.0042 15.6525 -0.0037
# 4 0.0011 0.0026 0.0042 10.4827 -0.0021 -7.3947
# 5 24.5065 9.8124 15.6525 -0.0021 33.2793 0.0018
# 6 -0.0007 -0.0023 -0.0037 -7.3947 0.0018 13.8808
#
#
#
# Elastic Compliance Matrix: (Units=1/GPa)
#
#
# Indices 1 2 3 4 5 6 
#
# 1 0.020353 -0.003718 -0.009187 0.000000 -0.009570 -0.000001
# 2 -0.003718 0.009505 -0.002543 -0.000001 0.001131 0.000000
# 3 -0.009187 -0.002543 0.016396 -0.000004 -0.000196 0.000001
# 4 0.000000 -0.000001 -0.000004 0.152827 0.000007 0.081415
# 5 -0.009570 0.001131 -0.000196 0.000007 0.036855 -0.000001
# 6 -0.000001 0.000000 0.000001 0.081415 -0.000001 0.115414
#
#
# Mechanical properties :
#
#
# Convention : Reuss Voigt Hill
#
# Bulk Modulus (GPa) = 65.11266 75.59302 70.35284
# Shear Modulus (GPa) = 12.90776 23.15106 18.02941
#
# Velocity S-wave (km/s) = 2.72816 3.65367 3.22429
# Velocity P-wave (km/s) = 6.88976 7.83500 7.37754
#
# Compressibility (1/GPa) = 0.01535800
#
# Stress axis : x y z
#
# Youngs Moduli (GPa) = 49.13332 105.20972 60.99085
#
# Poissons Ratio (x) = 0.39112 0.56034
# Poissons Ratio (y) = 0.18266 0.15510
# Poissons Ratio (z) = 0.45140 0.26755
#
# Static dielectric constant tensor:
#      x y z
#    x 3.847420 0.000000 0.498970 
#    y 0.000000 3.415490 0.000010 
#    z 0.498970 0.000010 3.274620 
# 
# 
# High freq. dielectric constant tensor:
#      x y z
#    x 1.679810 0.000000 0.022330 
#    y 0.000000 1.683980 0.000000 
#    z 0.022330 0.000000 1.631660 
# 
# From -- ./inp_files/349816.got.cif
#   From: 2010.06.25/outbox.cif.g09.slc.cpg/sg12_175_cif.got.tgz:349816.got - 2010.06.28 00:19:55.
