data_PCOD8094076
_publ_section_title
;
Structure prediction by ZEFSAII (Michael W. Deem and Ramdas Pophale) SiO2 
 PCOD8094076
Probable space group: C 2/M
;
_chemical_formula_sum "Si O2"
_cell_formula_units_Z 48
_cell_length_a 15.080166
_cell_length_b 13.784210
_cell_length_c 12.084557
_cell_angle_alpha 90.000000
_cell_angle_beta 126.158361
_cell_angle_gamma 90.000000
_cell_volume 2028.157767
_symmetry_space_group_name_H-M "C 2/M"
_symmetry_group_IT_number 12
_symmetry_cell_setting 'monoclinic'
loop_
_space_group_symop_operation_xyz
x,y,z
-x,y,-z
-x,-y,-z
x,-y,z
1/2+x,1/2+y,z
1/2-x,1/2+y,-z
1/2-x,1/2-y,-z
1/2+x,1/2-y,z
loop_
_atom_site_type_symbol
_atom_site_label
_atom_site_fract_x
_atom_site_fract_y
_atom_site_fract_z
Si Si1 0.038330 0.386992 0.153773
Si Si2 0.095211 0.890991 0.339068
Si Si3 0.638340 0.387619 0.772788
Si Si4 0.773434 0.805084 0.376286
Si Si5 0.250947 0.107612 0.270794
Si Si6 0.689920 0.887104 0.932048
O O1 0.070474 0.500000 0.196084
O O2 0.142410 0.320608 0.263689
O O3 0.936512 0.351481 0.156150
O O4 0.000000 0.369791 0.000000
O O5 0.189699 0.829771 0.472130
O O6 0.127335 0.891565 0.232129
O O7 0.977701 0.841743 0.274867
O O8 0.096643 0.000000 0.388242
O O9 0.634206 0.500000 0.799911
O O10 0.660818 0.374080 0.659959
O O11 0.733795 0.336438 0.917290
O O12 0.813581 0.695282 0.377915
O O13 0.251238 0.131342 0.141499
O O14 0.304143 0.000000 0.331538
O O15 0.684079 0.000000 0.957596
#
# Coordination Sequence:
#
# PCOD8094076 Si02
#       6
#     8   8   8   8   8   8
#     4  10  19  36  62  94 127 156 198 256 310 360
#     4  10  22  41  64  92 125 161 203 253 313 372
#     4  10  20  37  64  96 125 154 198 258 313 364
#     4  12  22  37  65  93 124 159 206 258 310 367
#     4  10  24  44  61  85 126 171 211 252 302 368
#     4   9  19  39  63  90 126 164 202 248 307 366
#
# _framework density 23.666798
#
# number of rings (size 3 to 8) (size 9 to 14) (size 15 to 20)
#    0.000    1.833    1.667    2.500    0.000    4.000 
#    3.000    5.833    0.000    8.000    0.000    0.000 
#    0.000    0.000    0.000    0.000    0.000    0.000 
#
# Total GULP energy -297437.473013 kJ/mol
# GULP energy per Si atom -12393.228042 kJ/mol
# Density = 2.361293 g / cm^3
# Si number density = 23.666798 Si / 1000 Ang^3
#
#
#
# Elastic Constant Matrix: (Units=GPa)
#
#
# Indices 1 2 3 4 5 6 
#
# 1 178.0430 10.1618 57.2847 0.0000 -0.8128 0.0000
# 2 10.1618 78.8290 32.3225 0.0000 12.1443 0.0000
# 3 57.2847 32.3225 78.2268 0.0000 -2.2968 0.0000
# 4 0.0000 0.0000 0.0000 14.9001 0.0000 0.2486
# 5 -0.8128 12.1443 -2.2968 0.0000 39.1820 0.0000
# 6 0.0000 0.0000 0.0000 0.2486 0.0000 12.4065
#
#
#
# Elastic Compliance Matrix: (Units=1/GPa)
#
#
# Indices 1 2 3 4 5 6 
#
# 1 0.007521 0.001699 -0.006231 0.000000 -0.000736 0.000000
# 2 0.001699 0.016753 -0.008332 0.000000 -0.005646 0.000000
# 3 -0.006231 -0.008332 0.020897 0.000000 0.003678 0.000000
# 4 0.000000 0.000000 0.000000 0.067136 0.000000 -0.001345
# 5 -0.000736 -0.005646 0.003678 0.000000 0.027472 0.000000
# 6 0.000000 0.000000 0.000000 -0.001345 0.000000 0.080630
#
#
# Mechanical properties :
#
#
# Convention : Reuss Voigt Hill
#
# Bulk Modulus (GPa) = 51.43382 59.40410 55.41896
# Shear Modulus (GPa) = 19.79269 28.98636 24.38953
#
# Velocity S-wave (km/s) = 2.89503 3.50347 3.21368
# Velocity P-wave (km/s) = 5.74061 6.44363 6.10225
#
# Compressibility (1/GPa) = 0.01944246
#
# Stress axis : x y z
#
# Youngs Moduli (GPa) = 132.95802 59.69148 47.85371
#
# Poissons Ratio (x) = -0.10140 0.29819
# Poissons Ratio (y) = -0.22587 0.39871
# Poissons Ratio (z) = 0.82849 0.49734
#
# Static dielectric constant tensor:
#      x y z
#    x 4.494840 0.000000 -0.031390 
#    y 0.000000 4.354890 0.000000 
#    z -0.031390 0.000000 3.906580 
# 
# 
# High freq. dielectric constant tensor:
#      x y z
#    x 1.952870 0.000000 -0.019340 
#    y 0.000000 1.946920 0.000000 
#    z -0.019340 0.000000 1.901810 
# 
# From -- ./inp_files/143876.got.cif
#   From: 2010.06.25/outbox.cif.g09.slc.cpg/sg12_72_cif.got.tgz:143876.got - 2010.06.28 00:19:55.
