data_PCOD8094762
_publ_section_title
;
Structure prediction by ZEFSAII (Michael W. Deem and Ramdas Pophale) SiO2 
 PCOD8094762
Probable space group: C 2/M
;
_chemical_formula_sum "Si O2"
_cell_formula_units_Z 64
_cell_length_a 24.238247
_cell_length_b 17.232976
_cell_length_c 16.181175
_cell_angle_alpha 90.000000
_cell_angle_beta 151.879197
_cell_angle_gamma 90.000000
_cell_volume 3185.653924
_symmetry_space_group_name_H-M "C 2/M"
_symmetry_group_IT_number 12
_symmetry_cell_setting 'monoclinic'
loop_
_space_group_symop_operation_xyz
x,y,z
-x,y,-z
-x,-y,-z
x,-y,z
1/2+x,1/2+y,z
1/2-x,1/2+y,-z
1/2-x,1/2-y,-z
1/2+x,1/2-y,z
loop_
_atom_site_type_symbol
_atom_site_label
_atom_site_fract_x
_atom_site_fract_y
_atom_site_fract_z
Si Si1 0.975368 0.357799 0.873505
Si Si2 0.632567 0.705376 0.678881
Si Si3 0.698244 0.413668 0.110162
Si Si4 0.270651 0.835479 0.498298
Si Si5 0.634278 0.156539 0.796504
Si Si6 0.632106 0.161181 0.551788
Si Si7 0.178589 0.590059 0.029684
Si Si8 0.018382 0.173480 0.119290
O O1 0.844701 0.381459 0.667178
O O2 0.986145 0.265744 0.875424
O O3 0.000000 0.382524 0.000000
O O4 0.067379 0.405568 0.941724
O O5 0.500000 0.676086 0.500000
O O6 0.654683 0.754952 0.792502
O O7 0.663703 0.758299 0.640371
O O8 0.710261 0.627964 0.777695
O O9 0.648780 0.500000 0.042811
O O10 0.778405 0.399924 0.136264
O O11 0.777497 0.403084 0.296429
O O12 0.585783 0.357953 0.961344
O O13 0.250000 0.750000 0.500000
O O14 0.351823 0.831127 0.524398
O O15 0.140178 0.868025 0.308548
O O16 0.499159 0.134875 0.598805
O O17 0.656782 0.144526 0.922181
O O18 0.202736 0.500000 0.039062
O O19 0.000000 0.150108 0.000000
#
# Coordination Sequence:
#
# PCOD8094762 Si02
#       8
#     8   8   8   8   8   8   8   8
#     4  10  22  40  64  86 112 159 211 264 305 356
#     4   9  21  38  63  89 118 156 203 255 300 367
#     4  11  22  36  58  87 130 168 194 240 312 384
#     4  10  20  36  62  92 115 150 207 263 308 353
#     4  10  21  40  62  88 122 159 215 256 298 355
#     4  10  19  39  62  93 118 152 210 258 305 357
#     4  12  24  38  60  90 127 162 200 252 314 372
#     4  10  20  37  60  89 122 157 200 249 303 369
#
# _framework density 20.090067999999999
#
# number of rings (size 3 to 8) (size 9 to 14) (size 15 to 20)
#    0.000    1.750    2.500    3.375    3.500    2.250 
#    2.250    0.625    0.000    1.500    0.000    0.000 
#    0.000    0.000    0.000    0.000    0.000    0.000 
#
# Total GULP energy -396660.792447 kJ/mol
# GULP energy per Si atom -12395.649764 kJ/mol
# Density = 2.004434 g / cm^3
# Si number density = 20.090068 Si / 1000 Ang^3
#
#
#
# Elastic Constant Matrix: (Units=GPa)
#
#
# Indices 1 2 3 4 5 6 
#
# 1 109.1730 16.4787 45.7066 0.0000 -2.3475 0.0000
# 2 16.4787 56.6912 32.2034 0.0000 8.1533 0.0000
# 3 45.7066 32.2034 140.8282 0.0000 6.7187 0.0000
# 4 0.0000 0.0000 0.0000 13.0973 0.0000 2.4689
# 5 -2.3475 8.1533 6.7187 0.0000 39.9328 0.0000
# 6 0.0000 0.0000 0.0000 2.4689 0.0000 14.5617
#
#
#
# Elastic Compliance Matrix: (Units=1/GPa)
#
#
# Indices 1 2 3 4 5 6 
#
# 1 0.010768 -0.001515 -0.003219 0.000000 0.001484 0.000000
# 2 -0.001515 0.020951 -0.004124 0.000000 -0.003673 0.000000
# 3 -0.003219 -0.004124 0.009131 0.000000 -0.000883 0.000000
# 4 0.000000 0.000000 0.000000 0.078872 0.000000 -0.013373
# 5 0.001484 -0.003673 -0.000883 0.000000 0.026028 0.000000
# 6 0.000000 0.000000 0.000000 -0.013373 0.000000 0.070941
#
#
# Mechanical properties :
#
#
# Convention : Reuss Voigt Hill
#
# Bulk Modulus (GPa) = 43.22720 55.05220 49.13970
# Shear Modulus (GPa) = 20.65114 27.67194 24.16154
#
# Velocity S-wave (km/s) = 3.20961 3.71535 3.47170
# Velocity P-wave (km/s) = 5.94129 6.77254 6.37049
#
# Compressibility (1/GPa) = 0.02313358
#
# Stress axis : x y z
#
# Youngs Moduli (GPa) = 92.86684 47.73149 109.51867
#
# Poissons Ratio (x) = 0.07230 0.35257
# Poissons Ratio (y) = 0.14067 0.45165
# Poissons Ratio (z) = 0.29896 0.19684
#
# Static dielectric constant tensor:
#      x y z
#    x 3.580510 0.000000 0.118830 
#    y 0.000000 3.204130 0.000000 
#    z 0.118830 0.000000 4.252360 
# 
# 
# High freq. dielectric constant tensor:
#      x y z
#    x 1.788390 0.000000 0.007300 
#    y 0.000000 1.743380 0.000000 
#    z 0.007300 0.000000 1.798440 
# 
# From -- ./inp_files/241531.got.cif
#   From: 2010.06.25/outbox.cif.g09.slc.cpg/sg12_121_cif.got.tgz:241531.got - 2010.06.28 00:19:55.
