data_PCOD8094429
_publ_section_title
;
Structure prediction by ZEFSAII (Michael W. Deem and Ramdas Pophale) SiO2 
 PCOD8094429
Probable space group: C 2/M
;
_chemical_formula_sum "Si O2"
_cell_formula_units_Z 56
_cell_length_a 19.098426
_cell_length_b 8.300207
_cell_length_c 19.657279
_cell_angle_alpha 90.000000
_cell_angle_beta 64.871283
_cell_angle_gamma 90.000000
_cell_volume 2821.170416
_symmetry_space_group_name_H-M "C 2/M"
_symmetry_group_IT_number 12
_symmetry_cell_setting 'monoclinic'
loop_
_space_group_symop_operation_xyz
x,y,z
-x,y,-z
-x,-y,-z
x,-y,z
1/2+x,1/2+y,z
1/2-x,1/2+y,-z
1/2-x,1/2-y,-z
1/2+x,1/2-y,z
loop_
_atom_site_type_symbol
_atom_site_label
_atom_site_fract_x
_atom_site_fract_y
_atom_site_fract_z
Si Si1 0.471885 0.816241 0.442830
Si Si2 0.752107 0.188218 0.203439
Si Si3 0.801889 0.810840 0.917726
Si Si4 0.175658 0.308407 0.572273
Si Si5 0.870301 0.689393 0.257636
Si Si6 0.100351 0.181446 0.305479
Si Si7 0.048984 0.313595 0.191188
O O1 0.500000 0.726512 0.500000
O O2 0.396803 0.734710 0.439881
O O3 0.543564 0.808195 0.363109
O O4 0.450619 0.000000 0.467974
O O5 0.744189 0.270443 0.133162
O O6 0.832373 0.223357 0.208536
O O7 0.687838 0.260708 0.281558
O O8 0.739677 0.000000 0.198162
O O9 0.885954 0.721213 0.893136
O O10 0.814944 0.000000 0.917597
O O11 0.750000 0.750000 0.000000
O O12 0.173262 0.500000 0.574058
O O13 0.250000 0.250000 0.500000
O O14 0.165872 0.248191 0.654846
O O15 0.856719 0.500000 0.257289
O O16 0.960834 0.733068 0.211232
O O17 0.080764 0.190779 0.234445
O O18 0.089137 0.000000 0.337604
O O19 0.052308 0.500000 0.212894
#
# Coordination Sequence:
#
# PCOD8094429 Si02
#       7
#     8   8   8   8   8   8   8
#     4  10  21  38  57  78 108 148 196 245 299 355
#     4  11  23  38  60  88 119 155 198 241 290 346
#     4  11  22  40  65  94 126 156 193 237 287 346
#     4  10  22  39  56  81 116 156 197 247 303 355
#     4  10  21  39  60  84 120 158 197 246 299 354
#     4  11  21  35  56  82 112 147 194 244 292 347
#     4  10  19  37  63  87 116 155 195 236 290 347
#
# _framework density 19.849917000000001
#
# number of rings (size 3 to 8) (size 9 to 14) (size 15 to 20)
#    0.000    1.571    1.429    6.000    2.000    2.571 
#    0.000    0.714    0.000    4.286    0.000    0.000 
#    0.000    0.000    0.000    0.000    0.000    0.000 
#
# Total GULP energy -346983.646968 kJ/mol
# GULP energy per Si atom -12392.273106 kJ/mol
# Density = 1.980474 g / cm^3
# Si number density = 19.849917 Si / 1000 Ang^3
#
#
#
# Elastic Constant Matrix: (Units=GPa)
#
#
# Indices 1 2 3 4 5 6 
#
# 1 137.5833 25.2595 63.8050 -0.0001 -8.1084 -0.0002
# 2 25.2595 68.2259 13.4590 -0.0001 -0.4021 -0.0002
# 3 63.8050 13.4590 126.2907 0.0000 -19.0487 0.0000
# 4 -0.0001 -0.0001 0.0000 26.7131 0.0000 0.0678
# 5 -8.1084 -0.4021 -19.0487 0.0000 29.5499 0.0000
# 6 -0.0002 -0.0002 0.0000 0.0678 0.0000 19.4688
#
#
#
# Elastic Compliance Matrix: (Units=1/GPa)
#
#
# Indices 1 2 3 4 5 6 
#
# 1 0.009980 -0.002748 -0.004809 0.000000 -0.000399 0.000000
# 2 -0.002748 0.015751 -0.000411 0.000000 -0.000805 0.000000
# 3 -0.004809 -0.000411 0.011290 0.000000 0.005952 0.000000
# 4 0.000000 0.000000 0.000000 0.037435 0.000000 -0.000130
# 5 -0.000399 -0.000805 0.005952 0.000000 0.037558 0.000000
# 6 0.000000 0.000000 0.000000 -0.000130 0.000000 0.051365
#
#
# Mechanical properties :
#
#
# Convention : Reuss Voigt Hill
#
# Bulk Modulus (GPa) = 47.43351 59.68297 53.55824
# Shear Modulus (GPa) = 26.83213 30.45147 28.64180
#
# Velocity S-wave (km/s) = 3.68060 3.92099 3.80270
# Velocity P-wave (km/s) = 6.48154 7.11556 6.80594
#
# Compressibility (1/GPa) = 0.02108214
#
# Stress axis : x y z
#
# Youngs Moduli (GPa) = 100.20307 63.48726 88.57658
#
# Poissons Ratio (x) = 0.17449 0.42599
# Poissons Ratio (y) = 0.27540 0.03645
# Poissons Ratio (z) = 0.48191 0.02612
#
# Static dielectric constant tensor:
#      x y z
#    x 3.866710 0.000000 -0.167280 
#    y 0.000000 3.448350 0.000000 
#    z -0.167280 0.000000 4.217660 
# 
# 
# High freq. dielectric constant tensor:
#      x y z
#    x 1.777570 0.000000 -0.013310 
#    y 0.000000 1.768440 0.000000 
#    z -0.013310 0.000000 1.766580 
# 
# From -- ./inp_files/313678.got.cif
#   From: 2010.06.25/outbox.cif.g09.slc.cpg/sg12_157_cif.got.tgz:313678.got - 2010.06.28 00:19:55.
