data_PCOD8094847
_publ_section_title
;
Structure prediction by ZEFSAII (Michael W. Deem and Ramdas Pophale) SiO2 
 PCOD8094847
Probable space group: C 2/M
;
_chemical_formula_sum "Si O2"
_cell_formula_units_Z 36
_cell_length_a 11.681991
_cell_length_b 15.066574
_cell_length_c 11.819916
_cell_angle_alpha 90.000000
_cell_angle_beta 73.141363
_cell_angle_gamma 90.000000
_cell_volume 1990.986117
_symmetry_space_group_name_H-M "C 2/M"
_symmetry_group_IT_number 12
_symmetry_cell_setting 'monoclinic'
loop_
_space_group_symop_operation_xyz
x,y,z
-x,y,-z
-x,-y,-z
x,-y,z
1/2+x,1/2+y,z
1/2-x,1/2+y,-z
1/2-x,1/2-y,-z
1/2+x,1/2-y,z
loop_
_atom_site_type_symbol
_atom_site_label
_atom_site_fract_x
_atom_site_fract_y
_atom_site_fract_z
Si Si1 0.737680 0.500000 0.741570
Si Si2 0.126285 0.500000 0.522441
Si Si3 0.969933 0.000000 0.876963
Si Si4 0.722589 0.644141 0.122551
Si Si5 0.900377 0.596244 0.256530
Si Si6 0.848225 0.345903 0.859953
O O1 0.771375 0.500000 0.600170
O O2 0.595035 0.500000 0.776559
O O3 0.788295 0.411686 0.786502
O O4 0.134769 0.588432 0.599928
O O5 0.000000 0.500000 0.500000
O O6 0.898178 0.088712 0.863679
O O7 0.000000 0.000000 0.000000
O O8 0.780128 0.618717 0.224979
O O9 0.700913 0.747852 0.140226
O O10 0.815310 0.621113 0.995291
O O11 0.949517 0.500000 0.202058
O O12 0.009168 0.662774 0.199711
#
# Coordination Sequence:
#
# PCOD8094847 Si02
#       6
#     4   4   4   8   8   8
#     4  12  22  40  62  88 118 164 200 242 310 350
#     4  10  19  40  67  86 111 159 217 257 287 348
#     4  12  23  38  61  84 129 165 185 237 317 378
#     4  11  24  38  57  97 127 154 199 245 314 361
#     4  10  21  39  66  84 116 159 207 254 291 350
#     4  11  22  36  64  90 124 155 198 256 300 364
#
# _framework density 18.081492000000001
#
# number of rings (size 3 to 8) (size 9 to 14) (size 15 to 20)
#    0.667    0.444    6.667    0.667    3.111    0.889 
#    0.000    3.333    4.889    0.000    0.000    0.000 
#    0.000    0.000    0.000    0.000    0.000    0.000 
#
# Total GULP energy -223114.199083 kJ/mol
# GULP energy per Si atom -12395.233282 kJ/mol
# Density = 1.804034 g / cm^3
# Si number density = 18.081492 Si / 1000 Ang^3
#
#
#
# Elastic Constant Matrix: (Units=GPa)
#
#
# Indices 1 2 3 4 5 6 
#
# 1 129.7386 30.7560 79.3661 0.0000 5.6492 0.0000
# 2 30.7560 80.0453 42.5806 0.0000 3.4641 0.0000
# 3 79.3661 42.5806 147.8693 0.0000 2.1844 0.0000
# 4 0.0000 0.0000 0.0000 17.6452 0.0000 -5.4347
# 5 5.6492 3.4641 2.1844 0.0000 36.4254 0.0000
# 6 0.0000 0.0000 0.0000 -5.4347 0.0000 19.1441
#
#
#
# Elastic Compliance Matrix: (Units=1/GPa)
#
#
# Indices 1 2 3 4 5 6 
#
# 1 0.011662 -0.001304 -0.005864 0.000000 -0.001333 0.000000
# 2 -0.001304 0.014947 -0.003589 0.000000 -0.001004 0.000000
# 3 -0.005864 -0.003589 0.010935 0.000000 0.000595 0.000000
# 4 0.000000 0.000000 0.000000 0.062103 0.000000 0.017630
# 5 -0.001333 -0.001004 0.000595 0.000000 0.027720 0.000000
# 6 0.000000 0.000000 0.000000 0.017630 0.000000 0.057240
#
#
# Mechanical properties :
#
#
# Convention : Reuss Voigt Hill
#
# Bulk Modulus (GPa) = 62.38697 73.67321 68.03009
# Shear Modulus (GPa) = 23.64453 28.30632 25.97542
#
# Velocity S-wave (km/s) = 3.62009 3.96091 3.79433
# Velocity P-wave (km/s) = 7.21467 7.85824 7.54333
#
# Compressibility (1/GPa) = 0.01602899
#
# Stress axis : x y z
#
# Youngs Moduli (GPa) = 85.74530 66.90407 91.44762
#
# Poissons Ratio (x) = 0.08723 0.53629
# Poissons Ratio (y) = 0.11179 0.32825
# Poissons Ratio (z) = 0.50285 0.24015
#
# Static dielectric constant tensor:
#      x y z
#    x 3.321300 0.000000 -0.018000 
#    y 0.000000 3.298610 0.000000 
#    z -0.018000 0.000000 3.605150 
# 
# 
# High freq. dielectric constant tensor:
#      x y z
#    x 1.707280 0.000000 0.005500 
#    y 0.000000 1.694510 0.000000 
#    z 0.005500 0.000000 1.692340 
# 
# From -- ./inp_files/129066.got.cif
#   From: 2010.06.25/outbox.cif.g09.slc.cpg/sg12_65_cif.got.tgz:129066.got - 2010.06.28 00:19:55.
