data_PCOD8094903
_publ_section_title
;
Structure prediction by ZEFSAII (Michael W. Deem and Ramdas Pophale) SiO2 
 PCOD8094903
Probable space group: C 2/M
;
_chemical_formula_sum "Si O2"
_cell_formula_units_Z 48
_cell_length_a 17.517745
_cell_length_b 17.009480
_cell_length_c 6.629094
_cell_angle_alpha 90.000000
_cell_angle_beta 73.143506
_cell_angle_gamma 90.000000
_cell_volume 1890.387347
_symmetry_space_group_name_H-M "C 2/M"
_symmetry_group_IT_number 12
_symmetry_cell_setting 'monoclinic'
loop_
_space_group_symop_operation_xyz
x,y,z
-x,y,-z
-x,-y,-z
x,-y,z
1/2+x,1/2+y,z
1/2-x,1/2+y,-z
1/2-x,1/2-y,-z
1/2+x,1/2-y,z
loop_
_atom_site_type_symbol
_atom_site_label
_atom_site_fract_x
_atom_site_fract_y
_atom_site_fract_z
Si Si1 0.807251 0.858285 0.173043
Si Si2 0.159117 0.691912 0.758250
Si Si3 0.131195 0.671301 0.251206
Si Si4 0.904899 0.000000 0.065186
Si Si5 0.907414 0.000000 0.608716
Si Si6 0.479222 0.911032 0.251985
Si Si7 0.166753 0.159980 0.317660
O O1 0.835303 0.785404 0.292624
O O2 0.711951 0.872781 0.263772
O O3 0.864007 0.927519 0.211081
O O4 0.827160 0.842607 0.926963
O O5 0.097071 0.647256 0.656180
O O6 0.245582 0.654675 0.651621
O O7 0.134265 0.684262 0.009166
O O8 0.124810 0.754133 0.380760
O O9 0.052778 0.616462 0.341224
O O10 0.877207 0.000000 0.858782
O O11 0.000000 0.000000 0.000000
O O12 0.876815 0.084342 0.548136
O O13 0.000000 0.000000 0.500000
O O14 0.456500 0.000000 0.327537
O O15 0.500000 0.906595 0.000000
#
# Coordination Sequence:
#
# PCOD8094903 Si02
#       7
#     8   8   8   4   4   8   8
#     4   8  15  26  40  59  89 126 155 187 229 288
#     4   8  14  24  37  58  88 121 152 188 238 287
#     4   8  14  25  38  58  88 123 153 182 236 292
#     4  10  20  30  46  73  95 127 169 200 242 288
#     4  10  20  32  48  71  97 127 163 210 250 282
#     4   9  16  21  33  60  91 122 149 189 243 288
#     4   8  15  27  42  59  86 124 156 187 236 292
#
# _framework density 25.39162
#
# number of rings (size 3 to 8) (size 9 to 14) (size 15 to 20)
#    0.000    3.500    0.000    2.000    2.333    4.667 
#    0.000    0.000    0.000    0.000    0.000   10.500 
#    0.000    0.667    0.000    0.667    0.000    1.000 
#
# Total GULP energy -297365.428294 kJ/mol
# GULP energy per Si atom -12390.226179 kJ/mol
# Density = 2.533383 g / cm^3
# Si number density = 25.391620 Si / 1000 Ang^3
#
#
#
# Elastic Constant Matrix: (Units=GPa)
#
#
# Indices 1 2 3 4 5 6 
#
# 1 196.3092 128.1787 38.6991 0.0000 -36.0862 0.0000
# 2 128.1787 236.1679 34.4091 0.0000 -60.3060 0.0000
# 3 38.6991 34.4091 51.1089 0.0000 -11.9213 0.0000
# 4 0.0000 0.0000 0.0000 15.8001 0.0000 -22.9114
# 5 -36.0862 -60.3060 -11.9213 0.0000 57.4964 0.0000
# 6 0.0000 0.0000 0.0000 -22.9114 0.0000 42.1597
#
#
#
# Elastic Compliance Matrix: (Units=1/GPa)
#
#
# Indices 1 2 3 4 5 6 
#
# 1 0.008478 -0.003966 -0.003656 0.000000 0.000404 0.000000
# 2 -0.003966 0.007988 -0.001052 0.000000 0.005671 0.000000
# 3 -0.003656 -0.001052 0.023381 0.000000 0.001450 0.000000
# 4 0.000000 0.000000 0.000000 0.298591 0.000000 0.162267
# 5 0.000404 0.005671 0.001450 0.000000 0.023895 0.000000
# 6 0.000000 0.000000 0.000000 0.162267 0.000000 0.111903
#
#
# Mechanical properties :
#
#
# Convention : Reuss Voigt Hill
#
# Bulk Modulus (GPa) = 44.44503 98.46221 71.45362
# Shear Modulus (GPa) = 10.01838 41.91118 25.96478
#
# Velocity S-wave (km/s) = 1.98849 4.06715 3.20124
# Velocity P-wave (km/s) = 4.77640 7.80495 6.47037
#
# Compressibility (1/GPa) = 0.02249970
#
# Stress axis : x y z
#
# Youngs Moduli (GPa) = 117.94781 125.18400 42.77054
#
# Poissons Ratio (x) = 0.49647 0.15635
# Poissons Ratio (y) = 0.46777 0.04501
# Poissons Ratio (z) = 0.43116 0.13173
#
# Static dielectric constant tensor:
#      x y z
#    x 5.110700 0.000000 0.550420 
#    y 0.000000 5.383040 0.000000 
#    z 0.550420 0.000000 4.987310 
# 
# 
# High freq. dielectric constant tensor:
#      x y z
#    x 2.015190 0.000000 0.029340 
#    y 0.000000 2.008770 0.000000 
#    z 0.029340 0.000000 2.049570 
# 
# From -- ./inp_files/157185.got.cif
#   From: 2010.06.25/outbox.cif.g09.slc.cpg/sg12_79_cif.got.tgz:157185.got - 2010.06.28 00:19:55.
