data_PCOD8094510
_publ_section_title
;
Structure prediction by ZEFSAII (Michael W. Deem and Ramdas Pophale) SiO2 
 PCOD8094510
Probable space group: C 2/M
;
_chemical_formula_sum "Si O2"
_cell_formula_units_Z 64
_cell_length_a 25.445257
_cell_length_b 17.429992
_cell_length_c 20.290255
_cell_angle_alpha 90.000000
_cell_angle_beta 159.121383
_cell_angle_gamma 90.000000
_cell_volume 3207.127477
_symmetry_space_group_name_H-M "C 2/M"
_symmetry_group_IT_number 12
_symmetry_cell_setting 'monoclinic'
loop_
_space_group_symop_operation_xyz
x,y,z
-x,y,-z
-x,-y,-z
x,-y,z
1/2+x,1/2+y,z
1/2-x,1/2+y,-z
1/2-x,1/2-y,-z
1/2+x,1/2-y,z
loop_
_atom_site_type_symbol
_atom_site_label
_atom_site_fract_x
_atom_site_fract_y
_atom_site_fract_z
Si Si1 0.143376 0.589908 0.831153
Si Si2 0.066641 0.590095 0.147546
Si Si3 0.555829 0.321700 0.835448
Si Si4 0.328997 0.301838 0.463916
Si Si5 0.283940 0.655182 0.601555
Si Si6 0.422505 0.180006 0.476828
Si Si7 0.023112 0.352025 0.822470
Si Si8 0.337522 0.587696 0.800252
O O1 0.145007 0.500000 0.814433
O O2 0.018055 0.633753 0.642699
O O3 0.113895 0.598754 0.874882
O O4 0.298120 0.627809 0.992718
O O5 0.082300 0.500000 0.170805
O O6 0.231942 0.622968 0.341493
O O7 0.960661 0.618158 0.083469
O O8 0.000000 0.617056 0.000000
O O9 0.484493 0.322975 0.679353
O O10 0.439251 0.359394 0.748736
O O11 0.586995 0.234041 0.892916
O O12 0.232308 0.243744 0.395609
O O13 0.370001 0.261521 0.443421
O O14 0.150306 0.637288 0.396051
O O15 0.279181 0.597864 0.657595
O O16 0.500000 0.198143 0.500000
O O17 0.277695 0.130823 0.287592
O O18 0.339956 0.500000 0.824533
O O19 0.500000 0.624210 0.000000
#
# Coordination Sequence:
#
# PCOD8094510 Si02
#       8
#     8   8   8   8   8   8   8   8
#     4  12  26  40  60  95 134 170 207 256 317 376
#     4  11  24  40  65  99 127 156 202 268 334 379
#     4  11  21  39  66  94 124 160 216 262 307 369
#     4  10  20  43  65  90 121 158 212 264 312 374
#     4  10  19  37  67  93 114 157 217 260 311 359
#     4  11  25  42  63  89 124 174 216 252 306 376
#     4  11  20  43  69  88 122 168 211 263 311 377
#     4  10  22  38  57  88 130 166 206 259 310 367
#
# _framework density 19.955552000000001
#
# number of rings (size 3 to 8) (size 9 to 14) (size 15 to 20)
#    0.000    1.250    6.250    1.875    1.750    5.500 
#    0.000    0.000    0.000    0.375    0.000    0.000 
#    0.000    0.000    0.000    0.000    0.000    0.000 
#
# Total GULP energy -396793.110198 kJ/mol
# GULP energy per Si atom -12399.784694 kJ/mol
# Density = 1.991013 g / cm^3
# Si number density = 19.955552 Si / 1000 Ang^3
#
#
#
# Elastic Constant Matrix: (Units=GPa)
#
#
# Indices 1 2 3 4 5 6 
#
# 1 126.5900 22.8233 34.2451 -0.0002 7.4227 -0.0011
# 2 22.8233 62.1603 18.6867 -0.0021 3.8736 -0.0038
# 3 34.2451 18.6867 71.3580 0.0001 14.6771 -0.0015
# 4 -0.0002 -0.0021 0.0001 23.2888 0.0013 2.9256
# 5 7.4227 3.8736 14.6771 0.0013 37.6038 0.0000
# 6 -0.0011 -0.0038 -0.0015 2.9256 0.0000 16.0771
#
#
#
# Elastic Compliance Matrix: (Units=1/GPa)
#
#
# Indices 1 2 3 4 5 6 
#
# 1 0.009363 -0.002265 -0.003880 0.000000 -0.000101 0.000000
# 2 -0.002265 0.018010 -0.003631 0.000001 0.000009 0.000004
# 3 -0.003880 -0.003631 0.018040 0.000000 -0.005901 0.000001
# 4 0.000000 0.000001 0.000000 0.043944 -0.000002 -0.007996
# 5 -0.000101 0.000009 -0.005901 -0.000002 0.028915 0.000000
# 6 0.000000 0.000004 0.000001 -0.007996 0.000000 0.063655
#
#
# Mechanical properties :
#
#
# Convention : Reuss Voigt Hill
#
# Bulk Modulus (GPa) = 38.66695 45.73537 42.20116
# Shear Modulus (GPa) = 23.79810 27.68418 25.74114
#
# Velocity S-wave (km/s) = 3.45709 3.72868 3.59545
# Velocity P-wave (km/s) = 5.94591 6.44250 6.19918
#
# Compressibility (1/GPa) = 0.02586188
#
# Stress axis : x y z
#
# Youngs Moduli (GPa) = 106.79933 55.52404 55.43118
#
# Poissons Ratio (x) = 0.12578 0.21505
# Poissons Ratio (y) = 0.24194 0.20128
# Poissons Ratio (z) = 0.41434 0.20161
#
# Static dielectric constant tensor:
#      x y z
#    x 3.734280 -0.000010 0.005360 
#    y -0.000010 3.484000 0.000000 
#    z 0.005360 0.000000 3.661300 
# 
# 
# High freq. dielectric constant tensor:
#      x y z
#    x 1.785100 0.000000 0.005220 
#    y 0.000000 1.765910 0.000000 
#    z 0.005220 0.000000 1.772650 
# 
# From -- ./inp_files/328679.got.cif
#   From: 2010.06.25/outbox.cif.g09.slc.cpg/sg12_165_cif.got.tgz:328679.got - 2010.06.28 00:19:55.
