data_PCOD8094811
_publ_section_title
;
Structure prediction by ZEFSAII (Michael W. Deem and Ramdas Pophale) SiO2 
 PCOD8094811
Probable space group: C 2/M
;
_chemical_formula_sum "Si O2"
_cell_formula_units_Z 56
_cell_length_a 27.648846
_cell_length_b 17.597435
_cell_length_c 9.148447
_cell_angle_alpha 90.000000
_cell_angle_beta 36.446457
_cell_angle_gamma 90.000000
_cell_volume 2644.309853
_symmetry_space_group_name_H-M "C 2/M"
_symmetry_group_IT_number 12
_symmetry_cell_setting 'monoclinic'
loop_
_space_group_symop_operation_xyz
x,y,z
-x,y,-z
-x,-y,-z
x,-y,z
1/2+x,1/2+y,z
1/2-x,1/2+y,-z
1/2-x,1/2-y,-z
1/2+x,1/2-y,z
loop_
_atom_site_type_symbol
_atom_site_label
_atom_site_fract_x
_atom_site_fract_y
_atom_site_fract_z
Si Si1 0.668970 0.409827 0.082126
Si Si2 0.574396 0.183726 0.925038
Si Si3 0.937303 0.828050 0.867517
Si Si4 0.014643 0.411023 0.628112
Si Si5 0.333721 0.155905 0.581846
Si Si6 0.095304 0.081995 0.793498
Si Si7 0.628494 0.323561 0.448142
O O1 0.649059 0.500000 0.121043
O O2 0.595652 0.352590 0.210726
O O3 0.677912 0.383727 0.228724
O O4 0.749634 0.389003 0.796988
O O5 0.644900 0.156153 0.643446
O O6 0.500000 0.210525 0.000000
O O7 0.601061 0.252496 0.966163
O O8 0.550833 0.116614 0.093124
O O9 0.034095 0.818731 0.630568
O O10 0.897491 0.897543 0.054691
O O11 0.004919 0.500000 0.641982
O O12 0.000000 0.376088 0.500000
O O13 0.103265 0.389451 0.470558
O O14 0.329306 0.241273 0.656814
O O15 0.136956 0.145430 0.591915
O O16 0.135749 0.000000 0.665243
O O17 0.000000 0.079440 0.000000
#
# Coordination Sequence:
#
# PCOD8094811 Si02
#       7
#     8   8   8   8   8   8   8
#     4  12  28  41  57  93 140 178 210 260 329 390
#     4  10  19  39  68  96 124 163 216 267 315 378
#     4  11  20  38  65  91 124 160 219 270 310 380
#     4  10  22  39  67 100 124 160 215 270 321 373
#     4  11  23  43  65  91 131 176 210 261 326 391
#     4   9  17  32  58  85 117 155 204 264 312 358
#     4  11  21  40  64  90 119 168 224 269 314 374
#
# _framework density 21.177548999999999
#
# number of rings (size 3 to 8) (size 9 to 14) (size 15 to 20)
#    0.000    1.429    4.286    2.571    2.000    6.000 
#    0.000    0.000    0.000    1.714    0.000    0.000 
#    0.000    0.000    0.000    0.000    0.000    0.000 
#
# Total GULP energy -346995.774514 kJ/mol
# GULP energy per Si atom -12392.706233 kJ/mol
# Density = 2.112935 g / cm^3
# Si number density = 21.177549 Si / 1000 Ang^3
#
#
#
# Elastic Constant Matrix: (Units=GPa)
#
#
# Indices 1 2 3 4 5 6 
#
# 1 39.7354 27.4952 7.8466 0.0000 15.1842 0.0000
# 2 27.4952 109.3198 21.9304 0.0000 9.8008 0.0000
# 3 7.8466 21.9304 75.4619 0.0000 16.5951 0.0000
# 4 0.0000 0.0000 0.0000 30.0853 0.0000 7.6188
# 5 15.1842 9.8008 16.5951 0.0000 27.9087 0.0000
# 6 0.0000 0.0000 0.0000 7.6188 0.0000 44.9014
#
#
#
# Elastic Compliance Matrix: (Units=1/GPa)
#
#
# Indices 1 2 3 4 5 6 
#
# 1 0.037726 -0.008311 0.002720 0.000000 -0.019225 0.000000
# 2 -0.008311 0.011642 -0.003008 0.000000 0.002222 0.000000
# 3 0.002720 -0.003008 0.016033 0.000000 -0.009957 0.000000
# 4 0.000000 0.000000 0.000000 0.034731 0.000000 -0.005893
# 5 -0.019225 0.002222 -0.009957 0.000000 0.051431 0.000000
# 6 0.000000 0.000000 0.000000 -0.005893 0.000000 0.023271
#
#
# Mechanical properties :
#
#
# Convention : Reuss Voigt Hill
#
# Bulk Modulus (GPa) = 20.74505 37.67349 29.20927
# Shear Modulus (GPa) = 24.02703 31.72876 27.87790
#
# Velocity S-wave (km/s) = 3.37197 3.87489 3.63214
# Velocity P-wave (km/s) = 4.99772 6.15205 5.60468
#
# Compressibility (1/GPa) = 0.04820427
#
# Stress axis : x y z
#
# Youngs Moduli (GPa) = 26.50665 85.89654 62.37261
#
# Poissons Ratio (x) = 0.71387 -0.16966
# Poissons Ratio (y) = 0.22029 0.18760
# Poissons Ratio (z) = -0.07210 0.25835
#
# Static dielectric constant tensor:
#      x y z
#    x 3.985910 0.000000 0.561050 
#    y 0.000000 3.867440 0.000000 
#    z 0.561050 0.000000 3.951250 
# 
# 
# High freq. dielectric constant tensor:
#      x y z
#    x 1.811010 0.000000 0.033260 
#    y 0.000000 1.837540 0.000000 
#    z 0.033260 0.000000 1.825280 
# 
# From -- ./inp_files/105942.got.cif
#   From: 2010.06.25/outbox.cif.g09.slc.cpg/sg12_53_cif.got.tgz:105942.got - 2010.06.28 00:19:55.
