data_PCOD8094417
_publ_section_title
;
Structure prediction by ZEFSAII (Michael W. Deem and Ramdas Pophale) SiO2 
 PCOD8094417
Probable space group: C 2/M
;
_chemical_formula_sum "Si O2"
_cell_formula_units_Z 64
_cell_length_a 32.620439
_cell_length_b 13.762526
_cell_length_c 8.673085
_cell_angle_alpha 90.000000
_cell_angle_beta 56.999017
_cell_angle_gamma 90.000000
_cell_volume 3265.488209
_symmetry_space_group_name_H-M "C 2/M"
_symmetry_group_IT_number 12
_symmetry_cell_setting 'monoclinic'
loop_
_space_group_symop_operation_xyz
x,y,z
-x,y,-z
-x,-y,-z
x,-y,z
1/2+x,1/2+y,z
1/2-x,1/2+y,-z
1/2-x,1/2-y,-z
1/2+x,1/2-y,z
loop_
_atom_site_type_symbol
_atom_site_label
_atom_site_fract_x
_atom_site_fract_y
_atom_site_fract_z
Si Si1 0.926389 0.610170 0.297175
Si Si2 0.506473 0.784189 0.310542
Si Si3 0.828964 0.611087 0.673883
Si Si4 0.105342 0.286414 0.943502
Si Si5 0.029269 0.890972 0.789596
Si Si6 0.365709 0.610218 0.291294
Si Si7 0.691289 0.113524 0.934969
Si Si8 0.276384 0.277017 0.603294
O O1 0.928602 0.500000 0.232970
O O2 0.885218 0.624979 0.511331
O O3 0.915691 0.680214 0.177070
O O4 0.978513 0.637261 0.263022
O O5 0.500000 0.813007 0.500000
O O6 0.484697 0.677045 0.324841
O O7 0.563834 0.787472 0.157323
O O8 0.811963 0.500000 0.683530
O O9 0.794250 0.676555 0.640185
O O10 0.824715 0.641850 0.860279
O O11 0.125955 0.176860 0.877603
O O12 0.148734 0.357143 0.904208
O O13 0.087018 0.886724 0.696344
O O14 0.011860 0.000000 0.785800
O O15 0.000000 0.852911 0.000000
O O16 0.355237 0.500000 0.257313
O O17 0.320923 0.649795 0.483312
O O18 0.740445 0.170881 0.795842
O O19 0.701258 0.000000 0.894970
O O20 0.250000 0.250000 0.500000
#
# Coordination Sequence:
#
# PCOD8094417 Si02
#       8
#     8   8   8   8   8   8   8   8
#     4  11  22  40  63  89 120 160 209 252 299 365
#     4  12  24  37  58  90 127 162 198 247 311 371
#     4  10  22  41  65  92 127 163 202 251 310 372
#     4  12  22  40  63  88 120 162 209 258 300 362
#     4  10  19  37  63  85 113 156 203 248 298 356
#     4  11  22  38  63  90 118 154 205 260 302 351
#     4  11  24  41  61  91 127 166 204 252 313 364
#     4  12  22  40  64  92 124 163 209 255 300 363
#
# _framework density 19.598905999999999
#
# number of rings (size 3 to 8) (size 9 to 14) (size 15 to 20)
#    0.000    0.875    5.000    2.250    0.000    4.000 
#    0.000    0.000    0.000    0.750    0.000    0.000 
#    0.000    0.000    0.000    0.000    0.000    0.000 
#
# Total GULP energy -396988.240267 kJ/mol
# GULP energy per Si atom -12405.882508 kJ/mol
# Density = 1.955430 g / cm^3
# Si number density = 19.598906 Si / 1000 Ang^3
#
#
#
# Elastic Constant Matrix: (Units=GPa)
#
#
# Indices 1 2 3 4 5 6 
#
# 1 74.7241 28.3958 24.4527 0.0000 -4.9980 0.0000
# 2 28.3958 112.1071 35.3317 0.0000 -2.3557 0.0000
# 3 24.4527 35.3317 118.9988 0.0000 -12.7143 0.0000
# 4 0.0000 0.0000 0.0000 30.4327 0.0000 -1.7825
# 5 -4.9980 -2.3557 -12.7143 0.0000 36.4478 0.0000
# 6 0.0000 0.0000 0.0000 -1.7825 0.0000 32.1825
#
#
#
# Elastic Compliance Matrix: (Units=1/GPa)
#
#
# Indices 1 2 3 4 5 6 
#
# 1 0.015361 -0.003211 -0.002078 0.000000 0.001174 0.000000
# 2 -0.003211 0.010518 -0.002532 0.000000 -0.000644 0.000000
# 3 -0.002078 -0.002532 0.009903 0.000000 0.003006 0.000000
# 4 0.000000 0.000000 0.000000 0.032966 0.000000 0.001826
# 5 0.001174 -0.000644 0.003006 0.000000 0.028605 0.000000
# 6 0.000000 0.000000 0.000000 0.001826 0.000000 0.031174
#
#
# Mechanical properties :
#
#
# Convention : Reuss Voigt Hill
#
# Bulk Modulus (GPa) = 49.65016 53.57670 51.61343
# Shear Modulus (GPa) = 33.13841 34.32259 33.73050
#
# Velocity S-wave (km/s) = 4.11643 4.18933 4.15304
# Velocity P-wave (km/s) = 6.92686 7.12717 7.02773
#
# Compressibility (1/GPa) = 0.02014092
#
# Stress axis : x y z
#
# Youngs Moduli (GPa) = 65.09840 95.07663 100.97720
#
# Poissons Ratio (x) = 0.30533 0.20979
# Poissons Ratio (y) = 0.20906 0.25564
# Poissons Ratio (z) = 0.13525 0.24070
#
# Static dielectric constant tensor:
#      x y z
#    x 3.473960 0.000000 -0.183210 
#    y 0.000000 3.779030 0.000000 
#    z -0.183210 0.000000 3.734650 
# 
# 
# High freq. dielectric constant tensor:
#      x y z
#    x 1.753520 0.000000 -0.016620 
#    y 0.000000 1.777150 0.000000 
#    z -0.016620 0.000000 1.769840 
# 
# From -- ./inp_files/111990.got.cif
#   From: 2010.06.25/outbox.cif.g09.slc.cpg/sg12_56_cif.got.tgz:111990.got - 2010.06.28 00:19:55.
