data_PCOD8094697
_publ_section_title
;
Structure prediction by ZEFSAII (Michael W. Deem and Ramdas Pophale) SiO2 
 PCOD8094697
Probable space group: C 2/M
;
_chemical_formula_sum "Si O2"
_cell_formula_units_Z 48
_cell_length_a 12.054381
_cell_length_b 26.455219
_cell_length_c 14.417352
_cell_angle_alpha 90.000000
_cell_angle_beta 30.197305
_cell_angle_gamma 90.000000
_cell_volume 2312.554004
_symmetry_space_group_name_H-M "C 2/M"
_symmetry_group_IT_number 12
_symmetry_cell_setting 'monoclinic'
loop_
_space_group_symop_operation_xyz
x,y,z
-x,y,-z
-x,-y,-z
x,-y,z
1/2+x,1/2+y,z
1/2-x,1/2+y,-z
1/2-x,1/2-y,-z
1/2+x,1/2-y,z
loop_
_atom_site_type_symbol
_atom_site_label
_atom_site_fract_x
_atom_site_fract_y
_atom_site_fract_z
Si Si1 0.316851 0.056118 0.209764
Si Si2 0.234920 0.442705 0.374427
Si Si3 0.496315 0.943133 0.282843
Si Si4 0.601081 0.375927 0.018118
Si Si5 0.203890 0.167998 0.289076
Si Si6 0.807027 0.301403 0.011549
O O1 0.434307 0.064800 0.221913
O O2 0.172385 0.106755 0.297383
O O3 0.194245 0.000000 0.296771
O O4 0.500000 0.055212 0.000000
O O5 0.308384 0.500000 0.305294
O O6 0.213242 0.430200 0.500306
O O7 0.420662 0.409580 0.196581
O O8 0.000000 0.430615 0.500000
O O9 0.572463 0.000000 0.248712
O O10 0.700507 0.909102 0.164698
O O11 0.681337 0.340053 0.039169
O O12 0.500000 0.347753 0.000000
O O13 0.201412 0.196083 0.191137
O O14 0.000000 0.187235 0.500000
O O15 0.433139 0.184051 0.173355
O O16 0.750000 0.250000 0.000000
#
# Coordination Sequence:
#
# PCOD8094697 Si02
#       6
#     8   8   8   8   8   8
#     4  10  19  38  66 100 139 178 219 264 324 401
#     4  10  21  36  55  90 136 177 214 256 315 387
#     4  10  20  36  58  90 135 174 211 261 317 386
#     4  12  23  37  65  95 124 177 221 270 327 393
#     4  11  24  47  76 102 134 178 222 277 342 403
#     4  11  27  49  70  96 133 168 221 290 342 396
#
# _framework density 20.756271999999999
#
# number of rings (size 3 to 8) (size 9 to 14) (size 15 to 20)
#    0.000    1.333    5.000    0.500    4.667    1.667 
#    0.000    1.667    0.000    0.000    0.000    0.000 
#    0.000    0.000    0.000    0.000    0.000    0.000 
#
# Total GULP energy -297353.540250 kJ/mol
# GULP energy per Si atom -12389.730844 kJ/mol
# Density = 2.070903 g / cm^3
# Si number density = 20.756272 Si / 1000 Ang^3
#
#
#
# Elastic Constant Matrix: (Units=GPa)
#
#
# Indices 1 2 3 4 5 6 
#
# 1 128.2473 34.5451 53.5149 -0.0599 27.3772 0.0009
# 2 34.5451 100.0970 42.5727 -0.0417 0.0223 0.0012
# 3 53.5149 42.5727 133.3810 -0.1047 17.1411 0.0031
# 4 -0.0599 -0.0417 -0.1047 192.1368 0.0882 1.9389
# 5 27.3772 0.0223 17.1411 0.0882 24.9976 -0.0023
# 6 0.0009 0.0012 0.0031 1.9389 -0.0023 37.5892
#
#
#
# Elastic Compliance Matrix: (Units=1/GPa)
#
#
# Indices 1 2 3 4 5 6 
#
# 1 0.012126 -0.003183 -0.002350 0.000007 -0.011666 -0.000001
# 2 -0.003183 0.012572 -0.003490 -0.000003 0.005867 0.000000
# 3 -0.002350 -0.003490 0.010114 0.000006 -0.004359 -0.000001
# 4 0.000007 -0.000003 0.000006 0.005207 -0.000030 -0.000269
# 5 -0.011666 0.005867 -0.004359 -0.000030 0.055764 0.000005
# 6 -0.000001 0.000000 -0.000001 -0.000269 0.000005 0.026617
#
#
# Mechanical properties :
#
#
# Convention : Reuss Voigt Hill
#
# Bulk Modulus (GPa) = 59.64209 69.22118 64.43163
# Shear Modulus (GPa) = 34.23875 66.35089 50.29482
#
# Velocity S-wave (km/s) = 4.06589 5.66004 4.92785
# Velocity P-wave (km/s) = 7.13013 8.72563 7.96792
#
# Compressibility (1/GPa) = 0.01676668
#
# Stress axis : x y z
#
# Youngs Moduli (GPa) = 82.46996 79.54421 98.87118
#
# Poissons Ratio (x) = 0.25316 0.23235
# Poissons Ratio (y) = 0.26248 0.34503
# Poissons Ratio (z) = 0.19380 0.27759
#
# Static dielectric constant tensor:
#      x y z
#    x 4.017200 0.000000 0.269430 
#    y 0.000000 2.830810 0.000000 
#    z 0.269430 0.000000 3.831020 
# 
# 
# High freq. dielectric constant tensor:
#      x y z
#    x 1.829010 0.000000 0.021550 
#    y 0.000000 1.794450 0.000000 
#    z 0.021550 0.000000 1.814060 
# 
# From -- ./inp_files/209321.got.cif
#   From: 2010.06.25/outbox.cif.g09.slc.cpg/sg12_105_cif.got.tgz:209321.got - 2010.06.28 00:19:55.
