data_PCOD8094011
_publ_section_title
;
Structure prediction by ZEFSAII (Michael W. Deem and Ramdas Pophale) SiO2 
 PCOD8094011
Probable space group: C 2/M
;
_chemical_formula_sum "Si O2"
_cell_formula_units_Z 64
_cell_length_a 29.473987
_cell_length_b 9.027696
_cell_length_c 17.633553
_cell_angle_alpha 90.000000
_cell_angle_beta 45.312273
_cell_angle_gamma 90.000000
_cell_volume 3335.759856
_symmetry_space_group_name_H-M "C 2/M"
_symmetry_group_IT_number 12
_symmetry_cell_setting 'monoclinic'
loop_
_space_group_symop_operation_xyz
x,y,z
-x,y,-z
-x,-y,-z
x,-y,z
1/2+x,1/2+y,z
1/2-x,1/2+y,-z
1/2-x,1/2-y,-z
1/2+x,1/2-y,z
loop_
_atom_site_type_symbol
_atom_site_label
_atom_site_fract_x
_atom_site_fract_y
_atom_site_fract_z
Si Si1 0.547597 0.323846 0.218029
Si Si2 0.765751 0.662112 0.907800
Si Si3 0.366531 0.660693 0.016143
Si Si4 0.351041 0.827315 0.607227
Si Si5 0.117382 0.175318 0.287586
Si Si6 0.695126 0.828644 0.611500
Si Si7 0.705042 0.677410 0.758533
Si Si8 0.584125 0.168289 0.626335
O O1 0.555135 0.500000 0.207718
O O2 0.587757 0.255170 0.098813
O O3 0.574321 0.265461 0.267964
O O4 0.475010 0.277565 0.294682
O O5 0.796625 0.500000 0.888786
O O6 0.811440 0.765298 0.805603
O O7 0.750000 0.750000 0.000000
O O8 0.701841 0.633559 0.938795
O O9 0.398065 0.500000 0.995483
O O10 0.348976 0.737598 0.117578
O O11 0.398633 0.742099 0.610417
O O12 0.276948 0.776339 0.698187
O O13 0.375824 0.787793 0.494707
O O14 0.356349 0.000000 0.619865
O O15 0.114734 0.000000 0.294987
O O16 0.750000 0.750000 0.500000
O O17 0.686083 0.752359 0.702593
O O18 0.628258 0.810839 0.647278
O O19 0.713804 0.000000 0.599174
O O20 0.701706 0.500000 0.754454
O O21 0.559110 0.000000 0.649379
#
# Coordination Sequence:
#
# PCOD8094011 Si02
#       8
#     8   8   8   8   8   8   8   8
#     4  10  22  40  58  80 115 160 202 238 278 336
#     4  11  19  32  53  80 114 152 194 242 289 334
#     4   9  18  35  57  81 116 154 190 234 283 337
#     4  10  20  37  59  84 117 154 190 236 295 350
#     4  11  22  35  54  86 121 152 197 245 287 340
#     4  11  22  39  63  91 119 145 185 240 295 350
#     4  10  19  36  61  90 119 149 185 236 297 346
#     4  10  23  42  60  82 114 152 195 238 288 355
#
# _framework density 19.186033999999999
#
# number of rings (size 3 to 8) (size 9 to 14) (size 15 to 20)
#    0.000    1.750    3.750    1.125    0.000    3.500 
#    0.000    3.750    0.000    3.750    0.000    0.000 
#    0.000    0.000    0.000    0.000    0.000    0.000 
#
# Total GULP energy -396509.317954 kJ/mol
# GULP energy per Si atom -12390.916186 kJ/mol
# Density = 1.914237 g / cm^3
# Si number density = 19.186034 Si / 1000 Ang^3
#
#
#
# Elastic Constant Matrix: (Units=GPa)
#
#
# Indices 1 2 3 4 5 6 
#
# 1 101.0542 37.9401 60.3876 -0.0011 23.4977 -0.0002
# 2 37.9401 45.9099 30.2855 -0.0096 12.1757 0.0023
# 3 60.3876 30.2855 98.1185 -0.0052 18.6971 0.0003
# 4 -0.0011 -0.0096 -0.0052 21.8771 0.0040 -1.0423
# 5 23.4977 12.1757 18.6971 0.0040 38.7270 0.0000
# 6 -0.0002 0.0023 0.0003 -1.0423 0.0000 30.1848
#
#
#
# Elastic Compliance Matrix: (Units=1/GPa)
#
#
# Indices 1 2 3 4 5 6 
#
# 1 0.019409 -0.009386 -0.008113 -0.000004 -0.004909 0.000001
# 2 -0.009386 0.032791 -0.003817 0.000013 -0.002772 -0.000002
# 3 -0.008113 -0.003817 0.016736 0.000002 -0.001958 0.000000
# 4 -0.000004 0.000013 0.000002 0.045785 -0.000008 0.001581
# 5 -0.004909 -0.002772 -0.001958 -0.000008 0.030617 0.000000
# 6 0.000001 -0.000002 0.000000 0.001581 0.000000 0.033184
#
#
# Mechanical properties :
#
#
# Convention : Reuss Voigt Hill
#
# Bulk Modulus (GPa) = 38.01521 55.81211 46.91366
# Shear Modulus (GPa) = 21.74656 25.92241 23.83449
#
# Velocity S-wave (km/s) = 3.37034 3.67973 3.52843
# Velocity P-wave (km/s) = 5.91630 6.87074 6.41130
#
# Compressibility (1/GPa) = 0.02630526
#
# Stress axis : x y z
#
# Youngs Moduli (GPa) = 51.52222 30.49599 59.75162
#
# Poissons Ratio (x) = 0.28624 0.48476
# Poissons Ratio (y) = 0.48359 0.22804
# Poissons Ratio (z) = 0.41800 0.11639
#
# Static dielectric constant tensor:
#      x y z
#    x 3.426780 0.000000 0.250570 
#    y 0.000000 3.368920 0.000030 
#    z 0.250570 0.000030 3.671580 
# 
# 
# High freq. dielectric constant tensor:
#      x y z
#    x 1.737660 0.000000 0.022150 
#    y 0.000000 1.729240 0.000000 
#    z 0.022150 0.000000 1.752510 
# 
# From -- ./inp_files/295542.got.cif
#   From: 2010.06.25/outbox.cif.g09.slc.cpg/sg12_148_cif.got.tgz:295542.got - 2010.06.28 00:19:55.
