data_PCOD8094797
_publ_section_title
;
Structure prediction by ZEFSAII (Michael W. Deem and Ramdas Pophale) SiO2 
 PCOD8094797
Probable space group: C 2/M
;
_chemical_formula_sum "Si O2"
_cell_formula_units_Z 64
_cell_length_a 14.031610
_cell_length_b 27.581598
_cell_length_c 10.048473
_cell_angle_alpha 90.000000
_cell_angle_beta 58.916081
_cell_angle_gamma 90.000000
_cell_volume 3330.502438
_symmetry_space_group_name_H-M "C 2/M"
_symmetry_group_IT_number 12
_symmetry_cell_setting 'monoclinic'
loop_
_space_group_symop_operation_xyz
x,y,z
-x,y,-z
-x,-y,-z
x,-y,z
1/2+x,1/2+y,z
1/2-x,1/2+y,-z
1/2-x,1/2-y,-z
1/2+x,1/2-y,z
loop_
_atom_site_type_symbol
_atom_site_label
_atom_site_fract_x
_atom_site_fract_y
_atom_site_fract_z
Si Si1 0.560049 0.630753 0.825587
Si Si2 0.226810 0.055663 0.715964
Si Si3 0.216030 0.557233 0.824744
Si Si4 0.745953 0.811648 0.412524
Si Si5 0.087538 0.127473 0.321198
Si Si6 0.395851 0.056523 0.815262
Si Si7 0.869421 0.599643 0.385058
Si Si8 0.629851 0.721294 0.425451
O O1 0.599369 0.575017 0.804162
O O2 0.681666 0.655235 0.735743
O O3 0.481745 0.641999 0.758193
O O4 0.500000 0.649325 0.000000
O O5 0.294287 0.074258 0.796737
O O6 0.295545 0.066044 0.532847
O O7 0.207839 0.000000 0.744636
O O8 0.230581 0.500000 0.784389
O O9 0.336729 0.580996 0.764220
O O10 0.162180 0.586142 0.742319
O O11 0.136140 0.565395 0.008395
O O12 0.655576 0.843835 0.560547
O O13 0.690623 0.772316 0.351881
O O14 0.835970 0.787880 0.446679
O O15 0.162110 0.174619 0.310857
O O16 0.000000 0.114249 0.500000
O O17 0.500051 0.089023 0.693852
O O18 0.425750 0.000000 0.770423
O O19 0.500000 0.729625 0.500000
#
# Coordination Sequence:
#
# PCOD8094797 Si02
#       8
#     8   8   8   8   8   8   8   8
#     4  11  22  37  59  86 120 152 188 243 297 338
#     4  10  21  36  54  82 117 160 205 237 274 339
#     4  11  22  35  55  87 123 158 196 238 288 341
#     4  10  21  37  63  87 111 145 194 238 290 349
#     4  11  20  39  61  83 112 158 198 235 291 341
#     4  10  21  36  54  80 124 166 191 235 296 340
#     4  11  20  35  58  87 112 150 199 247 285 338
#     4  10  19  39  66  85 107 147 189 237 289 347
#
# _framework density 19.21632
#
# number of rings (size 3 to 8) (size 9 to 14) (size 15 to 20)
#    0.000    1.500    3.750    3.375    0.000    5.000 
#    0.000    0.625    5.500    0.000    0.000    0.000 
#    0.000    0.000    0.000    0.000    0.000    0.000 
#
# Total GULP energy -396609.337405 kJ/mol
# GULP energy per Si atom -12394.041794 kJ/mol
# Density = 1.917258 g / cm^3
# Si number density = 19.216320 Si / 1000 Ang^3
#
#
#
# Elastic Constant Matrix: (Units=GPa)
#
#
# Indices 1 2 3 4 5 6 
#
# 1 78.1023 46.6753 20.5642 0.0000 2.2025 0.0000
# 2 46.6753 72.3926 14.7137 0.0000 -10.5156 0.0000
# 3 20.5642 14.7137 87.3981 0.0000 2.3234 0.0000
# 4 0.0000 0.0000 0.0000 10.8094 0.0000 1.4458
# 5 2.2025 -10.5156 2.3234 0.0000 27.1573 0.0000
# 6 0.0000 0.0000 0.0000 1.4458 0.0000 56.2801
#
#
#
# Elastic Compliance Matrix: (Units=1/GPa)
#
#
# Indices 1 2 3 4 5 6 
#
# 1 0.022843 -0.015297 -0.002599 0.000000 -0.007553 0.000000
# 2 -0.015297 0.025505 -0.000992 0.000000 0.011201 0.000000
# 3 -0.002599 -0.000992 0.012253 0.000000 -0.001222 0.000000
# 4 0.000000 0.000000 0.000000 0.092831 0.000000 -0.002385
# 5 -0.007553 0.011201 -0.001222 0.000000 0.041877 0.000000
# 6 0.000000 0.000000 0.000000 -0.002385 0.000000 0.017830
#
#
# Mechanical properties :
#
#
# Convention : Reuss Voigt Hill
#
# Bulk Modulus (GPa) = 43.81199 44.64437 44.22818
# Shear Modulus (GPa) = 19.34071 29.24534 24.29302
#
# Velocity S-wave (km/s) = 3.17594 3.90539 3.55940
# Velocity P-wave (km/s) = 6.02475 6.60447 6.32126
#
# Compressibility (1/GPa) = 0.02282480
#
# Stress axis : x y z
#
# Youngs Moduli (GPa) = 43.77777 39.20791 81.61343
#
# Poissons Ratio (x) = 0.59976 0.21209
# Poissons Ratio (y) = 0.66966 0.08099
# Poissons Ratio (z) = 0.11376 0.03891
#
# Static dielectric constant tensor:
#      x y z
#    x 3.670940 0.000000 0.395380 
#    y 0.000000 3.837780 0.000000 
#    z 0.395380 0.000000 1.762410 
# 
# 
# High freq. dielectric constant tensor:
#      x y z
#    x 1.759470 0.000000 0.006890 
#    y 0.000000 1.745210 0.000000 
#    z 0.006890 0.000000 1.732200 
# 
# From -- ./inp_files/68233.got.cif
#   From: 2010.06.25/outbox.cif.g09.slc.cpg/sg12_35_cif.got.tgz:68233.got - 2010.06.28 00:19:55.
