data_PCOD8094860
_publ_section_title
;
Structure prediction by ZEFSAII (Michael W. Deem and Ramdas Pophale) SiO2 
 PCOD8094860
Probable space group: C 2/M
;
_chemical_formula_sum "Si O2"
_cell_formula_units_Z 44
_cell_length_a 15.250099
_cell_length_b 25.457406
_cell_length_c 6.635548
_cell_angle_alpha 90.000000
_cell_angle_beta 124.650193
_cell_angle_gamma 90.000000
_cell_volume 2119.203644
_symmetry_space_group_name_H-M "C 2/M"
_symmetry_group_IT_number 12
_symmetry_cell_setting 'monoclinic'
loop_
_space_group_symop_operation_xyz
x,y,z
-x,y,-z
-x,-y,-z
x,-y,z
1/2+x,1/2+y,z
1/2-x,1/2+y,-z
1/2-x,1/2-y,-z
1/2+x,1/2-y,z
loop_
_atom_site_type_symbol
_atom_site_label
_atom_site_fract_x
_atom_site_fract_y
_atom_site_fract_z
Si Si1 0.784634 0.308129 0.099160
Si Si2 0.387766 0.349761 0.832468
Si Si3 0.000000 0.642035 0.500000
Si Si4 0.723460 0.390059 0.687895
Si Si5 0.867568 0.439219 0.544002
Si Si6 0.332023 0.557878 0.997952
O O1 0.712082 0.320967 0.197977
O O2 0.907286 0.317035 0.319170
O O3 0.750000 0.250000 0.000000
O O4 0.769145 0.343934 0.884508
O O5 0.363341 0.362862 0.569298
O O6 0.500000 0.317661 0.000000
O O7 0.411730 0.402866 0.990543
O O8 0.964153 0.601669 0.631284
O O9 0.812697 0.421232 0.679431
O O10 0.668831 0.432541 0.763355
O O11 0.907190 0.500000 0.615411
O O12 0.786730 0.433441 0.249950
O O13 0.374336 0.500000 0.009192
#
# Coordination Sequence:
#
# PCOD8094860 Si02
#       6
#     8   8   4   8   8   8
#     4  11  26  45  65  92 127 169 216 276 324 371
#     4  10  22  42  62  89 126 166 218 270 313 374
#     4  12  21  46  64  98 138 162 215 274 312 396
#     4  10  19  41  63  91 128 169 218 256 325 391
#     4  10  20  37  64 100 137 169 203 265 330 391
#     4   9  18  35  59  93 131 168 209 255 314 384
#
# _framework density 20.762518
#
# number of rings (size 3 to 8) (size 9 to 14) (size 15 to 20)
#    0.000    1.818    5.455    0.818    0.000    6.909 
#    3.273    1.818    0.000    0.000    0.000    0.000 
#    0.000    0.000    0.000    0.000    0.000    0.000 
#
# Total GULP energy -272624.763058 kJ/mol
# GULP energy per Si atom -12392.034684 kJ/mol
# Density = 2.071526 g / cm^3
# Si number density = 20.762518 Si / 1000 Ang^3
#
#
#
# Elastic Constant Matrix: (Units=GPa)
#
#
# Indices 1 2 3 4 5 6 
#
# 1 86.9133 15.1738 51.2917 0.0000 11.3838 0.0000
# 2 15.1738 103.6623 24.7725 0.0000 9.6200 0.0000
# 3 51.2917 24.7725 99.7156 0.0000 -11.7610 0.0000
# 4 0.0000 0.0000 0.0000 25.6404 0.0000 2.9849
# 5 11.3838 9.6200 -11.7610 0.0000 39.1777 0.0000
# 6 0.0000 0.0000 0.0000 2.9849 0.0000 15.3361
#
#
#
# Elastic Compliance Matrix: (Units=1/GPa)
#
#
# Indices 1 2 3 4 5 6 
#
# 1 0.019096 0.000686 -0.011059 0.000000 -0.009037 0.000000
# 2 0.000686 0.010738 -0.003478 0.000000 -0.003880 0.000000
# 3 -0.011059 -0.003478 0.017687 0.000000 0.009377 0.000000
# 4 0.000000 0.000000 0.000000 0.039905 0.000000 -0.007767
# 5 -0.009037 -0.003880 0.009377 0.000000 0.031918 0.000000
# 6 0.000000 0.000000 0.000000 -0.007767 0.000000 0.066717
#
#
# Mechanical properties :
#
#
# Convention : Reuss Voigt Hill
#
# Bulk Modulus (GPa) = 50.45706 52.52969 51.49337
# Shear Modulus (GPa) = 22.68916 29.30104 25.99510
#
# Velocity S-wave (km/s) = 3.30933 3.76073 3.54223
# Velocity P-wave (km/s) = 6.24155 6.64926 6.44863
#
# Compressibility (1/GPa) = 0.01981883
#
# Stress axis : x y z
#
# Youngs Moduli (GPa) = 52.36697 93.13132 56.53841
#
# Poissons Ratio (x) = -0.06391 0.62526
# Poissons Ratio (y) = -0.03594 0.19665
# Poissons Ratio (z) = 0.57912 0.32393
#
# Static dielectric constant tensor:
#      x y z
#    x 3.707320 0.000000 -0.116680 
#    y 0.000000 3.907400 0.000000 
#    z -0.116680 0.000000 3.693730 
# 
# 
# High freq. dielectric constant tensor:
#      x y z
#    x 1.812950 0.000000 -0.011950 
#    y 0.000000 1.806470 0.000000 
#    z -0.011950 0.000000 1.807110 
# 
# From -- ./inp_files/12457.got.cif
#   From: 2010.06.25/outbox.cif.g09.slc.cpg/sg12_7_cif.got.tgz:12457.got - 2010.06.28 00:19:55.
