data_PCOD8094361
_publ_section_title
;
Structure prediction by ZEFSAII (Michael W. Deem and Ramdas Pophale) SiO2 
 PCOD8094361
Probable space group: C 2/M
;
_chemical_formula_sum "Si O2"
_cell_formula_units_Z 40
_cell_length_a 24.776018
_cell_length_b 8.942408
_cell_length_c 18.863980
_cell_angle_alpha 90.000000
_cell_angle_beta 29.531683
_cell_angle_gamma 90.000000
_cell_volume 2060.071695
_symmetry_space_group_name_H-M "C 2/M"
_symmetry_group_IT_number 12
_symmetry_cell_setting 'monoclinic'
loop_
_space_group_symop_operation_xyz
x,y,z
-x,y,-z
-x,-y,-z
x,-y,z
1/2+x,1/2+y,z
1/2-x,1/2+y,-z
1/2-x,1/2-y,-z
1/2+x,1/2-y,z
loop_
_atom_site_type_symbol
_atom_site_label
_atom_site_fract_x
_atom_site_fract_y
_atom_site_fract_z
Si Si1 0.716201 0.672655 0.846600
Si Si2 0.191952 0.322857 0.724029
Si Si3 0.019051 0.172897 0.826497
Si Si4 0.416211 0.677478 0.401294
Si Si5 0.070877 0.825165 0.349570
O O1 0.733229 0.500000 0.807033
O O2 0.704316 0.766900 0.789265
O O3 0.817640 0.732047 0.776178
O O4 0.609980 0.695306 0.016751
O O5 0.187036 0.500000 0.731722
O O6 0.295162 0.265293 0.559939
O O7 0.080863 0.261143 0.817556
O O8 0.052722 0.240004 0.711588
O O9 0.052734 0.000000 0.794183
O O10 0.419413 0.500000 0.398286
O O11 0.503504 0.735540 0.359084
O O12 0.000000 0.792232 0.500000
O O13 0.099177 0.000000 0.311247
#
# Coordination Sequence:
#
# PCOD8094361 Si02
#       5
#     8   8   8   8   8
#     4  11  23  37  56  84 117 150 184 228 281 334
#     4  11  21  37  61  85 110 147 194 234 272 327
#     4  10  22  39  56  81 118 152 182 226 285 335
#     4   9  19  37  60  83 111 148 186 230 281 329
#     4  10  19  37  62  84 109 145 189 232 276 329
#
# _framework density 19.416799999999999
#
# number of rings (size 3 to 8) (size 9 to 14) (size 15 to 20)
#    0.000    1.800    2.000    2.400    0.000    5.200 
#    0.000    2.000    0.000    0.000    0.000    0.000 
#    0.000    0.000    0.000    0.000    0.000    0.000 
#
# Total GULP energy -248086.737608 kJ/mol
# GULP energy per Si atom -12404.336880 kJ/mol
# Density = 1.937261 g / cm^3
# Si number density = 19.416800 Si / 1000 Ang^3
#
#
#
# Elastic Constant Matrix: (Units=GPa)
#
#
# Indices 1 2 3 4 5 6 
#
# 1 72.5718 23.4135 19.3272 -0.0127 -20.7348 0.0021
# 2 23.4135 60.6408 39.1352 -0.0047 -10.7106 0.0022
# 3 19.3272 39.1352 93.2638 -0.0082 -9.0995 0.0038
# 4 -0.0127 -0.0047 -0.0082 26.1271 -0.0017 -6.6223
# 5 -20.7348 -10.7106 -9.0995 -0.0017 38.1412 -0.0003
# 6 0.0021 0.0022 0.0038 -6.6223 -0.0003 27.6193
#
#
#
# Elastic Compliance Matrix: (Units=1/GPa)
#
#
# Indices 1 2 3 4 5 6 
#
# 1 0.017928 -0.004933 -0.000849 0.000008 0.008158 0.000001
# 2 -0.004933 0.024644 -0.009117 -0.000001 0.002063 0.000000
# 3 -0.000849 -0.009117 0.014773 0.000002 0.000503 -0.000001
# 4 0.000008 -0.000001 0.000002 0.040751 0.000007 0.009771
# 5 0.008158 0.002063 0.000503 0.000007 0.031353 0.000001
# 6 0.000001 0.000000 -0.000001 0.009771 0.000001 0.038549
#
#
# Mechanical properties :
#
#
# Convention : Reuss Voigt Hill
#
# Bulk Modulus (GPa) = 36.30344 43.35867 39.83105
# Shear Modulus (GPa) = 24.15706 28.01758 26.08732
#
# Velocity S-wave (km/s) = 3.53105 3.80275 3.66941
# Velocity P-wave (km/s) = 5.94659 6.45447 6.20573
#
# Compressibility (1/GPa) = 0.02754560
#
# Stress axis : x y z
#
# Youngs Moduli (GPa) = 55.77833 40.57852 67.69062
#
# Poissons Ratio (x) = 0.20017 0.05749
# Poissons Ratio (y) = 0.27515 0.61716
# Poissons Ratio (z) = 0.04737 0.36997
#
# Static dielectric constant tensor:
#      x y z
#    x 3.705580 -0.000010 -0.023210 
#    y -0.000010 3.343740 0.000010 
#    z -0.023210 0.000010 3.732760 
# 
# 
# High freq. dielectric constant tensor:
#      x y z
#    x 1.765630 0.000000 -0.004510 
#    y 0.000000 1.736500 0.000000 
#    z -0.004510 0.000000 1.765510 
# 
# From -- ./inp_files/151618.got.cif
#   From: 2010.06.25/outbox.cif.g09.slc.cpg/sg12_76_cif.got.tgz:151618.got - 2010.06.28 00:19:55.
