data_PCOD8094030
_publ_section_title
;
Structure prediction by ZEFSAII (Michael W. Deem and Ramdas Pophale) SiO2 
 PCOD8094030
Probable space group: C 2/M
;
_chemical_formula_sum "Si O2"
_cell_formula_units_Z 64
_cell_length_a 14.169118
_cell_length_b 33.265783
_cell_length_c 8.503443
_cell_angle_alpha 90.000000
_cell_angle_beta 50.942463
_cell_angle_gamma 90.000000
_cell_volume 3112.321397
_symmetry_space_group_name_H-M "C 2/M"
_symmetry_group_IT_number 12
_symmetry_cell_setting 'monoclinic'
loop_
_space_group_symop_operation_xyz
x,y,z
-x,y,-z
-x,-y,-z
x,-y,z
1/2+x,1/2+y,z
1/2-x,1/2+y,-z
1/2-x,1/2-y,-z
1/2+x,1/2-y,z
loop_
_atom_site_type_symbol
_atom_site_label
_atom_site_fract_x
_atom_site_fract_y
_atom_site_fract_z
Si Si1 0.839771 0.879209 0.013571
Si Si2 0.952464 0.754701 0.873557
Si Si3 0.278026 0.545412 0.560804
Si Si4 0.983694 0.547262 0.185949
Si Si5 0.258431 0.045125 0.027934
Si Si6 0.882039 0.877847 0.317012
Si Si7 0.257629 0.195447 0.031744
Si Si8 0.888216 0.806344 0.515791
O O1 0.831284 0.925188 0.967060
O O2 0.748349 0.851919 0.004230
O O3 0.977957 0.865225 0.847924
O O4 0.808641 0.877188 0.230731
O O5 0.837042 0.784812 0.992495
O O6 0.062519 0.769415 0.644250
O O7 0.896013 0.712041 0.870496
O O8 0.000000 0.751034 0.000000
O O9 0.319508 0.500000 0.470304
O O10 0.259803 0.547733 0.766250
O O11 0.376022 0.578034 0.402516
O O12 0.150502 0.557786 0.606550
O O13 0.986412 0.500000 0.154490
O O14 0.102189 0.558027 0.166231
O O15 0.000000 0.568941 0.000000
O O16 0.229647 0.000000 0.999500
O O17 0.826671 0.842464 0.482067
O O18 0.215662 0.207392 0.253295
O O19 0.000000 0.824161 0.500000
#
# Coordination Sequence:
#
# PCOD8094030 Si02
#       8
#     8   8   8   8   8   8   8   8
#     4  11  22  37  54  77 115 153 191 237 283 336
#     4  10  20  37  61  88 118 144 183 233 289 343
#     4   9  18  32  54  84 111 143 193 243 284 333
#     4   7  12  28  51  74 100 132 176 226 276 330
#     4   9  18  33  57  82 109 150 191 233 285 339
#     4  11  22  35  56  78 111 155 188 236 286 334
#     4  10  21  37  61  88 114 153 192 233 280 346
#     4  10  19  36  62  85 109 147 194 224 276 351
#
# _framework density 20.563431000000001
#
# number of rings (size 3 to 8) (size 9 to 14) (size 15 to 20)
#    0.000    2.375    2.500    3.000    0.000    1.500 
#    0.000    8.750    0.000    3.750    0.000    0.000 
#    0.000    0.000    0.000    0.000    0.000    0.000 
#
# Total GULP energy -396449.682363 kJ/mol
# GULP energy per Si atom -12389.052574 kJ/mol
# Density = 2.051663 g / cm^3
# Si number density = 20.563431 Si / 1000 Ang^3
#
#
#
# Elastic Constant Matrix: (Units=GPa)
#
#
# Indices 1 2 3 4 5 6 
#
# 1 67.1988 39.3567 33.5156 0.0000 15.1700 0.0000
# 2 39.3567 115.5924 46.3669 0.0000 6.0984 0.0000
# 3 33.5156 46.3669 55.1485 0.0000 10.0471 0.0000
# 4 0.0000 0.0000 0.0000 24.8077 0.0000 0.9028
# 5 15.1700 6.0984 10.0471 0.0000 19.6356 0.0000
# 6 0.0000 0.0000 0.0000 0.9028 0.0000 20.0945
#
#
#
# Elastic Compliance Matrix: (Units=1/GPa)
#
#
# Indices 1 2 3 4 5 6 
#
# 1 0.024870 -0.004033 -0.009320 0.000000 -0.013192 0.000000
# 2 -0.004033 0.013760 -0.009823 0.000000 0.003868 0.000000
# 3 -0.009320 -0.009823 0.033291 0.000000 -0.006783 0.000000
# 4 0.000000 0.000000 0.000000 0.040376 0.000000 -0.001814
# 5 -0.013192 0.003868 -0.006783 0.000000 0.063390 0.000000
# 6 0.000000 0.000000 0.000000 -0.001814 0.000000 0.049846
#
#
# Mechanical properties :
#
#
# Convention : Reuss Voigt Hill
#
# Bulk Modulus (GPa) = 39.10869 52.93534 46.02201
# Shear Modulus (GPa) = 17.83110 20.82092 19.32601
#
# Velocity S-wave (km/s) = 2.94790 3.18547 3.06898
# Velocity P-wave (km/s) = 5.53594 6.27120 5.91501
#
# Compressibility (1/GPa) = 0.02556977
#
# Stress axis : x y z
#
# Youngs Moduli (GPa) = 40.20934 72.67205 30.03777
#
# Poissons Ratio (x) = 0.29310 0.27995
# Poissons Ratio (y) = 0.16217 0.29506
# Poissons Ratio (z) = 0.37474 0.71385
#
# Static dielectric constant tensor:
#      x y z
#    x 3.777950 0.000000 -0.088460 
#    y 0.000000 3.607640 0.000000 
#    z -0.088460 0.000000 3.688380 
# 
# 
# High freq. dielectric constant tensor:
#      x y z
#    x 1.790000 0.000000 0.006350 
#    y 0.000000 1.790090 0.000000 
#    z 0.006350 0.000000 1.780220 
# 
# From -- ./inp_files/68193.got.cif
#   From: 2010.06.25/outbox.cif.g09.slc.cpg/sg12_35_cif.got.tgz:68193.got - 2010.06.28 00:19:55.
