data_PCOD8094182
_publ_section_title
;
Structure prediction by ZEFSAII (Michael W. Deem and Ramdas Pophale) SiO2 
 PCOD8094182
Probable space group: C 2/M
;
_chemical_formula_sum "Si O2"
_cell_formula_units_Z 56
_cell_length_a 24.309503
_cell_length_b 18.584138
_cell_length_c 9.096742
_cell_angle_alpha 90.000000
_cell_angle_beta 45.214251
_cell_angle_gamma 90.000000
_cell_volume 2916.804478
_symmetry_space_group_name_H-M "C 2/M"
_symmetry_group_IT_number 12
_symmetry_cell_setting 'monoclinic'
loop_
_space_group_symop_operation_xyz
x,y,z
-x,y,-z
-x,-y,-z
x,-y,z
1/2+x,1/2+y,z
1/2-x,1/2+y,-z
1/2-x,1/2-y,-z
1/2+x,1/2-y,z
loop_
_atom_site_type_symbol
_atom_site_label
_atom_site_fract_x
_atom_site_fract_y
_atom_site_fract_z
Si Si1 0.909971 0.417429 0.184682
Si Si2 0.260505 0.333895 0.011222
Si Si3 0.420959 0.422514 0.068176
Si Si4 0.420139 0.584540 0.732645
Si Si5 0.811476 0.318161 0.546171
Si Si6 0.811635 0.164762 0.467975
Si Si7 0.296729 0.082817 0.139146
O O1 0.889978 0.500000 0.258982
O O2 0.883480 0.370165 0.374551
O O3 0.868645 0.395803 0.108820
O O4 0.000000 0.403414 0.000000
O O5 0.347160 0.365791 0.820110
O O6 0.198588 0.373114 0.021576
O O7 0.250000 0.250000 0.000000
O O8 0.235199 0.348838 0.226649
O O9 0.375659 0.500000 0.155627
O O10 0.379447 0.359872 0.234421
O O11 0.500000 0.435551 0.000000
O O12 0.435205 0.398579 0.874728
O O13 0.500000 0.606701 0.500000
O O14 0.401049 0.500000 0.739590
O O15 0.837666 0.234623 0.515099
O O16 0.760880 0.317974 0.496043
O O17 0.785471 0.102237 0.629159
O O18 0.297525 0.000000 0.096331
#
# Coordination Sequence:
#
# PCOD8094182 Si02
#       7
#     8   8   8   8   8   8   8
#     4   9  20  40  63  88 117 151 200 256 305 359
#     4  12  23  40  59  87 127 161 202 253 303 372
#     4  10  21  35  57  86 116 150 196 247 295 358
#     4  10  23  41  60  87 125 166 203 248 309 369
#     4  10  21  36  60  84 113 157 198 246 301 355
#     4  10  19  37  56  83 116 151 198 248 291 353
#     4  10  21  36  61  88 116 158 200 246 304 362
#
# _framework density 19.199092
#
# number of rings (size 3 to 8) (size 9 to 14) (size 15 to 20)
#    0.000    1.857    2.857    0.857    2.000    2.286 
#    0.000    2.143    0.000    2.571    0.000    0.000 
#    0.000    0.000    0.000    0.000    0.000    0.000 
#
# Total GULP energy -347021.094318 kJ/mol
# GULP energy per Si atom -12393.610511 kJ/mol
# Density = 1.915539 g / cm^3
# Si number density = 19.199092 Si / 1000 Ang^3
#
#
#
# Elastic Constant Matrix: (Units=GPa)
#
#
# Indices 1 2 3 4 5 6 
#
# 1 79.2814 46.3394 38.2573 0.0000 -0.4956 0.0000
# 2 46.3394 104.9641 54.3734 0.0000 -7.5483 0.0000
# 3 38.2573 54.3734 113.9041 0.0000 -1.8709 0.0000
# 4 0.0000 0.0000 0.0000 36.2280 0.0000 2.6919
# 5 -0.4956 -7.5483 -1.8709 0.0000 29.5341 0.0000
# 6 0.0000 0.0000 0.0000 2.6919 0.0000 27.3907
#
#
#
# Elastic Compliance Matrix: (Units=1/GPa)
#
#
# Indices 1 2 3 4 5 6 
#
# 1 0.017781 -0.006448 -0.002919 0.000000 -0.001535 0.000000
# 2 -0.006448 0.015240 -0.005052 0.000000 0.003467 0.000000
# 3 -0.002919 -0.005052 0.012162 0.000000 -0.000570 0.000000
# 4 0.000000 0.000000 0.000000 0.027806 0.000000 -0.002733
# 5 -0.001535 0.003467 -0.000570 0.000000 0.034683 0.000000
# 6 0.000000 0.000000 0.000000 -0.002733 0.000000 0.036777
#
#
# Mechanical properties :
#
#
# Convention : Reuss Voigt Hill
#
# Bulk Modulus (GPa) = 61.18420 64.00997 62.59708
# Shear Modulus (GPa) = 27.97379 29.24253 28.60816
#
# Velocity S-wave (km/s) = 3.82126 3.90695 3.86434
# Velocity P-wave (km/s) = 7.16985 7.33245 7.25161
#
# Compressibility (1/GPa) = 0.01634409
#
# Stress axis : x y z
#
# Youngs Moduli (GPa) = 56.23879 65.61524 82.22104
#
# Poissons Ratio (x) = 0.42310 0.24003
# Poissons Ratio (y) = 0.36264 0.41542
# Poissons Ratio (z) = 0.16418 0.33152
#
# Static dielectric constant tensor:
#      x y z
#    x 3.451970 0.000000 0.183320 
#    y 0.000000 3.834760 0.000000 
#    z 0.183320 0.000000 3.432480 
# 
# 
# High freq. dielectric constant tensor:
#      x y z
#    x 1.736720 0.000000 0.015310 
#    y 0.000000 1.753910 0.000000 
#    z 0.015310 0.000000 1.740030 
# 
# From -- ./inp_files/98081.got.cif
#   From: 2010.06.25/outbox.cif.g09.slc.cpg/sg12_50_cif.got.tgz:98081.got - 2010.06.28 00:19:55.
