data_PCOD8094484
_publ_section_title
;
Structure prediction by ZEFSAII (Michael W. Deem and Ramdas Pophale) SiO2 
 PCOD8094484
Probable space group: C 2/M
;
_chemical_formula_sum "Si O2"
_cell_formula_units_Z 40
_cell_length_a 15.363501
_cell_length_b 17.833460
_cell_length_c 10.262842
_cell_angle_alpha 90.000000
_cell_angle_beta 47.611244
_cell_angle_gamma 90.000000
_cell_volume 2076.803907
_symmetry_space_group_name_H-M "C 2/M"
_symmetry_group_IT_number 12
_symmetry_cell_setting 'monoclinic'
loop_
_space_group_symop_operation_xyz
x,y,z
-x,y,-z
-x,-y,-z
x,-y,z
1/2+x,1/2+y,z
1/2-x,1/2+y,-z
1/2-x,1/2-y,-z
1/2+x,1/2-y,z
loop_
_atom_site_type_symbol
_atom_site_label
_atom_site_fract_x
_atom_site_fract_y
_atom_site_fract_z
Si Si1 0.252071 0.661525 0.997914
Si Si2 0.862741 0.416047 0.119973
Si Si3 0.513907 0.412388 0.335039
Si Si4 0.758883 0.911961 0.502646
Si Si5 0.137639 0.411166 0.362545
O O1 0.162549 0.634002 0.978738
O O2 0.383468 0.633847 0.836497
O O3 0.250000 0.750000 0.000000
O O4 0.207697 0.630324 0.179251
O O5 0.810784 0.500000 0.149553
O O6 0.803608 0.377863 0.306254
O O7 0.000000 0.420545 0.000000
O O8 0.500000 0.388281 0.500000
O O9 0.544066 0.500000 0.296423
O O10 0.397066 0.392678 0.370289
O O11 0.697353 0.880183 0.435016
O O12 0.735938 0.000000 0.528312
O O13 0.153776 0.500000 0.328818
O O14 0.000000 0.389193 0.500000
#
# Coordination Sequence:
#
# PCOD8094484 Si02
#       5
#     8   8   8   8   8
#     4  12  25  39  56  88 127 165 195 237 306 377
#     4  10  19  37  65  90 114 154 213 262 294 348
#     4  10  19  37  65  89 115 152 203 255 292 344
#     4   9  18  34  62  94 112 143 199 254 305 343
#     4  10  21  40  64  89 119 153 200 258 302 346
#
# _framework density 19.260363999999999
#
# number of rings (size 3 to 8) (size 9 to 14) (size 15 to 20)
#    0.000    1.800    2.000    3.000    0.000    4.800 
#    3.600    4.000    0.000    0.000    0.000    0.000 
#    0.000    0.000    0.000    0.000    0.000    0.000 
#
# Total GULP energy -248023.981065 kJ/mol
# GULP energy per Si atom -12401.199053 kJ/mol
# Density = 1.921653 g / cm^3
# Si number density = 19.260364 Si / 1000 Ang^3
#
#
#
# Elastic Constant Matrix: (Units=GPa)
#
#
# Indices 1 2 3 4 5 6 
#
# 1 148.2032 38.6594 47.6786 0.0000 10.2744 0.0000
# 2 38.6594 74.8543 47.1680 0.0000 2.2689 0.0000
# 3 47.6786 47.1680 121.7367 0.0000 1.4809 0.0000
# 4 0.0000 0.0000 0.0000 -1.6144 0.0000 3.2973
# 5 10.2744 2.2689 1.4809 0.0000 42.6840 0.0000
# 6 0.0000 0.0000 0.0000 3.2973 0.0000 5.3488
#
#
#
# Elastic Compliance Matrix: (Units=1/GPa)
#
#
# Indices 1 2 3 4 5 6 
#
# 1 0.008306 -0.002910 -0.002104 0.000000 -0.001772 0.000000
# 2 -0.002910 0.018715 -0.006111 0.000000 -0.000082 0.000000
# 3 -0.002104 -0.006111 0.011401 0.000000 0.000436 0.000000
# 4 0.000000 0.000000 0.000000 -0.274193 0.000000 0.169031
# 5 -0.001772 -0.000082 0.000436 0.000000 0.023844 0.000000
# 6 0.000000 0.000000 0.000000 0.169031 0.000000 0.082757
#
#
# Mechanical properties :
#
#
# Convention : Reuss Voigt Hill
#
# Bulk Modulus (GPa) = 61.83316 67.97846 64.90581
# Shear Modulus (GPa) = -49.24726 23.36955 -12.93885
#
# Velocity S-wave (km/s) = -5.06209 3.48710 -2.59470
# Velocity P-wave (km/s) = 1.41166 7.18222 4.97953
#
# Compressibility (1/GPa) = 0.01617255
#
# Stress axis : x y z
#
# Youngs Moduli (GPa) = 120.38910 53.43205 87.71336
#
# Poissons Ratio (x) = 0.15551 0.18455
# Poissons Ratio (y) = 0.35039 0.53598
# Poissons Ratio (z) = 0.25330 0.32650
#
# Static dielectric constant tensor:
#      x y z
#    x 3.751130 0.000000 0.060670 
#    y 0.000000 3.189470 0.000000 
#    z 0.060670 0.000000 3.659540 
# 
# 
# High freq. dielectric constant tensor:
#      x y z
#    x 1.767020 0.000000 -0.002370 
#    y 0.000000 1.708680 0.000000 
#    z -0.002370 0.000000 1.763240 
# 
# From -- ./inp_files/60824.got.cif
#   From: 2010.06.25/outbox.cif.g09.slc.cpg/sg12_31_cif.got.tgz:60824.got - 2010.06.28 00:19:55.
