data_PCOD8094617
_publ_section_title
;
Structure prediction by ZEFSAII (Michael W. Deem and Ramdas Pophale) SiO2 
 PCOD8094617
Probable space group: C 2/M
;
_chemical_formula_sum "Si O2"
_cell_formula_units_Z 32
_cell_length_a 5.352080
_cell_length_b 13.875662
_cell_length_c 18.443284
_cell_angle_alpha 90.000000
_cell_angle_beta 81.883760
_cell_angle_gamma 90.000000
_cell_volume 1355.946636
_symmetry_space_group_name_H-M "C 2/M"
_symmetry_group_IT_number 12
_symmetry_cell_setting 'monoclinic'
loop_
_space_group_symop_operation_xyz
x,y,z
-x,y,-z
-x,-y,-z
x,-y,z
1/2+x,1/2+y,z
1/2-x,1/2+y,-z
1/2-x,1/2-y,-z
1/2+x,1/2-y,z
loop_
_atom_site_type_symbol
_atom_site_label
_atom_site_fract_x
_atom_site_fract_y
_atom_site_fract_z
Si Si1 0.161695 0.500000 0.632366
Si Si2 0.541300 0.844791 0.915876
Si Si3 0.384174 0.500000 0.273608
Si Si4 0.069744 0.864310 0.857382
Si Si5 0.208097 0.709434 0.581823
O O1 0.365482 0.500000 0.688046
O O2 0.204446 0.593705 0.580817
O O3 0.874460 0.500000 0.671368
O O4 0.299981 0.905245 0.897652
O O5 0.567427 0.751397 0.862773
O O6 0.800512 0.905236 0.897878
O O7 0.500000 0.811029 0.000000
O O8 0.389910 0.402827 0.225315
O O9 0.250000 0.750000 0.500000
O O10 0.440167 0.748399 0.622148
#
# Coordination Sequence:
#
# PCOD8094617 Si02
#       5
#     4   8   4   8   8
#     4  12  26  48  67 104 151 180 225 296 321 416
#     4  10  19  38  62  89 118 165 226 286 341 388
#     4  12  26  44  60  92 144 188 217 258 357 398
#     4  10  20  37  57  85 121 172 218 268 329 404
#     4  10  23  45  75 111 137 179 231 273 351 400
#
# _framework density 23.59975
#
# number of rings (size 3 to 8) (size 9 to 14) (size 15 to 20)
#    0.000    1.500    0.000    6.750    0.000    4.000 
#   27.000    6.875    0.000    0.000    0.000    0.000 
#    0.000    0.000    0.000    0.000    0.000    0.000 
#
# Total GULP energy -198230.882324 kJ/mol
# GULP energy per Si atom -12389.430145 kJ/mol
# Density = 2.354604 g / cm^3
# Si number density = 23.599750 Si / 1000 Ang^3
#
#
#
# Elastic Constant Matrix: (Units=GPa)
#
#
# Indices 1 2 3 4 5 6 
#
# 1 251.0469 22.6834 20.4526 0.0000 -21.9465 0.0000
# 2 22.6834 157.0466 43.6241 0.0000 -4.6139 0.0000
# 3 20.4526 43.6241 81.8685 0.0000 -3.1067 0.0000
# 4 0.0000 0.0000 0.0000 -249.1983 0.0000 -20.6289
# 5 -21.9465 -4.6139 -3.1067 0.0000 24.0133 0.0000
# 6 0.0000 0.0000 0.0000 -20.6289 0.0000 12.1314
#
#
#
# Elastic Compliance Matrix: (Units=1/GPa)
#
#
# Indices 1 2 3 4 5 6 
#
# 1 0.004414 -0.000303 -0.000794 0.000000 0.003873 0.000000
# 2 -0.000303 0.007515 -0.003904 0.000000 0.000662 0.000000
# 3 -0.000794 -0.003904 0.014508 0.000000 0.000401 0.000000
# 4 0.000000 0.000000 0.000000 -0.003518 0.000000 -0.005982
# 5 0.003873 0.000662 0.000401 0.000000 0.045362 0.000000
# 6 0.000000 0.000000 0.000000 -0.005982 0.000000 0.072259
#
#
# Mechanical properties :
#
#
# Convention : Reuss Voigt Hill
#
# Bulk Modulus (GPa) = 60.84365 73.72024 67.28194
# Shear Modulus (GPa) = 32.04676 -15.73059 8.15808
#
# Velocity S-wave (km/s) = 3.68901 -2.58458 1.86128
# Velocity P-wave (km/s) = 6.63193 4.73274 5.76113
#
# Compressibility (1/GPa) = 0.01643557
#
# Stress axis : x y z
#
# Youngs Moduli (GPa) = 226.55201 133.06533 68.92556
#
# Poissons Ratio (x) = 0.04034 0.05474
# Poissons Ratio (y) = 0.06868 0.26906
# Poissons Ratio (z) = 0.17993 0.51944
#
# Static dielectric constant tensor:
#      x y z
#    x 7.521600 0.000000 -0.308500 
#    y 0.000000 3.983770 0.000000 
#    z -0.308500 0.000000 3.726990 
# 
# 
# High freq. dielectric constant tensor:
#      x y z
#    x 1.988550 0.000000 -0.007730 
#    y 0.000000 1.924260 0.000000 
#    z -0.007730 0.000000 1.892320 
# 
# From -- ./inp_files/252377.got.cif
#   From: 2010.06.25/outbox.cif.g09.slc.cpg/sg12_127_cif.got.tgz:252377.got - 2010.06.28 00:19:55.
