data_PCOD8094317
_publ_section_title
;
Structure prediction by ZEFSAII (Michael W. Deem and Ramdas Pophale) SiO2 
 PCOD8094317
Probable space group: C 2/M
;
_chemical_formula_sum "Si O2"
_cell_formula_units_Z 64
_cell_length_a 24.644341
_cell_length_b 17.560051
_cell_length_c 20.346662
_cell_angle_alpha 90.000000
_cell_angle_beta 157.497118
_cell_angle_gamma 90.000000
_cell_volume 3369.989508
_symmetry_space_group_name_H-M "C 2/M"
_symmetry_group_IT_number 12
_symmetry_cell_setting 'monoclinic'
loop_
_space_group_symop_operation_xyz
x,y,z
-x,y,-z
-x,-y,-z
x,-y,z
1/2+x,1/2+y,z
1/2-x,1/2+y,-z
1/2-x,1/2-y,-z
1/2+x,1/2-y,z
loop_
_atom_site_type_symbol
_atom_site_label
_atom_site_fract_x
_atom_site_fract_y
_atom_site_fract_z
Si Si1 0.744582 0.668881 0.458619
Si Si2 0.272503 0.775178 0.350913
Si Si3 0.505581 0.913254 0.806903
Si Si4 0.955110 0.910956 0.144019
Si Si5 0.055080 0.207433 0.632791
Si Si6 0.448591 0.840257 0.873833
Si Si7 0.665373 0.292345 0.091358
Si Si8 0.823003 0.088507 0.136360
O O1 0.750000 0.750000 0.500000
O O2 0.729292 0.672444 0.363211
O O3 0.895157 0.630852 0.638971
O O4 0.612853 0.619316 0.337068
O O5 0.441257 0.766228 0.535224
O O6 0.211121 0.689549 0.293587
O O7 0.206088 0.814698 0.211716
O O8 0.460762 0.905310 0.833073
O O9 0.498226 0.000000 0.777540
O O10 0.663064 0.881766 0.969596
O O11 0.861501 0.896458 0.103884
O O12 0.961939 0.000000 0.133475
O O13 0.881898 0.866843 0.001607
O O14 0.200930 0.253247 0.793311
O O15 0.072173 0.134261 0.698394
O O16 0.000000 0.178955 0.500000
O O17 0.500000 0.875910 0.000000
O O18 0.536599 0.766817 0.948228
O O19 0.838431 0.000000 0.172271
#
# Coordination Sequence:
#
# PCOD8094317 Si02
#       8
#     8   8   8   8   8   8   8   8
#     4  12  22  38  61  88 115 150 193 240 291 342
#     4  10  21  36  60  90 114 143 195 245 289 334
#     4  11  23  39  56  84 120 155 192 234 286 349
#     4  11  24  41  59  85 118 155 194 241 296 347
#     4  10  21  37  61  90 115 148 194 240 287 341
#     4  10  19  37  61  84 115 148 189 238 283 342
#     4  10  20  39  62  85 115 148 195 245 281 343
#     4  10  23  40  58  82 119 158 194 235 287 349
#
# _framework density 18.991157000000001
#
# number of rings (size 3 to 8) (size 9 to 14) (size 15 to 20)
#    0.000    1.500    3.750    1.125    1.750    1.000 
#    0.000    1.875    0.000    3.375    0.000    0.000 
#    0.000    0.000    0.000    0.000    0.000    0.000 
#
# Total GULP energy -396828.763120 kJ/mol
# GULP energy per Si atom -12400.898847 kJ/mol
# Density = 1.894793 g / cm^3
# Si number density = 18.991157 Si / 1000 Ang^3
#
#
#
# Elastic Constant Matrix: (Units=GPa)
#
#
# Indices 1 2 3 4 5 6 
#
# 1 98.4515 29.6410 32.2720 0.0024 -5.4186 0.0015
# 2 29.6410 76.0212 38.8430 0.0007 -11.2342 0.0004
# 3 32.2720 38.8430 93.8693 0.0023 -5.3351 0.0015
# 4 0.0024 0.0007 0.0023 25.9366 0.0009 -2.7868
# 5 -5.4186 -11.2342 -5.3351 0.0009 30.2203 0.0005
# 6 0.0015 0.0004 0.0015 -2.7868 0.0005 30.8571
#
#
#
# Elastic Compliance Matrix: (Units=1/GPa)
#
#
# Indices 1 2 3 4 5 6 
#
# 1 0.012065 -0.003206 -0.002794 -0.000001 0.000478 -0.000001
# 2 -0.003206 0.018327 -0.006189 0.000000 0.005145 0.000000
# 3 -0.002794 -0.006189 0.014158 -0.000001 -0.000302 -0.000001
# 4 -0.000001 0.000000 -0.000001 0.038933 -0.000001 0.003516
# 5 0.000478 0.005145 -0.000302 -0.000001 0.035036 -0.000001
# 6 -0.000001 0.000000 -0.000001 0.003516 -0.000001 0.032725
#
#
# Mechanical properties :
#
#
# Convention : Reuss Voigt Hill
#
# Bulk Modulus (GPa) = 49.57544 52.20600 50.89072
# Shear Modulus (GPa) = 27.42062 28.57518 27.99790
#
# Velocity S-wave (km/s) = 3.80394 3.88320 3.84377
# Velocity P-wave (km/s) = 6.74199 6.90326 6.82310
#
# Compressibility (1/GPa) = 0.02017128
#
# Stress axis : x y z
#
# Youngs Moduli (GPa) = 82.88678 54.56476 70.63371
#
# Poissons Ratio (x) = 0.17492 0.19736
# Poissons Ratio (y) = 0.26571 0.43716
# Poissons Ratio (z) = 0.23159 0.33770
#
# Static dielectric constant tensor:
#      x y z
#    x 3.665250 0.000000 0.101540 
#    y 0.000000 3.179200 0.000010 
#    z 0.101540 0.000010 3.611300 
# 
# 
# High freq. dielectric constant tensor:
#      x y z
#    x 1.752790 0.000000 0.006610 
#    y 0.000000 1.708020 0.000000 
#    z 0.006610 0.000000 1.754430 
# 
# From -- ./inp_files/326142.got.cif
#   From: 2010.06.25/outbox.cif.g09.slc.cpg/sg12_164_cif.got.tgz:326142.got - 2010.06.28 00:19:55.
