data_PCOD8094144
_publ_section_title
;
Structure prediction by ZEFSAII (Michael W. Deem and Ramdas Pophale) SiO2 
 PCOD8094144
Probable space group: C 2/M
;
_chemical_formula_sum "Si O2"
_cell_formula_units_Z 40
_cell_length_a 14.506149
_cell_length_b 18.148400
_cell_length_c 7.398958
_cell_angle_alpha 90.000000
_cell_angle_beta 127.731276
_cell_angle_gamma 90.000000
_cell_volume 1540.553923
_symmetry_space_group_name_H-M "C 2/M"
_symmetry_group_IT_number 12
_symmetry_cell_setting 'monoclinic'
loop_
_space_group_symop_operation_xyz
x,y,z
-x,y,-z
-x,-y,-z
x,-y,z
1/2+x,1/2+y,z
1/2-x,1/2+y,-z
1/2-x,1/2-y,-z
1/2+x,1/2-y,z
loop_
_atom_site_type_symbol
_atom_site_label
_atom_site_fract_x
_atom_site_fract_y
_atom_site_fract_z
Si Si1 0.372295 0.000000 0.764515
Si Si2 0.302239 0.655228 0.922010
Si Si3 0.822532 0.339763 0.566211
Si Si4 0.126531 0.160008 0.600790
Si Si5 0.000000 0.250103 0.000000
Si Si6 0.111090 0.000000 0.009763
Si Si7 0.859731 0.000000 0.357103
O O1 0.345043 0.072713 0.613391
O O2 0.281761 0.000000 0.824659
O O3 0.500000 0.000000 0.000000
O O4 0.193576 0.683385 0.667340
O O5 0.419469 0.699091 0.024495
O O6 0.312991 0.572178 0.862017
O O7 0.284764 0.661139 0.117849
O O8 0.703225 0.308519 0.525004
O O9 0.935682 0.300772 0.777934
O O10 0.100586 0.076130 0.501117
O O11 0.000000 0.196177 0.500000
O O12 0.075032 0.000000 0.756799
O O13 0.000000 0.000000 0.000000
#
# Coordination Sequence:
#
# PCOD8094144 Si02
#       7
#     4   8   8   8   4   4   4
#     4  10  19  42  69  89 128 173 209 262 321 376
#     4  11  23  41  63  94 127 162 215 260 316 383
#     4  11  24  42  67  93 126 170 214 259 318 383
#     4  10  21  38  63  93 129 164 205 269 321 369
#     4  12  24  42  64  92 130 170 214 256 314 388
#     4  10  19  36  65  93 127 161 203 272 326 364
#     4   8  19  32  58  98 125 156 213 259 315 388
#
# _framework density 25.964684999999999
#
# number of rings (size 3 to 8) (size 9 to 14) (size 15 to 20)
#    0.000    1.600    2.000    2.700    2.800    0.800 
#    0.000    3.000    0.000    3.600    0.000    0.000 
#    0.000    0.000    0.000    0.000    0.000    0.000 
#
# Total GULP energy -247769.593868 kJ/mol
# GULP energy per Si atom -12388.479693 kJ/mol
# Density = 2.590559 g / cm^3
# Si number density = 25.964685 Si / 1000 Ang^3
#
#
#
# Elastic Constant Matrix: (Units=GPa)
#
#
# Indices 1 2 3 4 5 6 
#
# 1 89.3517 4.0274 38.3117 0.0000 0.6843 0.0000
# 2 4.0274 64.4425 18.1543 0.0000 -6.6835 0.0000
# 3 38.3117 18.1543 142.5203 0.0000 -9.2510 0.0000
# 4 0.0000 0.0000 0.0000 27.9652 0.0000 -1.1695
# 5 0.6843 -6.6835 -9.2510 0.0000 47.9151 0.0000
# 6 0.0000 0.0000 0.0000 -1.1695 0.0000 20.7654
#
#
#
# Elastic Compliance Matrix: (Units=1/GPa)
#
#
# Indices 1 2 3 4 5 6 
#
# 1 0.012684 0.000100 -0.003477 0.000000 -0.000839 0.000000
# 2 0.000100 0.016264 -0.001976 0.000000 0.001886 0.000000
# 3 -0.003477 -0.001976 0.008292 0.000000 0.001375 0.000000
# 4 0.000000 0.000000 0.000000 0.035843 0.000000 0.002019
# 5 -0.000839 0.001886 0.001375 0.000000 0.021411 0.000000
# 6 0.000000 0.000000 0.000000 0.002019 0.000000 0.048271
#
#
# Mechanical properties :
#
#
# Convention : Reuss Voigt Hill
#
# Bulk Modulus (GPa) = 37.68766 46.36682 42.02724
# Shear Modulus (GPa) = 30.80412 35.05057 32.92734
#
# Velocity S-wave (km/s) = 3.44813 3.67813 3.56498
# Velocity P-wave (km/s) = 5.51355 5.99455 5.75907
#
# Compressibility (1/GPa) = 0.02653388
#
# Stress axis : x y z
#
# Youngs Moduli (GPa) = 78.83660 61.48647 120.59575
#
# Poissons Ratio (x) = -0.00614 0.41930
# Poissons Ratio (y) = -0.00787 0.23831
# Poissons Ratio (z) = 0.27411 0.12150
#
# Static dielectric constant tensor:
#      x y z
#    x 4.558120 0.000000 -0.094880 
#    y 0.000000 5.570470 0.000000 
#    z -0.094880 0.000000 4.688470 
# 
# 
# High freq. dielectric constant tensor:
#      x y z
#    x 2.011930 0.000000 -0.005170 
#    y 0.000000 2.072340 0.000000 
#    z -0.005170 0.000000 2.041180 
# 
# From -- ./inp_files/77833.got.cif
#   From: 2010.06.25/outbox.cif.g09.slc.cpg/sg12_39_cif.got.tgz:77833.got - 2010.06.28 00:19:55.
