data_PCOD8094740
_publ_section_title
;
Structure prediction by ZEFSAII (Michael W. Deem and Ramdas Pophale) SiO2 
 PCOD8094740
Probable space group: C 2/M
;
_chemical_formula_sum "Si O2"
_cell_formula_units_Z 64
_cell_length_a 18.630994
_cell_length_b 13.826628
_cell_length_c 20.128568
_cell_angle_alpha 90.000000
_cell_angle_beta 38.623105
_cell_angle_gamma 90.000000
_cell_volume 3236.571911
_symmetry_space_group_name_H-M "C 2/M"
_symmetry_group_IT_number 12
_symmetry_cell_setting 'monoclinic'
loop_
_space_group_symop_operation_xyz
x,y,z
-x,y,-z
-x,-y,-z
x,-y,z
1/2+x,1/2+y,z
1/2-x,1/2+y,-z
1/2-x,1/2-y,-z
1/2+x,1/2-y,z
loop_
_atom_site_type_symbol
_atom_site_label
_atom_site_fract_x
_atom_site_fract_y
_atom_site_fract_z
Si Si1 0.331152 0.105583 0.543126
Si Si2 0.369264 0.390401 0.092520
Si Si3 0.309146 0.609954 0.983872
Si Si4 0.484918 0.243439 0.646801
Si Si5 0.299813 0.352836 0.481816
Si Si6 0.420222 0.214440 0.839707
Si Si7 0.276444 0.240820 0.705465
Si Si8 0.151272 0.390916 0.714521
O O1 0.442485 0.148349 0.425371
O O2 0.227154 0.086798 0.565402
O O3 0.293034 0.179282 0.627027
O O4 0.362579 0.000000 0.550367
O O5 0.358459 0.500000 0.127721
O O6 0.297983 0.319789 0.189860
O O7 0.500000 0.355217 0.000000
O O8 0.322559 0.383253 0.052534
O O9 0.325183 0.500000 0.946917
O O10 0.404230 0.676815 0.879365
O O11 0.181113 0.646551 0.058658
O O12 0.564755 0.338575 0.600621
O O13 0.415529 0.217847 0.763464
O O14 0.397849 0.268238 0.650419
O O15 0.250000 0.250000 0.500000
O O16 0.237725 0.398414 0.590041
O O17 0.540594 0.172318 0.776759
O O18 0.213648 0.340613 0.731878
O O19 0.115932 0.500000 0.760282
#
# Coordination Sequence:
#
# PCOD8094740 Si02
#       8
#     8   8   8   8   8   8   8   8
#     4  11  22  37  63  95 126 161 205 258 316 380
#     4  10  21  38  61  93 128 162 201 254 324 390
#     4  10  22  40  65  98 125 159 212 268 327 375
#     4  11  22  39  62  90 127 169 202 257 312 373
#     4  10  19  39  59  86 123 162 209 261 303 357
#     4  11  21  41  69  92 124 167 211 271 314 369
#     4  12  23  40  61  91 134 164 206 253 318 377
#     4  12  24  41  64  88 122 173 221 253 307 382
#
# _framework density 19.774007000000001
#
# number of rings (size 3 to 8) (size 9 to 14) (size 15 to 20)
#    0.000    1.125    6.250    2.250    0.000    2.000 
#    0.000    6.875    0.000    1.125    0.000    0.000 
#    0.000    0.000    0.000    0.000    0.000    0.000 
#
# Total GULP energy -396772.363179 kJ/mol
# GULP energy per Si atom -12399.136349 kJ/mol
# Density = 1.972900 g / cm^3
# Si number density = 19.774007 Si / 1000 Ang^3
#
#
#
# Elastic Constant Matrix: (Units=GPa)
#
#
# Indices 1 2 3 4 5 6 
#
# 1 130.8065 37.6669 27.8085 0.0000 -16.3424 0.0000
# 2 37.6669 126.8553 42.8842 0.0000 -0.7747 0.0000
# 3 27.8085 42.8842 80.3314 0.0000 -6.5727 0.0000
# 4 0.0000 0.0000 0.0000 18.0997 0.0000 -0.0741
# 5 -16.3424 -0.7747 -6.5727 0.0000 28.2519 0.0000
# 6 0.0000 0.0000 0.0000 -0.0741 0.0000 20.3441
#
#
#
# Elastic Compliance Matrix: (Units=1/GPa)
#
#
# Indices 1 2 3 4 5 6 
#
# 1 0.009226 -0.002154 -0.001643 0.000000 0.004896 0.000000
# 2 -0.002154 0.010147 -0.004842 0.000000 -0.002094 0.000000
# 3 -0.001643 -0.004842 0.015815 0.000000 0.002596 0.000000
# 4 0.000000 0.000000 0.000000 0.055250 0.000000 0.000201
# 5 0.004896 -0.002094 0.002596 0.000000 0.038774 0.000000
# 6 0.000000 0.000000 0.000000 0.000201 0.000000 0.049155
#
#
# Mechanical properties :
#
#
# Convention : Reuss Voigt Hill
#
# Bulk Modulus (GPa) = 55.84094 61.63471 58.73782
# Shear Modulus (GPa) = 24.79957 28.64807 26.72382
#
# Velocity S-wave (km/s) = 3.54524 3.81041 3.68021
# Velocity P-wave (km/s) = 6.71261 7.11310 6.91575
#
# Compressibility (1/GPa) = 0.01790801
#
# Stress axis : x y z
#
# Youngs Moduli (GPa) = 108.38761 98.55294 63.23184
#
# Poissons Ratio (x) = 0.21229 0.10391
# Poissons Ratio (y) = 0.23347 0.30620
# Poissons Ratio (z) = 0.17812 0.47724
#
# Static dielectric constant tensor:
#      x y z
#    x 4.124340 0.000000 -0.035780 
#    y 0.000000 3.779130 0.000000 
#    z -0.035780 0.000000 3.598570 
# 
# 
# High freq. dielectric constant tensor:
#      x y z
#    x 1.777240 0.000000 -0.003740 
#    y 0.000000 1.764960 0.000000 
#    z -0.003740 0.000000 1.765670 
# 
# From -- ./inp_files/278145.got.cif
#   From: 2010.06.25/outbox.cif.g09.slc.cpg/sg12_140_cif.got.tgz:278145.got - 2010.06.28 00:19:55.
