data_PCOD8094803
_publ_section_title
;
Structure prediction by ZEFSAII (Michael W. Deem and Ramdas Pophale) SiO2 
 PCOD8094803
Probable space group: C 2/M
;
_chemical_formula_sum "Si O2"
_cell_formula_units_Z 40
_cell_length_a 22.921000
_cell_length_b 8.540098
_cell_length_c 10.157260
_cell_angle_alpha 90.000000
_cell_angle_beta 90.797536
_cell_angle_gamma 90.000000
_cell_volume 1988.066512
_symmetry_space_group_name_H-M "C 2/M"
_symmetry_group_IT_number 12
_symmetry_cell_setting 'monoclinic'
loop_
_space_group_symop_operation_xyz
x,y,z
-x,y,-z
-x,-y,-z
x,-y,z
1/2+x,1/2+y,z
1/2-x,1/2+y,-z
1/2-x,1/2-y,-z
1/2+x,1/2-y,z
loop_
_atom_site_type_symbol
_atom_site_label
_atom_site_fract_x
_atom_site_fract_y
_atom_site_fract_z
Si Si1 0.493859 0.315826 0.347821
Si Si2 0.814648 0.184541 0.981331
Si Si3 0.187361 0.813880 0.528685
Si Si4 0.879851 0.184388 0.727790
Si Si5 0.122699 0.682658 0.770277
O O1 0.500000 0.262612 0.500000
O O2 0.479936 0.500000 0.342714
O O3 0.551887 0.270572 0.267971
O O4 0.442561 0.224525 0.274118
O O5 0.843789 0.256241 0.849136
O O6 0.808811 0.000000 0.970408
O O7 0.750000 0.250000 0.000000
O O8 0.859225 0.226804 0.098018
O O9 0.250000 0.750000 0.500000
O O10 0.145653 0.754645 0.410648
O O11 0.167991 0.732064 0.660929
O O12 0.186184 0.000000 0.546181
O O13 0.872780 0.000000 0.732770
O O14 0.127949 0.500000 0.798101
#
# Coordination Sequence:
#
# PCOD8094803 Si02
#       5
#     8   8   8   8   8
#     4  10  19  39  67  91 119 158 205 260 318 374
#     4  11  23  42  65  91 125 164 206 257 315 376
#     4  11  21  38  62  92 122 158 206 261 316 372
#     4   9  20  38  63  90 118 155 203 256 314 375
#     4  12  25  40  59  90 128 168 209 252 303 370
#
# _framework density 20.120052999999999
#
# number of rings (size 3 to 8) (size 9 to 14) (size 15 to 20)
#    0.000    1.400    2.000    4.200    0.000    2.800 
#    0.000    9.000    0.000    0.000    0.000    0.000 
#    0.000    0.000    0.000    0.000    0.000    0.000 
#
# Total GULP energy -248028.573340 kJ/mol
# GULP energy per Si atom -12401.428667 kJ/mol
# Density = 2.007426 g / cm^3
# Si number density = 20.120053 Si / 1000 Ang^3
#
#
#
# Elastic Constant Matrix: (Units=GPa)
#
#
# Indices 1 2 3 4 5 6 
#
# 1 102.5234 25.9277 15.7618 0.0000 -9.2018 0.0000
# 2 25.9277 50.0499 15.7443 0.0000 -2.7565 0.0000
# 3 15.7618 15.7443 87.0557 0.0000 -9.6550 0.0000
# 4 0.0000 0.0000 0.0000 18.4649 0.0000 0.5012
# 5 -9.2018 -2.7565 -9.6550 0.0000 42.7003 0.0000
# 6 0.0000 0.0000 0.0000 0.5012 0.0000 36.2215
#
#
#
# Elastic Compliance Matrix: (Units=1/GPa)
#
#
# Indices 1 2 3 4 5 6 
#
# 1 0.011465 -0.005564 -0.000857 0.000000 0.001918 0.000000
# 2 -0.005564 0.023897 -0.003361 0.000000 -0.000416 0.000000
# 3 -0.000857 -0.003361 0.012519 0.000000 0.002429 0.000000
# 4 0.000000 0.000000 0.000000 0.054177 0.000000 -0.000750
# 5 0.001918 -0.000416 0.002429 0.000000 0.024355 0.000000
# 6 0.000000 0.000000 0.000000 -0.000750 0.000000 0.027618
#
#
# Mechanical properties :
#
#
# Convention : Reuss Voigt Hill
#
# Bulk Modulus (GPa) = 35.31340 39.38851 37.35095
# Shear Modulus (GPa) = 27.31749 31.62368 29.47059
#
# Velocity S-wave (km/s) = 3.68873 3.96883 3.83134
# Velocity P-wave (km/s) = 5.97760 6.37349 6.17872
#
# Compressibility (1/GPa) = 0.02831786
#
# Stress axis : x y z
#
# Youngs Moduli (GPa) = 87.22324 41.84690 79.87729
#
# Poissons Ratio (x) = 0.23284 0.06844
# Poissons Ratio (y) = 0.48532 0.26843
# Poissons Ratio (z) = 0.07473 0.14063
#
# Static dielectric constant tensor:
#      x y z
#    x 3.853680 0.000000 -0.101660 
#    y 0.000000 3.387230 0.000000 
#    z -0.101660 0.000000 4.084830 
# 
# 
# High freq. dielectric constant tensor:
#      x y z
#    x 1.805670 0.000000 -0.002130 
#    y 0.000000 1.767750 0.000000 
#    z -0.002130 0.000000 1.794350 
# 
# From -- ./inp_files/92819.got.cif
#   From: 2010.06.25/outbox.cif.g09.slc.cpg/sg12_47_cif.got.tgz:92819.got - 2010.06.28 00:19:55.
