data_PCOD8094544
_publ_section_title
;
Structure prediction by ZEFSAII (Michael W. Deem and Ramdas Pophale) SiO2 
 PCOD8094544
Probable space group: C 2/M
;
_chemical_formula_sum "Si O2"
_cell_formula_units_Z 60
_cell_length_a 22.423124
_cell_length_b 18.309888
_cell_length_c 15.934913
_cell_angle_alpha 90.000000
_cell_angle_beta 151.145366
_cell_angle_gamma 90.000000
_cell_volume 3157.249969
_symmetry_space_group_name_H-M "C 2/M"
_symmetry_group_IT_number 12
_symmetry_cell_setting 'monoclinic'
loop_
_space_group_symop_operation_xyz
x,y,z
-x,y,-z
-x,-y,-z
x,-y,z
1/2+x,1/2+y,z
1/2-x,1/2+y,-z
1/2-x,1/2-y,-z
1/2+x,1/2-y,z
loop_
_atom_site_type_symbol
_atom_site_label
_atom_site_fract_x
_atom_site_fract_y
_atom_site_fract_z
Si Si1 0.271821 0.860080 0.991989
Si Si2 0.500000 0.179351 0.500000
Si Si3 0.271832 0.082624 0.172718
Si Si4 0.502194 0.415402 0.903552
Si Si5 0.157395 0.815514 0.407474
Si Si6 0.335836 0.913645 0.726002
Si Si7 0.896866 0.415272 0.982274
Si Si8 0.551494 0.263090 0.728420
O O1 0.280328 0.913092 0.082459
O O2 0.359236 0.791430 0.112761
O O3 0.314836 0.901429 0.962171
O O4 0.130979 0.834782 0.802841
O O5 0.376077 0.131047 0.345956
O O6 0.491548 0.229483 0.571384
O O7 0.295665 0.000000 0.230934
O O8 0.136874 0.108956 0.035796
O O9 0.473799 0.500000 0.842278
O O10 0.401570 0.357742 0.744853
O O11 0.500000 0.407716 0.000000
O O12 0.250000 0.750000 0.500000
O O13 0.222467 0.878234 0.539792
O O14 0.053250 0.781299 0.335911
O O15 0.333863 0.884325 0.819899
O O16 0.318430 0.000000 0.698206
O O17 0.462527 0.885865 0.836968
O O18 0.910794 0.500000 0.983386
#
# Coordination Sequence:
#
# PCOD8094544 Si02
#       8
#     8   4   8   8   8   8   8   8
#     4  10  19  38  58  82 116 153 191 235 300 352
#     4  10  23  38  58  86 121 154 192 244 298 358
#     4  10  20  39  64  87 113 151 201 249 297 354
#     4  10  23  44  65  85 117 160 201 252 305 355
#     4  12  24  40  59  92 119 156 207 244 299 362
#     4   9  20  39  60  86 120 154 193 249 296 349
#     4   9  18  36  61  87 112 148 196 238 296 356
#     4  10  23  37  54  82 121 155 186 240 295 354
#
# _framework density 19.003879000000001
#
# number of rings (size 3 to 8) (size 9 to 14) (size 15 to 20)
#    0.000    2.000    1.333    2.600    3.733    0.000 
#    4.800    0.000    0.000    1.600    0.000    0.000 
#    0.000    0.000    0.000    0.000    0.000    0.000 
#
# Total GULP energy -371937.975164 kJ/mol
# GULP energy per Si atom -12397.932505 kJ/mol
# Density = 1.896063 g / cm^3
# Si number density = 19.003879 Si / 1000 Ang^3
#
#
#
# Elastic Constant Matrix: (Units=GPa)
#
#
# Indices 1 2 3 4 5 6 
#
# 1 124.6816 21.7309 44.1903 0.0000 5.5758 0.0000
# 2 21.7309 54.6570 35.4449 0.0000 -3.9822 0.0000
# 3 44.1903 35.4449 98.9622 0.0000 -6.6526 0.0000
# 4 0.0000 0.0000 0.0000 14.3443 0.0000 4.1892
# 5 5.5758 -3.9822 -6.6526 0.0000 27.1906 0.0000
# 6 0.0000 0.0000 0.0000 4.1892 0.0000 28.2881
#
#
#
# Elastic Compliance Matrix: (Units=1/GPa)
#
#
# Indices 1 2 3 4 5 6 
#
# 1 0.009878 -0.001513 -0.004087 0.000000 -0.003247 0.000000
# 2 -0.001513 0.024117 -0.007833 0.000000 0.001926 0.000000
# 3 -0.004087 -0.007833 0.014961 0.000000 0.003351 0.000000
# 4 0.000000 0.000000 0.000000 0.072866 0.000000 -0.010791
# 5 -0.003247 0.001926 0.003351 0.000000 0.038545 0.000000
# 6 0.000000 0.000000 0.000000 -0.010791 0.000000 0.036949
#
#
# Mechanical properties :
#
#
# Convention : Reuss Voigt Hill
#
# Bulk Modulus (GPa) = 45.27049 53.44809 49.35929
# Shear Modulus (GPa) = 21.59404 25.76025 23.67715
#
# Velocity S-wave (km/s) = 3.37456 3.68574 3.53358
# Velocity P-wave (km/s) = 6.24955 6.80432 6.53283
#
# Compressibility (1/GPa) = 0.02208944
#
# Stress axis : x y z
#
# Youngs Moduli (GPa) = 101.23502 41.46368 66.84215
#
# Poissons Ratio (x) = 0.06275 0.27319
# Poissons Ratio (y) = 0.15322 0.52356
# Poissons Ratio (z) = 0.41376 0.32477
#
# Static dielectric constant tensor:
#      x y z
#    x 3.604160 0.000000 0.340980 
#    y 0.000000 3.511660 0.000000 
#    z 0.340980 0.000000 2.752250 
# 
# 
# High freq. dielectric constant tensor:
#      x y z
#    x 1.746520 0.000000 0.003020 
#    y 0.000000 1.736050 0.000000 
#    z 0.003020 0.000000 1.742750 
# 
# From -- ./inp_files/235198.got.cif
#   From: 2010.06.25/outbox.cif.g09.slc.cpg/sg12_118_cif.got.tgz:235198.got - 2010.06.28 00:19:55.
