data_PCOD8094381
_publ_section_title
;
Structure prediction by ZEFSAII (Michael W. Deem and Ramdas Pophale) SiO2 
 PCOD8094381
Probable space group: C 2/M
;
_chemical_formula_sum "Si O2"
_cell_formula_units_Z 48
_cell_length_a 15.042377
_cell_length_b 8.466957
_cell_length_c 19.135022
_cell_angle_alpha 90.000000
_cell_angle_beta 90.039909
_cell_angle_gamma 90.000000
_cell_volume 2437.096263
_symmetry_space_group_name_H-M "C 2/M"
_symmetry_group_IT_number 12
_symmetry_cell_setting 'monoclinic'
loop_
_space_group_symop_operation_xyz
x,y,z
-x,y,-z
-x,-y,-z
x,-y,z
1/2+x,1/2+y,z
1/2-x,1/2+y,-z
1/2-x,1/2-y,-z
1/2+x,1/2-y,z
loop_
_atom_site_type_symbol
_atom_site_label
_atom_site_fract_x
_atom_site_fract_y
_atom_site_fract_z
Si Si1 0.535349 0.684533 0.575466
Si Si2 0.374616 0.812711 0.825806
Si Si3 0.032149 0.313278 0.924067
Si Si4 0.273832 0.814811 0.424342
Si Si5 0.619968 0.186319 0.332304
Si Si6 0.277255 0.685433 0.074635
O O1 0.500000 0.739196 0.500000
O O2 0.558478 0.500000 0.575716
O O3 0.623816 0.781532 0.593972
O O4 0.460755 0.722102 0.631990
O O5 0.462389 0.754573 0.866251
O O6 0.375594 0.749757 0.746860
O O7 0.288633 0.744961 0.866262
O O8 0.371403 0.000000 0.825612
O O9 0.045185 0.500000 0.924096
O O10 0.124140 0.232738 0.903800
O O11 0.000000 0.255169 0.000000
O O12 0.250000 0.750000 0.500000
O O13 0.213291 0.726598 0.368000
O O14 0.253831 0.000000 0.421709
O O15 0.602269 0.000000 0.336722
O O16 0.266720 0.500000 0.071061
O O17 0.250000 0.750000 0.000000
#
# Coordination Sequence:
#
# PCOD8094381 Si02
#       6
#     8   8   8   8   8   8
#     4  11  23  40  64  92 123 158 202 251 302 360
#     4   9  21  40  60  86 124 162 194 243 308 361
#     4  10  19  37  62  86 118 158 199 244 298 355
#     4  12  24  40  64  93 123 160 206 251 301 360
#     4  11  23  41  64  91 126 162 200 250 308 364
#     4  11  21  37  60  89 120 156 203 249 297 355
#
# _framework density 19.69557
#
# number of rings (size 3 to 8) (size 9 to 14) (size 15 to 20)
#    0.000    1.333    3.333    3.000    0.000    2.333 
#    0.000    8.333    0.000    0.000    0.000    0.000 
#    0.000    0.000    0.000    0.000    0.000    0.000 
#
# Total GULP energy -297712.166213 kJ/mol
# GULP energy per Si atom -12404.673592 kJ/mol
# Density = 1.965074 g / cm^3
# Si number density = 19.695570 Si / 1000 Ang^3
#
#
#
# Elastic Constant Matrix: (Units=GPa)
#
#
# Indices 1 2 3 4 5 6 
#
# 1 153.6293 10.4761 77.3978 0.0000 -5.4192 0.0000
# 2 10.4761 42.8554 18.3327 0.0000 -1.9186 0.0000
# 3 77.3978 18.3327 175.2962 0.0000 0.1317 0.0000
# 4 0.0000 0.0000 0.0000 18.7661 0.0000 -0.4034
# 5 -5.4192 -1.9186 0.1317 0.0000 37.3085 0.0000
# 6 0.0000 0.0000 0.0000 -0.4034 0.0000 37.3419
#
#
#
# Elastic Compliance Matrix: (Units=1/GPa)
#
#
# Indices 1 2 3 4 5 6 
#
# 1 0.008436 -0.000433 -0.003680 0.000000 0.001216 0.000000
# 2 -0.000433 0.024509 -0.002373 0.000000 0.001206 0.000000
# 3 -0.003680 -0.002373 0.007578 0.000000 -0.000683 0.000000
# 4 0.000000 0.000000 0.000000 0.053300 0.000000 0.000576
# 5 0.001216 0.001206 -0.000683 0.000000 0.027045 0.000000
# 6 0.000000 0.000000 0.000000 0.000576 0.000000 0.026786
#
#
# Mechanical properties :
#
#
# Convention : Reuss Voigt Hill
#
# Bulk Modulus (GPa) = 36.29699 64.91045 50.60372
# Shear Modulus (GPa) = 29.44477 36.38825 32.91651
#
# Velocity S-wave (km/s) = 3.87071 4.30296 4.09255
# Velocity P-wave (km/s) = 6.20045 7.59709 6.93402
#
# Compressibility (1/GPa) = 0.02755049
#
# Stress axis : x y z
#
# Youngs Moduli (GPa) = 118.54423 40.80091 131.95788
#
# Poissons Ratio (x) = 0.01768 0.48563
# Poissons Ratio (y) = 0.05137 0.31311
# Poissons Ratio (z) = 0.43626 0.09681
#
# Static dielectric constant tensor:
#      x y z
#    x 3.693730 0.000000 -0.037910 
#    y 0.000000 3.513610 0.000000 
#    z -0.037910 0.000000 3.801760 
# 
# 
# High freq. dielectric constant tensor:
#      x y z
#    x 1.785520 0.000000 -0.000500 
#    y 0.000000 1.758250 0.000000 
#    z -0.000500 0.000000 1.768740 
# 
# From -- ./inp_files/267677.got.cif
#   From: 2010.06.25/outbox.cif.g09.slc.cpg/sg12_134_cif.got.tgz:267677.got - 2010.06.28 00:19:55.
