data_PCOD8094844
_publ_section_title
;
Structure prediction by ZEFSAII (Michael W. Deem and Ramdas Pophale) SiO2 
 PCOD8094844
Probable space group: C 2/M
;
_chemical_formula_sum "Si O2"
_cell_formula_units_Z 44
_cell_length_a 17.013763
_cell_length_b 14.586974
_cell_length_c 10.908772
_cell_angle_alpha 90.000000
_cell_angle_beta 53.227096
_cell_angle_gamma 90.000000
_cell_volume 2168.612054
_symmetry_space_group_name_H-M "C 2/M"
_symmetry_group_IT_number 12
_symmetry_cell_setting 'monoclinic'
loop_
_space_group_symop_operation_xyz
x,y,z
-x,y,-z
-x,-y,-z
x,-y,z
1/2+x,1/2+y,z
1/2-x,1/2+y,-z
1/2-x,1/2-y,-z
1/2+x,1/2-y,z
loop_
_atom_site_type_symbol
_atom_site_label
_atom_site_fract_x
_atom_site_fract_y
_atom_site_fract_z
Si Si1 0.286497 0.353015 0.460688
Si Si2 0.348590 0.104532 0.217119
Si Si3 0.532769 0.250809 0.733900
Si Si4 0.790577 0.401520 0.712855
Si Si5 0.174580 0.750890 0.960631
Si Si6 0.000000 0.325089 0.500000
O O1 0.250000 0.250000 0.500000
O O2 0.258592 0.399044 0.617039
O O3 0.401741 0.343907 0.320486
O O4 0.227234 0.410176 0.415326
O O5 0.423995 0.163011 0.231815
O O6 0.335083 0.152662 0.097540
O O7 0.387118 0.000000 0.161707
O O8 0.526667 0.233614 0.594273
O O9 0.430325 0.279546 0.888862
O O10 0.767459 0.500000 0.796174
O O11 0.714146 0.325748 0.829353
O O12 0.905268 0.383088 0.629834
O O13 0.250000 0.750000 0.000000
#
# Coordination Sequence:
#
# PCOD8094844 Si02
#       6
#     8   8   8   8   8   4
#     4  10  19  40  65  91 123 169 211 252 313 377
#     4  11  23  42  68  97 125 163 213 266 317 372
#     4  11  23  39  69  92 129 170 212 256 320 378
#     4  12  24  41  65  96 129 165 211 265 318 374
#     4  12  25  43  62  92 134 170 205 260 323 382
#     4  12  21  40  66 100 125 160 213 276 314 368
#
# _framework density 20.289473999999998
#
# number of rings (size 3 to 8) (size 9 to 14) (size 15 to 20)
#    0.000    0.727    9.091    1.364    0.000    2.909 
#    0.000    2.727    0.000    1.091    0.000    0.000 
#    0.000    0.000    0.000    0.000    0.000    0.000 
#
# Total GULP energy -272605.734296 kJ/mol
# GULP energy per Si atom -12391.169741 kJ/mol
# Density = 2.024329 g / cm^3
# Si number density = 20.289474 Si / 1000 Ang^3
#
#
#
# Elastic Constant Matrix: (Units=GPa)
#
#
# Indices 1 2 3 4 5 6 
#
# 1 116.6451 21.9912 38.7276 0.0000 -0.9504 0.0000
# 2 21.9912 75.9649 15.9550 0.0000 -9.3380 0.0000
# 3 38.7276 15.9550 110.1861 0.0000 -22.5784 0.0000
# 4 0.0000 0.0000 0.0000 12.2913 0.0000 0.2168
# 5 -0.9504 -9.3380 -22.5784 0.0000 51.1530 0.0000
# 6 0.0000 0.0000 0.0000 0.2168 0.0000 11.4329
#
#
#
# Elastic Compliance Matrix: (Units=1/GPa)
#
#
# Indices 1 2 3 4 5 6 
#
# 1 0.010217 -0.002425 -0.003619 0.000000 -0.001850 0.000000
# 2 -0.002425 0.014300 -0.000762 0.000000 0.002229 0.000000
# 3 -0.003619 -0.000762 0.011451 0.000000 0.004848 0.000000
# 4 0.000000 0.000000 0.000000 0.081386 0.000000 -0.001543
# 5 -0.001850 0.002229 0.004848 0.000000 0.022062 0.000000
# 6 0.000000 0.000000 0.000000 -0.001543 0.000000 0.087496
#
#
# Mechanical properties :
#
#
# Convention : Reuss Voigt Hill
#
# Bulk Modulus (GPa) = 44.72859 50.68262 47.70560
# Shear Modulus (GPa) = 20.16335 30.05026 25.10680
#
# Velocity S-wave (km/s) = 3.15585 3.85265 3.52153
# Velocity P-wave (km/s) = 5.94746 6.69511 6.33233
#
# Compressibility (1/GPa) = 0.02235707
#
# Stress axis : x y z
#
# Youngs Moduli (GPa) = 97.87959 69.93021 87.32703
#
# Poissons Ratio (x) = 0.16958 0.31603
# Poissons Ratio (y) = 0.23736 0.06650
# Poissons Ratio (z) = 0.35421 0.05325
#
# Static dielectric constant tensor:
#      x y z
#    x 4.113720 0.000000 -0.364150 
#    y 0.000000 4.864950 0.000000 
#    z -0.364150 0.000000 4.174680 
# 
# 
# High freq. dielectric constant tensor:
#      x y z
#    x 1.791820 0.000000 -0.000370 
#    y 0.000000 1.766990 0.000000 
#    z -0.000370 0.000000 1.809150 
# 
# From -- ./inp_files/155813.got.cif
#   From: 2010.06.25/outbox.cif.g09.slc.cpg/sg12_78_cif.got.tgz:155813.got - 2010.06.28 00:19:55.
