data_PCOD8094441
_publ_section_title
;
Structure prediction by ZEFSAII (Michael W. Deem and Ramdas Pophale) SiO2 
 PCOD8094441
Probable space group: C 2/M
;
_chemical_formula_sum "Si O2"
_cell_formula_units_Z 52
_cell_length_a 12.567216
_cell_length_b 26.975363
_cell_length_c 19.907623
_cell_angle_alpha 90.000000
_cell_angle_beta 154.817344
_cell_angle_gamma 90.000000
_cell_volume 2871.645542
_symmetry_space_group_name_H-M "C 2/M"
_symmetry_group_IT_number 12
_symmetry_cell_setting 'monoclinic'
loop_
_space_group_symop_operation_xyz
x,y,z
-x,y,-z
-x,-y,-z
x,-y,z
1/2+x,1/2+y,z
1/2-x,1/2+y,-z
1/2-x,1/2-y,-z
1/2+x,1/2-y,z
loop_
_atom_site_type_symbol
_atom_site_label
_atom_site_fract_x
_atom_site_fract_y
_atom_site_fract_z
Si Si1 0.264829 0.629390 0.410293
Si Si2 0.740340 0.799074 0.181000
Si Si3 0.000000 0.342344 0.500000
Si Si4 0.043141 0.290563 0.384198
Si Si5 0.516625 0.879522 0.137891
Si Si6 0.480539 0.377420 0.228991
Si Si7 0.436568 0.442056 0.325281
O O1 0.500000 0.649839 0.500000
O O2 0.128491 0.668446 0.380248
O O3 0.040882 0.612776 0.231944
O O4 0.361107 0.583535 0.509843
O O5 0.672986 0.828737 0.210831
O O6 0.958530 0.829612 0.266525
O O7 0.794935 0.740775 0.222010
O O8 0.500000 0.804962 0.000000
O O9 0.003066 0.309347 0.435755
O O10 0.247169 0.375829 0.649061
O O11 0.250000 0.250000 0.500000
O O12 0.653370 0.925697 0.180355
O O13 0.229845 0.877669 0.949471
O O14 0.476909 0.427382 0.270736
O O15 0.469446 0.500000 0.353415
#
# Coordination Sequence:
#
# PCOD8094441 Si02
#       7
#     8   8   4   8   8   8   8
#     4  10  21  36  56  86 118 148 184 241 297 338
#     4   9  19  35  54  80 114 150 190 237 283 327
#     4  12  24  36  57  80 118 162 199 232 280 348
#     4  12  22  34  55  81 113 157 201 230 275 346
#     4   9  20  35  58  84 121 146 184 249 294 332
#     4  10  20  39  54  83 119 154 191 237 285 342
#     4  10  19  37  63  89 115 146 189 240 297 352
#
# _framework density 18.108084999999999
#
# number of rings (size 3 to 8) (size 9 to 14) (size 15 to 20)
#    0.000    1.846    3.077    3.231    3.231    5.231 
#    0.000    3.462    0.000    0.000    0.000    1.077 
#    0.000    0.000    0.000    0.000    0.000    0.000 
#
# Total GULP energy -322145.916319 kJ/mol
# GULP energy per Si atom -12390.227551 kJ/mol
# Density = 1.806687 g / cm^3
# Si number density = 18.108085 Si / 1000 Ang^3
#
#
#
# Elastic Constant Matrix: (Units=GPa)
#
#
# Indices 1 2 3 4 5 6 
#
# 1 90.6739 42.4709 47.2149 -0.0068 -1.9499 0.0025
# 2 42.4709 117.8106 40.4046 0.0206 3.1558 0.0028
# 3 47.2149 40.4046 111.2143 0.1104 -2.1217 0.0017
# 4 -0.0068 0.0206 0.1104 22.1399 0.0024 -2.1334
# 5 -1.9499 3.1558 -2.1217 0.0024 29.2319 0.0033
# 6 0.0025 0.0028 0.0017 -2.1334 0.0033 10.3350
#
#
#
# Elastic Compliance Matrix: (Units=1/GPa)
#
#
# Indices 1 2 3 4 5 6 
#
# 1 0.015558 -0.003860 -0.005182 0.000035 0.001078 0.000005
# 2 -0.003860 0.010704 -0.002280 0.000000 -0.001579 -0.000001
# 3 -0.005182 -0.002280 0.012035 -0.000061 0.000774 -0.000013
# 4 0.000035 0.000000 -0.000061 0.046084 -0.000007 0.009513
# 5 0.001078 -0.001579 0.000774 -0.000007 0.034508 -0.000013
# 6 0.000005 -0.000001 -0.000013 0.009513 -0.000013 0.098723
#
#
# Mechanical properties :
#
#
# Convention : Reuss Voigt Hill
#
# Bulk Modulus (GPa) = 63.88905 64.43109 64.16007
# Shear Modulus (GPa) = 20.36872 24.98190 22.67531
#
# Velocity S-wave (km/s) = 3.35750 3.71833 3.54251
# Velocity P-wave (km/s) = 7.09853 7.35481 7.22780
#
# Compressibility (1/GPa) = 0.01565213
#
# Stress axis : x y z
#
# Youngs Moduli (GPa) = 64.27446 93.42163 83.09221
#
# Poissons Ratio (x) = 0.36065 0.43059
# Poissons Ratio (y) = 0.24813 0.18946
# Poissons Ratio (z) = 0.33307 0.21301
#
# Static dielectric constant tensor:
#      x y z
#    x -2.682920 -0.042650 1.324640 
#    y -0.042650 2.333350 0.004820 
#    z 1.324640 0.004820 3.080720 
# 
# 
# High freq. dielectric constant tensor:
#      x y z
#    x 1.687160 0.000000 -0.014390 
#    y 0.000000 1.673860 -0.000010 
#    z -0.014390 -0.000010 1.717790 
# 
# From -- ./inp_files/265970.got.cif
#   From: 2010.06.25/outbox.cif.g09.slc.cpg/sg12_133_cif.got.tgz:265970.got - 2010.06.28 00:19:55.
