data_PCOD8094038
_publ_section_title
;
Structure prediction by ZEFSAII (Michael W. Deem and Ramdas Pophale) SiO2 
 PCOD8094038
Probable space group: C 2/M
;
_chemical_formula_sum "Si O2"
_cell_formula_units_Z 56
_cell_length_a 20.581654
_cell_length_b 8.632808
_cell_length_c 21.336547
_cell_angle_alpha 90.000000
_cell_angle_beta 46.784547
_cell_angle_gamma 90.000000
_cell_volume 2762.837270
_symmetry_space_group_name_H-M "C 2/M"
_symmetry_group_IT_number 12
_symmetry_cell_setting 'monoclinic'
loop_
_space_group_symop_operation_xyz
x,y,z
-x,y,-z
-x,-y,-z
x,-y,z
1/2+x,1/2+y,z
1/2-x,1/2+y,-z
1/2-x,1/2-y,-z
1/2+x,1/2-y,z
loop_
_atom_site_type_symbol
_atom_site_label
_atom_site_fract_x
_atom_site_fract_y
_atom_site_fract_z
Si Si1 0.314869 0.179033 0.084561
Si Si2 0.993384 0.183652 0.270173
Si Si3 0.442595 0.179037 0.896717
Si Si4 0.638690 0.317531 0.265866
Si Si5 0.234260 0.181131 0.323344
Si Si6 0.709681 0.317632 0.589193
Si Si7 0.894787 0.820317 0.146618
O O1 0.214066 0.235922 0.165581
O O2 0.382069 0.280635 0.082280
O O3 0.325781 0.000000 0.097253
O O4 0.343522 0.201523 0.992731
O O5 0.891948 0.245131 0.335901
O O6 0.053260 0.258959 0.176427
O O7 0.041841 0.234084 0.303606
O O8 0.996143 0.000000 0.259471
O O9 0.506042 0.280152 0.898760
O O10 0.471038 0.000000 0.879139
O O11 0.642483 0.500000 0.269179
O O12 0.660245 0.253940 0.321986
O O13 0.227454 0.267044 0.394547
O O14 0.330587 0.214412 0.231103
O O15 0.221849 0.000000 0.344291
O O16 0.708497 0.500000 0.584655
O O17 0.750000 0.250000 0.500000
O O18 0.874647 0.000000 0.173500
#
# Coordination Sequence:
#
# PCOD8094038 Si02
#       7
#     8   8   8   8   8   8   8
#     4   9  19  34  51  75 109 152 195 234 277 330
#     4  10  21  38  59  83 112 147 188 233 282 336
#     4  11  21  32  50  77 112 151 192 235 284 331
#     4   8  17  36  59  81 111 152 192 229 274 332
#     4  10  19  36  62  86 113 149 185 227 280 338
#     4  11  23  39  62  90 116 144 182 230 283 339
#     4  11  20  31  50  78 111 148 192 238 281 327
#
# _framework density 20.269019
#
# number of rings (size 3 to 8) (size 9 to 14) (size 15 to 20)
#    0.000    2.000    1.429    3.857    0.000    4.000 
#    0.000    4.286    0.000    4.286    0.000    0.000 
#    0.000    0.000    0.000    0.000    0.000    0.000 
#
# Total GULP energy -347016.821126 kJ/mol
# GULP energy per Si atom -12393.457897 kJ/mol
# Density = 2.022289 g / cm^3
# Si number density = 20.269019 Si / 1000 Ang^3
#
#
#
# Elastic Constant Matrix: (Units=GPa)
#
#
# Indices 1 2 3 4 5 6 
#
# 1 125.9043 27.1319 48.8184 0.0000 15.3202 0.0001
# 2 27.1319 51.9378 19.7919 -0.0004 5.9633 0.0005
# 3 48.8184 19.7919 98.5649 0.0000 31.1254 0.0000
# 4 0.0000 -0.0004 0.0000 27.1429 0.0001 8.2405
# 5 15.3202 5.9633 31.1254 0.0001 22.2399 -0.0001
# 6 0.0001 0.0005 0.0000 8.2405 -0.0001 22.7726
#
#
#
# Elastic Compliance Matrix: (Units=1/GPa)
#
#
# Indices 1 2 3 4 5 6 
#
# 1 0.010475 -0.003785 -0.004426 0.000000 -0.000006 0.000000
# 2 -0.003785 0.022219 -0.002740 0.000001 0.000484 -0.000001
# 3 -0.004426 -0.002740 0.020954 0.000000 -0.025542 0.000000
# 4 0.000000 0.000001 0.000000 0.041389 0.000000 -0.014977
# 5 -0.000006 0.000484 -0.025542 0.000000 0.080585 0.000000
# 6 0.000000 -0.000001 0.000000 -0.014977 0.000000 0.049332
#
#
# Mechanical properties :
#
#
# Convention : Reuss Voigt Hill
#
# Bulk Modulus (GPa) = 31.49955 51.98793 41.74374
# Shear Modulus (GPa) = 19.42210 26.47541 22.94876
#
# Velocity S-wave (km/s) = 3.09887 3.61806 3.36848
# Velocity P-wave (km/s) = 5.32714 6.56951 5.98067
#
# Compressibility (1/GPa) = 0.03174649
#
# Stress axis : x y z
#
# Youngs Moduli (GPa) = 95.46405 45.00563 47.72415
#
# Poissons Ratio (x) = 0.17033 0.21124
# Poissons Ratio (y) = 0.36130 0.13076
# Poissons Ratio (z) = 0.42255 0.12332
#
# Static dielectric constant tensor:
#      x y z
#    x 3.758660 0.000000 0.231570 
#    y 0.000000 3.528350 0.000000 
#    z 0.231570 0.000000 3.506410 
# 
# 
# High freq. dielectric constant tensor:
#      x y z
#    x 1.788100 0.000000 0.013760 
#    y 0.000000 1.775790 0.000000 
#    z 0.013760 0.000000 1.774450 
# 
# From -- ./inp_files/319636.got.cif
#   From: 2010.06.25/outbox.cif.g09.slc.cpg/sg12_160_cif.got.tgz:319636.got - 2010.06.28 00:19:55.
