data_PCOD8094215
_publ_section_title
;
Structure prediction by ZEFSAII (Michael W. Deem and Ramdas Pophale) SiO2 
 PCOD8094215
Probable space group: C 2/M
;
_chemical_formula_sum "Si O2"
_cell_formula_units_Z 40
_cell_length_a 11.900181
_cell_length_b 27.556821
_cell_length_c 9.013519
_cell_angle_alpha 90.000000
_cell_angle_beta 140.531667
_cell_angle_gamma 90.000000
_cell_volume 1878.867872
_symmetry_space_group_name_H-M "C 2/M"
_symmetry_group_IT_number 12
_symmetry_cell_setting 'monoclinic'
loop_
_space_group_symop_operation_xyz
x,y,z
-x,y,-z
-x,-y,-z
x,-y,z
1/2+x,1/2+y,z
1/2-x,1/2+y,-z
1/2-x,1/2-y,-z
1/2+x,1/2-y,z
loop_
_atom_site_type_symbol
_atom_site_label
_atom_site_fract_x
_atom_site_fract_y
_atom_site_fract_z
Si Si1 0.491040 0.389796 0.166470
Si Si2 0.631294 0.904370 0.956132
Si Si3 0.945377 0.702052 0.107911
Si Si4 0.535292 0.708123 0.705667
Si Si5 0.280042 0.944841 0.641922
O O1 0.291314 0.406193 0.003611
O O2 0.543203 0.336375 0.278982
O O3 0.630045 0.427496 0.376101
O O4 0.500000 0.390647 0.000000
O O5 0.716925 0.911579 0.206835
O O6 0.515466 0.854474 0.825765
O O7 0.477036 0.943728 0.767886
O O8 0.045226 0.740138 0.320039
O O9 0.742143 0.708287 0.936746
O O10 0.000000 0.718572 0.000000
O O11 0.500000 0.698268 0.500000
O O12 0.236599 0.000000 0.642189
#
# Coordination Sequence:
#
# PCOD8094215 Si02
#       5
#     8   8   8   8   8
#     4  11  24  42  62  92 135 170 207 261 317 374
#     4  10  21  42  65  95 127 159 214 264 309 378
#     4  10  19  37  58  89 124 159 204 253 314 367
#     4  10  22  38  59  90 124 167 211 250 302 375
#     4  11  23  42  71  96 119 166 216 265 322 371
#
# _framework density 21.289417
#
# number of rings (size 3 to 8) (size 9 to 14) (size 15 to 20)
#    0.000    1.600    2.000    4.800    0.000    4.400 
#   10.800    1.000    0.000    0.000    0.000    0.000 
#    0.000    0.000    0.000    0.000    0.000    0.000 
#
# Total GULP energy -247845.792822 kJ/mol
# GULP energy per Si atom -12392.289641 kJ/mol
# Density = 2.124096 g / cm^3
# Si number density = 21.289417 Si / 1000 Ang^3
#
#
#
# Elastic Constant Matrix: (Units=GPa)
#
#
# Indices 1 2 3 4 5 6 
#
# 1 128.0451 41.5036 45.7960 0.0000 -17.2990 0.0000
# 2 41.5036 121.7001 29.0181 0.0000 -4.8868 0.0000
# 3 45.7960 29.0181 56.3762 0.0000 1.2710 0.0000
# 4 0.0000 0.0000 0.0000 43.1943 0.0000 7.8000
# 5 -17.2990 -4.8868 1.2710 0.0000 20.7122 0.0000
# 6 0.0000 0.0000 0.0000 7.8000 0.0000 27.8333
#
#
#
# Elastic Compliance Matrix: (Units=1/GPa)
#
#
# Indices 1 2 3 4 5 6 
#
# 1 0.013701 -0.001694 -0.010521 0.000000 0.011689 0.000000
# 2 -0.001694 0.009708 -0.003645 0.000000 0.001099 0.000000
# 3 -0.010521 -0.003645 0.028418 0.000000 -0.011391 0.000000
# 4 0.000000 0.000000 0.000000 0.024385 0.000000 -0.006834
# 5 0.011689 0.001099 -0.011391 0.000000 0.059002 0.000000
# 6 0.000000 0.000000 0.000000 -0.006834 0.000000 0.037843
#
#
# Mechanical properties :
#
#
# Convention : Reuss Voigt Hill
#
# Bulk Modulus (GPa) = 49.73855 59.86187 54.80021
# Shear Modulus (GPa) = 23.64277 31.00153 27.32215
#
# Velocity S-wave (km/s) = 3.33609 3.82015 3.58630
# Velocity P-wave (km/s) = 6.18491 6.90197 6.55326
#
# Compressibility (1/GPa) = 0.02010513
#
# Stress axis : x y z
#
# Youngs Moduli (GPa) = 72.98653 103.00672 35.18925
#
# Poissons Ratio (x) = 0.17454 0.37023
# Poissons Ratio (y) = 0.12367 0.12827
# Poissons Ratio (z) = 0.76790 0.37549
#
# Static dielectric constant tensor:
#      x y z
#    x 3.921090 0.000000 0.093050 
#    y 0.000000 4.542750 0.000000 
#    z 0.093050 0.000000 3.630470 
# 
# 
# High freq. dielectric constant tensor:
#      x y z
#    x 1.835730 0.000000 0.013960 
#    y 0.000000 1.844840 0.000000 
#    z 0.013960 0.000000 1.815060 
# 
# From -- ./inp_files/53975.got.cif
#   From: 2010.06.25/outbox.cif.g09.slc.cpg/sg12_27_cif.got.tgz:53975.got - 2010.06.28 00:19:55.
