data_PCOD8094935
_publ_section_title
;
Structure prediction by ZEFSAII (Michael W. Deem and Ramdas Pophale) SiO2 
 PCOD8094935
Probable space group: C 2/M
;
_chemical_formula_sum "Si O2"
_cell_formula_units_Z 44
_cell_length_a 9.610317
_cell_length_b 17.230782
_cell_length_c 15.115670
_cell_angle_alpha 90.000000
_cell_angle_beta 93.806154
_cell_angle_gamma 90.000000
_cell_volume 2497.532458
_symmetry_space_group_name_H-M "C 2/M"
_symmetry_group_IT_number 12
_symmetry_cell_setting 'monoclinic'
loop_
_space_group_symop_operation_xyz
x,y,z
-x,y,-z
-x,-y,-z
x,-y,z
1/2+x,1/2+y,z
1/2-x,1/2+y,-z
1/2-x,1/2-y,-z
1/2+x,1/2-y,z
loop_
_atom_site_type_symbol
_atom_site_label
_atom_site_fract_x
_atom_site_fract_y
_atom_site_fract_z
Si Si1 0.464667 0.298090 0.173812
Si Si2 0.285536 0.406703 0.500731
Si Si3 0.512908 0.327699 0.620674
Si Si4 0.746782 0.197946 0.912964
Si Si5 0.350533 0.583603 0.037987
Si Si6 0.000000 0.316580 0.500000
O O1 0.474543 0.324093 0.274577
O O2 0.386639 0.215205 0.154941
O O3 0.616210 0.289686 0.139698
O O4 0.362705 0.360201 0.122675
O O5 0.283658 0.500000 0.499073
O O6 0.374725 0.375801 0.588069
O O7 0.354170 0.372914 0.413992
O O8 0.131215 0.373406 0.502319
O O9 0.505290 0.239254 0.585655
O O10 0.750000 0.250000 0.000000
O O11 0.744717 0.111915 0.955637
O O12 0.297994 0.500000 0.069155
O O13 0.500000 0.577801 0.000000
#
# Coordination Sequence:
#
# PCOD8094935 Si02
#       6
#     8   8   8   8   8   4
#     4  10  20  30  57  77 107 133 183 223 266 304
#     4  10  21  38  57  79 112 149 177 222 285 335
#     4  10  20  35  56  83 109 144 189 226 263 331
#     4   9  18  33  51  79 103 141 174 221 265 319
#     4   8  15  30  49  73 102 137 172 209 259 311
#     4  10  21  36  59  78 112 142 182 224 279 328
#
# _framework density 17.617387000000001
#
# number of rings (size 3 to 8) (size 9 to 14) (size 15 to 20)
#    0.000    2.727    0.000    5.182    5.091    1.455 
#    0.000    0.000    0.000    8.727    0.000    0.000 
#    0.000    0.000    0.000    0.000    0.000    0.000 
#
# Total GULP energy -272564.646720 kJ/mol
# GULP energy per Si atom -12389.302124 kJ/mol
# Density = 1.757729 g / cm^3
# Si number density = 17.617387 Si / 1000 Ang^3
#
#
#
# Elastic Constant Matrix: (Units=GPa)
#
#
# Indices 1 2 3 4 5 6 
#
# 1 92.3542 35.9548 52.9070 0.0000 2.4567 0.0000
# 2 35.9548 98.3083 51.4519 0.0000 5.1997 0.0000
# 3 52.9070 51.4519 147.4114 0.0000 5.4432 0.0000
# 4 0.0000 0.0000 0.0000 13.5377 0.0000 0.7059
# 5 2.4567 5.1997 5.4432 0.0000 9.4805 0.0000
# 6 0.0000 0.0000 0.0000 0.7059 0.0000 23.5537
#
#
#
# Elastic Compliance Matrix: (Units=1/GPa)
#
#
# Indices 1 2 3 4 5 6 
#
# 1 0.014377 -0.003143 -0.004076 0.000000 0.000338 0.000000
# 2 -0.003143 0.013317 -0.003352 0.000000 -0.004565 0.000000
# 3 -0.004076 -0.003352 0.009511 0.000000 -0.002566 0.000000
# 4 0.000000 0.000000 0.000000 0.073983 0.000000 -0.002217
# 5 0.000338 -0.004565 -0.002566 0.000000 0.109369 0.000000
# 6 0.000000 0.000000 0.000000 -0.002217 0.000000 0.042523
#
#
# Mechanical properties :
#
#
# Convention : Reuss Voigt Hill
#
# Bulk Modulus (GPa) = 62.24655 68.74459 65.49557
# Shear Modulus (GPa) = 17.26662 22.49841 19.88251
#
# Velocity S-wave (km/s) = 3.13403 3.57747 3.36307
# Velocity P-wave (km/s) = 6.96458 7.49466 7.23448
#
# Compressibility (1/GPa) = 0.01606515
#
# Stress axis : x y z
#
# Youngs Moduli (GPa) = 69.55400 75.09089 105.14104
#
# Poissons Ratio (x) = 0.23602 0.42851
# Poissons Ratio (y) = 0.21862 0.35238
# Poissons Ratio (z) = 0.28347 0.25167
#
# Static dielectric constant tensor:
#      x y z
#    x 3.266820 0.000000 0.147860 
#    y 0.000000 3.783330 0.000000 
#    z 0.147860 0.000000 3.156720 
# 
# 
# High freq. dielectric constant tensor:
#      x y z
#    x 1.674690 0.000000 0.000320 
#    y 0.000000 1.680280 0.000000 
#    z 0.000320 0.000000 1.671950 
# 
# From -- ./inp_files/195525.got.cif
#   From: 2010.06.25/outbox.cif.g09.slc.cpg/sg12_98_cif.got.tgz:195525.got - 2010.06.28 00:19:55.
