data_PCOD8094091
_publ_section_title
;
Structure prediction by ZEFSAII (Michael W. Deem and Ramdas Pophale) SiO2 
 PCOD8094091
Probable space group: C 2/M
;
_chemical_formula_sum "Si O2"
_cell_formula_units_Z 48
_cell_length_a 10.888214
_cell_length_b 16.630899
_cell_length_c 21.128502
_cell_angle_alpha 90.000000
_cell_angle_beta 140.320226
_cell_angle_gamma 90.000000
_cell_volume 2442.864502
_symmetry_space_group_name_H-M "C 2/M"
_symmetry_group_IT_number 12
_symmetry_cell_setting 'monoclinic'
loop_
_space_group_symop_operation_xyz
x,y,z
-x,y,-z
-x,-y,-z
x,-y,z
1/2+x,1/2+y,z
1/2-x,1/2+y,-z
1/2-x,1/2-y,-z
1/2+x,1/2-y,z
loop_
_atom_site_type_symbol
_atom_site_label
_atom_site_fract_x
_atom_site_fract_y
_atom_site_fract_z
Si Si1 0.936084 0.162051 0.407715
Si Si2 0.434663 0.591503 0.182019
Si Si3 0.193838 0.408963 0.207637
Si Si4 0.214108 0.407809 0.516165
Si Si5 0.825827 0.654454 0.361490
Si Si6 0.379184 0.187984 0.012512
O O1 0.764509 0.112438 0.306348
O O2 0.863514 0.252298 0.389045
O O3 0.000000 0.123608 0.500000
O O4 0.125780 0.156167 0.440635
O O5 0.480007 0.500000 0.183039
O O6 0.373610 0.601607 0.231132
O O7 0.628154 0.642828 0.243886
O O8 0.260482 0.619206 0.068920
O O9 0.117163 0.500000 0.175842
O O10 0.022027 0.350386 0.120096
O O11 0.271734 0.500000 0.523384
O O12 0.193585 0.396832 0.582622
O O13 0.013083 0.383902 0.401161
O O14 0.500000 0.224621 0.000000
O O15 0.250000 0.250000 0.000000
#
# Coordination Sequence:
#
# PCOD8094091 Si02
#       6
#     8   8   8   8   8   8
#     4  12  24  37  58  86 124 163 204 249 310 363
#     4  10  19  36  63  90 116 154 204 251 300 362
#     4  10  21  38  60  87 122 159 204 252 300 361
#     4  11  22  38  57  80 116 158 202 247 300 359
#     4  11  21  36  60  85 115 152 202 254 299 350
#     4  10  21  39  64  94 121 156 201 258 314 371
#
# _framework density 19.649063999999999
#
# number of rings (size 3 to 8) (size 9 to 14) (size 15 to 20)
#    0.000    1.333    3.333    4.500    0.000    3.333 
#    0.000    1.667    0.000    4.000    0.000    0.000 
#    0.000    0.000    0.000    0.000    0.000    0.000 
#
# Total GULP energy -297491.640573 kJ/mol
# GULP energy per Si atom -12395.485024 kJ/mol
# Density = 1.960434 g / cm^3
# Si number density = 19.649064 Si / 1000 Ang^3
#
#
#
# Elastic Constant Matrix: (Units=GPa)
#
#
# Indices 1 2 3 4 5 6 
#
# 1 69.3128 45.8865 48.8581 0.0000 14.4245 0.0000
# 2 45.8865 98.5799 39.4386 0.0000 3.1775 0.0000
# 3 48.8581 39.4386 132.7009 0.0000 6.3513 0.0000
# 4 0.0000 0.0000 0.0000 20.1927 0.0000 19.9921
# 5 14.4245 3.1775 6.3513 0.0000 34.2160 0.0000
# 6 0.0000 0.0000 0.0000 19.9921 0.0000 9.4736
#
#
#
# Elastic Compliance Matrix: (Units=1/GPa)
#
#
# Indices 1 2 3 4 5 6 
#
# 1 0.027767 -0.009886 -0.006830 0.000000 -0.009520 0.000000
# 2 -0.009886 0.015039 -0.000971 0.000000 0.002951 0.000000
# 3 -0.006830 -0.000971 0.010288 0.000000 0.001060 0.000000
# 4 0.000000 0.000000 0.000000 -0.045462 0.000000 0.095937
# 5 -0.009520 0.002951 0.001060 0.000000 0.032769 0.000000
# 6 0.000000 0.000000 0.000000 0.095937 0.000000 -0.096900
#
#
# Mechanical properties :
#
#
# Convention : Reuss Voigt Hill
#
# Bulk Modulus (GPa) = 56.42898 63.21778 59.82338
# Shear Modulus (GPa) = -328.56895 23.87047 -152.34924
#
# Velocity S-wave (km/s) = -12.94533 3.48924 -8.81496
# Velocity P-wave (km/s) = 13.95211 6.96249 8.54942
#
# Compressibility (1/GPa) = 0.01772139
#
# Stress axis : x y z
#
# Youngs Moduli (GPa) = 36.01336 66.49360 97.19853
#
# Poissons Ratio (x) = 0.65735 0.66384
# Poissons Ratio (y) = 0.35602 0.09438
# Poissons Ratio (z) = 0.24596 0.06457
#
# Static dielectric constant tensor:
#      x y z
#    x 3.669640 0.000000 0.280150 
#    y 0.000000 3.412250 0.000000 
#    z 0.280150 0.000000 3.889340 
# 
# 
# High freq. dielectric constant tensor:
#      x y z
#    x 1.742660 0.000000 0.025830 
#    y 0.000000 1.762980 0.000000 
#    z 0.025830 0.000000 1.776850 
# 
# From -- ./inp_files/205150.got.cif
#   From: 2010.06.25/outbox.cif.g09.slc.cpg/sg12_103_cif.got.tgz:205150.got - 2010.06.28 00:19:55.
