data_PCOD8094636
_publ_section_title
;
Structure prediction by ZEFSAII (Michael W. Deem and Ramdas Pophale) SiO2 
 PCOD8094636
Probable space group: C 2/M
;
_chemical_formula_sum "Si O2"
_cell_formula_units_Z 64
_cell_length_a 19.100358
_cell_length_b 9.118990
_cell_length_c 30.466591
_cell_angle_alpha 90.000000
_cell_angle_beta 38.377782
_cell_angle_gamma 90.000000
_cell_volume 3294.537704
_symmetry_space_group_name_H-M "C 2/M"
_symmetry_group_IT_number 12
_symmetry_cell_setting 'monoclinic'
loop_
_space_group_symop_operation_xyz
x,y,z
-x,y,-z
-x,-y,-z
x,-y,z
1/2+x,1/2+y,z
1/2-x,1/2+y,-z
1/2-x,1/2-y,-z
1/2+x,1/2-y,z
loop_
_atom_site_type_symbol
_atom_site_label
_atom_site_fract_x
_atom_site_fract_y
_atom_site_fract_z
Si Si1 0.468968 0.326125 0.562585
Si Si2 0.514396 0.668143 0.943473
Si Si3 0.130239 0.827029 0.560980
Si Si4 0.370960 0.174270 0.940322
Si Si5 0.273664 0.166762 0.287560
Si Si6 0.956330 0.171901 0.719494
Si Si7 0.508969 0.834525 0.209107
Si Si8 0.745167 0.333618 0.786825
O O1 0.500000 0.258356 0.500000
O O2 0.476494 0.500000 0.557463
O O3 0.553377 0.267202 0.558621
O O4 0.341725 0.275375 0.634517
O O5 0.472904 0.500000 0.958156
O O6 0.443414 0.769566 0.945771
O O7 0.648092 0.680133 0.870558
O O8 0.500000 0.724832 0.000000
O O9 0.250000 0.750000 0.500000
O O10 0.069398 0.786634 0.636927
O O11 0.148513 0.000000 0.547785
O O12 0.434074 0.217930 0.864207
O O13 0.357784 0.000000 0.950949
O O14 0.250000 0.250000 0.000000
O O15 0.373613 0.174884 0.273695
O O16 0.309000 0.275139 0.231421
O O17 0.260450 0.000000 0.276468
O O18 0.952860 0.232906 0.770130
O O19 0.850686 0.232691 0.745181
O O20 0.942076 0.000000 0.729282
O O21 0.547868 0.000000 0.200634
O O22 0.786766 0.500000 0.761249
#
# Coordination Sequence:
#
# PCOD8094636 Si02
#       8
#     8   8   8   8   8   8   8   8
#     4   9  18  34  59  86 112 149 194 239 290 348
#     4  10  23  42  63  89 122 159 199 249 303 357
#     4  10  22  39  59  85 120 157 197 246 297 357
#     4  11  24  42  63  89 123 160 202 250 300 358
#     4  10  19  38  63  86 117 152 196 248 296 353
#     4  11  24  41  61  87 123 162 201 249 301 357
#     4  10  23  40  62  90 119 157 202 248 297 357
#     4  11  22  38  63  90 119 155 199 250 303 355
#
# _framework density 19.426093999999999
#
# number of rings (size 3 to 8) (size 9 to 14) (size 15 to 20)
#    0.000    1.750    2.500    1.125    3.500    3.250 
#    0.000    0.000    0.000    0.750    0.000    0.000 
#    0.000    0.000    0.000    0.000    0.000    0.000 
#
# Total GULP energy -396842.076142 kJ/mol
# GULP energy per Si atom -12401.314879 kJ/mol
# Density = 1.938188 g / cm^3
# Si number density = 19.426094 Si / 1000 Ang^3
#
#
#
# Elastic Constant Matrix: (Units=GPa)
#
#
# Indices 1 2 3 4 5 6 
#
# 1 85.6755 44.7840 37.4973 0.0003 5.2975 0.0007
# 2 44.7840 71.5653 46.7097 0.0008 5.5691 0.0003
# 3 37.4973 46.7097 105.3078 0.0001 2.0551 0.0004
# 4 0.0003 0.0008 0.0001 29.0649 0.0000 -2.9090
# 5 5.2975 5.5691 2.0551 0.0000 41.2719 0.0004
# 6 0.0007 0.0003 0.0004 -2.9090 0.0004 32.9629
#
#
#
# Elastic Compliance Matrix: (Units=1/GPa)
#
#
# Indices 1 2 3 4 5 6 
#
# 1 0.017655 -0.009696 -0.001969 0.000000 -0.000860 0.000000
# 2 -0.009696 0.025198 -0.007689 -0.000001 -0.001773 0.000000
# 3 -0.001969 -0.007689 0.013596 0.000000 0.000613 0.000000
# 4 0.000000 -0.000001 0.000000 0.034712 0.000000 0.003063
# 5 -0.000860 -0.001773 0.000613 0.000000 0.024549 0.000000
# 6 0.000000 0.000000 0.000000 0.003063 0.000000 0.030607
#
#
# Mechanical properties :
#
#
# Convention : Reuss Voigt Hill
#
# Bulk Modulus (GPa) = 56.37138 57.83671 57.10405
# Shear Modulus (GPa) = 26.18633 29.56377 27.87505
#
# Velocity S-wave (km/s) = 3.67549 3.90533 3.79215
# Velocity P-wave (km/s) = 6.86249 7.08328 6.97376
#
# Compressibility (1/GPa) = 0.01773950
#
# Stress axis : x y z
#
# Youngs Moduli (GPa) = 56.64038 39.68632 73.55242
#
# Poissons Ratio (x) = 0.38481 0.14482
# Poissons Ratio (y) = 0.54920 0.56557
# Poissons Ratio (z) = 0.11152 0.30516
#
# Static dielectric constant tensor:
#      x y z
#    x 3.555670 0.000000 0.054150 
#    y 0.000000 3.414020 0.000000 
#    z 0.054150 0.000000 3.759840 
# 
# 
# High freq. dielectric constant tensor:
#      x y z
#    x 1.760750 0.000000 -0.001930 
#    y 0.000000 1.742180 0.000000 
#    z -0.001930 0.000000 1.769630 
# 
# From -- ./inp_files/377994.got.cif
#   From: 2010.06.25/outbox.cif.g09.slc.cpg/sg12_189_cif.got.tgz:377994.got - 2010.06.28 00:19:55.
