data_PCOD8094507
_publ_section_title
;
Structure prediction by ZEFSAII (Michael W. Deem and Ramdas Pophale) SiO2 
 PCOD8094507
Probable space group: C 2/M
;
_chemical_formula_sum "Si O2"
_cell_formula_units_Z 44
_cell_length_a 11.199882
_cell_length_b 22.099835
_cell_length_c 8.542023
_cell_angle_alpha 90.000000
_cell_angle_beta 68.897353
_cell_angle_gamma 90.000000
_cell_volume 1972.493073
_symmetry_space_group_name_H-M "C 2/M"
_symmetry_group_IT_number 12
_symmetry_cell_setting 'monoclinic'
loop_
_space_group_symop_operation_xyz
x,y,z
-x,y,-z
-x,-y,-z
x,-y,z
1/2+x,1/2+y,z
1/2-x,1/2+y,-z
1/2-x,1/2-y,-z
1/2+x,1/2-y,z
loop_
_atom_site_type_symbol
_atom_site_label
_atom_site_fract_x
_atom_site_fract_y
_atom_site_fract_z
Si Si1 0.190113 0.155525 0.894151
Si Si2 0.838161 0.567540 0.396712
Si Si3 0.028862 0.675254 0.320360
Si Si4 0.000000 0.740081 0.000000
Si Si5 0.193245 0.066241 0.161284
Si Si6 0.590077 0.568625 0.700894
O O1 0.320734 0.163867 0.738761
O O2 0.089794 0.113580 0.848967
O O3 0.127990 0.220506 0.956251
O O4 0.226867 0.122057 0.035746
O O5 0.876542 0.500000 0.435878
O O6 0.954741 0.611890 0.375697
O O7 0.808881 0.566795 0.227391
O O8 0.703838 0.589659 0.534280
O O9 0.000000 0.711672 0.500000
O O10 0.988932 0.704374 0.171507
O O11 0.051949 0.074625 0.307568
O O12 0.194173 0.000000 0.075710
O O13 0.615039 0.500000 0.744921
#
# Coordination Sequence:
#
# PCOD8094507 Si02
#       6
#     8   8   8   4   8   8
#     4  12  23  44  67  97 128 178 227 278 335 392
#     4  10  22  41  67 101 138 173 213 271 343 410
#     4  12  27  48  70  98 136 176 224 280 337 402
#     4  12  28  50  68  96 132 178 238 284 320 386
#     4  10  20  37  66 102 138 174 218 275 334 396
#     4  10  19  37  67 102 135 170 218 272 333 404
#
# _framework density 22.306795999999999
#
# number of rings (size 3 to 8) (size 9 to 14) (size 15 to 20)
#    0.000    1.091    3.636    2.727    0.000    6.182 
#    3.273    2.273    0.000    0.000    0.000    0.000 
#    0.000    0.000    0.000    0.000    0.000    0.000 
#
# Total GULP energy -272592.146520 kJ/mol
# GULP energy per Si atom -12390.552115 kJ/mol
# Density = 2.225602 g / cm^3
# Si number density = 22.306796 Si / 1000 Ang^3
#
#
#
# Elastic Constant Matrix: (Units=GPa)
#
#
# Indices 1 2 3 4 5 6 
#
# 1 81.0839 24.8165 28.8850 0.0000 -6.7143 0.0000
# 2 24.8165 84.6824 45.0556 0.0000 1.4225 0.0000
# 3 28.8850 45.0556 124.4403 0.0000 -0.6840 0.0000
# 4 0.0000 0.0000 0.0000 31.4648 0.0000 -1.8435
# 5 -6.7143 1.4225 -0.6840 0.0000 45.7514 0.0000
# 6 0.0000 0.0000 0.0000 -1.8435 0.0000 -179.0600
#
#
#
# Elastic Compliance Matrix: (Units=1/GPa)
#
#
# Indices 1 2 3 4 5 6 
#
# 1 0.014221 -0.003039 -0.002189 0.000000 0.002149 0.000000
# 2 -0.003039 0.015289 -0.004836 0.000000 -0.000994 0.000000
# 3 -0.002189 -0.004836 0.010295 0.000000 -0.000017 0.000000
# 4 0.000000 0.000000 0.000000 0.031762 0.000000 -0.000327
# 5 0.002149 -0.000994 -0.000017 0.000000 0.022203 0.000000
# 6 0.000000 0.000000 0.000000 -0.000327 0.000000 -0.005581
#
#
# Mechanical properties :
#
#
# Convention : Reuss Voigt Hill
#
# Bulk Modulus (GPa) = 50.81928 54.19119 52.50524
# Shear Modulus (GPa) = 43.52572 -7.60546 17.96013
#
# Velocity S-wave (km/s) = 4.42207 -1.84848 2.84058
# Velocity P-wave (km/s) = 6.99316 4.44865 5.86067
#
# Compressibility (1/GPa) = 0.01967757
#
# Stress axis : x y z
#
# Youngs Moduli (GPa) = 70.32025 65.40679 97.13671
#
# Poissons Ratio (x) = 0.19877 0.21261
# Poissons Ratio (y) = 0.21370 0.46972
# Poissons Ratio (z) = 0.15391 0.31629
#
# Static dielectric constant tensor:
#      x y z
#    x 3.947190 0.000000 0.005320 
#    y 0.000000 3.947540 0.000000 
#    z 0.005320 0.000000 4.103460 
# 
# 
# High freq. dielectric constant tensor:
#      x y z
#    x 1.887340 0.000000 -0.004330 
#    y 0.000000 1.862100 0.000000 
#    z -0.004330 0.000000 1.880840 
# 
# From -- ./inp_files/49269.got.cif
#   From: 2010.06.25/outbox.cif.g09.slc.cpg/sg12_25_cif.got.tgz:49269.got - 2010.06.28 00:19:55.
