data_PCOD8094676
_publ_section_title
;
Structure prediction by ZEFSAII (Michael W. Deem and Ramdas Pophale) SiO2 
 PCOD8094676
Probable space group: C 2/M
;
_chemical_formula_sum "Si O2"
_cell_formula_units_Z 56
_cell_length_a 9.055992
_cell_length_b 29.540233
_cell_length_c 11.074874
_cell_angle_alpha 90.000000
_cell_angle_beta 66.661775
_cell_angle_gamma 90.000000
_cell_volume 2720.305324
_symmetry_space_group_name_H-M "C 2/M"
_symmetry_group_IT_number 12
_symmetry_cell_setting 'monoclinic'
loop_
_space_group_symop_operation_xyz
x,y,z
-x,y,-z
-x,-y,-z
x,-y,z
1/2+x,1/2+y,z
1/2-x,1/2+y,-z
1/2-x,1/2-y,-z
1/2+x,1/2-y,z
loop_
_atom_site_type_symbol
_atom_site_label
_atom_site_fract_x
_atom_site_fract_y
_atom_site_fract_z
Si Si1 0.265359 0.785703 0.748321
Si Si2 0.427545 0.299994 0.742734
Si Si3 0.757352 0.552687 0.146855
Si Si4 0.087350 0.590109 0.127287
Si Si5 0.850710 0.616841 0.633200
Si Si6 0.513355 0.605389 0.630876
Si Si7 0.651959 0.810734 0.017415
O O1 0.359701 0.740099 0.677877
O O2 0.348417 0.829891 0.666030
O O3 0.281392 0.782556 0.889654
O O4 0.081666 0.782629 0.767338
O O5 0.468493 0.341633 0.642823
O O6 0.296784 0.318561 0.878955
O O7 0.733826 0.500000 0.177484
O O8 0.597652 0.577769 0.241779
O O9 0.908927 0.570363 0.173726
O O10 0.786802 0.561809 0.994860
O O11 0.139212 0.586899 0.249271
O O12 0.084553 0.641642 0.085477
O O13 0.694819 0.599610 0.615029
O O14 0.000000 0.606601 0.500000
O O15 0.500000 0.585982 0.500000
O O16 0.500000 0.786261 0.000000
#
# Coordination Sequence:
#
# PCOD8094676 Si02
#       7
#     8   8   8   8   8   8   8
#     4  10  23  34  56  84 121 163 208 254 296 350
#     4  11  21  38  53  84 121 162 208 253 301 352
#     4  11  22  41  68  98 126 153 198 252 309 376
#     4  10  19  38  64  95 123 159 197 246 305 365
#     4  10  23  41  63  90 125 166 209 251 298 363
#     4  11  24  42  64  89 123 166 206 253 311 365
#     4  11  18  32  56  84 121 158 201 246 298 356
#
# _framework density 20.585923999999999
#
# number of rings (size 3 to 8) (size 9 to 14) (size 15 to 20)
#    0.000    1.429    2.857    3.429    0.000    4.857 
#    0.000    5.000    0.000    3.000    0.000    0.000 
#    0.000    0.000    0.000    0.000    0.000    0.000 
#
# Total GULP energy -347257.675078 kJ/mol
# GULP energy per Si atom -12402.059824 kJ/mol
# Density = 2.053907 g / cm^3
# Si number density = 20.585924 Si / 1000 Ang^3
#
#
#
# Elastic Constant Matrix: (Units=GPa)
#
#
# Indices 1 2 3 4 5 6 
#
# 1 150.0437 50.6539 81.2265 0.0000 -11.6589 0.0000
# 2 50.6539 83.5099 25.0894 0.0000 -6.8847 0.0000
# 3 81.2265 25.0894 111.5752 0.0000 -4.5536 0.0000
# 4 0.0000 0.0000 0.0000 12.6855 0.0000 1.8681
# 5 -11.6589 -6.8847 -4.5536 0.0000 36.9194 0.0000
# 6 0.0000 0.0000 0.0000 1.8681 0.0000 18.4237
#
#
#
# Elastic Compliance Matrix: (Units=1/GPa)
#
#
# Indices 1 2 3 4 5 6 
#
# 1 0.013076 -0.005279 -0.008245 0.000000 0.002128 0.000000
# 2 -0.005279 0.015129 0.000490 0.000000 0.001215 0.000000
# 3 -0.008245 0.000490 0.014827 0.000000 -0.000684 0.000000
# 4 0.000000 0.000000 0.000000 0.080025 0.000000 -0.008114
# 5 0.002128 0.001215 -0.000684 0.000000 0.027900 0.000000
# 6 0.000000 0.000000 0.000000 -0.008114 0.000000 0.055101
#
#
# Mechanical properties :
#
#
# Convention : Reuss Voigt Hill
#
# Bulk Modulus (GPa) = 58.94540 73.22982 66.08761
# Shear Modulus (GPa) = 21.02786 26.14965 23.58875
#
# Velocity S-wave (km/s) = 3.19951 3.56795 3.38874
# Velocity P-wave (km/s) = 6.50731 7.25422 6.89089
#
# Compressibility (1/GPa) = 0.01696485
#
# Stress axis : x y z
#
# Youngs Moduli (GPa) = 76.47783 66.09704 67.44491
#
# Poissons Ratio (x) = 0.34890 0.55610
# Poissons Ratio (y) = 0.40370 -0.03307
# Poissons Ratio (z) = 0.63058 -0.03241
#
# Static dielectric constant tensor:
#      x y z
#    x 3.834950 0.000000 0.070220 
#    y 0.000000 3.652250 0.000000 
#    z 0.070220 0.000000 3.666540 
# 
# 
# High freq. dielectric constant tensor:
#      x y z
#    x 1.812420 0.000000 -0.004640 
#    y 0.000000 1.794580 0.000000 
#    z -0.004640 0.000000 1.800100 
# 
# From -- ./inp_files/125601.got.cif
#   From: 2010.06.25/outbox.cif.g09.slc.cpg/sg12_63_cif.got.tgz:125601.got - 2010.06.28 00:19:55.
