data_PCOD8094633
_publ_section_title
;
Structure prediction by ZEFSAII (Michael W. Deem and Ramdas Pophale) SiO2 
 PCOD8094633
Probable space group: C 2/M
;
_chemical_formula_sum "Si O2"
_cell_formula_units_Z 64
_cell_length_a 35.046891
_cell_length_b 8.739742
_cell_length_c 25.898985
_cell_angle_alpha 90.000000
_cell_angle_beta 23.975476
_cell_angle_gamma 90.000000
_cell_volume 3223.490545
_symmetry_space_group_name_H-M "C 2/M"
_symmetry_group_IT_number 12
_symmetry_cell_setting 'monoclinic'
loop_
_space_group_symop_operation_xyz
x,y,z
-x,y,-z
-x,-y,-z
x,-y,z
1/2+x,1/2+y,z
1/2-x,1/2+y,-z
1/2-x,1/2-y,-z
1/2+x,1/2-y,z
loop_
_atom_site_type_symbol
_atom_site_label
_atom_site_fract_x
_atom_site_fract_y
_atom_site_fract_z
Si Si1 0.103837 0.318160 0.859277
Si Si2 0.066812 0.679730 0.176206
Si Si3 0.254130 0.819359 0.228981
Si Si4 0.392432 0.181319 0.760408
Si Si5 0.617549 0.323721 0.627898
Si Si6 0.946457 0.320954 0.513560
Si Si7 0.673498 0.178062 0.662282
Si Si8 0.712729 0.319034 0.921957
O O1 0.103360 0.500000 0.860160
O O2 0.176959 0.257278 0.811502
O O3 0.136464 0.259730 0.762789
O O4 0.000000 0.253685 0.000000
O O5 0.081832 0.500000 0.150735
O O6 0.107377 0.738240 0.180862
O O7 0.957254 0.719956 0.309533
O O8 0.118043 0.769027 0.067170
O O9 0.148613 0.773469 0.373268
O O10 0.288679 0.745823 0.133447
O O11 0.260768 0.000000 0.215403
O O12 0.487399 0.235786 0.614839
O O13 0.301636 0.249439 0.843525
O O14 0.388430 0.000000 0.762642
O O15 0.587373 0.500000 0.662369
O O16 0.621802 0.274973 0.682335
O O17 0.715263 0.294098 0.478046
O O18 0.922028 0.500000 0.540930
O O19 0.000000 0.282174 0.500000
O O20 0.649203 0.000000 0.683843
O O21 0.718830 0.500000 0.911171
#
# Coordination Sequence:
#
# PCOD8094633 Si02
#       8
#     8   8   8   8   8   8   8   8
#     4   9  20  38  60  86 118 157 195 238 296 355
#     4  11  23  38  59  87 116 151 200 246 291 352
#     4  11  23  37  59  93 122 154 202 248 294 354
#     4   9  20  38  60  85 116 157 200 238 290 352
#     4  10  21  37  58  87 117 150 192 241 298 349
#     4  10  19  38  63  85 118 164 201 238 296 357
#     4   9  19  38  62  83 113 153 195 239 289 349
#     4  11  22  41  62  83 118 158 196 243 297 352
#
# _framework density 19.854254999999998
#
# number of rings (size 3 to 8) (size 9 to 14) (size 15 to 20)
#    0.000    2.000    1.250    1.875    3.500    0.750 
#    0.000    3.750    0.000    1.875    0.000    0.000 
#    0.000    0.000    0.000    0.000    0.000    0.000 
#
# Total GULP energy -396912.646011 kJ/mol
# GULP energy per Si atom -12403.520188 kJ/mol
# Density = 1.980907 g / cm^3
# Si number density = 19.854255 Si / 1000 Ang^3
#
#
#
# Elastic Constant Matrix: (Units=GPa)
#
#
# Indices 1 2 3 4 5 6 
#
# 1 122.2223 30.8981 59.4654 -0.0009 6.5834 0.0026
# 2 30.8981 45.1211 26.5194 -0.0082 -0.0683 -0.0003
# 3 59.4654 26.5194 115.6597 -0.0046 10.3814 0.0042
# 4 -0.0009 -0.0082 -0.0046 30.5665 0.0025 -0.0073
# 5 6.5834 -0.0683 10.3814 0.0025 37.2043 -0.0042
# 6 0.0026 -0.0003 0.0042 -0.0073 -0.0042 22.0693
#
#
#
# Elastic Compliance Matrix: (Units=1/GPa)
#
#
# Indices 1 2 3 4 5 6 
#
# 1 0.011924 -0.005321 -0.004842 -0.000002 -0.000769 -0.000001
# 2 -0.005321 0.028098 -0.003893 0.000007 0.002080 0.000002
# 3 -0.004842 -0.003893 0.012259 0.000001 -0.002571 -0.000002
# 4 -0.000002 0.000007 0.000001 0.032716 -0.000002 0.000011
# 5 -0.000769 0.002080 -0.002571 -0.000002 0.027736 0.000006
# 6 -0.000001 0.000002 -0.000002 0.000011 0.000006 0.045312
#
#
# Mechanical properties :
#
#
# Convention : Reuss Voigt Hill
#
# Bulk Modulus (GPa) = 41.37593 57.41877 49.39735
# Shear Modulus (GPa) = 25.74511 29.04271 27.39391
#
# Velocity S-wave (km/s) = 3.60489 3.82880 3.71853
# Velocity P-wave (km/s) = 6.18159 6.96629 6.58564
#
# Compressibility (1/GPa) = 0.02416864
#
# Stress axis : x y z
#
# Youngs Moduli (GPa) = 83.86489 35.59010 81.57402
#
# Poissons Ratio (x) = 0.18937 0.39495
# Poissons Ratio (y) = 0.44624 0.31760
# Poissons Ratio (z) = 0.40604 0.13857
#
# Static dielectric constant tensor:
#      x y z
#    x 3.780390 0.000000 0.001540 
#    y 0.000000 3.342730 0.000050 
#    z 0.001540 0.000050 3.761850 
# 
# 
# High freq. dielectric constant tensor:
#      x y z
#    x 1.783420 0.000000 0.001960 
#    y 0.000000 1.750550 0.000000 
#    z 0.001960 0.000000 1.786580 
# 
# From -- ./inp_files/353366.got.cif
#   From: 2010.06.25/outbox.cif.g09.slc.cpg/sg12_177_cif.got.tgz:353366.got - 2010.06.28 00:19:55.
