data_PCOD8094281
_publ_section_title
;
Structure prediction by ZEFSAII (Michael W. Deem and Ramdas Pophale) SiO2 
 PCOD8094281
Probable space group: C 2/M
;
_chemical_formula_sum "Si O2"
_cell_formula_units_Z 64
_cell_length_a 14.586186
_cell_length_b 17.645212
_cell_length_c 14.394994
_cell_angle_alpha 90.000000
_cell_angle_beta 62.417831
_cell_angle_gamma 90.000000
_cell_volume 3283.857078
_symmetry_space_group_name_H-M "C 2/M"
_symmetry_group_IT_number 12
_symmetry_cell_setting 'monoclinic'
loop_
_space_group_symop_operation_xyz
x,y,z
-x,y,-z
-x,-y,-z
x,-y,z
1/2+x,1/2+y,z
1/2-x,1/2+y,-z
1/2-x,1/2-y,-z
1/2+x,1/2-y,z
loop_
_atom_site_type_symbol
_atom_site_label
_atom_site_fract_x
_atom_site_fract_y
_atom_site_fract_z
Si Si1 0.384223 0.799694 0.684058
Si Si2 0.215546 0.084569 0.736973
Si Si3 0.123442 0.085380 0.235523
Si Si4 0.389303 0.375189 0.389354
Si Si5 0.697454 0.348478 0.378781
Si Si6 0.083134 0.219130 0.880830
Si Si7 0.911961 0.716471 0.315145
Si Si8 0.229264 0.780133 0.110193
O O1 0.329600 0.877676 0.678997
O O2 0.356849 0.731943 0.624431
O O3 0.506351 0.813951 0.645683
O O4 0.347475 0.777492 0.803877
O O5 0.175297 0.072530 0.650551
O O6 0.137441 0.138397 0.831840
O O7 0.222069 0.000000 0.778584
O O8 0.191543 0.093418 0.296178
O O9 0.176495 0.136651 0.130562
O O10 0.010195 0.114572 0.314083
O O11 0.121537 0.000000 0.199250
O O12 0.362307 0.390138 0.509206
O O13 0.356125 0.289279 0.384829
O O14 0.818980 0.342548 0.345622
O O15 0.037246 0.257328 0.808345
O O16 0.165032 0.280707 0.880150
O O17 0.000000 0.203361 0.000000
O O18 0.250000 0.750000 0.000000
#
# Coordination Sequence:
#
# PCOD8094281 Si02
#       8
#     8   8   8   8   8   8   8   8
#     4  10  20  36  59  85 116 157 203 250 284 348
#     4  10  22  39  54  83 126 156 192 245 302 358
#     4  11  23  39  59  92 129 153 190 247 306 360
#     4  11  21  35  61  87 120 156 199 247 303 352
#     4  11  21  38  58  90 119 159 203 246 291 358
#     4  10  20  35  61  91 112 150 200 248 296 350
#     4  11  19  36  59  89 116 150 207 257 284 340
#     4  10  19  37  60  86 118 155 197 242 290 349
#
# _framework density 19.489277999999999
#
# number of rings (size 3 to 8) (size 9 to 14) (size 15 to 20)
#    0.000    1.500    7.500    1.875    1.750    1.750 
#    0.000    3.125    0.000    1.125    0.000    0.000 
#    0.000    0.000    0.000    0.000    0.000    0.000 
#
# Total GULP energy -396529.355452 kJ/mol
# GULP energy per Si atom -12391.542358 kJ/mol
# Density = 1.944492 g / cm^3
# Si number density = 19.489278 Si / 1000 Ang^3
#
#
#
# Elastic Constant Matrix: (Units=GPa)
#
#
# Indices 1 2 3 4 5 6 
#
# 1 117.9821 21.2732 18.3134 0.0000 -7.2433 0.0000
# 2 21.2732 85.3211 35.5433 0.0000 -8.9086 0.0000
# 3 18.3134 35.5433 97.2875 0.0000 3.2172 0.0000
# 4 0.0000 0.0000 0.0000 11.3442 0.0000 2.0951
# 5 -7.2433 -8.9086 3.2172 0.0000 18.8289 0.0000
# 6 0.0000 0.0000 0.0000 2.0951 0.0000 13.0538
#
#
#
# Elastic Compliance Matrix: (Units=1/GPa)
#
#
# Indices 1 2 3 4 5 6 
#
# 1 0.009121 -0.001412 -0.001302 0.000000 0.003063 0.000000
# 2 -0.001412 0.015165 -0.005525 0.000000 0.007576 0.000000
# 3 -0.001302 -0.005525 0.012717 0.000000 -0.005288 0.000000
# 4 0.000000 0.000000 0.000000 0.090843 0.000000 -0.014580
# 5 0.003063 0.007576 -0.005288 0.000000 0.058776 0.000000
# 6 0.000000 0.000000 0.000000 -0.014580 0.000000 0.078946
#
#
# Mechanical properties :
#
#
# Convention : Reuss Voigt Hill
#
# Bulk Modulus (GPa) = 48.72214 50.09450 49.40832
# Shear Modulus (GPa) = 17.30769 23.67613 20.49191
#
# Velocity S-wave (km/s) = 2.98327 3.48922 3.24612
# Velocity P-wave (km/s) = 6.07620 6.48015 6.28142
#
# Compressibility (1/GPa) = 0.02052455
#
# Stress axis : x y z
#
# Youngs Moduli (GPa) = 109.64173 65.94043 78.63192
#
# Poissons Ratio (x) = 0.09308 0.10241
# Poissons Ratio (y) = 0.15477 0.43447
# Poissons Ratio (z) = 0.14280 0.36434
#
# Static dielectric constant tensor:
#      x y z
#    x 3.865850 0.000000 0.124980 
#    y 0.000000 4.041560 0.000000 
#    z 0.124980 0.000000 3.590530 
# 
# 
# High freq. dielectric constant tensor:
#      x y z
#    x 1.774870 0.000000 0.008790 
#    y 0.000000 1.720580 0.000000 
#    z 0.008790 0.000000 1.747720 
# 
# From -- ./inp_files/216361.got.cif
#   From: 2010.06.25/outbox.cif.g09.slc.cpg/sg12_109_cif.got.tgz:216361.got - 2010.06.28 00:19:55.
