data_PCOD8094355
_publ_section_title
;
Structure prediction by ZEFSAII (Michael W. Deem and Ramdas Pophale) SiO2 
 PCOD8094355
Probable space group: C 2/M
;
_chemical_formula_sum "Si O2"
_cell_formula_units_Z 56
_cell_length_a 9.478394
_cell_length_b 17.026622
_cell_length_c 19.945461
_cell_angle_alpha 90.000000
_cell_angle_beta 63.882256
_cell_angle_gamma 90.000000
_cell_volume 2890.221239
_symmetry_space_group_name_H-M "C 2/M"
_symmetry_group_IT_number 12
_symmetry_cell_setting 'monoclinic'
loop_
_space_group_symop_operation_xyz
x,y,z
-x,y,-z
-x,-y,-z
x,-y,z
1/2+x,1/2+y,z
1/2-x,1/2+y,-z
1/2-x,1/2-y,-z
1/2+x,1/2-y,z
loop_
_atom_site_type_symbol
_atom_site_label
_atom_site_fract_x
_atom_site_fract_y
_atom_site_fract_z
Si Si1 0.084509 0.406895 0.917121
Si Si2 0.846935 0.407629 0.571710
Si Si3 0.708076 0.337794 0.296116
Si Si4 0.022145 0.409374 0.205144
Si Si5 0.077254 0.907137 0.196402
Si Si6 0.025246 0.086469 0.571907
Si Si7 0.252312 0.159205 0.735652
O O1 0.077774 0.500000 0.921560
O O2 0.268104 0.380165 0.878253
O O3 0.990461 0.380010 0.869846
O O4 0.000000 0.369618 0.000000
O O5 0.866711 0.500000 0.575916
O O6 0.698344 0.384205 0.556967
O O7 0.826097 0.375445 0.651938
O O8 0.000000 0.373647 0.500000
O O9 0.584975 0.365822 0.266205
O O10 0.602740 0.346637 0.384012
O O11 0.773193 0.251261 0.270300
O O12 0.849462 0.399637 0.272127
O O13 0.075275 0.500000 0.199232
O O14 0.136157 0.354430 0.223937
O O15 0.910630 0.878122 0.203244
O O16 0.075312 0.000000 0.203854
O O17 0.000000 0.075382 0.500000
O O18 0.996290 0.000000 0.611761
#
# Coordination Sequence:
#
# PCOD8094355 Si02
#       7
#     8   8   8   8   8   8   8
#     4   8  16  34  61  90 116 146 190 238 280 331
#     4  10  22  39  57  79 111 151 190 237 293 342
#     4  11  22  37  56  83 114 151 191 238 285 334
#     4  10  21  35  58  86 114 149 191 232 278 340
#     4  10  19  37  62  82 110 155 194 227 279 346
#     4  10  21  38  60  81 106 147 201 243 283 347
#     4  12  23  36  56  87 120 149 187 243 294 336
#
# _framework density 19.375679000000002
#
# number of rings (size 3 to 8) (size 9 to 14) (size 15 to 20)
#    0.000    1.857    1.429    4.286    2.000    0.571 
#    0.000    2.143    0.000   17.143    0.000    0.000 
#    0.000    0.000    0.000    0.000    0.000    0.143 
#
# Total GULP energy -346971.019684 kJ/mol
# GULP energy per Si atom -12391.822132 kJ/mol
# Density = 1.933158 g / cm^3
# Si number density = 19.375679 Si / 1000 Ang^3
#
#
#
# Elastic Constant Matrix: (Units=GPa)
#
#
# Indices 1 2 3 4 5 6 
#
# 1 98.5096 1.9815 67.2891 0.0000 8.0077 0.0000
# 2 1.9815 56.1617 31.8492 0.0000 0.1517 0.0000
# 3 67.2891 31.8492 128.7197 0.0000 -10.9003 0.0000
# 4 0.0000 0.0000 0.0000 8.1461 0.0000 -3.3801
# 5 8.0077 0.1517 -10.9003 0.0000 21.3596 0.0000
# 6 0.0000 0.0000 0.0000 -3.3801 0.0000 22.2013
#
#
#
# Elastic Compliance Matrix: (Units=1/GPa)
#
#
# Indices 1 2 3 4 5 6 
#
# 1 0.020660 0.007153 -0.013828 0.000000 -0.014853 0.000000
# 2 0.007153 0.023360 -0.010201 0.000000 -0.008053 0.000000
# 3 -0.013828 -0.010201 0.018778 0.000000 0.014839 0.000000
# 4 0.000000 0.000000 0.000000 0.131037 0.000000 0.019950
# 5 -0.014853 -0.008053 0.014839 0.000000 0.060016 0.000000
# 6 0.000000 0.000000 0.000000 0.019950 0.000000 0.048080
#
#
# Mechanical properties :
#
#
# Convention : Reuss Voigt Hill
#
# Bulk Modulus (GPa) = 34.42794 53.95895 44.19345
# Shear Modulus (GPa) = 14.47742 22.49281 18.48512
#
# Velocity S-wave (km/s) = 2.73645 3.41086 3.09210
# Velocity P-wave (km/s) = 5.27176 6.58948 5.96711
#
# Compressibility (1/GPa) = 0.02904617
#
# Stress axis : x y z
#
# Youngs Moduli (GPa) = 48.40212 42.80785 53.25323
#
# Poissons Ratio (x) = -0.30620 0.73638
# Poissons Ratio (y) = -0.34622 0.54325
# Poissons Ratio (z) = 0.66930 0.43669
#
# Static dielectric constant tensor:
#      x y z
#    x 3.615490 0.000000 -0.100610 
#    y 0.000000 3.401850 0.000000 
#    z -0.100610 0.000000 3.751940 
# 
# 
# High freq. dielectric constant tensor:
#      x y z
#    x 1.761190 0.000000 -0.008070 
#    y 0.000000 1.735740 0.000000 
#    z -0.008070 0.000000 1.743250 
# 
# From -- ./inp_files/300666.got.cif
#   From: 2010.06.25/outbox.cif.g09.slc.cpg/sg12_151_cif.got.tgz:300666.got - 2010.06.28 00:19:55.
