data_PCOD8094773
_publ_section_title
;
Structure prediction by ZEFSAII (Michael W. Deem and Ramdas Pophale) SiO2 
 PCOD8094773
Probable space group: C 2/M
;
_chemical_formula_sum "Si O2"
_cell_formula_units_Z 56
_cell_length_a 15.919172
_cell_length_b 22.455470
_cell_length_c 9.274899
_cell_angle_alpha 90.000000
_cell_angle_beta 55.763549
_cell_angle_gamma 90.000000
_cell_volume 2741.017048
_symmetry_space_group_name_H-M "C 2/M"
_symmetry_group_IT_number 12
_symmetry_cell_setting 'monoclinic'
loop_
_space_group_symop_operation_xyz
x,y,z
-x,y,-z
-x,-y,-z
x,-y,z
1/2+x,1/2+y,z
1/2-x,1/2+y,-z
1/2-x,1/2-y,-z
1/2+x,1/2-y,z
loop_
_atom_site_type_symbol
_atom_site_label
_atom_site_fract_x
_atom_site_fract_y
_atom_site_fract_z
Si Si1 0.711849 0.432022 0.336993
Si Si2 0.431917 0.735664 0.199454
Si Si3 0.562054 0.930664 0.798397
Si Si4 0.788018 0.858320 0.243830
Si Si5 0.430902 0.161461 0.431937
Si Si6 0.444499 0.386248 0.306955
Si Si7 0.660581 0.566326 0.067174
O O1 0.688270 0.500000 0.403158
O O2 0.820161 0.411893 0.295785
O O3 0.618028 0.391407 0.483056
O O4 0.719578 0.424500 0.158957
O O5 0.327430 0.709938 0.228997
O O6 0.410930 0.786640 0.335405
O O7 0.484604 0.681165 0.237352
O O8 0.500000 0.758717 0.000000
O O9 0.518499 0.893498 0.704437
O O10 0.548572 0.000000 0.777152
O O11 0.500000 0.912681 0.000000
O O12 0.673360 0.862458 0.403337
O O13 0.861203 0.903059 0.264206
O O14 0.796091 0.881133 0.073256
O O15 0.500000 0.182130 0.500000
O O16 0.539442 0.430029 0.209530
O O17 0.683584 0.500000 0.984031
#
# Coordination Sequence:
#
# PCOD8094773 Si02
#       7
#     8   8   8   8   8   8   8
#     4  10  21  36  60  93 128 166 206 250 312 376
#     4  10  21  45  64  88 124 165 208 255 316 379
#     4  10  22  43  65  86 120 167 208 255 313 367
#     4  10  22  42  60  90 129 165 207 256 315 373
#     4  12  26  42  66  94 121 162 219 264 311 363
#     4  10  19  39  64  89 128 166 205 251 319 379
#     4  11  22  36  62  99 132 163 206 258 311 384
#
# _framework density 20.430371999999998
#
# number of rings (size 3 to 8) (size 9 to 14) (size 15 to 20)
#    0.857    0.714    2.857    2.143    2.000    4.857 
#    0.000    0.714    0.000    0.000    0.000    0.000 
#    0.000    0.000    0.000    0.000    0.000    0.000 
#
# Total GULP energy -347022.050287 kJ/mol
# GULP energy per Si atom -12393.644653 kJ/mol
# Density = 2.038387 g / cm^3
# Si number density = 20.430372 Si / 1000 Ang^3
#
#
#
# Elastic Constant Matrix: (Units=GPa)
#
#
# Indices 1 2 3 4 5 6 
#
# 1 51.8611 24.0271 25.3978 0.0000 12.0218 0.0000
# 2 24.0271 80.5071 50.6626 0.0000 15.3879 0.0000
# 3 25.3978 50.6626 129.4868 0.0000 5.1869 0.0000
# 4 0.0000 0.0000 0.0000 35.5788 0.0000 9.2838
# 5 12.0218 15.3879 5.1869 0.0000 26.1530 0.0000
# 6 0.0000 0.0000 0.0000 9.2838 0.0000 20.9811
#
#
#
# Elastic Compliance Matrix: (Units=1/GPa)
#
#
# Indices 1 2 3 4 5 6 
#
# 1 0.024454 -0.003829 -0.002962 0.000000 -0.008401 0.000000
# 2 -0.003829 0.019184 -0.006424 0.000000 -0.008254 0.000000
# 3 -0.002962 -0.006424 0.010696 0.000000 0.003020 0.000000
# 4 0.000000 0.000000 0.000000 0.031775 0.000000 -0.014060
# 5 -0.008401 -0.008254 0.003020 0.000000 0.046355 0.000000
# 6 0.000000 0.000000 0.000000 -0.014060 0.000000 0.053883
#
#
# Mechanical properties :
#
#
# Convention : Reuss Voigt Hill
#
# Bulk Modulus (GPa) = 35.83626 51.33666 43.58646
# Shear Modulus (GPa) = 22.51436 27.32708 24.92072
#
# Velocity S-wave (km/s) = 3.32325 3.66125 3.49634
# Velocity P-wave (km/s) = 5.68367 6.56164 6.13837
#
# Compressibility (1/GPa) = 0.02790470
#
# Stress axis : x y z
#
# Youngs Moduli (GPa) = 40.89317 52.12590 93.48946
#
# Poissons Ratio (x) = 0.19957 0.27691
# Poissons Ratio (y) = 0.15656 0.60062
# Poissons Ratio (z) = 0.12112 0.33488
#
# Static dielectric constant tensor:
#      x y z
#    x 3.538080 0.000000 0.098270 
#    y 0.000000 3.488550 0.000000 
#    z 0.098270 0.000000 3.686880 
# 
# 
# High freq. dielectric constant tensor:
#      x y z
#    x 1.782240 0.000000 0.001550 
#    y 0.000000 1.782340 0.000000 
#    z 0.001550 0.000000 1.810430 
# 
# From -- ./inp_files/79065.got.cif
#   From: 2010.06.25/outbox.cif.g09.slc.cpg/sg12_40_cif.got.tgz:79065.got - 2010.06.28 00:19:55.
