data_PCOD8094731
_publ_section_title
;
Structure prediction by ZEFSAII (Michael W. Deem and Ramdas Pophale) SiO2 
 PCOD8094731
Probable space group: C 2/M
;
_chemical_formula_sum "Si O2"
_cell_formula_units_Z 44
_cell_length_a 21.549854
_cell_length_b 10.315952
_cell_length_c 12.157478
_cell_angle_alpha 90.000000
_cell_angle_beta 109.682301
_cell_angle_gamma 90.000000
_cell_volume 2544.789626
_symmetry_space_group_name_H-M "C 2/M"
_symmetry_group_IT_number 12
_symmetry_cell_setting 'monoclinic'
loop_
_space_group_symop_operation_xyz
x,y,z
-x,y,-z
-x,-y,-z
x,-y,z
1/2+x,1/2+y,z
1/2-x,1/2+y,-z
1/2-x,1/2-y,-z
1/2+x,1/2-y,z
loop_
_atom_site_type_symbol
_atom_site_label
_atom_site_fract_x
_atom_site_fract_y
_atom_site_fract_z
Si Si1 0.881558 0.500000 0.220537
Si Si2 0.870365 0.856485 0.946159
Si Si3 0.000000 0.289043 0.000000
Si Si4 0.264341 0.761993 0.732375
Si Si5 0.814005 0.758974 0.113360
Si Si6 0.669174 0.000000 0.348514
Si Si7 0.514951 0.000000 0.189312
Si Si8 0.298309 0.000000 0.382712
O O1 0.849913 0.620998 0.139284
O O2 0.859612 0.500000 0.334845
O O3 0.962040 0.500000 0.258871
O O4 0.820035 0.763389 0.854915
O O5 0.859286 0.000000 0.894662
O O6 0.862125 0.854521 0.074596
O O7 0.940870 0.808782 0.954815
O O8 0.001809 0.374207 0.891651
O O9 0.202272 0.808472 0.771799
O O10 0.290484 0.873739 0.667690
O O11 0.246056 0.629990 0.656468
O O12 0.750000 0.750000 0.000000
O O13 0.592124 0.000000 0.268766
O O14 0.669106 0.000000 0.479017
#
# Coordination Sequence:
#
# PCOD8094731 Si02
#       8
#     4   8   4   8   8   4   4   4
#     4  10  19  39  53  76 112 145 182 229 276 313
#     4  11  20  33  52  78 111 150 177 212 273 338
#     4  11  21  34  50  82 111 143 178 220 266 336
#     4  10  21  37  55  83 111 137 183 233 276 327
#     4   9  20  29  53  78 107 141 176 215 273 333
#     4  12  23  37  61  82 105 149 193 229 281 318
#     4  11  22  35  56  80 114 142 182 227 269 337
#     4  10  22  41  60  79 107 144 189 245 274 314
#
# _framework density 17.290230000000001
#
# number of rings (size 3 to 8) (size 9 to 14) (size 15 to 20)
#    0.000    1.636    4.545    0.818    5.091    2.545 
#    0.000    0.000    0.000    0.000    0.000    0.000 
#    0.000   13.091    0.000    0.000    0.000    0.000 
#
# Total GULP energy -272559.761052 kJ/mol
# GULP energy per Si atom -12389.080048 kJ/mol
# Density = 1.725088 g / cm^3
# Si number density = 17.290230 Si / 1000 Ang^3
#
#
#
# Elastic Constant Matrix: (Units=GPa)
#
#
# Indices 1 2 3 4 5 6 
#
# 1 99.9828 40.3718 24.1993 0.0000 -11.9989 0.0000
# 2 40.3718 84.9702 24.7000 0.0000 -11.7043 0.0000
# 3 24.1993 24.7000 70.9852 0.0000 -13.4693 0.0000
# 4 0.0000 0.0000 0.0000 20.3568 0.0000 -1.8473
# 5 -11.9989 -11.7043 -13.4693 0.0000 20.5169 0.0000
# 6 0.0000 0.0000 0.0000 -1.8473 0.0000 28.5013
#
#
#
# Elastic Compliance Matrix: (Units=1/GPa)
#
#
# Indices 1 2 3 4 5 6 
#
# 1 0.012951 -0.005111 -0.002002 0.000000 0.003344 0.000000
# 2 -0.005111 0.015598 -0.002929 0.000000 0.003986 0.000000
# 3 -0.002002 -0.002929 0.017420 0.000000 0.008594 0.000000
# 4 0.000000 0.000000 0.000000 0.049414 0.000000 0.003203
# 5 0.003344 0.003986 0.008594 0.000000 0.058613 0.000000
# 6 0.000000 0.000000 0.000000 0.003203 0.000000 0.035294
#
#
# Mechanical properties :
#
#
# Convention : Reuss Voigt Hill
#
# Bulk Modulus (GPa) = 38.63192 48.27558 43.45375
# Shear Modulus (GPa) = 22.93564 24.98613 23.96089
#
# Velocity S-wave (km/s) = 3.64608 3.80557 3.72668
# Velocity P-wave (km/s) = 6.33379 6.87686 6.61090
#
# Compressibility (1/GPa) = 0.02588533
#
# Stress axis : x y z
#
# Youngs Moduli (GPa) = 77.21181 64.11257 57.40582
#
# Poissons Ratio (x) = 0.32767 0.11494
# Poissons Ratio (y) = 0.39462 0.16812
# Poissons Ratio (z) = 0.15460 0.18776
#
# Static dielectric constant tensor:
#      x y z
#    x 3.283320 0.000000 -0.051110 
#    y 0.000000 3.242710 0.000000 
#    z -0.051110 0.000000 2.939220 
# 
# 
# High freq. dielectric constant tensor:
#      x y z
#    x 1.680620 0.000000 -0.013450 
#    y 0.000000 1.668390 0.000000 
#    z -0.013450 0.000000 1.640680 
# 
# From -- ./inp_files/173231.got.cif
#   From: 2010.06.25/outbox.cif.g09.slc.cpg/sg12_87_cif.got.tgz:173231.got - 2010.06.28 00:19:55.
