data_PCOD8094121
_publ_section_title
;
Structure prediction by ZEFSAII (Michael W. Deem and Ramdas Pophale) SiO2 
 PCOD8094121
Probable space group: C 2/M
;
_chemical_formula_sum "Si O2"
_cell_formula_units_Z 48
_cell_length_a 8.501507
_cell_length_b 28.403656
_cell_length_c 16.376101
_cell_angle_alpha 90.000000
_cell_angle_beta 32.740752
_cell_angle_gamma 90.000000
_cell_volume 2138.692963
_symmetry_space_group_name_H-M "C 2/M"
_symmetry_group_IT_number 12
_symmetry_cell_setting 'monoclinic'
loop_
_space_group_symop_operation_xyz
x,y,z
-x,y,-z
-x,-y,-z
x,-y,z
1/2+x,1/2+y,z
1/2-x,1/2+y,-z
1/2-x,1/2-y,-z
1/2+x,1/2-y,z
loop_
_atom_site_type_symbol
_atom_site_label
_atom_site_fract_x
_atom_site_fract_y
_atom_site_fract_z
Si Si1 0.737895 0.298176 0.330010
Si Si2 0.210745 0.053035 0.586428
Si Si3 0.323719 0.279668 0.156060
Si Si4 0.963411 0.123940 0.919056
Si Si5 0.456156 0.053022 0.714980
Si Si6 0.165877 0.396148 0.782757
O O1 0.500000 0.282441 0.500000
O O2 0.759500 0.261509 0.247005
O O3 0.677479 0.349185 0.318639
O O4 0.032498 0.302793 0.250488
O O5 0.500000 0.076326 0.500000
O O6 0.264342 0.053915 0.465912
O O7 0.909604 0.080647 0.735497
O O8 0.175197 0.000000 0.636330
O O9 0.478416 0.322627 0.137704
O O10 0.500000 0.260248 0.000000
O O11 0.194799 0.084515 0.788809
O O12 0.631854 0.112817 0.036622
O O13 0.000000 0.126547 0.000000
O O14 0.572566 0.069499 0.750859
O O15 0.332515 0.000000 0.777567
#
# Coordination Sequence:
#
# PCOD8094121 Si02
#       6
#     8   8   8   8   8   8
#     4  12  24  41  65  98 130 170 218 274 322 381
#     4  10  22  40  59  87 127 164 199 255 326 389
#     4  11  22  44  65  90 133 174 215 264 327 388
#     4   9  19  37  60  88 123 158 204 263 309 370
#     4  10  19  36  64  91 118 159 206 256 316 378
#     4  11  21  38  63  91 122 160 212 263 312 377
#
# _framework density 22.443614
#
# number of rings (size 3 to 8) (size 9 to 14) (size 15 to 20)
#    0.000    1.500    5.000    3.000    0.000    5.000 
#    3.000    0.833    0.000    3.000    0.000    0.000 
#    0.000    0.000    0.000    0.000    0.000    0.000 
#
# Total GULP energy -297499.811204 kJ/mol
# GULP energy per Si atom -12395.825467 kJ/mol
# Density = 2.239253 g / cm^3
# Si number density = 22.443614 Si / 1000 Ang^3
#
#
#
# Elastic Constant Matrix: (Units=GPa)
#
#
# Indices 1 2 3 4 5 6 
#
# 1 70.7305 33.1029 26.3737 0.0000 -35.4894 0.0000
# 2 33.1029 130.6245 40.5964 0.0000 5.4111 0.0000
# 3 26.3737 40.5964 110.7042 0.0000 -15.8169 -0.0001
# 4 0.0000 0.0000 0.0000 28.1828 0.0000 -27.5973
# 5 -35.4894 5.4111 -15.8169 0.0000 36.8366 0.0000
# 6 0.0000 0.0000 -0.0001 -27.5973 0.0000 12.7899
#
#
#
# Elastic Compliance Matrix: (Units=1/GPa)
#
#
# Indices 1 2 3 4 5 6 
#
# 1 0.039675 -0.011933 0.000677 0.000000 0.040268 0.000000
# 2 -0.011933 0.012510 -0.003888 0.000000 -0.015004 0.000000
# 3 0.000677 -0.003888 0.011157 0.000000 0.006014 0.000000
# 4 0.000000 0.000000 0.000000 -0.031882 0.000000 -0.068794
# 5 0.040268 -0.015004 0.006014 0.000000 0.070728 0.000000
# 6 0.000000 0.000000 0.000000 -0.068794 0.000000 -0.070254
#
#
# Mechanical properties :
#
#
# Convention : Reuss Voigt Hill
#
# Bulk Modulus (GPa) = 30.25400 56.91166 43.58283
# Shear Modulus (GPa) = 68.26952 29.69426 48.98189
#
# Velocity S-wave (km/s) = 5.52126 3.64134 4.67673
# Velocity P-wave (km/s) = 7.35901 6.56443 6.97305
#
# Compressibility (1/GPa) = 0.03305348
#
# Stress axis : x y z
#
# Youngs Moduli (GPa) = 25.20477 79.93922 89.63111
#
# Poissons Ratio (x) = 0.95391 -0.06070
# Poissons Ratio (y) = 0.30077 0.34850
# Poissons Ratio (z) = -0.01707 0.31082
#
# Static dielectric constant tensor:
#      x y z
#    x 3.747350 0.000000 -0.295760 
#    y 0.000000 4.217610 0.000000 
#    z -0.295760 0.000000 4.031600 
# 
# 
# High freq. dielectric constant tensor:
#      x y z
#    x 1.863800 0.000000 -0.016930 
#    y 0.000000 1.888680 0.000000 
#    z -0.016930 0.000000 1.887290 
# 
# From -- ./inp_files/260240.got.cif
#   From: 2010.06.25/outbox.cif.g09.slc.cpg/sg12_131_cif.got.tgz:260240.got - 2010.06.28 00:19:55.
