data_PCOD8094170
_publ_section_title
;
Structure prediction by ZEFSAII (Michael W. Deem and Ramdas Pophale) SiO2 
 PCOD8094170
Probable space group: C 2/M
;
_chemical_formula_sum "Si O2"
_cell_formula_units_Z 56
_cell_length_a 13.782412
_cell_length_b 28.804955
_cell_length_c 8.693840
_cell_angle_alpha 90.000000
_cell_angle_beta 116.495858
_cell_angle_gamma 90.000000
_cell_volume 3088.950209
_symmetry_space_group_name_H-M "C 2/M"
_symmetry_group_IT_number 12
_symmetry_cell_setting 'monoclinic'
loop_
_space_group_symop_operation_xyz
x,y,z
-x,y,-z
-x,-y,-z
x,-y,z
1/2+x,1/2+y,z
1/2-x,1/2+y,-z
1/2-x,1/2-y,-z
1/2+x,1/2-y,z
loop_
_atom_site_type_symbol
_atom_site_label
_atom_site_fract_x
_atom_site_fract_y
_atom_site_fract_z
Si Si1 0.056775 0.828141 0.691359
Si Si2 0.349547 0.299063 0.710339
Si Si3 0.883509 0.391763 0.839659
Si Si4 0.616481 0.619912 0.025008
Si Si5 0.215654 0.447759 0.972649
Si Si6 0.735432 0.201038 0.316358
Si Si7 0.017129 0.552229 0.344373
O O1 0.153407 0.795194 0.701683
O O2 0.000000 0.851426 0.500000
O O3 0.970312 0.797853 0.725528
O O4 0.105415 0.866728 0.838073
O O5 0.340813 0.337762 0.838043
O O6 0.328416 0.248350 0.764697
O O7 0.260553 0.307941 0.514504
O O8 0.795419 0.421254 0.873047
O O9 0.840172 0.340070 0.793961
O O10 0.895850 0.416310 0.683101
O O11 0.000000 0.389480 0.000000
O O12 0.500000 0.601551 0.000000
O O13 0.703075 0.578251 0.087899
O O14 0.258948 0.500000 0.030707
O O15 0.097381 0.448891 0.818672
O O16 0.064782 0.500000 0.389522
O O17 0.000000 0.574190 0.500000
#
# Coordination Sequence:
#
# PCOD8094170 Si02
#       7
#     8   8   8   8   8   8   8
#     4   9  18  36  56  75 106 148 177 215 270 324
#     4   9  21  35  54  81 109 142 180 219 273 316
#     4  10  20  34  54  81 108 144 180 219 268 325
#     4  10  20  36  56  81 106 146 183 223 270 320
#     4  10  20  36  56  80 108 143 182 221 275 325
#     4  10  19  37  55  79 110 142 179 224 261 321
#     4   9  19  35  54  80 113 143 175 222 278 325
#
# _framework density 18.129135000000002
#
# number of rings (size 3 to 8) (size 9 to 14) (size 15 to 20)
#    0.000    2.429    1.429    0.429    2.000    4.286 
#    5.143    0.714    0.000    0.429    0.000    0.000 
#    0.000    0.000    0.000    0.000    0.000    0.000 
#
# Total GULP energy -347102.967995 kJ/mol
# GULP energy per Si atom -12396.534571 kJ/mol
# Density = 1.808787 g / cm^3
# Si number density = 18.129135 Si / 1000 Ang^3
#
#
#
# Elastic Constant Matrix: (Units=GPa)
#
#
# Indices 1 2 3 4 5 6 
#
# 1 96.7624 66.4865 27.5184 0.0000 -14.9105 0.0000
# 2 66.4865 131.4430 32.1242 0.0000 -10.2965 0.0000
# 3 27.5184 32.1242 58.2575 0.0000 -19.2343 0.0000
# 4 0.0000 0.0000 0.0000 22.7753 0.0000 -4.3937
# 5 -14.9105 -10.2965 -19.2343 0.0000 26.5132 0.0000
# 6 0.0000 0.0000 0.0000 -4.3937 0.0000 23.7129
#
#
#
# Elastic Compliance Matrix: (Units=1/GPa)
#
#
# Indices 1 2 3 4 5 6 
#
# 1 0.016993 -0.007681 -0.002132 0.000000 0.005027 0.000000
# 2 -0.007681 0.012265 -0.003930 0.000000 -0.002407 0.000000
# 3 -0.002132 -0.003930 0.025562 0.000000 0.015819 0.000000
# 4 0.000000 0.000000 0.000000 0.045535 0.000000 0.008437
# 5 0.005027 -0.002407 0.015819 0.000000 0.051086 0.000000
# 6 0.000000 0.000000 0.000000 0.008437 0.000000 0.043734
#
#
# Mechanical properties :
#
#
# Convention : Reuss Voigt Hill
#
# Bulk Modulus (GPa) = 36.58265 59.85790 48.22027
# Shear Modulus (GPa) = 21.57309 25.28921 23.43115
#
# Velocity S-wave (km/s) = 3.45333 3.73895 3.59898
# Velocity P-wave (km/s) = 6.01028 7.19228 6.62768
#
# Compressibility (1/GPa) = 0.02733537
#
# Stress axis : x y z
#
# Youngs Moduli (GPa) = 58.84815 81.53501 39.12059
#
# Poissons Ratio (x) = 0.62623 0.08340
# Poissons Ratio (y) = 0.45199 0.15373
# Poissons Ratio (z) = 0.12545 0.32041
#
# Static dielectric constant tensor:
#      x y z
#    x 3.470560 0.000000 -0.156330 
#    y 0.000000 3.229020 0.000000 
#    z -0.156330 0.000000 3.443860 
# 
# 
# High freq. dielectric constant tensor:
#      x y z
#    x 1.709550 0.000000 -0.009500 
#    y 0.000000 1.684210 0.000000 
#    z -0.009500 0.000000 1.701810 
# 
# From -- ./inp_files/65963.got.cif
#   From: 2010.06.25/outbox.cif.g09.slc.cpg/sg12_33_cif.got.tgz:65963.got - 2010.06.28 00:19:55.
