data_PCOD8094514
_publ_section_title
;
Structure prediction by ZEFSAII (Michael W. Deem and Ramdas Pophale) SiO2 
 PCOD8094514
Probable space group: C 2/M
;
_chemical_formula_sum "Si O2"
_cell_formula_units_Z 32
_cell_length_a 10.857256
_cell_length_b 17.095450
_cell_length_c 12.690232
_cell_angle_alpha 90.000000
_cell_angle_beta 145.359582
_cell_angle_gamma 90.000000
_cell_volume 1338.883492
_symmetry_space_group_name_H-M "C 2/M"
_symmetry_group_IT_number 12
_symmetry_cell_setting 'monoclinic'
loop_
_space_group_symop_operation_xyz
x,y,z
-x,y,-z
-x,-y,-z
x,-y,z
1/2+x,1/2+y,z
1/2-x,1/2+y,-z
1/2-x,1/2-y,-z
1/2+x,1/2-y,z
loop_
_atom_site_type_symbol
_atom_site_label
_atom_site_fract_x
_atom_site_fract_y
_atom_site_fract_z
Si Si1 0.950413 0.665941 0.741480
Si Si2 0.134457 0.908767 0.914692
Si Si3 0.827709 0.908530 0.296967
Si Si4 0.770762 0.330257 0.394203
O O1 0.900915 0.613255 0.810540
O O2 0.820806 0.638292 0.546675
O O3 0.886505 0.755068 0.717754
O O4 0.206142 0.647138 0.904468
O O5 0.149888 0.876204 0.804947
O O6 0.881558 0.895266 0.770352
O O7 0.194483 0.000000 0.971047
O O8 0.000000 0.869379 0.500000
O O9 0.861426 0.000000 0.315258
O O10 0.000000 0.314174 0.500000
#
# Coordination Sequence:
#
# PCOD8094514 Si02
#       4
#     8   8   8   8
#     4  11  23  42  67  95 134 172 219 277 325 384
#     4  11  24  43  70 102 132 170 220 274 332 388
#     4  10  19  37  68 100 130 168 216 275 333 381
#     4  11  26  44  65  95 133 181 221 262 324 396
#
# _framework density 23.900511000000002
#
# number of rings (size 3 to 8) (size 9 to 14) (size 15 to 20)
#    0.000    1.250    2.500    3.000    3.500    4.500 
#    4.500    1.250    0.000    0.000    0.000    0.000 
#    0.000    0.000    0.000    0.000    0.000    0.000 
#
# Total GULP energy -198280.640467 kJ/mol
# GULP energy per Si atom -12392.540029 kJ/mol
# Density = 2.384611 g / cm^3
# Si number density = 23.900511 Si / 1000 Ang^3
#
#
#
# Elastic Constant Matrix: (Units=GPa)
#
#
# Indices 1 2 3 4 5 6 
#
# 1 49.8102 30.7683 25.6285 0.0000 17.9693 0.0000
# 2 30.7683 74.4582 65.7209 0.0000 10.2738 0.0000
# 3 25.6285 65.7209 164.1714 -0.0001 27.7223 -0.0001
# 4 0.0000 0.0000 -0.0001 43.1924 -0.0001 9.0226
# 5 17.9693 10.2738 27.7223 -0.0001 31.2606 -0.0001
# 6 0.0000 0.0000 -0.0001 9.0226 -0.0001 23.5593
#
#
#
# Elastic Compliance Matrix: (Units=1/GPa)
#
#
# Indices 1 2 3 4 5 6 
#
# 1 0.033666 -0.014643 0.003601 0.000000 -0.017733 0.000000
# 2 -0.014643 0.027149 -0.009994 0.000000 0.008357 0.000000
# 3 0.003601 -0.009994 0.010967 0.000000 -0.008511 0.000000
# 4 0.000000 0.000000 0.000000 0.025165 0.000000 -0.009638
# 5 -0.017733 0.008357 -0.008511 0.000000 0.046984 0.000000
# 6 0.000000 0.000000 0.000000 -0.009638 0.000000 0.046137
#
#
# Mechanical properties :
#
#
# Convention : Reuss Voigt Hill
#
# Bulk Modulus (GPa) = 33.65874 59.18615 46.42245
# Shear Modulus (GPa) = 20.65742 30.69059 25.67400
#
# Velocity S-wave (km/s) = 2.94310 3.58732 3.28106
# Velocity P-wave (km/s) = 5.06582 6.47887 5.81543
#
# Compressibility (1/GPa) = 0.02970996
#
# Stress axis : x y z
#
# Youngs Moduli (GPa) = 29.70349 36.83350 91.18360
#
# Poissons Ratio (x) = 0.53937 -0.32834
# Poissons Ratio (y) = 0.43496 0.91125
# Poissons Ratio (z) = -0.10696 0.36810
#
# Static dielectric constant tensor:
#      x y z
#    x 4.258980 0.000000 0.044480 
#    y 0.000000 3.872530 0.000000 
#    z 0.044480 0.000000 4.642460 
# 
# 
# High freq. dielectric constant tensor:
#      x y z
#    x 1.928680 0.000000 0.008460 
#    y 0.000000 1.926240 0.000000 
#    z 0.008460 0.000000 1.971700 
# 
# From -- ./inp_files/132823.got.cif
#   From: 2010.06.25/outbox.cif.g09.slc.cpg/sg12_67_cif.got.tgz:132823.got - 2010.06.28 00:19:55.
