data_PCOD8094327
_publ_section_title
;
Structure prediction by ZEFSAII (Michael W. Deem and Ramdas Pophale) SiO2 
 PCOD8094327
Probable space group: C 2/M
;
_chemical_formula_sum "Si O2"
_cell_formula_units_Z 64
_cell_length_a 26.082136
_cell_length_b 8.444103
_cell_length_c 14.104288
_cell_angle_alpha 90.000000
_cell_angle_beta 92.961023
_cell_angle_gamma 90.000000
_cell_volume 3102.184571
_symmetry_space_group_name_H-M "C 2/M"
_symmetry_group_IT_number 12
_symmetry_cell_setting 'monoclinic'
loop_
_space_group_symop_operation_xyz
x,y,z
-x,y,-z
-x,-y,-z
x,-y,z
1/2+x,1/2+y,z
1/2-x,1/2+y,-z
1/2-x,1/2-y,-z
1/2+x,1/2-y,z
loop_
_atom_site_type_symbol
_atom_site_label
_atom_site_fract_x
_atom_site_fract_y
_atom_site_fract_z
Si Si1 0.347198 0.185410 0.906030
Si Si2 0.640500 0.684997 0.887759
Si Si3 0.388207 0.814987 0.601257
Si Si4 0.773501 0.687004 0.597815
Si Si5 0.546828 0.184787 0.564144
Si Si6 0.434852 0.316673 0.784921
Si Si7 0.743013 0.687854 0.797092
Si Si8 0.457310 0.186291 0.224658
O O1 0.394523 0.213175 0.840173
O O2 0.294350 0.248863 0.854285
O O3 0.343862 0.000000 0.930159
O O4 0.355937 0.286650 0.000608
O O5 0.633963 0.500000 0.865972
O O6 0.692101 0.753708 0.843195
O O7 0.591903 0.777473 0.843220
O O8 0.331357 0.749704 0.613117
O O9 0.401899 0.782954 0.492259
O O10 0.426983 0.720477 0.672926
O O11 0.393670 0.000000 0.626452
O O12 0.774183 0.500000 0.592379
O O13 0.750000 0.750000 0.500000
O O14 0.742716 0.747248 0.687590
O O15 0.500000 0.261290 0.500000
O O16 0.552236 0.256814 0.670081
O O17 0.535870 0.000000 0.575899
O O18 0.426047 0.500000 0.806843
O O19 0.493016 0.269211 0.817282
O O20 0.743725 0.500000 0.799896
O O21 0.467017 0.000000 0.226696
#
# Coordination Sequence:
#
# PCOD8094327 Si02
#       8
#     8   8   8   8   8   8   8   8
#     4  11  22  43  70  92 116 159 211 252 305 376
#     4  11  24  42  62  92 129 159 197 258 319 362
#     4  10  19  37  61  85 120 165 209 251 298 362
#     4  10  21  37  58  88 126 167 204 246 300 356
#     4   9  17  32  59  88 113 151 202 250 286 337
#     4  12  24  39  62  94 126 158 202 260 316 362
#     4   9  20  40  65  90 125 165 201 248 307 366
#     4  11  23  41  63  89 124 168 212 249 300 371
#
# _framework density 20.630623
#
# number of rings (size 3 to 8) (size 9 to 14) (size 15 to 20)
#    0.000    1.625    2.500    2.625    1.750    1.000 
#    0.000    6.875    0.000    0.000    0.000    0.000 
#    0.000    0.000    0.000    0.000    0.000    0.000 
#
# Total GULP energy -396843.454756 kJ/mol
# GULP energy per Si atom -12401.357961 kJ/mol
# Density = 2.058367 g / cm^3
# Si number density = 20.630623 Si / 1000 Ang^3
#
#
#
# Elastic Constant Matrix: (Units=GPa)
#
#
# Indices 1 2 3 4 5 6 
#
# 1 137.3753 13.9391 46.9428 0.0000 0.8511 0.0000
# 2 13.9391 39.9852 5.7986 0.0000 -0.5625 0.0000
# 3 46.9428 5.7986 117.8235 0.0000 8.8050 0.0000
# 4 0.0000 0.0000 0.0000 28.5843 0.0000 2.6812
# 5 0.8511 -0.5625 8.8050 0.0000 32.5358 0.0000
# 6 0.0000 0.0000 0.0000 2.6812 0.0000 21.9217
#
#
#
# Elastic Compliance Matrix: (Units=1/GPa)
#
#
# Indices 1 2 3 4 5 6 
#
# 1 0.008689 -0.002529 -0.003386 0.000000 0.000645 0.000000
# 2 -0.002529 0.025945 -0.000314 0.000000 0.000600 0.000000
# 3 -0.003386 -0.000314 0.010049 0.000000 -0.002636 0.000000
# 4 0.000000 0.000000 0.000000 0.035390 0.000000 -0.004329
# 5 0.000645 0.000600 -0.002636 0.000000 0.031442 0.000000
# 6 0.000000 0.000000 0.000000 -0.004329 0.000000 0.046146
#
#
# Mechanical properties :
#
#
# Convention : Reuss Voigt Hill
#
# Bulk Modulus (GPa) = 31.03169 47.61613 39.32391
# Shear Modulus (GPa) = 27.64571 31.84194 29.74382
#
# Velocity S-wave (km/s) = 3.66462 3.93291 3.80113
# Velocity P-wave (km/s) = 5.74283 6.61469 6.19412
#
# Compressibility (1/GPa) = 0.03222512
#
# Stress axis : x y z
#
# Youngs Moduli (GPa) = 115.09062 38.54327 99.51656
#
# Poissons Ratio (x) = 0.09747 0.33691
# Poissons Ratio (y) = 0.29106 0.03126
# Poissons Ratio (z) = 0.38964 0.01211
#
# Static dielectric constant tensor:
#      x y z
#    x 3.939110 0.000000 -0.102770 
#    y 0.000000 3.403770 0.000000 
#    z -0.102770 0.000000 3.799590 
# 
# 
# High freq. dielectric constant tensor:
#      x y z
#    x 1.818300 0.000000 -0.007560 
#    y 0.000000 1.776980 0.000000 
#    z -0.007560 0.000000 1.813190 
# 
# From -- ./inp_files/244083.got.cif
#   From: 2010.06.25/outbox.cif.g09.slc.cpg/sg12_123_cif.got.tgz:244083.got - 2010.06.28 00:19:55.
