data_PCOD8094756
_publ_section_title
;
Structure prediction by ZEFSAII (Michael W. Deem and Ramdas Pophale) SiO2 
 PCOD8094756
Probable space group: C 2/M
;
_chemical_formula_sum "Si O2"
_cell_formula_units_Z 40
_cell_length_a 13.131858
_cell_length_b 18.181973
_cell_length_c 9.640036
_cell_angle_alpha 90.000000
_cell_angle_beta 137.757649
_cell_angle_gamma 90.000000
_cell_volume 1547.348969
_symmetry_space_group_name_H-M "C 2/M"
_symmetry_group_IT_number 12
_symmetry_cell_setting 'monoclinic'
loop_
_space_group_symop_operation_xyz
x,y,z
-x,y,-z
-x,-y,-z
x,-y,z
1/2+x,1/2+y,z
1/2-x,1/2+y,-z
1/2-x,1/2-y,-z
1/2+x,1/2-y,z
loop_
_atom_site_type_symbol
_atom_site_label
_atom_site_fract_x
_atom_site_fract_y
_atom_site_fract_z
Si Si1 0.170511 0.691454 0.648242
Si Si2 0.204194 0.139661 0.957152
Si Si3 0.865500 0.500000 0.068703
Si Si4 0.405387 0.583482 0.765413
Si Si5 0.202573 0.500000 0.325438
Si Si6 0.161740 0.852807 0.614067
O O1 0.258524 0.632969 0.643971
O O2 0.168123 0.769420 0.561572
O O3 0.000000 0.664041 0.500000
O O4 0.248283 0.700309 0.880308
O O5 0.257955 0.156585 0.854490
O O6 0.020474 0.125330 0.775651
O O7 0.298530 0.066651 0.091278
O O8 0.046369 0.500000 0.249383
O O9 0.805498 0.500000 0.849472
O O10 0.354694 0.500000 0.661628
O O11 0.500000 0.571925 0.000000
O O12 0.279811 0.417629 0.433409
O O13 0.000000 0.879708 0.500000
#
# Coordination Sequence:
#
# PCOD8094756 Si02
#       6
#     8   8   4   8   4   8
#     4  10  22  39  56  88 121 149 190 239 283 337
#     4  10  19  39  62  83 113 158 187 234 291 339
#     4   9  18  36  60  86 116 142 197 240 280 341
#     4   9  18  36  61  82 113 155 195 232 281 341
#     4   9  19  38  60  84 112 153 189 245 286 330
#     4  10  21  40  60  84 117 151 194 236 287 342
#
# _framework density 25.850664999999999
#
# number of rings (size 3 to 8) (size 9 to 14) (size 15 to 20)
#    0.000    2.400    1.000    0.900    1.400    0.400 
#   28.800    2.000    0.000    0.000    0.000    0.000 
#    0.000    0.000    0.000    0.000    0.000    0.000 
#
# Total GULP energy -247886.759069 kJ/mol
# GULP energy per Si atom -12394.337953 kJ/mol
# Density = 2.579183 g / cm^3
# Si number density = 25.850665 Si / 1000 Ang^3
#
#
#
# Elastic Constant Matrix: (Units=GPa)
#
#
# Indices 1 2 3 4 5 6 
#
# 1 127.7960 74.6111 52.0020 0.0000 21.7990 0.0000
# 2 74.6111 160.5848 58.8300 0.0000 23.4416 0.0000
# 3 52.0020 58.8300 85.7488 0.0000 22.1893 0.0000
# 4 0.0000 0.0000 0.0000 33.3449 0.0000 -17.4346
# 5 21.7990 23.4416 22.1893 0.0000 68.1365 0.0000
# 6 0.0000 0.0000 0.0000 -17.4346 0.0000 22.6457
#
#
#
# Elastic Compliance Matrix: (Units=1/GPa)
#
#
# Indices 1 2 3 4 5 6 
#
# 1 0.012030 -0.003820 -0.004388 0.000000 -0.001105 0.000000
# 2 -0.003820 0.009607 -0.004079 0.000000 -0.000755 0.000000
# 3 -0.004388 -0.004079 0.017904 0.000000 -0.003023 0.000000
# 4 0.000000 0.000000 0.000000 0.050195 0.000000 0.038645
# 5 -0.001105 -0.000755 -0.003023 0.000000 0.016274 0.000000
# 6 0.000000 0.000000 0.000000 0.038645 0.000000 0.073911
#
#
# Mechanical properties :
#
#
# Convention : Reuss Voigt Hill
#
# Bulk Modulus (GPa) = 66.82075 82.77954 74.80015
# Shear Modulus (GPa) = 23.86824 37.40452 30.63638
#
# Velocity S-wave (km/s) = 3.04190 3.80800 3.44631
# Velocity P-wave (km/s) = 6.18405 7.17121 6.69584
#
# Compressibility (1/GPa) = 0.01496541
#
# Stress axis : x y z
#
# Youngs Moduli (GPa) = 83.12897 104.09519 55.85343
#
# Poissons Ratio (x) = 0.39766 0.24510
# Poissons Ratio (y) = 0.31757 0.22782
# Poissons Ratio (z) = 0.36480 0.42459
#
# Static dielectric constant tensor:
#      x y z
#    x 4.666460 0.000000 -0.438930 
#    y 0.000000 4.821100 0.000000 
#    z -0.438930 0.000000 4.997150 
# 
# 
# High freq. dielectric constant tensor:
#      x y z
#    x 2.029030 0.000000 -0.029990 
#    y 0.000000 2.045920 0.000000 
#    z -0.029990 0.000000 2.061630 
# 
# From -- ./inp_files/145868.got.cif
#   From: 2010.06.25/outbox.cif.g09.slc.cpg/sg12_73_cif.got.tgz:145868.got - 2010.06.28 00:19:55.
