data_PCOD8094108
_publ_section_title
;
Structure prediction by ZEFSAII (Michael W. Deem and Ramdas Pophale) SiO2 
 PCOD8094108
Probable space group: C 2/M
;
_chemical_formula_sum "Si O2"
_cell_formula_units_Z 48
_cell_length_a 26.476499
_cell_length_b 14.190854
_cell_length_c 11.482028
_cell_angle_alpha 90.000000
_cell_angle_beta 31.290848
_cell_angle_gamma 90.000000
_cell_volume 2240.655578
_symmetry_space_group_name_H-M "C 2/M"
_symmetry_group_IT_number 12
_symmetry_cell_setting 'monoclinic'
loop_
_space_group_symop_operation_xyz
x,y,z
-x,y,-z
-x,-y,-z
x,-y,z
1/2+x,1/2+y,z
1/2-x,1/2+y,-z
1/2-x,1/2-y,-z
1/2+x,1/2-y,z
loop_
_atom_site_type_symbol
_atom_site_label
_atom_site_fract_x
_atom_site_fract_y
_atom_site_fract_z
Si Si1 0.278551 0.390619 0.999311
Si Si2 0.646574 0.109246 0.460358
Si Si3 0.261887 0.238502 0.340807
Si Si4 0.546241 0.394534 0.191967
Si Si5 0.975856 0.722938 0.912717
Si Si6 0.668441 0.394244 0.349746
O O1 0.304767 0.500000 0.931046
O O2 0.368144 0.347837 0.898462
O O3 0.275305 0.348648 0.873915
O O4 0.173393 0.378461 0.269920
O O5 0.740583 0.154972 0.338653
O O6 0.546674 0.161497 0.691072
O O7 0.638060 0.000000 0.512599
O O8 0.250000 0.250000 0.500000
O O9 0.182976 0.170929 0.434845
O O10 0.365121 0.190912 0.107785
O O11 0.575247 0.500000 0.094301
O O12 0.525095 0.333051 0.118075
O O13 0.444986 0.395816 0.462416
O O14 0.000000 0.708783 0.000000
O O15 0.705283 0.500000 0.306359
#
# Coordination Sequence:
#
# PCOD8094108 Si02
#       6
#     8   8   8   8   8   8
#     4   9  19  38  64  93 129 167 212 266 326 396
#     4  11  24  43  65  92 130 175 215 260 327 388
#     4  12  24  43  65  93 125 165 222 271 313 386
#     4  10  19  36  63  97 129 165 212 270 331 383
#     4  12  24  42  63  92 133 168 222 274 317 386
#     4  10  21  39  64  96 130 164 211 274 331 379
#
# _framework density 21.422301000000001
#
# number of rings (size 3 to 8) (size 9 to 14) (size 15 to 20)
#    0.000    1.333    5.000    0.500    0.000    4.667 
#    0.000    0.833    0.000    3.000    0.000    0.000 
#    0.000    0.000    0.000    0.000    0.000    0.000 
#
# Total GULP energy -297346.565665 kJ/mol
# GULP energy per Si atom -12389.440236 kJ/mol
# Density = 2.137354 g / cm^3
# Si number density = 21.422301 Si / 1000 Ang^3
#
#
#
# Elastic Constant Matrix: (Units=GPa)
#
#
# Indices 1 2 3 4 5 6 
#
# 1 92.0085 46.3334 50.5934 0.0000 6.7153 0.0000
# 2 46.3334 100.8040 33.3455 0.0000 5.7965 0.0000
# 3 50.5934 33.3455 131.8841 0.0000 -0.4745 0.0000
# 4 0.0000 0.0000 0.0000 30.1101 0.0000 -0.7601
# 5 6.7153 5.7965 -0.4745 0.0000 41.6226 0.0000
# 6 0.0000 0.0000 0.0000 -0.7601 0.0000 24.6897
#
#
#
# Elastic Compliance Matrix: (Units=1/GPa)
#
#
# Indices 1 2 3 4 5 6 
#
# 1 0.016702 -0.005941 -0.004912 0.000000 -0.001923 0.000000
# 2 -0.005941 0.013039 -0.001021 0.000000 -0.000869 0.000000
# 3 -0.004912 -0.001021 0.009729 0.000000 0.001045 0.000000
# 4 0.000000 0.000000 0.000000 0.033237 0.000000 0.001023
# 5 -0.001923 -0.000869 0.001045 0.000000 0.024469 0.000000
# 6 0.000000 0.000000 0.000000 0.001023 0.000000 0.040534
#
#
# Mechanical properties :
#
#
# Convention : Reuss Voigt Hill
#
# Bulk Modulus (GPa) = 63.60775 65.02680 64.31728
# Shear Modulus (GPa) = 29.99451 32.24610 31.12030
#
# Velocity S-wave (km/s) = 3.74592 3.88397 3.81557
# Velocity P-wave (km/s) = 6.96175 7.10875 7.03563
#
# Compressibility (1/GPa) = 0.01572135
#
# Stress axis : x y z
#
# Youngs Moduli (GPa) = 59.87383 76.69479 102.79070
#
# Poissons Ratio (x) = 0.45567 0.50489
# Poissons Ratio (y) = 0.35573 0.10491
# Poissons Ratio (z) = 0.29409 0.07827
#
# Static dielectric constant tensor:
#      x y z
#    x 3.721530 0.000000 0.017490 
#    y 0.000000 3.804130 0.000000 
#    z 0.017490 0.000000 4.219980 
# 
# 
# High freq. dielectric constant tensor:
#      x y z
#    x 1.818540 0.000000 0.005020 
#    y 0.000000 1.829960 0.000000 
#    z 0.005020 0.000000 1.859810 
# 
# From -- ./inp_files/142858.got.cif
#   From: 2010.06.25/outbox.cif.g09.slc.cpg/sg12_72_cif.got.tgz:142858.got - 2010.06.28 00:19:55.
