data_PCOD8094582
_publ_section_title
;
Structure prediction by ZEFSAII (Michael W. Deem and Ramdas Pophale) SiO2 
 PCOD8094582
Probable space group: C 2/M
;
_chemical_formula_sum "Si O2"
_cell_formula_units_Z 48
_cell_length_a 9.932587
_cell_length_b 28.312118
_cell_length_c 8.493751
_cell_angle_alpha 90.000000
_cell_angle_beta 94.036024
_cell_angle_gamma 90.000000
_cell_volume 2382.625976
_symmetry_space_group_name_H-M "C 2/M"
_symmetry_group_IT_number 12
_symmetry_cell_setting 'monoclinic'
loop_
_space_group_symop_operation_xyz
x,y,z
-x,y,-z
-x,-y,-z
x,-y,z
1/2+x,1/2+y,z
1/2-x,1/2+y,-z
1/2-x,1/2-y,-z
1/2+x,1/2-y,z
loop_
_atom_site_type_symbol
_atom_site_label
_atom_site_fract_x
_atom_site_fract_y
_atom_site_fract_z
Si Si1 0.414770 0.550688 0.650184
Si Si2 0.894353 0.446272 0.353865
Si Si3 0.209526 0.688906 0.338999
Si Si4 0.521542 0.644751 0.687797
Si Si5 0.546947 0.144476 0.826298
Si Si6 0.725083 0.296296 0.293562
O O1 0.500000 0.545942 0.500000
O O2 0.424289 0.500000 0.741999
O O3 0.258113 0.561539 0.594892
O O4 0.478107 0.593733 0.757871
O O5 0.914246 0.500000 0.293532
O O6 0.920559 0.409674 0.215069
O O7 0.000000 0.435119 0.500000
O O8 0.323549 0.656869 0.263830
O O9 0.226455 0.691046 0.527272
O O10 0.222886 0.740588 0.263952
O O11 0.066345 0.665578 0.297150
O O12 0.500000 0.641617 0.500000
O O13 0.426716 0.685593 0.749997
O O14 0.677445 0.177846 0.821510
O O15 0.500000 0.145929 0.000000
#
# Coordination Sequence:
#
# PCOD8094582 Si02
#       6
#     8   8   8   8   8   8
#     4   9  17  30  53  86 114 134 171 236 298 337
#     4  10  21  38  63  88 111 149 200 248 291 340
#     4  10  21  36  61  86 110 146 195 247 283 335
#     4   9  17  30  53  83 107 137 178 239 296 327
#     4  12  25  38  55  84 124 163 190 229 291 356
#     4  10  19  38  61  84 111 145 196 245 286 330
#
# _framework density 20.145841000000001
#
# number of rings (size 3 to 8) (size 9 to 14) (size 15 to 20)
#    0.000    2.000    1.667    2.500    4.667    3.667 
#    0.000    0.833    0.000    0.000    0.000    2.333 
#    0.000    0.000    0.000    0.000    0.000    0.000 
#
# Total GULP energy -297505.094487 kJ/mol
# GULP energy per Si atom -12396.045604 kJ/mol
# Density = 2.009999 g / cm^3
# Si number density = 20.145841 Si / 1000 Ang^3
#
#
#
# Elastic Constant Matrix: (Units=GPa)
#
#
# Indices 1 2 3 4 5 6 
#
# 1 111.6368 45.3281 13.6082 0.0000 -18.0715 0.0000
# 2 45.3281 149.7843 21.2384 0.0000 -14.0239 0.0000
# 3 13.6082 21.2384 37.6691 0.0000 -20.0720 0.0000
# 4 0.0000 0.0000 0.0000 8.4860 0.0000 -4.2073
# 5 -18.0715 -14.0239 -20.0720 0.0000 21.0315 0.0000
# 6 0.0000 0.0000 0.0000 -4.2073 0.0000 37.8508
#
#
#
# Elastic Compliance Matrix: (Units=1/GPa)
#
#
# Indices 1 2 3 4 5 6 
#
# 1 0.011554 -0.002935 0.003516 0.000000 0.011327 0.000000
# 2 -0.002935 0.008039 -0.003988 0.000000 -0.000967 0.000000
# 3 0.003516 -0.003988 0.056399 0.000000 0.054189 0.000000
# 4 0.000000 0.000000 0.000000 0.124714 0.000000 0.013862
# 5 0.011327 -0.000967 0.054189 0.000000 0.108352 0.000000
# 6 0.000000 0.000000 0.000000 0.013862 0.000000 0.027960
#
#
# Mechanical properties :
#
#
# Convention : Reuss Voigt Hill
#
# Bulk Modulus (GPa) = 14.45491 51.04884 32.75188
# Shear Modulus (GPa) = 13.62801 28.06804 20.84803
#
# Velocity S-wave (km/s) = 2.60372 3.73667 3.22041
# Velocity P-wave (km/s) = 4.02863 6.63412 5.48823
#
# Compressibility (1/GPa) = 0.06918063
#
# Stress axis : x y z
#
# Youngs Moduli (GPa) = 86.54914 124.38971 17.73070
#
# Poissons Ratio (x) = 0.36503 -0.06234
# Poissons Ratio (y) = 0.25399 0.07070
# Poissons Ratio (z) = -0.30432 0.49602
#
# Static dielectric constant tensor:
#      x y z
#    x 3.921430 0.000000 -0.134010 
#    y 0.000000 4.457660 0.000000 
#    z -0.134010 0.000000 2.960000 
# 
# 
# High freq. dielectric constant tensor:
#      x y z
#    x 1.807150 0.000000 -0.017170 
#    y 0.000000 1.814480 0.000000 
#    z -0.017170 0.000000 1.713540 
# 
# From -- ./inp_files/42252.got.cif
#   From: 2010.06.25/outbox.cif.g09.slc.cpg/sg12_22_cif.got.tgz:42252.got - 2010.06.28 00:19:55.
