data_PCOD8094007
_publ_section_title
;
Structure prediction by ZEFSAII (Michael W. Deem and Ramdas Pophale) SiO2 
 PCOD8094007
Probable space group: C 2/M
;
_chemical_formula_sum "Si O2"
_cell_formula_units_Z 64
_cell_length_a 14.656604
_cell_length_b 17.888512
_cell_length_c 13.964912
_cell_angle_alpha 90.000000
_cell_angle_beta 120.320896
_cell_angle_gamma 90.000000
_cell_volume 3160.552337
_symmetry_space_group_name_H-M "C 2/M"
_symmetry_group_IT_number 12
_symmetry_cell_setting 'monoclinic'
loop_
_space_group_symop_operation_xyz
x,y,z
-x,y,-z
-x,-y,-z
x,-y,z
1/2+x,1/2+y,z
1/2-x,1/2+y,-z
1/2-x,1/2-y,-z
1/2+x,1/2-y,z
loop_
_atom_site_type_symbol
_atom_site_label
_atom_site_fract_x
_atom_site_fract_y
_atom_site_fract_z
Si Si1 0.590340 0.585540 0.685279
Si Si2 0.734387 0.856649 0.350837
Si Si3 0.597093 0.871628 0.447514
Si Si4 0.411215 0.700964 0.573107
Si Si5 0.870126 0.417435 0.332238
Si Si6 0.636246 0.682369 0.881359
Si Si7 0.096170 0.774064 0.221573
Si Si8 0.239803 0.183264 0.132475
O O1 0.548753 0.500000 0.659320
O O2 0.700508 0.589163 0.684693
O O3 0.504352 0.642674 0.593907
O O4 0.609680 0.608718 0.805673
O O5 0.674157 0.900459 0.403762
O O6 0.815482 0.802024 0.448481
O O7 0.647823 0.808650 0.246754
O O8 0.551173 0.787184 0.408996
O O9 0.496335 0.924991 0.390478
O O10 0.658039 0.878112 0.581360
O O11 0.374729 0.684116 0.663064
O O12 0.820300 0.500000 0.303948
O O13 0.827632 0.372648 0.218394
O O14 0.531084 0.728350 0.856147
O O15 0.709027 0.734843 0.853162
O O16 0.697754 0.654837 0.007874
O O17 0.143517 0.818075 0.156686
#
# Coordination Sequence:
#
# PCOD8094007 Si02
#       8
#     8   8   8   8   8   8   8   8
#     4  11  24  39  55  83 128 168 200 243 301 365
#     4  11  20  34  58  87 116 156 200 241 297 352
#     4  10  21  36  60  88 121 155 197 250 295 357
#     4  10  21  35  58  87 117 159 199 242 289 356
#     4  11  23  37  58  88 120 157 193 247 314 363
#     4  10  23  39  61  91 112 156 204 256 304 349
#     4  10  19  36  61  90 115 142 201 253 297 348
#     4  11  20  39  65  85 115 151 202 257 301 356
#
# _framework density 20.249625000000002
#
# number of rings (size 3 to 8) (size 9 to 14) (size 15 to 20)
#    0.000    1.500    1.250    6.750    3.500    2.500 
#    0.000    5.000    0.000    3.750    0.000    3.500 
#    0.000    0.000    0.000    0.000    0.000    0.000 
#
# Total GULP energy -396680.707992 kJ/mol
# GULP energy per Si atom -12396.272125 kJ/mol
# Density = 2.020354 g / cm^3
# Si number density = 20.249625 Si / 1000 Ang^3
#
#
#
# Elastic Constant Matrix: (Units=GPa)
#
#
# Indices 1 2 3 4 5 6 
#
# 1 112.8602 23.8451 23.8219 0.0000 -13.2108 0.0000
# 2 23.8451 91.8871 36.7985 0.0000 -9.2838 0.0000
# 3 23.8219 36.7985 119.4342 0.0000 -4.5329 0.0000
# 4 0.0000 0.0000 0.0000 14.8335 0.0000 -2.2962
# 5 -13.2108 -9.2838 -4.5329 0.0000 29.8345 0.0000
# 6 0.0000 0.0000 0.0000 -2.2962 0.0000 16.5270
#
#
#
# Elastic Compliance Matrix: (Units=1/GPa)
#
#
# Indices 1 2 3 4 5 6 
#
# 1 0.009924 -0.001674 -0.001324 0.000000 0.003672 0.000000
# 2 -0.001674 0.013029 -0.003575 0.000000 0.002770 0.000000
# 3 -0.001324 -0.003575 0.009730 0.000000 -0.000221 0.000000
# 4 0.000000 0.000000 0.000000 0.068897 0.000000 0.009572
# 5 0.003672 0.002770 -0.000221 0.000000 0.035973 0.000000
# 6 0.000000 0.000000 0.000000 0.009572 0.000000 0.061837
#
#
# Mechanical properties :
#
#
# Convention : Reuss Voigt Hill
#
# Bulk Modulus (GPa) = 51.18799 54.79026 52.98913
# Shear Modulus (GPa) = 22.82604 28.22004 25.52304
#
# Velocity S-wave (km/s) = 3.36107 3.73716 3.55409
# Velocity P-wave (km/s) = 6.35577 6.76298 6.56253
#
# Compressibility (1/GPa) = 0.01953583
#
# Stress axis : x y z
#
# Youngs Moduli (GPa) = 100.77070 76.75194 102.77334
#
# Poissons Ratio (x) = 0.12847 0.13609
# Poissons Ratio (y) = 0.16868 0.36745
# Poissons Ratio (z) = 0.13344 0.27441
#
# Static dielectric constant tensor:
#      x y z
#    x 3.871230 0.000000 -0.103260 
#    y 0.000000 3.212680 0.000000 
#    z -0.103260 0.000000 3.668690 
# 
# 
# High freq. dielectric constant tensor:
#      x y z
#    x 1.804090 0.000000 -0.009360 
#    y 0.000000 1.752050 0.000000 
#    z -0.009360 0.000000 1.788160 
# 
# From -- ./inp_files/216401.got.cif
#   From: 2010.06.25/outbox.cif.g09.slc.cpg/sg12_109_cif.got.tgz:216401.got - 2010.06.28 00:19:55.
