data_PCOD8094230
_publ_section_title
;
Structure prediction by ZEFSAII (Michael W. Deem and Ramdas Pophale) SiO2 
 PCOD8094230
Probable space group: C 2/M
;
_chemical_formula_sum "Si O2"
_cell_formula_units_Z 64
_cell_length_a 9.625197
_cell_length_b 22.495744
_cell_length_c 30.467272
_cell_angle_alpha 90.000000
_cell_angle_beta 148.533353
_cell_angle_gamma 90.000000
_cell_volume 3443.624900
_symmetry_space_group_name_H-M "C 2/M"
_symmetry_group_IT_number 12
_symmetry_cell_setting 'monoclinic'
loop_
_space_group_symop_operation_xyz
x,y,z
-x,y,-z
-x,-y,-z
x,-y,z
1/2+x,1/2+y,z
1/2-x,1/2+y,-z
1/2-x,1/2-y,-z
1/2+x,1/2-y,z
loop_
_atom_site_type_symbol
_atom_site_label
_atom_site_fract_x
_atom_site_fract_y
_atom_site_fract_z
Si Si1 0.249898 0.432054 0.737757
Si Si2 0.998242 0.780976 0.824353
Si Si3 0.035813 0.262841 0.558390
Si Si4 0.416415 0.847681 0.787071
Si Si5 0.399351 0.568654 0.924043
Si Si6 0.801271 0.889596 0.077224
Si Si7 0.066819 0.330823 0.308381
Si Si8 0.575519 0.344697 0.284125
O O1 0.164105 0.500000 0.709980
O O2 0.506972 0.426248 0.838631
O O3 0.319312 0.406136 0.708598
O O4 0.999906 0.396079 0.690608
O O5 0.065396 0.711243 0.846040
O O6 0.694060 0.789656 0.757826
O O7 0.037530 0.802561 0.784884
O O8 0.187948 0.819484 0.907419
O O9 0.201907 0.201159 0.601834
O O10 0.180719 0.312211 0.626636
O O11 0.000000 0.288066 0.500000
O O12 0.750000 0.250000 0.500000
O O13 0.607486 0.903967 0.841459
O O14 0.334059 0.835934 0.714784
O O15 0.152699 0.861841 0.743191
O O16 0.380388 0.500000 0.905319
O O17 0.603783 0.602026 0.947043
O O18 0.500000 0.577333 0.000000
O O19 0.500000 0.913214 0.000000
#
# Coordination Sequence:
#
# PCOD8094230 Si02
#       8
#     8   8   8   8   8   8   8   8
#     4  10  22  41  63  84 114 164 216 245 281 350
#     4  10  19  37  59  84 120 159 200 236 299 361
#     4  12  21  35  62  97 129 149 185 239 308 365
#     4  12  19  37  61  82 121 162 196 248 299 354
#     4  11  26  41  55  84 120 156 204 258 301 341
#     4  10  22  40  60  86 113 154 203 255 304 347
#     4  10  20  37  59  89 123 156 195 243 291 358
#     4  10  22  35  58  92 122 156 191 240 299 352
#
# _framework density 18.585066999999999
#
# number of rings (size 3 to 8) (size 9 to 14) (size 15 to 20)
#    0.000    1.625    5.000    2.625    3.500    2.000 
#    0.000    1.250    0.000    3.750    0.000    0.000 
#    0.000    0.000    0.000    0.000    0.000    0.000 
#
# Total GULP energy -396817.029399 kJ/mol
# GULP energy per Si atom -12400.532169 kJ/mol
# Density = 1.854277 g / cm^3
# Si number density = 18.585067 Si / 1000 Ang^3
#
#
#
# Elastic Constant Matrix: (Units=GPa)
#
#
# Indices 1 2 3 4 5 6 
#
# 1 152.3128 35.6375 39.8143 0.0018 4.7870 0.0048
# 2 35.6375 112.6596 29.2842 0.0065 -7.8696 0.0076
# 3 39.8143 29.2842 82.5678 0.0048 7.2673 0.0244
# 4 0.0018 0.0065 0.0048 19.8110 -0.0036 -6.5041
# 5 4.7870 -7.8696 7.2673 -0.0036 34.3400 0.0044
# 6 0.0048 0.0076 0.0244 -6.5041 0.0044 15.5323
#
#
#
# Elastic Compliance Matrix: (Units=1/GPa)
#
#
# Indices 1 2 3 4 5 6 
#
# 1 0.007799 -0.001726 -0.003076 0.000002 -0.000832 0.000004
# 2 -0.001726 0.010479 -0.003176 -0.000002 0.003314 -0.000002
# 3 -0.003076 -0.003176 0.015027 -0.000011 -0.003479 -0.000025
# 4 0.000002 -0.000002 -0.000011 0.058522 0.000005 0.024506
# 5 -0.000832 0.003314 -0.003479 0.000005 0.030732 -0.000003
# 6 0.000004 -0.000002 -0.000025 0.024506 -0.000003 0.074644
#
#
# Mechanical properties :
#
#
# Convention : Reuss Voigt Hill
#
# Bulk Modulus (GPa) = 57.63502 61.89025 59.76264
# Shear Modulus (GPa) = 22.83704 30.12363 26.48033
#
# Velocity S-wave (km/s) = 3.50920 4.03035 3.77877
# Velocity P-wave (km/s) = 6.89189 7.41833 7.15995
#
# Compressibility (1/GPa) = 0.01735056
#
# Stress axis : x y z
#
# Youngs Moduli (GPa) = 128.21638 95.42584 66.54678
#
# Poissons Ratio (x) = 0.16469 0.20467
# Poissons Ratio (y) = 0.22128 0.21137
# Poissons Ratio (z) = 0.39433 0.30309
#
# Static dielectric constant tensor:
#      x y z
#    x 3.632520 -0.000020 -0.054570 
#    y -0.000020 3.438360 -0.000010 
#    z -0.054570 -0.000010 3.203840 
# 
# 
# High freq. dielectric constant tensor:
#      x y z
#    x 1.743770 0.000000 -0.001300 
#    y 0.000000 1.710850 0.000000 
#    z -0.001300 0.000000 1.695320 
# 
# From -- ./inp_files/373286.got.cif
#   From: 2010.06.25/outbox.cif.g09.slc.cpg/sg12_187_cif.got.tgz:373286.got - 2010.06.28 00:19:55.
