data_PCOD8094662
_publ_section_title
;
Structure prediction by ZEFSAII (Michael W. Deem and Ramdas Pophale) SiO2 
 PCOD8094662
Probable space group: C 2/M
;
_chemical_formula_sum "Si O2"
_cell_formula_units_Z 56
_cell_length_a 12.172402
_cell_length_b 17.526710
_cell_length_c 19.008807
_cell_angle_alpha 90.000000
_cell_angle_beta 134.734770
_cell_angle_gamma 90.000000
_cell_volume 2880.830336
_symmetry_space_group_name_H-M "C 2/M"
_symmetry_group_IT_number 12
_symmetry_cell_setting 'monoclinic'
loop_
_space_group_symop_operation_xyz
x,y,z
-x,y,-z
-x,-y,-z
x,-y,z
1/2+x,1/2+y,z
1/2-x,1/2+y,-z
1/2-x,1/2-y,-z
1/2+x,1/2-y,z
loop_
_atom_site_type_symbol
_atom_site_label
_atom_site_fract_x
_atom_site_fract_y
_atom_site_fract_z
Si Si1 0.700949 0.150853 0.268490
Si Si2 0.390407 0.087097 0.148214
Si Si3 0.512772 0.329343 0.344892
Si Si4 0.562354 0.587410 0.950785
Si Si5 0.263301 0.588215 0.448576
Si Si6 0.448700 0.845855 0.321493
Si Si7 0.138691 0.827468 0.251388
O O1 0.550800 0.101389 0.178436
O O2 0.834704 0.142027 0.270378
O O3 0.768354 0.122338 0.372821
O O4 0.643192 0.236960 0.249546
O O5 0.383509 0.140886 0.213609
O O6 0.382709 0.000000 0.171252
O O7 0.246155 0.104620 0.032421
O O8 0.612319 0.366384 0.450864
O O9 0.517017 0.238927 0.357652
O O10 0.582536 0.355620 0.302114
O O11 0.526416 0.500000 0.913701
O O12 0.483306 0.643303 0.860375
O O13 0.500000 0.605403 0.000000
O O14 0.309465 0.500000 0.468256
O O15 0.090471 0.597579 0.402681
O O16 0.310233 0.860806 0.314090
#
# Coordination Sequence:
#
# PCOD8094662 Si02
#       7
#     8   8   8   8   8   8   8
#     4  10  22  39  61  88 118 159 204 244 291 356
#     4  10  19  38  64  87 113 156 208 246 279 348
#     4  11  23  39  58  89 126 155 195 250 305 350
#     4  10  21  37  61  90 121 159 199 240 295 361
#     4  11  23  41  64  86 115 163 211 242 285 359
#     4  10  20  37  60  88 118 155 199 246 299 349
#     4  11  22  37  61  90 126 155 190 253 307 350
#
# _framework density 19.438839999999999
#
# number of rings (size 3 to 8) (size 9 to 14) (size 15 to 20)
#    0.000    1.571    4.286    2.571    0.000    4.000 
#    0.000    1.429    0.000    1.714    0.000    0.000 
#    0.000    0.000    0.000    0.000    0.000    0.000 
#
# Total GULP energy -347206.649572 kJ/mol
# GULP energy per Si atom -12400.237485 kJ/mol
# Density = 1.939460 g / cm^3
# Si number density = 19.438840 Si / 1000 Ang^3
#
#
#
# Elastic Constant Matrix: (Units=GPa)
#
#
# Indices 1 2 3 4 5 6 
#
# 1 140.2019 23.4445 31.2671 0.0000 11.0314 0.0000
# 2 23.4445 96.8247 45.4501 0.0000 0.2797 0.0000
# 3 31.2671 45.4501 65.5083 0.0000 12.5493 0.0000
# 4 0.0000 0.0000 0.0000 33.9999 0.0000 -1.5031
# 5 11.0314 0.2797 12.5493 0.0000 22.6664 0.0000
# 6 0.0000 0.0000 0.0000 -1.5031 0.0000 22.3964
#
#
#
# Elastic Compliance Matrix: (Units=1/GPa)
#
#
# Indices 1 2 3 4 5 6 
#
# 1 0.008079 -0.000503 -0.003082 0.000000 -0.002219 0.000000
# 2 -0.000503 0.016216 -0.012327 0.000000 0.006869 0.000000
# 3 -0.003082 -0.012327 0.027935 0.000000 -0.013814 0.000000
# 4 0.000000 0.000000 0.000000 0.029499 0.000000 0.001980
# 5 -0.002219 0.006869 -0.013814 0.000000 0.052762 0.000000
# 6 0.000000 0.000000 0.000000 0.001980 0.000000 0.044783
#
#
# Mechanical properties :
#
#
# Convention : Reuss Voigt Hill
#
# Bulk Modulus (GPa) = 49.00384 55.87315 52.43849
# Shear Modulus (GPa) = 22.94641 29.30408 26.12525
#
# Velocity S-wave (km/s) = 3.43948 3.88687 3.67000
# Velocity P-wave (km/s) = 6.40604 6.99636 6.70770
#
# Compressibility (1/GPa) = 0.02040657
#
# Stress axis : x y z
#
# Youngs Moduli (GPa) = 123.78398 61.66685 35.79757
#
# Poissons Ratio (x) = 0.03103 0.11032
# Poissons Ratio (y) = 0.06228 0.44127
# Poissons Ratio (z) = 0.38146 0.76015
#
# Static dielectric constant tensor:
#      x y z
#    x 3.889450 0.000000 0.290530 
#    y 0.000000 3.538070 0.000000 
#    z 0.290530 0.000000 3.458480 
# 
# 
# High freq. dielectric constant tensor:
#      x y z
#    x 1.764550 0.000000 0.025720 
#    y 0.000000 1.754980 0.000000 
#    z 0.025720 0.000000 1.744360 
# 
# From -- ./inp_files/264286.got.cif
#   From: 2010.06.25/outbox.cif.g09.slc.cpg/sg12_133_cif.got.tgz:264286.got - 2010.06.28 00:19:55.
