data_PCOD8094816
_publ_section_title
;
Structure prediction by ZEFSAII (Michael W. Deem and Ramdas Pophale) SiO2 
 PCOD8094816
Probable space group: C 2/M
;
_chemical_formula_sum "Si O2"
_cell_formula_units_Z 32
_cell_length_a 8.830208
_cell_length_b 24.620047
_cell_length_c 9.022235
_cell_angle_alpha 90.000000
_cell_angle_beta 46.784212
_cell_angle_gamma 90.000000
_cell_volume 1429.454627
_symmetry_space_group_name_H-M "C 2/M"
_symmetry_group_IT_number 12
_symmetry_cell_setting 'monoclinic'
loop_
_space_group_symop_operation_xyz
x,y,z
-x,y,-z
-x,-y,-z
x,-y,z
1/2+x,1/2+y,z
1/2-x,1/2+y,-z
1/2-x,1/2-y,-z
1/2+x,1/2-y,z
loop_
_atom_site_type_symbol
_atom_site_label
_atom_site_fract_x
_atom_site_fract_y
_atom_site_fract_z
Si Si1 0.221072 0.439732 0.278014
Si Si2 0.433088 0.384938 0.386193
Si Si3 0.186477 0.163512 0.977277
Si Si4 0.406825 0.200116 0.400864
O O1 0.251331 0.500000 0.189882
O O2 0.392801 0.431986 0.293156
O O3 0.248963 0.395319 0.131739
O O4 0.000000 0.433061 0.500000
O O5 0.500000 0.409268 0.500000
O O6 0.220842 0.352789 0.558006
O O7 0.606997 0.343973 0.199582
O O8 0.388409 0.203593 0.843004
O O9 0.000000 0.187921 0.000000
O O10 0.500000 0.192379 0.500000
O O11 0.250000 0.250000 0.500000
#
# Coordination Sequence:
#
# PCOD8094816 Si02
#       4
#     8   8   8   8
#     4  10  19  39  70  93 124 172 215 259 319 387
#     4  11  23  40  62  94 134 167 206 267 318 374
#     4  10  20  41  67  92 126 168 216 258 316 382
#     4  12  23  43  64  93 127 166 216 266 318 381
#
# _framework density 22.38616
#
# number of rings (size 3 to 8) (size 9 to 14) (size 15 to 20)
#    0.000    1.250    7.500    0.750    0.000    7.000 
#    0.000    0.000    0.000    3.000    0.000    0.000 
#    0.000    0.000    0.000    0.000    0.000    0.000 
#
# Total GULP energy -198281.701784 kJ/mol
# GULP energy per Si atom -12392.606361 kJ/mol
# Density = 2.233521 g / cm^3
# Si number density = 22.386160 Si / 1000 Ang^3
#
#
#
# Elastic Constant Matrix: (Units=GPa)
#
#
# Indices 1 2 3 4 5 6 
#
# 1 81.6894 24.3928 37.9840 0.0000 -11.5094 0.0000
# 2 24.3928 47.9023 -6.7404 0.0000 -22.9805 0.0000
# 3 37.9840 -6.7404 124.9835 0.0000 -30.5672 0.0000
# 4 0.0000 0.0000 0.0000 22.5118 0.0000 -7.4447
# 5 -11.5094 -22.9805 -30.5672 0.0000 50.3728 0.0000
# 6 0.0000 0.0000 0.0000 -7.4447 0.0000 22.2669
#
#
#
# Elastic Compliance Matrix: (Units=1/GPa)
#
#
# Indices 1 2 3 4 5 6 
#
# 1 0.019582 -0.014756 -0.008571 0.000000 -0.007459 0.000000
# 2 -0.014756 0.041061 0.012278 0.000000 0.022811 0.000000
# 3 -0.008571 0.012278 0.014278 0.000000 0.012307 0.000000
# 4 0.000000 0.000000 0.000000 0.049943 0.000000 0.016698
# 5 -0.007459 0.022811 0.012307 0.000000 0.036023 0.000000
# 6 0.000000 0.000000 0.000000 0.016698 0.000000 0.050492
#
#
# Mechanical properties :
#
#
# Convention : Reuss Voigt Hill
#
# Bulk Modulus (GPa) = 18.93136 40.64978 29.79057
# Shear Modulus (GPa) = 19.91353 32.29290 26.10321
#
# Velocity S-wave (km/s) = 2.98576 3.80220 3.41844
# Velocity P-wave (km/s) = 4.51237 6.12156 5.37750
#
# Compressibility (1/GPa) = 0.05282241
#
# Stress axis : x y z
#
# Youngs Moduli (GPa) = 51.06656 24.35409 70.03751
#
# Poissons Ratio (x) = 0.35937 0.60031
# Poissons Ratio (y) = 0.75354 -0.85991
# Poissons Ratio (z) = 0.43771 -0.29902
#
# Static dielectric constant tensor:
#      x y z
#    x 4.436600 0.000000 -0.737320 
#    y 0.000000 3.968760 0.000000 
#    z -0.737320 0.000000 4.731020 
# 
# 
# High freq. dielectric constant tensor:
#      x y z
#    x 1.865640 0.000000 -0.030070 
#    y 0.000000 1.858120 0.000000 
#    z -0.030070 0.000000 1.899240 
# 
# From -- ./inp_files/40063.got.cif
#   From: 2010.06.25/outbox.cif.g09.slc.cpg/sg12_21_cif.got.tgz:40063.got - 2010.06.28 00:19:55.
