data_PCOD8094236
_publ_section_title
;
Structure prediction by ZEFSAII (Michael W. Deem and Ramdas Pophale) SiO2 
 PCOD8094236
Probable space group: C 2/M
;
_chemical_formula_sum "Si O2"
_cell_formula_units_Z 56
_cell_length_a 13.549169
_cell_length_b 17.334446
_cell_length_c 12.019698
_cell_angle_alpha 90.000000
_cell_angle_beta 70.470038
_cell_angle_gamma 90.000000
_cell_volume 2660.616278
_symmetry_space_group_name_H-M "C 2/M"
_symmetry_group_IT_number 12
_symmetry_cell_setting 'monoclinic'
loop_
_space_group_symop_operation_xyz
x,y,z
-x,y,-z
-x,-y,-z
x,-y,z
1/2+x,1/2+y,z
1/2-x,1/2+y,-z
1/2-x,1/2-y,-z
1/2+x,1/2-y,z
loop_
_atom_site_type_symbol
_atom_site_label
_atom_site_fract_x
_atom_site_fract_y
_atom_site_fract_z
Si Si1 0.585585 0.678104 0.884475
Si Si2 0.610466 0.845400 0.957051
Si Si3 0.317534 0.182443 0.823044
Si Si4 0.281356 0.411219 0.516240
Si Si5 0.297387 0.644674 0.745841
Si Si6 0.977122 0.086469 0.300356
Si Si7 0.108409 0.409481 0.405117
O O1 0.586010 0.770744 0.889561
O O2 0.700682 0.647031 0.871591
O O3 0.554277 0.652071 0.774015
O O4 0.500000 0.641734 0.000000
O O5 0.706264 0.890539 0.861487
O O6 0.500000 0.893404 0.000000
O O7 0.639057 0.817378 0.069212
O O8 0.320114 0.268579 0.774576
O O9 0.386982 0.129608 0.717226
O O10 0.255399 0.500000 0.555148
O O11 0.258577 0.358985 0.632971
O O12 0.402522 0.401329 0.435192
O O13 0.204909 0.382403 0.446247
O O14 0.401553 0.593458 0.713008
O O15 0.958221 0.000000 0.259621
O O16 0.111595 0.500000 0.383512
O O17 0.000000 0.382634 0.500000
#
# Coordination Sequence:
#
# PCOD8094236 Si02
#       7
#     8   8   8   8   8   8   8
#     4  10  19  37  59  87 120 161 200 246 303 360
#     4  10  22  40  61  87 125 163 199 254 309 358
#     4  11  22  40  64  91 125 158 205 257 306 363
#     4  10  22  41  62  88 125 163 202 253 311 366
#     4  11  22  37  62  94 126 163 201 252 308 367
#     4  11  22  39  62  91 128 166 204 249 306 370
#     4  10  23  43  64  87 120 163 206 254 309 367
#
# _framework density 21.047754999999999
#
# number of rings (size 3 to 8) (size 9 to 14) (size 15 to 20)
#    0.000    1.571    1.429    5.143    2.000    3.143 
#    0.000    2.857    0.000    2.143    0.000    0.000 
#    0.000    0.000    0.000    0.000    0.000    0.000 
#
# Total GULP energy -347172.687275 kJ/mol
# GULP energy per Si atom -12399.024546 kJ/mol
# Density = 2.099985 g / cm^3
# Si number density = 21.047755 Si / 1000 Ang^3
#
#
#
# Elastic Constant Matrix: (Units=GPa)
#
#
# Indices 1 2 3 4 5 6 
#
# 1 104.2755 21.1451 53.2961 0.0000 -24.2706 0.0000
# 2 21.1451 36.4558 44.5400 0.0000 0.2596 0.0000
# 3 53.2961 44.5400 143.2668 0.0000 -13.5469 0.0000
# 4 0.0000 0.0000 0.0000 16.1938 0.0000 -1.0007
# 5 -24.2706 0.2596 -13.5469 0.0000 50.7390 0.0000
# 6 0.0000 0.0000 0.0000 -1.0007 0.0000 20.2315
#
#
#
# Elastic Compliance Matrix: (Units=1/GPa)
#
#
# Indices 1 2 3 4 5 6 
#
# 1 0.013302 -0.003783 -0.003251 0.000000 0.005514 0.000000
# 2 -0.003783 0.046112 -0.013462 0.000000 -0.005640 0.000000
# 3 -0.003251 -0.013462 0.012551 0.000000 0.001865 0.000000
# 4 0.000000 0.000000 0.000000 0.061942 0.000000 0.003064
# 5 0.005514 -0.005640 0.001865 0.000000 0.022873 0.000000
# 6 0.000000 0.000000 0.000000 0.003064 0.000000 0.049580
#
#
# Mechanical properties :
#
#
# Convention : Reuss Voigt Hill
#
# Bulk Modulus (GPa) = 32.28560 57.99561 45.14060
# Shear Modulus (GPa) = 19.40435 28.43397 23.91916
#
# Velocity S-wave (km/s) = 3.03961 3.67948 3.37474
# Velocity P-wave (km/s) = 5.26227 6.75763 6.05628
#
# Compressibility (1/GPa) = 0.03097356
#
# Stress axis : x y z
#
# Youngs Moduli (GPa) = 75.17554 21.68654 79.67652
#
# Poissons Ratio (x) = 0.08204 0.25903
# Poissons Ratio (y) = 0.28438 1.07257
# Poissons Ratio (z) = 0.24440 0.29193
#
# Static dielectric constant tensor:
#      x y z
#    x 4.230110 0.000000 -0.408210 
#    y 0.000000 3.374070 0.000000 
#    z -0.408210 0.000000 4.031850 
# 
# 
# High freq. dielectric constant tensor:
#      x y z
#    x 1.841440 0.000000 -0.013780 
#    y 0.000000 1.785850 0.000000 
#    z -0.013780 0.000000 1.837340 
# 
# From -- ./inp_files/146029.got.cif
#   From: 2010.06.25/outbox.cif.g09.slc.cpg/sg12_74_cif.got.tgz:146029.got - 2010.06.28 00:19:55.
