data_PCOD8094982
_publ_section_title
;
Structure prediction by ZEFSAII (Michael W. Deem and Ramdas Pophale) SiO2 
 PCOD8094982
Probable space group: C 2/M
;
_chemical_formula_sum "Si O2"
_cell_formula_units_Z 64
_cell_length_a 18.312952
_cell_length_b 13.427874
_cell_length_c 15.193032
_cell_angle_alpha 90.000000
_cell_angle_beta 82.383478
_cell_angle_gamma 90.000000
_cell_volume 3703.065902
_symmetry_space_group_name_H-M "C 2/M"
_symmetry_group_IT_number 12
_symmetry_cell_setting 'monoclinic'
loop_
_space_group_symop_operation_xyz
x,y,z
-x,y,-z
-x,-y,-z
x,-y,z
1/2+x,1/2+y,z
1/2-x,1/2+y,-z
1/2-x,1/2-y,-z
1/2+x,1/2-y,z
loop_
_atom_site_type_symbol
_atom_site_label
_atom_site_fract_x
_atom_site_fract_y
_atom_site_fract_z
Si Si1 0.550600 0.882043 0.621549
Si Si2 0.908020 0.389448 0.874192
Si Si3 0.703493 0.252452 0.867325
Si Si4 0.489495 0.387264 0.900947
Si Si5 0.160511 0.805727 0.055507
Si Si6 0.603225 0.117142 0.429709
Si Si7 0.441051 0.203359 0.193755
Si Si8 0.702276 0.112773 0.264187
O O1 0.471221 0.841614 0.603015
O O2 0.607679 0.856384 0.532744
O O3 0.574702 0.817523 0.701600
O O4 0.551303 0.000000 0.643860
O O5 0.897434 0.500000 0.916020
O O6 0.868756 0.308884 0.942527
O O7 0.870734 0.382001 0.784537
O O8 0.995293 0.369094 0.852300
O O9 0.768573 0.181036 0.893079
O O10 0.635359 0.185039 0.845989
O O11 0.731844 0.318984 0.781612
O O12 0.680675 0.328072 0.950502
O O13 0.516037 0.500000 0.882062
O O14 0.401897 0.378584 0.896380
O O15 0.535046 0.318254 0.826735
O O16 0.500000 0.351561 0.000000
O O17 0.675569 0.153603 0.364362
O O18 0.596820 0.000000 0.419825
O O19 0.732224 0.000000 0.265013
#
# Coordination Sequence:
#
# PCOD8094982 Si02
#       8
#     8   8   8   8   8   8   8   8
#     4   9  16  28  50  78 107 126 150 198 248 299
#     4   9  17  30  51  73  98 127 159 203 248 288
#     4  10  20  31  45  68 102 133 158 199 240 291
#     4  10  20  35  54  69  89 127 173 217 243 264
#     4   9  19  36  49  65  98 131 168 201 236 295
#     4   8  14  27  49  78 101 124 159 195 242 295
#     4  11  19  30  49  76 103 125 159 204 249 290
#     4   9  16  29  49  72  95 126 165 204 241 279
#
# _framework density 17.282976000000001
#
# number of rings (size 3 to 8) (size 9 to 14) (size 15 to 20)
#    0.000    2.625    2.500    1.125    0.000    1.000 
#    0.000    5.625    0.000    0.000    0.000    1.750 
#    0.000    0.000    0.000    0.000    0.000    0.000 
#
# Total GULP energy -396575.243674 kJ/mol
# GULP energy per Si atom -12392.976365 kJ/mol
# Density = 1.724364 g / cm^3
# Si number density = 17.282976 Si / 1000 Ang^3
#
#
#
# Elastic Constant Matrix: (Units=GPa)
#
#
# Indices 1 2 3 4 5 6 
#
# 1 89.4058 11.5805 27.2401 0.0000 5.0821 0.0000
# 2 11.5805 55.7134 26.3385 0.0000 -1.9355 0.0000
# 3 27.2401 26.3385 100.8882 0.0000 -11.3757 0.0000
# 4 0.0000 0.0000 0.0000 25.3191 0.0000 -2.4982
# 5 5.0821 -1.9355 -11.3757 0.0000 28.1369 0.0000
# 6 0.0000 0.0000 0.0000 -2.4982 0.0000 15.5704
#
#
#
# Elastic Compliance Matrix: (Units=1/GPa)
#
#
# Indices 1 2 3 4 5 6 
#
# 1 0.012623 -0.001075 -0.003555 0.000000 -0.003791 0.000000
# 2 -0.001075 0.020584 -0.005136 0.000000 -0.000466 0.000000
# 3 -0.003555 -0.005136 0.012830 0.000000 0.005476 0.000000
# 4 0.000000 0.000000 0.000000 0.040131 0.000000 0.006439
# 5 -0.003791 -0.000466 0.005476 0.000000 0.038407 0.000000
# 6 0.000000 0.000000 0.000000 0.006439 0.000000 0.065257
#
#
# Mechanical properties :
#
#
# Convention : Reuss Voigt Hill
#
# Bulk Modulus (GPa) = 37.72862 41.81397 39.77130
# Shear Modulus (GPa) = 22.91469 25.86183 24.38826
#
# Velocity S-wave (km/s) = 3.64518 3.87250 3.76056
# Velocity P-wave (km/s) = 6.29236 6.65141 6.47437
#
# Compressibility (1/GPa) = 0.02650508
#
# Stress axis : x y z
#
# Youngs Moduli (GPa) = 79.22144 48.58047 77.94104
#
# Poissons Ratio (x) = 0.05221 0.27709
# Poissons Ratio (y) = 0.08515 0.40033
# Poissons Ratio (z) = 0.28164 0.24952
#
# Static dielectric constant tensor:
#      x y z
#    x 3.271300 0.000000 -0.213570 
#    y 0.000000 2.880490 0.000000 
#    z -0.213570 0.000000 3.379190 
# 
# 
# High freq. dielectric constant tensor:
#      x y z
#    x 1.663760 0.000000 -0.014490 
#    y 0.000000 1.625310 0.000000 
#    z -0.014490 0.000000 1.658080 
# 
# From -- ./inp_files/224776.got.cif
#   From: 2010.06.25/outbox.cif.g09.slc.cpg/sg12_113_cif.got.tgz:224776.got - 2010.06.28 00:19:55.
