data_PCOD8094356
_publ_section_title
;
Structure prediction by ZEFSAII (Michael W. Deem and Ramdas Pophale) SiO2 
 PCOD8094356
Probable space group: C 2/M
;
_chemical_formula_sum "Si O2"
_cell_formula_units_Z 56
_cell_length_a 23.693760
_cell_length_b 14.371020
_cell_length_c 22.675077
_cell_angle_alpha 90.000000
_cell_angle_beta 157.391533
_cell_angle_gamma 90.000000
_cell_volume 2968.175633
_symmetry_space_group_name_H-M "C 2/M"
_symmetry_group_IT_number 12
_symmetry_cell_setting 'monoclinic'
loop_
_space_group_symop_operation_xyz
x,y,z
-x,y,-z
-x,-y,-z
x,-y,z
1/2+x,1/2+y,z
1/2-x,1/2+y,-z
1/2-x,1/2-y,-z
1/2+x,1/2-y,z
loop_
_atom_site_type_symbol
_atom_site_label
_atom_site_fract_x
_atom_site_fract_y
_atom_site_fract_z
Si Si1 0.329145 0.394654 0.425597
Si Si2 0.336846 0.604704 0.231029
Si Si3 0.370505 0.600467 0.830428
Si Si4 0.668323 0.236167 0.481029
Si Si5 0.824912 0.705071 0.827483
Si Si6 0.112393 0.799773 0.838291
Si Si7 0.905082 0.895408 0.733505
O O1 0.285638 0.500000 0.401751
O O2 0.503732 0.387348 0.585023
O O3 0.284138 0.324610 0.433864
O O4 0.243204 0.369558 0.283084
O O5 0.275487 0.500000 0.180142
O O6 0.234414 0.680223 0.164746
O O7 0.336230 0.624032 0.159955
O O8 0.282447 0.500000 0.744140
O O9 0.274504 0.690765 0.757483
O O10 0.453511 0.615635 0.847954
O O11 0.500000 0.589218 0.000000
O O12 0.750000 0.250000 0.500000
O O13 0.492911 0.228710 0.300355
O O14 0.736149 0.141946 0.572736
O O15 0.000000 0.698293 0.000000
O O16 0.017446 0.842653 0.799541
O O17 0.250000 0.750000 0.000000
O O18 0.900941 0.000000 0.706494
#
# Coordination Sequence:
#
# PCOD8094356 Si02
#       7
#     8   8   8   8   8   8   8
#     4  10  20  37  57  81 113 152 190 225 281 348
#     4  10  22  39  57  80 114 156 190 225 279 355
#     4   9  19  34  57  84 111 144 189 234 281 333
#     4   9  19  35  55  83 111 146 194 235 278 334
#     4  11  22  34  58  86 118 143 187 238 286 327
#     4  10  22  36  59  85 118 151 191 237 295 344
#     4  10  19  37  62  83 111 153 196 235 281 343
#
# _framework density 18.866807999999999
#
# number of rings (size 3 to 8) (size 9 to 14) (size 15 to 20)
#    0.000    2.143    1.429    1.286    4.000    5.714 
#    0.000    1.429    0.000    6.000    0.000    0.000 
#    0.000    0.000    0.000    0.000    0.000    0.000 
#
# Total GULP energy -346894.392681 kJ/mol
# GULP energy per Si atom -12389.085453 kJ/mol
# Density = 1.882387 g / cm^3
# Si number density = 18.866808 Si / 1000 Ang^3
#
#
#
# Elastic Constant Matrix: (Units=GPa)
#
#
# Indices 1 2 3 4 5 6 
#
# 1 111.7288 53.7907 32.2858 0.0004 -3.3903 -0.0005
# 2 53.7907 132.0452 51.2967 0.0287 8.2513 0.0069
# 3 32.2858 51.2967 98.5006 0.0132 -12.2326 0.0048
# 4 0.0004 0.0287 0.0132 15.4358 0.0048 4.4286
# 5 -3.3903 8.2513 -12.2326 0.0048 27.7310 0.0004
# 6 -0.0005 0.0069 0.0048 4.4286 0.0004 31.5931
#
#
#
# Elastic Compliance Matrix: (Units=1/GPa)
#
#
# Indices 1 2 3 4 5 6 
#
# 1 0.011452 -0.004317 -0.001240 0.000008 0.002138 0.000000
# 2 -0.004317 0.011918 -0.005605 -0.000015 -0.006546 0.000000
# 3 -0.001240 -0.005605 0.014458 -0.000004 0.007894 -0.000001
# 4 0.000008 -0.000015 -0.000004 0.067499 -0.000008 -0.009462
# 5 0.002138 -0.006546 0.007894 -0.000008 0.041752 0.000001
# 6 0.000000 0.000000 -0.000001 -0.009462 0.000001 0.032979
#
#
# Mechanical properties :
#
#
# Convention : Reuss Voigt Hill
#
# Bulk Modulus (GPa) = 64.49751 68.55788 66.52770
# Shear Modulus (GPa) = 24.09073 28.61206 26.35140
#
# Velocity S-wave (km/s) = 3.57723 3.89849 3.74131
# Velocity P-wave (km/s) = 7.16394 7.52868 7.34857
#
# Compressibility (1/GPa) = 0.01550447
#
# Stress axis : x y z
#
# Youngs Moduli (GPa) = 87.32284 83.90612 69.16736
#
# Poissons Ratio (x) = 0.36222 0.08576
# Poissons Ratio (y) = 0.37697 0.38766
# Poissons Ratio (z) = 0.10828 0.47026
#
# Static dielectric constant tensor:
#      x y z
#    x 3.656700 -0.000020 -0.181840 
#    y -0.000020 3.675960 0.000070 
#    z -0.181840 0.000070 3.422230 
# 
# 
# High freq. dielectric constant tensor:
#      x y z
#    x 1.742520 0.000000 -0.023420 
#    y 0.000000 1.736020 0.000000 
#    z -0.023420 0.000000 1.712700 
# 
# From -- ./inp_files/96302.got.cif
#   From: 2010.06.25/outbox.cif.g09.slc.cpg/sg12_49_cif.got.tgz:96302.got - 2010.06.28 00:19:55.
