data_PCOD8094050
_publ_section_title
;
Structure prediction by ZEFSAII (Michael W. Deem and Ramdas Pophale) SiO2 
 PCOD8094050
Probable space group: C 2/M
;
_chemical_formula_sum "Si O2"
_cell_formula_units_Z 60
_cell_length_a 13.722700
_cell_length_b 13.417757
_cell_length_c 17.327266
_cell_angle_alpha 90.000000
_cell_angle_beta 69.733444
_cell_angle_gamma 90.000000
_cell_volume 2992.916736
_symmetry_space_group_name_H-M "C 2/M"
_symmetry_group_IT_number 12
_symmetry_cell_setting 'monoclinic'
loop_
_space_group_symop_operation_xyz
x,y,z
-x,y,-z
-x,-y,-z
x,-y,z
1/2+x,1/2+y,z
1/2-x,1/2+y,-z
1/2-x,1/2-y,-z
1/2+x,1/2-y,z
loop_
_atom_site_type_symbol
_atom_site_label
_atom_site_fract_x
_atom_site_fract_y
_atom_site_fract_z
Si Si1 0.355187 0.116787 0.568865
Si Si2 0.628406 0.284333 0.825581
Si Si3 0.043419 0.387389 0.767525
Si Si4 0.500000 0.656731 0.000000
Si Si5 0.616249 0.385312 0.672126
Si Si6 0.323218 0.799000 0.870783
Si Si7 0.544716 0.194939 0.606959
Si Si8 0.193984 0.107692 0.035514
O O1 0.237920 0.132779 0.626348
O O2 0.428118 0.174791 0.609427
O O3 0.371462 0.168071 0.481358
O O4 0.385614 0.000000 0.557605
O O5 0.631388 0.172775 0.790247
O O6 0.591996 0.361223 0.768641
O O7 0.740516 0.317674 0.825521
O O8 0.544435 0.277124 0.917677
O O9 0.044754 0.500000 0.795890
O O10 0.931643 0.338330 0.811467
O O11 0.069537 0.379575 0.670264
O O12 0.405567 0.591972 0.992857
O O13 0.584454 0.500000 0.663143
O O14 0.553891 0.310646 0.632306
O O15 0.329338 0.681234 0.887246
O O16 0.291523 0.854230 0.958528
O O17 0.222463 0.000000 0.062626
#
# Coordination Sequence:
#
# PCOD8094050 Si02
#       8
#     8   8   8   4   8   8   8   8
#     4  10  19  36  62  89 113 151 191 231 277 336
#     4  10  22  37  57  79 113 144 188 236 281 333
#     4  11  21  37  58  84 112 149 186 231 285 338
#     4  10  19  38  55  78 106 144 189 232 277 332
#     4  10  22  38  58  83 115 152 190 230 284 337
#     4  10  21  37  53  79 111 140 185 234 280 331
#     4  10  20  35  58  88 118 145 186 238 277 331
#     4  10  20  34  55  77 104 141 184 231 282 332
#
# _framework density 20.047332999999998
#
# number of rings (size 3 to 8) (size 9 to 14) (size 15 to 20)
#    0.000    1.867    1.333    3.400    0.000    4.800 
#    0.000    1.667    0.000    9.600    0.000    0.000 
#    0.000    0.000    0.000    0.000    0.000    0.000 
#
# Total GULP energy -371934.337221 kJ/mol
# GULP energy per Si atom -12397.811241 kJ/mol
# Density = 2.000170 g / cm^3
# Si number density = 20.047333 Si / 1000 Ang^3
#
#
#
# Elastic Constant Matrix: (Units=GPa)
#
#
# Indices 1 2 3 4 5 6 
#
# 1 40.1362 18.9613 6.2872 0.0000 3.4414 0.0000
# 2 18.9613 153.7831 29.4344 0.0000 11.8730 0.0000
# 3 6.2872 29.4344 87.9711 0.0000 9.1888 0.0000
# 4 0.0000 0.0000 0.0000 18.8685 0.0000 -1.2100
# 5 3.4414 11.8730 9.1888 0.0000 23.1349 0.0000
# 6 0.0000 0.0000 0.0000 -1.2100 0.0000 21.8666
#
#
#
# Elastic Compliance Matrix: (Units=1/GPa)
#
#
# Indices 1 2 3 4 5 6 
#
# 1 0.026617 -0.002985 -0.000678 0.000000 -0.002158 0.000000
# 2 -0.002985 0.007455 -0.002011 0.000000 -0.002583 0.000000
# 3 -0.000678 -0.002011 0.012489 0.000000 -0.003827 0.000000
# 4 0.000000 0.000000 0.000000 0.053187 0.000000 0.002943
# 5 -0.002158 -0.002583 -0.003827 0.000000 0.046391 0.000000
# 6 0.000000 0.000000 0.000000 0.002943 0.000000 0.045895
#
#
# Mechanical properties :
#
#
# Convention : Reuss Voigt Hill
#
# Bulk Modulus (GPa) = 28.40010 43.47292 35.93651
# Shear Modulus (GPa) = 23.24283 27.92118 25.58200
#
# Velocity S-wave (km/s) = 3.40869 3.73602 3.57610
# Velocity P-wave (km/s) = 5.44880 6.35159 5.91744
#
# Compressibility (1/GPa) = 0.03521114
#
# Stress axis : x y z
#
# Youngs Moduli (GPa) = 37.57023 134.13532 80.07349
#
# Poissons Ratio (x) = 0.40046 0.05429
# Poissons Ratio (y) = 0.11216 0.16105
# Poissons Ratio (z) = 0.02547 0.26978
#
# Static dielectric constant tensor:
#      x y z
#    x 3.577490 0.000000 0.013430 
#    y 0.000000 3.609290 0.000000 
#    z 0.013430 0.000000 3.751180 
# 
# 
# High freq. dielectric constant tensor:
#      x y z
#    x 1.770000 0.000000 -0.003630 
#    y 0.000000 1.775900 0.000000 
#    z -0.003630 0.000000 1.790550 
# 
# From -- ./inp_files/269248.got.cif
#   From: 2010.06.25/outbox.cif.g09.slc.cpg/sg12_135_cif.got.tgz:269248.got - 2010.06.28 00:19:55.
