data_PCOD8094243
_publ_section_title
;
Structure prediction by ZEFSAII (Michael W. Deem and Ramdas Pophale) SiO2 
 PCOD8094243
Probable space group: C 2/M
;
_chemical_formula_sum "Si O2"
_cell_formula_units_Z 32
_cell_length_a 11.545649
_cell_length_b 18.053758
_cell_length_c 9.275658
_cell_angle_alpha 90.000000
_cell_angle_beta 123.707119
_cell_angle_gamma 90.000000
_cell_volume 1608.400058
_symmetry_space_group_name_H-M "C 2/M"
_symmetry_group_IT_number 12
_symmetry_cell_setting 'monoclinic'
loop_
_space_group_symop_operation_xyz
x,y,z
-x,y,-z
-x,-y,-z
x,-y,z
1/2+x,1/2+y,z
1/2-x,1/2+y,-z
1/2-x,1/2-y,-z
1/2+x,1/2-y,z
loop_
_atom_site_type_symbol
_atom_site_label
_atom_site_fract_x
_atom_site_fract_y
_atom_site_fract_z
Si Si1 0.829219 0.857984 0.957300
Si Si2 0.851206 0.795032 0.458586
Si Si3 0.144199 0.310553 0.055980
Si Si4 0.902903 0.084336 0.720684
O O1 0.886958 0.774073 0.011150
O O2 0.799350 0.881265 0.771355
O O3 0.686915 0.860331 0.948155
O O4 0.941983 0.911910 0.107043
O O5 0.750000 0.750000 0.500000
O O6 0.761218 0.815039 0.258005
O O7 0.892494 0.870972 0.565647
O O8 0.000000 0.759361 0.500000
O O9 0.000000 0.348170 0.000000
O O10 0.862192 0.000000 0.660078
#
# Coordination Sequence:
#
# PCOD8094243 Si02
#       4
#     8   8   8   8
#     4  10  19  37  59  93 120 158 212 257 311 363
#     4  12  24  41  64  99 128 163 214 269 318 369
#     4  11  21  36  64  92 128 159 210 266 316 366
#     4  11  22  40  64  90 126 169 212 258 312 382
#
# _framework density 19.895547000000001
#
# number of rings (size 3 to 8) (size 9 to 14) (size 15 to 20)
#    0.000    1.000    7.500    1.500    3.500    0.500 
#    0.000    0.000    0.000   12.000    0.000    0.000 
#    0.000    0.000    0.000    0.000    0.000    0.000 
#
# Total GULP energy -198218.630870 kJ/mol
# GULP energy per Si atom -12388.664429 kJ/mol
# Density = 1.985026 g / cm^3
# Si number density = 19.895547 Si / 1000 Ang^3
#
#
#
# Elastic Constant Matrix: (Units=GPa)
#
#
# Indices 1 2 3 4 5 6 
#
# 1 198.6356 30.5457 33.2108 0.0000 -10.1853 0.0000
# 2 30.5457 72.9343 7.9867 0.0000 -13.2655 0.0000
# 3 33.2108 7.9867 63.6509 0.0000 3.0866 0.0000
# 4 0.0000 0.0000 0.0000 18.4971 0.0000 0.9608
# 5 -10.1853 -13.2655 3.0866 0.0000 29.9284 0.0000
# 6 0.0000 0.0000 0.0000 0.9608 0.0000 15.7703
#
#
#
# Elastic Compliance Matrix: (Units=1/GPa)
#
#
# Indices 1 2 3 4 5 6 
#
# 1 0.005884 -0.001879 -0.002906 0.000000 0.001469 0.000000
# 2 -0.001879 0.015827 -0.001321 0.000000 0.006512 0.000000
# 3 -0.002906 -0.001321 0.017557 0.000000 -0.003385 0.000000
# 4 0.000000 0.000000 0.000000 0.054234 0.000000 -0.003304
# 5 0.001469 0.006512 -0.003385 0.000000 0.037149 0.000000
# 6 0.000000 0.000000 0.000000 -0.003304 0.000000 0.063612
#
#
# Mechanical properties :
#
#
# Convention : Reuss Voigt Hill
#
# Bulk Modulus (GPa) = 36.96027 53.18969 45.07498
# Shear Modulus (GPa) = 23.20252 30.40434 26.80343
#
# Velocity S-wave (km/s) = 3.41870 3.91346 3.67441
# Velocity P-wave (km/s) = 5.84815 6.87115 6.38018
#
# Compressibility (1/GPa) = 0.02705608
#
# Stress axis : x y z
#
# Youngs Moduli (GPa) = 169.93872 63.18304 56.95799
#
# Poissons Ratio (x) = 0.11872 0.16551
# Poissons Ratio (y) = 0.31932 0.07526
# Poissons Ratio (z) = 0.49381 0.08348
#
# Static dielectric constant tensor:
#      x y z
#    x 4.298080 0.000000 -0.350330 
#    y 0.000000 3.242410 0.000000 
#    z -0.350330 0.000000 3.572780 
# 
# 
# High freq. dielectric constant tensor:
#      x y z
#    x 1.796310 0.000000 -0.026070 
#    y 0.000000 1.730840 0.000000 
#    z -0.026070 0.000000 1.771830 
# 
# From -- ./inp_files/46422.got.cif
#   From: 2010.06.25/outbox.cif.g09.slc.cpg/sg12_24_cif.got.tgz:46422.got - 2010.06.28 00:19:55.
