data_PCOD8094289
_publ_section_title
;
Structure prediction by ZEFSAII (Michael W. Deem and Ramdas Pophale) SiO2 
 PCOD8094289
Probable space group: C 2/M
;
_chemical_formula_sum "Si O2"
_cell_formula_units_Z 48
_cell_length_a 12.498826
_cell_length_b 26.131355
_cell_length_c 16.840025
_cell_angle_alpha 90.000000
_cell_angle_beta 155.087706
_cell_angle_gamma 90.000000
_cell_volume 2316.827077
_symmetry_space_group_name_H-M "C 2/M"
_symmetry_group_IT_number 12
_symmetry_cell_setting 'monoclinic'
loop_
_space_group_symop_operation_xyz
x,y,z
-x,y,-z
-x,-y,-z
x,-y,z
1/2+x,1/2+y,z
1/2-x,1/2+y,-z
1/2-x,1/2-y,-z
1/2+x,1/2-y,z
loop_
_atom_site_type_symbol
_atom_site_label
_atom_site_fract_x
_atom_site_fract_y
_atom_site_fract_z
Si Si1 0.289893 0.126601 0.795351
Si Si2 0.554876 0.823505 0.355649
Si Si3 0.341107 0.000000 0.473038
Si Si4 0.656976 0.896353 0.913693
Si Si5 0.460055 0.730242 0.386698
Si Si6 0.922775 0.896383 0.676930
Si Si7 0.252363 0.000000 0.116958
O O1 0.382404 0.101125 0.774493
O O2 0.260755 0.187685 0.764194
O O3 0.035008 0.101801 0.661786
O O4 0.500000 0.113802 0.000000
O O5 0.364951 0.856009 0.172729
O O6 0.388834 0.777908 0.282488
O O7 0.678372 0.859069 0.508201
O O8 0.776912 0.797130 0.456339
O O9 0.500000 0.000000 0.500000
O O10 0.157824 0.048150 0.349415
O O11 0.510583 0.000000 0.665153
O O12 0.735450 0.950943 0.931601
O O13 0.871578 0.876127 0.120062
O O14 0.500000 0.753721 0.500000
O O15 0.000000 0.000000 0.000000
#
# Coordination Sequence:
#
# PCOD8094289 Si02
#       7
#     8   8   4   8   8   8   4
#     4   9  20  39  65  93 127 162 206 262 313 369
#     4  10  21  38  60  92 123 169 212 252 312 370
#     4  12  24  43  66  88 130 163 206 266 307 376
#     4  11  21  43  67  91 129 167 207 260 313 377
#     4  10  19  37  60  87 130 163 208 263 308 361
#     4  10  22  40  63  95 125 163 210 258 315 371
#     4  12  26  45  66  96 124 165 212 254 317 382
#
# _framework density 20.71799
#
# number of rings (size 3 to 8) (size 9 to 14) (size 15 to 20)
#    0.000    1.667    3.333    1.500    0.000    1.333 
#    6.000    6.667    0.000    0.000    0.000    0.000 
#    0.000    0.000    0.000    0.000    0.000    0.000 
#
# Total GULP energy -297479.354345 kJ/mol
# GULP energy per Si atom -12394.973098 kJ/mol
# Density = 2.067083 g / cm^3
# Si number density = 20.717990 Si / 1000 Ang^3
#
#
#
# Elastic Constant Matrix: (Units=GPa)
#
#
# Indices 1 2 3 4 5 6 
#
# 1 111.0303 75.5384 20.7089 -0.0093 -7.0306 -0.0030
# 2 75.5384 139.1374 28.6365 -0.0040 -1.2491 -0.0001
# 3 20.7089 28.6365 78.3601 -0.0017 -17.3521 -0.0025
# 4 -0.0093 -0.0040 -0.0017 21.7137 -0.0047 1.1016
# 5 -7.0306 -1.2491 -17.3521 -0.0047 29.2133 -0.0023
# 6 -0.0030 -0.0001 -0.0025 1.1016 -0.0023 38.2052
#
#
#
# Elastic Compliance Matrix: (Units=1/GPa)
#
#
# Indices 1 2 3 4 5 6 
#
# 1 0.014576 -0.007817 -0.000337 0.000005 0.002974 0.000001
# 2 -0.007817 0.012027 -0.003030 -0.000002 -0.003167 -0.000001
# 3 -0.000337 -0.003030 0.016018 0.000003 0.009304 0.000002
# 4 0.000005 -0.000002 0.000003 0.046121 0.000010 -0.001330
# 5 0.002974 -0.003167 0.009304 0.000010 0.040338 0.000003
# 6 0.000001 -0.000001 0.000002 -0.001330 0.000003 0.026213
#
#
# Mechanical properties :
#
#
# Convention : Reuss Voigt Hill
#
# Bulk Modulus (GPa) = 49.37861 64.25503 56.81682
# Shear Modulus (GPa) = 27.11307 31.40269 29.25788
#
# Velocity S-wave (km/s) = 3.62148 3.89745 3.76200
# Velocity P-wave (km/s) = 6.43213 7.16484 6.80835
#
# Compressibility (1/GPa) = 0.02025169
#
# Stress axis : x y z
#
# Youngs Moduli (GPa) = 68.60482 83.14922 62.42845
#
# Poissons Ratio (x) = 0.65002 0.02103
# Poissons Ratio (y) = 0.53632 0.18918
# Poissons Ratio (z) = 0.02311 0.25198
#
# Static dielectric constant tensor:
#      x y z
#    x 4.065580 0.000000 -0.045340 
#    y 0.000000 3.759370 0.000000 
#    z -0.045340 0.000000 3.698810 
# 
# 
# High freq. dielectric constant tensor:
#      x y z
#    x 1.814660 0.000000 -0.011980 
#    y 0.000000 1.803540 0.000000 
#    z -0.011980 0.000000 1.806990 
# 
# From -- ./inp_files/209497.got.cif
#   From: 2010.06.25/outbox.cif.g09.slc.cpg/sg12_105_cif.got.tgz:209497.got - 2010.06.28 00:19:55.
