data_PCOD8094696
_publ_section_title
;
Structure prediction by ZEFSAII (Michael W. Deem and Ramdas Pophale) SiO2 
 PCOD8094696
Probable space group: C 2/M
;
_chemical_formula_sum "Si O2"
_cell_formula_units_Z 56
_cell_length_a 23.277662
_cell_length_b 15.036637
_cell_length_c 9.357831
_cell_angle_alpha 90.000000
_cell_angle_beta 123.423802
_cell_angle_gamma 90.000000
_cell_volume 2733.717259
_symmetry_space_group_name_H-M "C 2/M"
_symmetry_group_IT_number 12
_symmetry_cell_setting 'monoclinic'
loop_
_space_group_symop_operation_xyz
x,y,z
-x,y,-z
-x,-y,-z
x,-y,z
1/2+x,1/2+y,z
1/2-x,1/2+y,-z
1/2-x,1/2-y,-z
1/2+x,1/2-y,z
loop_
_atom_site_type_symbol
_atom_site_label
_atom_site_fract_x
_atom_site_fract_y
_atom_site_fract_z
Si Si1 0.771451 0.403873 0.428988
Si Si2 0.311004 0.264738 0.332089
Si Si3 0.474433 0.500000 0.808470
Si Si4 0.568887 0.303598 0.688594
Si Si5 0.128496 0.850789 0.316010
Si Si6 0.567762 0.227795 0.000682
Si Si7 0.311308 0.895366 0.797358
Si Si8 0.565752 0.500000 0.687700
O O1 0.795663 0.500000 0.402698
O O2 0.776943 0.331279 0.312050
O O3 0.692554 0.413494 0.368687
O O4 0.814018 0.379180 0.630301
O O5 0.365173 0.248998 0.277899
O O6 0.354438 0.284211 0.533523
O O7 0.252268 0.339009 0.221351
O O8 0.433075 0.411724 0.711465
O O9 0.545198 0.500000 0.823658
O O10 0.500000 0.500000 0.000000
O O11 0.500000 0.290664 0.500000
O O12 0.601771 0.404346 0.715415
O O13 0.549612 0.271663 0.822169
O O14 0.110214 0.800054 0.146541
O O15 0.615672 0.140733 0.042533
O O16 0.500000 0.202023 0.000000
O O17 0.302369 0.000000 0.823312
O O18 0.500000 0.500000 0.500000
#
# Coordination Sequence:
#
# PCOD8094696 Si02
#       8
#     8   8   4   8   8   8   8   4
#     4  10  19  38  65  95 125 159 206 260 311 375
#     4  11  21  40  66  91 128 161 206 259 311 376
#     4  12  22  32  56  90 132 156 197 249 304 370
#     4  11  25  40  62  92 126 168 206 250 324 379
#     4  11  19  36  60  93 122 163 202 252 310 369
#     4  12  23  40  64  88 126 165 211 265 307 365
#     4  10  22  39  66  96 121 167 219 255 307 366
#     4  10  20  38  52  86 122 160 198 233 296 389
#
# _framework density 20.484929000000001
#
# number of rings (size 3 to 8) (size 9 to 14) (size 15 to 20)
#    0.000    1.143    3.571    5.571    2.000    0.857 
#    0.000    0.714    0.000    0.857    0.000    0.000 
#    0.000    0.000    0.000    0.000    0.000    0.000 
#
# Total GULP energy -346970.103378 kJ/mol
# GULP energy per Si atom -12391.789406 kJ/mol
# Density = 2.043830 g / cm^3
# Si number density = 20.484929 Si / 1000 Ang^3
#
#
#
# Elastic Constant Matrix: (Units=GPa)
#
#
# Indices 1 2 3 4 5 6 
#
# 1 99.2842 29.2799 23.4801 0.0000 -1.5709 0.0000
# 2 29.2799 94.1514 15.2845 0.0000 6.4478 0.0000
# 3 23.4801 15.2845 87.4112 0.0000 2.1427 0.0000
# 4 0.0000 0.0000 0.0000 16.3799 0.0000 2.3013
# 5 -1.5709 6.4478 2.1427 0.0000 28.4274 0.0000
# 6 0.0000 0.0000 0.0000 2.3013 0.0000 21.0562
#
#
#
# Elastic Compliance Matrix: (Units=1/GPa)
#
#
# Indices 1 2 3 4 5 6 
#
# 1 0.011692 -0.003324 -0.002599 0.000000 0.001596 0.000000
# 2 -0.003324 0.012034 -0.001142 0.000000 -0.002827 0.000000
# 3 -0.002599 -0.001142 0.012358 0.000000 -0.000816 0.000000
# 4 0.000000 0.000000 0.000000 0.062003 0.000000 -0.006776
# 5 0.001596 -0.002827 -0.000816 0.000000 0.035968 0.000000
# 6 0.000000 0.000000 0.000000 -0.006776 0.000000 0.048232
#
#
# Mechanical properties :
#
#
# Convention : Reuss Voigt Hill
#
# Bulk Modulus (GPa) = 45.54741 46.32622 45.93681
# Shear Modulus (GPa) = 24.54180 27.35951 25.95065
#
# Velocity S-wave (km/s) = 3.46503 3.65854 3.56310
# Velocity P-wave (km/s) = 6.18801 6.36478 6.27702
#
# Compressibility (1/GPa) = 0.02195515
#
# Stress axis : x y z
#
# Youngs Moduli (GPa) = 85.52825 83.09938 80.91960
#
# Poissons Ratio (x) = 0.27618 0.21028
# Poissons Ratio (y) = 0.28425 0.09242
# Poissons Ratio (z) = 0.22226 0.09491
#
# Static dielectric constant tensor:
#      x y z
#    x 3.573250 0.000000 0.055040 
#    y 0.000000 3.914380 0.000000 
#    z 0.055040 0.000000 3.657950 
# 
# 
# High freq. dielectric constant tensor:
#      x y z
#    x 1.792310 0.000000 0.004580 
#    y 0.000000 1.797970 0.000000 
#    z 0.004580 0.000000 1.787320 
# 
# From -- ./inp_files/97008.got.cif
#   From: 2010.06.25/outbox.cif.g09.slc.cpg/sg12_49_cif.got.tgz:97008.got - 2010.06.28 00:19:55.
