data_PCOD8094951
_publ_section_title
;
Structure prediction by ZEFSAII (Michael W. Deem and Ramdas Pophale) SiO2 
 PCOD8094951
Probable space group: C 2/M
;
_chemical_formula_sum "Si O2"
_cell_formula_units_Z 64
_cell_length_a 24.309551
_cell_length_b 9.131074
_cell_length_c 17.464347
_cell_angle_alpha 90.000000
_cell_angle_beta 82.301200
_cell_angle_gamma 90.000000
_cell_volume 3841.657767
_symmetry_space_group_name_H-M "C 2/M"
_symmetry_group_IT_number 12
_symmetry_cell_setting 'monoclinic'
loop_
_space_group_symop_operation_xyz
x,y,z
-x,y,-z
-x,-y,-z
x,-y,z
1/2+x,1/2+y,z
1/2-x,1/2+y,-z
1/2-x,1/2-y,-z
1/2+x,1/2-y,z
loop_
_atom_site_type_symbol
_atom_site_label
_atom_site_fract_x
_atom_site_fract_y
_atom_site_fract_z
Si Si1 0.483569 0.339076 0.091065
Si Si2 0.303025 0.837956 0.332247
Si Si3 0.330950 0.167611 0.777368
Si Si4 0.329159 0.338161 0.632429
Si Si5 0.807320 0.829197 0.474109
Si Si6 0.218280 0.325942 0.830181
Si Si7 0.413263 0.167783 0.898541
Si Si8 0.368947 0.326442 0.053403
O O1 0.490449 0.500000 0.127766
O O2 0.523552 0.224094 0.126208
O O3 0.419064 0.289452 0.103510
O O4 0.500000 0.349457 0.000000
O O5 0.237176 0.838487 0.354865
O O6 0.332754 0.733530 0.389696
O O7 0.313862 0.785442 0.242984
O O8 0.327401 0.000000 0.340383
O O9 0.351774 0.221893 0.689767
O O10 0.280733 0.265495 0.817974
O O11 0.382811 0.184246 0.823666
O O12 0.311021 0.000000 0.774611
O O13 0.351173 0.500000 0.650697
O O14 0.347100 0.300114 0.540967
O O15 0.750000 0.750000 0.500000
O O16 0.796015 0.000000 0.465517
O O17 0.221071 0.500000 0.841619
O O18 0.186514 0.250229 0.905959
O O19 0.415087 0.000000 0.926050
O O20 0.381255 0.263697 0.967149
O O21 0.359939 0.500000 0.047705
#
# Coordination Sequence:
#
# PCOD8094951 Si02
#       8
#     8   8   8   8   8   8   8   8
#     4   8  16  31  49  68  86 105 135 176 220 261
#     4   8  15  26  38  55  79 107 140 174 208 248
#     4  10  20  31  43  62  88 118 150 180 212 253
#     4   8  15  26  38  55  80 110 143 176 210 249
#     4   9  15  22  35  55  77 104 139 174 208 247
#     4  10  20  32  45  62  87 119 150 179 214 255
#     4  10  20  32  47  67  88 112 144 180 218 258
#     4  10  20  33  49  67  86 111 144 180 218 259
#
# _framework density 16.659475
#
# number of rings (size 3 to 8) (size 9 to 14) (size 15 to 20)
#    0.000    2.875    0.000    4.125    0.000   10.750 
#    0.000    0.000    0.000    0.000    0.000    0.000 
#    0.000    1.000    0.000   11.000    0.000    9.875 
#
# Total GULP energy -396520.798169 kJ/mol
# GULP energy per Si atom -12391.274943 kJ/mol
# Density = 1.662156 g / cm^3
# Si number density = 16.659475 Si / 1000 Ang^3
#
#
#
# Elastic Constant Matrix: (Units=GPa)
#
#
# Indices 1 2 3 4 5 6 
#
# 1 40.6781 30.1317 13.7510 0.0000 14.7392 0.0000
# 2 30.1317 104.3257 37.3512 0.0000 19.8336 0.0000
# 3 13.7510 37.3512 54.6518 0.0000 22.8710 0.0000
# 4 0.0000 0.0000 0.0000 28.8862 0.0000 4.3193
# 5 14.7392 19.8336 22.8710 0.0000 14.3007 0.0000
# 6 0.0000 0.0000 0.0000 4.3193 0.0000 21.1182
#
#
#
# Elastic Compliance Matrix: (Units=1/GPa)
#
#
# Indices 1 2 3 4 5 6 
#
# 1 0.055603 -0.009445 0.033156 0.000000 -0.097236 0.000000
# 2 -0.009445 0.014926 -0.009783 0.000000 0.004678 0.000000
# 3 0.033156 -0.009783 0.076391 0.000000 -0.142777 0.000000
# 4 0.000000 0.000000 0.000000 0.035711 0.000000 -0.007304
# 5 -0.097236 0.004678 -0.142777 0.000000 0.391996 0.000000
# 6 0.000000 0.000000 0.000000 -0.007304 0.000000 0.048846
#
#
# Mechanical properties :
#
#
# Convention : Reuss Voigt Hill
#
# Bulk Modulus (GPa) = 5.72153 40.23592 22.97873
# Shear Modulus (GPa) = 7.64673 20.75581 14.20127
#
# Velocity S-wave (km/s) = 2.14476 3.53354 2.92283
# Velocity P-wave (km/s) = 3.09438 6.39158 5.02133
#
# Compressibility (1/GPa) = 0.17477832
#
# Stress axis : x y z
#
# Youngs Moduli (GPa) = 17.98463 66.99639 13.09054
#
# Poissons Ratio (x) = 0.63275 -0.43403
# Poissons Ratio (y) = 0.16986 0.12806
# Poissons Ratio (z) = -0.59630 0.65540
#
# Static dielectric constant tensor:
#      x y z
#    x 2.846590 0.000000 0.167150 
#    y 0.000000 3.405230 0.000000 
#    z 0.167150 0.000000 3.556000 
# 
# 
# High freq. dielectric constant tensor:
#      x y z
#    x 1.586370 0.000000 0.020370 
#    y 0.000000 1.656100 0.000000 
#    z 0.020370 0.000000 1.633110 
# 
# From -- ./inp_files/287566.got.cif
#   From: 2010.06.25/outbox.cif.g09.slc.cpg/sg12_144_cif.got.tgz:287566.got - 2010.06.28 00:19:55.
