data_PCOD8094594
_publ_section_title
;
Structure prediction by ZEFSAII (Michael W. Deem and Ramdas Pophale) SiO2 
 PCOD8094594
Probable space group: C 2/M
;
_chemical_formula_sum "Si O2"
_cell_formula_units_Z 36
_cell_length_a 17.485755
_cell_length_b 14.029159
_cell_length_c 11.497105
_cell_angle_alpha 90.000000
_cell_angle_beta 37.578989
_cell_angle_gamma 90.000000
_cell_volume 1720.009378
_symmetry_space_group_name_H-M "C 2/M"
_symmetry_group_IT_number 12
_symmetry_cell_setting 'monoclinic'
loop_
_space_group_symop_operation_xyz
x,y,z
-x,y,-z
-x,-y,-z
x,-y,z
1/2+x,1/2+y,z
1/2-x,1/2+y,-z
1/2-x,1/2-y,-z
1/2+x,1/2-y,z
loop_
_atom_site_type_symbol
_atom_site_label
_atom_site_fract_x
_atom_site_fract_y
_atom_site_fract_z
Si Si1 0.229361 0.258120 0.333142
Si Si2 0.878031 0.272169 0.785413
Si Si3 0.500000 0.199139 0.000000
Si Si4 0.448441 0.396260 0.433996
Si Si5 0.068576 0.390127 0.676439
O O1 0.141234 0.284711 0.329218
O O2 0.377440 0.266229 0.126758
O O3 0.193510 0.146669 0.401915
O O4 0.188618 0.328015 0.487691
O O5 0.963510 0.184106 0.728344
O O6 0.944137 0.368279 0.750377
O O7 0.750000 0.250000 0.000000
O O8 0.467416 0.133221 0.148087
O O9 0.500000 0.412947 0.500000
O O10 0.449911 0.500000 0.368281
O O11 0.104254 0.500000 0.620306
#
# Coordination Sequence:
#
# PCOD8094594 Si02
#       5
#     8   8   4   8   8
#     4  10  22  40  64  88 126 163 207 258 314 369
#     4  10  19  38  61  90 122 161 210 259 307 370
#     4  12  23  42  65  88 128 172 209 256 307 378
#     4   8  16  31  54  83 113 148 193 251 303 348
#     4  11  24  41  65  95 126 164 210 261 315 370
#
# _framework density 20.930119000000001
#
# number of rings (size 3 to 8) (size 9 to 14) (size 15 to 20)
#    0.000    2.000    2.222    3.000    0.000    4.444 
#    0.000    0.556    0.000    0.000    0.000    0.000 
#    0.000    0.000    0.000    0.000    0.000    0.000 
#
# Total GULP energy -223034.916964 kJ/mol
# GULP energy per Si atom -12390.828720 kJ/mol
# Density = 2.088248 g / cm^3
# Si number density = 20.930119 Si / 1000 Ang^3
#
#
#
# Elastic Constant Matrix: (Units=GPa)
#
#
# Indices 1 2 3 4 5 6 
#
# 1 79.1732 41.8106 35.8862 0.0000 -9.8010 0.0000
# 2 41.8106 131.7607 55.4677 0.0000 5.0750 0.0000
# 3 35.8862 55.4677 124.5879 0.0000 -16.0265 0.0000
# 4 0.0000 0.0000 0.0000 12.7331 0.0000 -3.0757
# 5 -9.8010 5.0750 -16.0265 0.0000 43.2328 0.0000
# 6 0.0000 0.0000 0.0000 -3.0757 0.0000 9.2007
#
#
#
# Elastic Compliance Matrix: (Units=1/GPa)
#
#
# Indices 1 2 3 4 5 6 
#
# 1 0.016409 -0.004342 -0.002362 0.000000 0.003354 0.000000
# 2 -0.004342 0.010816 -0.004048 0.000000 -0.003754 0.000000
# 3 -0.002362 -0.004048 0.011027 0.000000 0.004027 0.000000
# 4 0.000000 0.000000 0.000000 0.085434 0.000000 0.028559
# 5 0.003354 -0.003754 0.004027 0.000000 0.025825 0.000000
# 6 0.000000 0.000000 0.000000 0.028559 0.000000 0.118234
#
#
# Mechanical properties :
#
#
# Convention : Reuss Voigt Hill
#
# Bulk Modulus (GPa) = 59.70510 66.87232 63.28871
# Shear Modulus (GPa) = 16.95891 26.52383 21.74137
#
# Velocity S-wave (km/s) = 2.84960 3.56372 3.22648
# Velocity P-wave (km/s) = 6.27812 6.99665 6.64710
#
# Compressibility (1/GPa) = 0.01674899
#
# Stress axis : x y z
#
# Youngs Moduli (GPa) = 60.94117 92.45694 90.68711
#
# Poissons Ratio (x) = 0.40144 0.21420
# Poissons Ratio (y) = 0.26460 0.36707
# Poissons Ratio (z) = 0.14394 0.37423
#
# Static dielectric constant tensor:
#      x y z
#    x 3.895600 0.000000 0.402450 
#    y 0.000000 3.797830 0.000000 
#    z 0.402450 0.000000 2.674320 
# 
# 
# High freq. dielectric constant tensor:
#      x y z
#    x 1.824080 0.000000 -0.009730 
#    y 0.000000 1.794930 0.000000 
#    z -0.009730 0.000000 1.821260 
# 
# From -- ./inp_files/155039.got.cif
#   From: 2010.06.25/outbox.cif.g09.slc.cpg/sg12_78_cif.got.tgz:155039.got - 2010.06.28 00:19:55.
