data_PCOD8094962
_publ_section_title
;
Structure prediction by ZEFSAII (Michael W. Deem and Ramdas Pophale) SiO2 
 PCOD8094962
Probable space group: C 2/M
;
_chemical_formula_sum "Si O2"
_cell_formula_units_Z 48
_cell_length_a 22.618825
_cell_length_b 9.471451
_cell_length_c 15.849574
_cell_angle_alpha 90.000000
_cell_angle_beta 57.857057
_cell_angle_gamma 90.000000
_cell_volume 2875.052068
_symmetry_space_group_name_H-M "C 2/M"
_symmetry_group_IT_number 12
_symmetry_cell_setting 'monoclinic'
loop_
_space_group_symop_operation_xyz
x,y,z
-x,y,-z
-x,-y,-z
x,-y,z
1/2+x,1/2+y,z
1/2-x,1/2+y,-z
1/2-x,1/2-y,-z
1/2+x,1/2-y,z
loop_
_atom_site_type_symbol
_atom_site_label
_atom_site_fract_x
_atom_site_fract_y
_atom_site_fract_z
Si Si1 0.878181 0.159278 0.273746
Si Si2 0.265142 0.162785 0.865128
Si Si3 0.149887 0.335971 0.037520
Si Si4 0.187506 0.163112 0.507365
Si Si5 0.722548 0.837172 0.333941
Si Si6 0.998163 0.334026 0.097653
O O1 0.876267 0.173212 0.377629
O O2 0.803396 0.198740 0.290513
O O3 0.935304 0.263938 0.195025
O O4 0.898247 0.000000 0.232780
O O5 0.325712 0.200574 0.886059
O O6 0.294716 0.197279 0.750115
O O7 0.242770 0.000000 0.888848
O O8 0.196032 0.252919 0.934649
O O9 0.159084 0.500000 0.009255
O O10 0.069878 0.289328 0.088835
O O11 0.250000 0.250000 0.500000
O O12 0.171711 0.237829 0.429312
O O13 0.208805 0.000000 0.476980
O O14 0.707015 0.000000 0.368236
O O15 0.985431 0.500000 0.111081
O O16 0.000000 0.280670 0.000000
#
# Coordination Sequence:
#
# PCOD8094962 Si02
#       6
#     8   8   8   8   8   8
#     4   9  18  30  44  65  91 116 144 179 218 263
#     4   9  17  30  48  67  89 117 149 187 226 265
#     4   9  18  31  45  65  92 119 150 186 223 265
#     4   9  17  29  45  67  93 118 147 184 224 265
#     4   9  17  29  46  69  92 115 148 187 226 266
#     4  10  20  31  44  65  92 120 149 180 216 262
#
# _framework density 16.695349
#
# number of rings (size 3 to 8) (size 9 to 14) (size 15 to 20)
#    0.000    2.833    0.000    2.500    0.000    5.000 
#    0.000    0.000    0.000    1.000    0.000    7.000 
#    0.000    0.000    0.000    0.000    0.000    0.000 
#
# Total GULP energy -297524.128572 kJ/mol
# GULP energy per Si atom -12396.838690 kJ/mol
# Density = 1.665735 g / cm^3
# Si number density = 16.695349 Si / 1000 Ang^3
#
#
#
# Elastic Constant Matrix: (Units=GPa)
#
#
# Indices 1 2 3 4 5 6 
#
# 1 65.2974 31.7934 45.4371 0.0000 7.8125 0.0000
# 2 31.7934 69.1564 55.8349 0.0000 6.3372 -0.0001
# 3 45.4371 55.8349 109.5182 0.0000 14.9102 0.0000
# 4 0.0000 0.0000 0.0000 38.1183 0.0000 -0.1642
# 5 7.8125 6.3372 14.9102 0.0000 23.9907 0.0000
# 6 0.0000 -0.0001 0.0000 -0.1642 0.0000 17.6253
#
#
#
# Elastic Compliance Matrix: (Units=1/GPa)
#
#
# Indices 1 2 3 4 5 6 
#
# 1 0.022496 -0.004831 -0.006606 0.000000 -0.001944 0.000000
# 2 -0.004831 0.025657 -0.011326 0.000000 0.001835 0.000000
# 3 -0.006606 -0.011326 0.018512 0.000000 -0.006362 0.000000
# 4 0.000000 0.000000 0.000000 0.026235 0.000000 0.000244
# 5 -0.001944 0.001835 -0.006362 0.000000 0.045785 0.000000
# 6 0.000000 0.000000 0.000000 0.000244 0.000000 0.056739
#
#
# Mechanical properties :
#
#
# Convention : Reuss Voigt Hill
#
# Bulk Modulus (GPa) = 47.30407 56.67810 51.99109
# Shear Modulus (GPa) = 20.16162 23.34062 21.75112
#
# Velocity S-wave (km/s) = 3.47885 3.74308 3.61338
# Velocity P-wave (km/s) = 6.67321 7.25968 6.97262
#
# Compressibility (1/GPa) = 0.02113983
#
# Stress axis : x y z
#
# Youngs Moduli (GPa) = 44.45291 38.97551 54.01904
#
# Poissons Ratio (x) = 0.18828 0.35683
# Poissons Ratio (y) = 0.21474 0.61183
# Poissons Ratio (z) = 0.29364 0.44145
#
# Static dielectric constant tensor:
#      x y z
#    x 3.112180 0.000000 0.360050 
#    y 0.000000 3.233210 0.000000 
#    z 0.360050 0.000000 3.362150 
# 
# 
# High freq. dielectric constant tensor:
#      x y z
#    x 1.616430 0.000000 0.023090 
#    y 0.000000 1.647880 0.000000 
#    z 0.023090 0.000000 1.641070 
# 
# From -- ./inp_files/281819.got.cif
#   From: 2010.06.25/outbox.cif.g09.slc.cpg/sg12_141_cif.got.tgz:281819.got - 2010.06.28 00:19:55.
