data_PCOD8094798
_publ_section_title
;
Structure prediction by ZEFSAII (Michael W. Deem and Ramdas Pophale) SiO2 
 PCOD8094798
Probable space group: C 2/M
;
_chemical_formula_sum "Si O2"
_cell_formula_units_Z 40
_cell_length_a 9.758744
_cell_length_b 15.266548
_cell_length_c 17.496691
_cell_angle_alpha 90.000000
_cell_angle_beta 46.758633
_cell_angle_gamma 90.000000
_cell_volume 1898.912139
_symmetry_space_group_name_H-M "C 2/M"
_symmetry_group_IT_number 12
_symmetry_cell_setting 'monoclinic'
loop_
_space_group_symop_operation_xyz
x,y,z
-x,y,-z
-x,-y,-z
x,-y,z
1/2+x,1/2+y,z
1/2-x,1/2+y,-z
1/2-x,1/2-y,-z
1/2+x,1/2-y,z
loop_
_atom_site_type_symbol
_atom_site_label
_atom_site_fract_x
_atom_site_fract_y
_atom_site_fract_z
Si Si1 0.000000 0.143108 0.000000
Si Si2 0.712999 0.500000 0.009159
Si Si3 0.402607 0.500000 0.239841
Si Si4 0.003472 0.000000 0.368921
Si Si5 0.000000 0.138318 0.500000
Si Si6 0.217962 0.184390 0.776534
Si Si7 0.603437 0.817193 0.697025
Si Si8 0.919452 0.500000 0.211368
O O1 0.123197 0.201301 0.895366
O O2 0.146449 0.085866 0.991065
O O3 0.939606 0.500000 0.915277
O O4 0.623509 0.500000 0.128679
O O5 0.375343 0.500000 0.341991
O O6 0.299326 0.584213 0.244291
O O7 0.968064 0.083749 0.434855
O O8 0.213059 0.000000 0.254652
O O9 0.808476 0.193663 0.579523
O O10 0.439785 0.208624 0.699117
O O11 0.103666 0.248336 0.765424
O O12 0.557511 0.915192 0.743203
#
# Coordination Sequence:
#
# PCOD8094798 Si02
#       8
#     4   4   4   4   4   8   8   4
#     4   9  18  38  62  91 130 170 208 247 312 379
#     4   9  16  35  65  90 120 177 205 248 312 384
#     4  10  23  42  65  93 133 161 216 260 308 381
#     4   9  20  40  66  94 122 163 213 271 313 372
#     4   9  22  44  66  85 128 170 206 265 334 367
#     4  11  24  41  66  96 130 169 211 259 312 380
#     4  11  24  42  67  93 125 171 214 263 315 376
#     4  10  19  39  66  88 127 172 207 248 326 372
#
# _framework density 21.064692000000001
#
# number of rings (size 3 to 8) (size 9 to 14) (size 15 to 20)
#    0.000    2.000    2.000    1.800    5.600    2.000 
#    0.000    1.000    0.000    0.000    0.000    0.000 
#    0.000    0.000    0.000    0.000    0.000    0.000 
#
# Total GULP energy -247900.773469 kJ/mol
# GULP energy per Si atom -12395.038673 kJ/mol
# Density = 2.101675 g / cm^3
# Si number density = 21.064692 Si / 1000 Ang^3
#
#
#
# Elastic Constant Matrix: (Units=GPa)
#
#
# Indices 1 2 3 4 5 6 
#
# 1 107.4024 30.5707 45.4318 0.0001 4.1862 0.0000
# 2 30.5707 83.9336 16.0386 0.0001 2.1757 -0.0001
# 3 45.4318 16.0386 130.4268 0.0004 -3.9374 -0.0002
# 4 0.0001 0.0001 0.0004 21.2767 0.0000 -3.8683
# 5 4.1862 2.1757 -3.9374 0.0000 37.4150 0.0001
# 6 0.0000 -0.0001 -0.0002 -3.8683 0.0001 15.6631
#
#
#
# Elastic Compliance Matrix: (Units=1/GPa)
#
#
# Indices 1 2 3 4 5 6 
#
# 1 0.011997 -0.003607 -0.003781 0.000000 -0.001530 0.000000
# 2 -0.003607 0.013314 -0.000393 0.000000 -0.000412 0.000000
# 3 -0.003781 -0.000393 0.009075 0.000000 0.001401 0.000000
# 4 0.000000 0.000000 0.000000 0.049209 0.000000 0.012153
# 5 -0.001530 -0.000412 0.001401 0.000000 0.027070 0.000000
# 6 0.000000 0.000000 0.000000 0.012153 0.000000 0.066846
#
#
# Mechanical properties :
#
#
# Convention : Reuss Voigt Hill
#
# Bulk Modulus (GPa) = 53.12964 56.20498 54.66731
# Shear Modulus (GPa) = 25.08176 30.18575 27.63376
#
# Velocity S-wave (km/s) = 3.45440 3.78961 3.62588
# Velocity P-wave (km/s) = 6.41774 6.77408 6.59832
#
# Compressibility (1/GPa) = 0.01882188
#
# Stress axis : x y z
#
# Youngs Moduli (GPa) = 83.35576 75.10990 110.19309
#
# Poissons Ratio (x) = 0.27094 0.41669
# Poissons Ratio (y) = 0.30069 0.04332
# Poissons Ratio (z) = 0.31521 0.02953
#
# Static dielectric constant tensor:
#      x y z
#    x 3.599810 0.000000 -0.134070 
#    y 0.000000 3.623410 0.000000 
#    z -0.134070 0.000000 4.046030 
# 
# 
# High freq. dielectric constant tensor:
#      x y z
#    x 1.812250 0.000000 -0.006990 
#    y 0.000000 1.810310 0.000000 
#    z -0.006990 0.000000 1.832590 
# 
# From -- ./inp_files/256431.got.cif
#   From: 2010.06.25/outbox.cif.g09.slc.cpg/sg12_129_cif.got.tgz:256431.got - 2010.06.28 00:19:55.
