data_PCOD8094079
_publ_section_title
;
Structure prediction by ZEFSAII (Michael W. Deem and Ramdas Pophale) SiO2 
 PCOD8094079
Probable space group: C 2/M
;
_chemical_formula_sum "Si O2"
_cell_formula_units_Z 44
_cell_length_a 14.658767
_cell_length_b 10.406142
_cell_length_c 16.681625
_cell_angle_alpha 90.000000
_cell_angle_beta 65.687326
_cell_angle_gamma 90.000000
_cell_volume 2318.957240
_symmetry_space_group_name_H-M "C 2/M"
_symmetry_group_IT_number 12
_symmetry_cell_setting 'monoclinic'
loop_
_space_group_symop_operation_xyz
x,y,z
-x,y,-z
-x,-y,-z
x,-y,z
1/2+x,1/2+y,z
1/2-x,1/2+y,-z
1/2-x,1/2-y,-z
1/2+x,1/2-y,z
loop_
_atom_site_type_symbol
_atom_site_label
_atom_site_fract_x
_atom_site_fract_y
_atom_site_fract_z
Si Si1 0.093139 0.733479 0.703954
Si Si2 0.246414 0.500000 0.899993
Si Si3 0.139997 0.500000 0.103934
Si Si4 0.410941 0.000000 0.179810
Si Si5 0.201780 0.356011 0.333878
Si Si6 0.632001 0.259260 0.201671
Si Si7 0.333685 0.854888 0.481088
O O1 0.118707 0.622722 0.757609
O O2 0.182205 0.836124 0.681432
O O3 0.083289 0.675297 0.616855
O O4 0.985373 0.794404 0.761989
O O5 0.148225 0.500000 0.881447
O O6 0.310854 0.373786 0.861432
O O7 0.216329 0.500000 0.003189
O O8 0.160212 0.626342 0.148836
O O9 0.026803 0.500000 0.113366
O O10 0.191792 0.500000 0.302564
O O11 0.165672 0.252666 0.282051
O O12 0.130738 0.342042 0.438960
O O13 0.250000 0.750000 0.500000
O O14 0.292650 0.000000 0.482347
#
# Coordination Sequence:
#
# PCOD8094079 Si02
#       7
#     8   4   4   4   8   8   8
#     4  10  20  36  57  85 118 149 192 228 279 337
#     4  12  23  40  61  86 113 146 192 242 295 340
#     4  10  23  42  60  86 113 146 188 240 294 352
#     4  10  19  36  63  83 107 149 191 233 280 345
#     4  10  20  36  57  83 117 155 190 227 281 337
#     4  11  23  38  62  85 114 151 187 239 287 341
#     4   9  18  32  56  84 116 154 190 235 276 328
#
# _framework density 18.974046000000001
#
# number of rings (size 3 to 8) (size 9 to 14) (size 15 to 20)
#    0.000    1.818    3.636    0.818    1.273    0.727 
#    0.000    1.818    0.000    2.182    0.000    0.000 
#    0.000    0.000    0.000    0.000    0.000    0.000 
#
# Total GULP energy -272685.565603 kJ/mol
# GULP energy per Si atom -12394.798437 kJ/mol
# Density = 1.893086 g / cm^3
# Si number density = 18.974046 Si / 1000 Ang^3
#
#
#
# Elastic Constant Matrix: (Units=GPa)
#
#
# Indices 1 2 3 4 5 6 
#
# 1 63.6724 13.7027 21.4507 0.0000 7.1385 0.0000
# 2 13.7027 84.7311 25.3933 0.0000 -4.3045 0.0000
# 3 21.4507 25.3933 97.5286 0.0000 7.6418 0.0000
# 4 0.0000 0.0000 0.0000 19.8097 0.0000 4.6225
# 5 7.1385 -4.3045 7.6418 0.0000 20.5109 0.0000
# 6 0.0000 0.0000 0.0000 4.6225 0.0000 17.3319
#
#
#
# Elastic Compliance Matrix: (Units=1/GPa)
#
#
# Indices 1 2 3 4 5 6 
#
# 1 0.017798 -0.002301 -0.002876 0.000000 -0.005606 0.000000
# 2 -0.002301 0.013433 -0.003374 0.000000 0.004877 0.000000
# 3 -0.002876 -0.003374 0.012094 0.000000 -0.004213 0.000000
# 4 0.000000 0.000000 0.000000 0.053830 0.000000 -0.014357
# 5 -0.005606 0.004877 -0.004213 0.000000 0.053299 0.000000
# 6 0.000000 0.000000 0.000000 -0.014357 0.000000 0.061526
#
#
# Mechanical properties :
#
#
# Convention : Reuss Voigt Hill
#
# Bulk Modulus (GPa) = 38.13323 40.78059 39.45691
# Shear Modulus (GPa) = 21.02399 23.88953 22.45676
#
# Velocity S-wave (km/s) = 3.33233 3.55218 3.44401
# Velocity P-wave (km/s) = 5.91161 6.19382 6.05436
#
# Compressibility (1/GPa) = 0.02622385
#
# Stress axis : x y z
#
# Youngs Moduli (GPa) = 56.18603 74.44383 82.68243
#
# Poissons Ratio (x) = 0.17130 0.23781
# Poissons Ratio (y) = 0.12929 0.27893
# Poissons Ratio (z) = 0.16160 0.25114
#
# Static dielectric constant tensor:
#      x y z
#    x 3.213980 0.000000 0.075990 
#    y 0.000000 3.355080 0.000000 
#    z 0.075990 0.000000 3.761820 
# 
# 
# High freq. dielectric constant tensor:
#      x y z
#    x 1.719530 0.000000 0.006520 
#    y 0.000000 1.737980 0.000000 
#    z 0.006520 0.000000 1.750260 
# 
# From -- ./inp_files/245582.got.cif
#   From: 2010.06.25/outbox.cif.g09.slc.cpg/sg12_123_cif.got.tgz:245582.got - 2010.06.28 00:19:55.
