data_PCOD8094589
_publ_section_title
;
Structure prediction by ZEFSAII (Michael W. Deem and Ramdas Pophale) SiO2 
 PCOD8094589
Probable space group: C 2/M
;
_chemical_formula_sum "Si O2"
_cell_formula_units_Z 64
_cell_length_a 32.320229
_cell_length_b 9.081470
_cell_length_c 22.938452
_cell_angle_alpha 90.000000
_cell_angle_beta 151.154901
_cell_angle_gamma 90.000000
_cell_volume 3248.186502
_symmetry_space_group_name_H-M "C 2/M"
_symmetry_group_IT_number 12
_symmetry_cell_setting 'monoclinic'
loop_
_space_group_symop_operation_xyz
x,y,z
-x,y,-z
-x,-y,-z
x,-y,z
1/2+x,1/2+y,z
1/2-x,1/2+y,-z
1/2-x,1/2-y,-z
1/2+x,1/2-y,z
loop_
_atom_site_type_symbol
_atom_site_label
_atom_site_fract_x
_atom_site_fract_y
_atom_site_fract_z
Si Si1 0.117547 0.671513 0.485673
Si Si2 0.000983 0.827955 0.167602
Si Si3 0.132043 0.670012 0.920477
Si Si4 0.424693 0.831640 0.275445
Si Si5 0.752267 0.174616 0.268776
Si Si6 0.076166 0.171390 0.052050
Si Si7 0.202133 0.172890 0.804085
Si Si8 0.837829 0.327464 0.592652
O O1 0.132178 0.500000 0.517729
O O2 0.178768 0.769692 0.600365
O O3 0.137370 0.705825 0.443182
O O4 0.020676 0.721343 0.379817
O O5 0.090490 0.741486 0.276710
O O6 0.944307 0.771413 0.151002
O O7 0.020164 0.000000 0.198421
O O8 0.949983 0.792415 0.045950
O O9 0.111441 0.500000 0.911217
O O10 0.135757 0.691325 0.855638
O O11 0.220983 0.722381 0.058452
O O12 0.386391 0.741222 0.282129
O O13 0.425476 0.000000 0.295973
O O14 0.660156 0.238023 0.172638
O O15 0.778691 0.231302 0.237089
O O16 0.747318 0.000000 0.264765
O O17 0.096466 0.000000 0.086512
O O18 0.000000 0.223625 0.000000
O O19 0.190146 0.000000 0.789511
O O20 0.830450 0.500000 0.596120
O O21 0.750000 0.250000 0.500000
#
# Coordination Sequence:
#
# PCOD8094589 Si02
#       8
#     8   8   8   8   8   8   8   8
#     4  10  23  43  63  84 119 163 201 247 301 356
#     4  11  22  37  63  95 123 158 202 247 300 356
#     4  10  19  38  61  86 124 159 195 246 303 358
#     4  10  21  38  62  88 115 157 204 242 296 363
#     4  11  24  41  62  89 121 158 202 251 301 354
#     4  10  23  42  63  89 123 161 200 245 298 357
#     4  10  22  38  59  88 123 157 192 248 307 352
#     4  11  24  43  65  90 125 162 201 250 303 357
#
# _framework density 19.703301
#
# number of rings (size 3 to 8) (size 9 to 14) (size 15 to 20)
#    0.000    1.625    2.500    1.500    1.750    4.750 
#    0.000    2.500    0.000    0.000    0.000    0.000 
#    0.000    0.000    0.000    0.000    0.000    0.000 
#
# Total GULP energy -396961.393283 kJ/mol
# GULP energy per Si atom -12405.043540 kJ/mol
# Density = 1.965846 g / cm^3
# Si number density = 19.703301 Si / 1000 Ang^3
#
#
#
# Elastic Constant Matrix: (Units=GPa)
#
#
# Indices 1 2 3 4 5 6 
#
# 1 81.8516 35.3468 31.0706 0.0000 20.6164 0.0000
# 2 35.3468 67.4542 46.6703 0.0000 6.0223 0.0000
# 3 31.0706 46.6703 108.0420 0.0000 11.3185 0.0000
# 4 0.0000 0.0000 0.0000 35.5646 0.0000 4.6043
# 5 20.6164 6.0223 11.3185 0.0000 35.1558 0.0000
# 6 0.0000 0.0000 0.0000 4.6043 0.0000 35.3168
#
#
#
# Elastic Compliance Matrix: (Units=1/GPa)
#
#
# Indices 1 2 3 4 5 6 
#
# 1 0.018382 -0.008303 -0.000744 0.000000 -0.009118 0.000000
# 2 -0.008303 0.024912 -0.008731 0.000000 0.003413 0.000000
# 3 -0.000744 -0.008731 0.013494 0.000000 -0.002412 0.000000
# 4 0.000000 0.000000 0.000000 0.028601 0.000000 -0.003729
# 5 -0.009118 0.003413 -0.002412 0.000000 0.033984 0.000000
# 6 0.000000 0.000000 0.000000 -0.003729 0.000000 0.028801
#
#
# Mechanical properties :
#
#
# Convention : Reuss Voigt Hill
#
# Bulk Modulus (GPa) = 47.10126 53.72481 50.41303
# Shear Modulus (GPa) = 26.20447 30.82479 28.51463
#
# Velocity S-wave (km/s) = 3.65081 3.95960 3.80834
# Velocity P-wave (km/s) = 6.45975 6.94483 6.70668
#
# Compressibility (1/GPa) = 0.02123086
#
# Stress axis : x y z
#
# Youngs Moduli (GPa) = 54.40086 40.14146 74.10824
#
# Poissons Ratio (x) = 0.33331 0.05516
# Poissons Ratio (y) = 0.45171 0.64702
# Poissons Ratio (z) = 0.04049 0.35046
#
# Static dielectric constant tensor:
#      x y z
#    x 3.620180 0.000000 0.004180 
#    y 0.000000 3.512010 0.000000 
#    z 0.004180 0.000000 3.715850 
# 
# 
# High freq. dielectric constant tensor:
#      x y z
#    x 1.772700 0.000000 0.003610 
#    y 0.000000 1.764610 0.000000 
#    z 0.003610 0.000000 1.776220 
# 
# From -- ./inp_files/249754.got.cif
#   From: 2010.06.25/outbox.cif.g09.slc.cpg/sg12_125_cif.got.tgz:249754.got - 2010.06.28 00:19:55.
