data_PCOD8094275
_publ_section_title
;
Structure prediction by ZEFSAII (Michael W. Deem and Ramdas Pophale) SiO2 
 PCOD8094275
Probable space group: C 2/M
;
_chemical_formula_sum "Si O2"
_cell_formula_units_Z 48
_cell_length_a 16.322779
_cell_length_b 14.854242
_cell_length_c 10.709291
_cell_angle_alpha 90.000000
_cell_angle_beta 77.574589
_cell_angle_gamma 90.000000
_cell_volume 2535.781231
_symmetry_space_group_name_H-M "C 2/M"
_symmetry_group_IT_number 12
_symmetry_cell_setting 'monoclinic'
loop_
_space_group_symop_operation_xyz
x,y,z
-x,y,-z
-x,-y,-z
x,-y,z
1/2+x,1/2+y,z
1/2-x,1/2+y,-z
1/2-x,1/2-y,-z
1/2+x,1/2-y,z
loop_
_atom_site_type_symbol
_atom_site_label
_atom_site_fract_x
_atom_site_fract_y
_atom_site_fract_z
Si Si1 0.772420 0.599497 0.674848
Si Si2 0.424950 0.346927 0.861983
Si Si3 0.106905 0.895656 0.848138
Si Si4 0.326781 0.500000 0.770246
Si Si5 0.717143 0.000000 0.566767
Si Si6 0.548825 0.000000 0.776145
Si Si7 0.095595 0.640937 0.185473
Si Si8 0.659479 0.000000 0.979895
O O1 0.773404 0.500000 0.736779
O O2 0.688087 0.648840 0.753230
O O3 0.773593 0.589746 0.523301
O O4 0.856902 0.646681 0.696516
O O5 0.524670 0.352595 0.815348
O O6 0.381303 0.409253 0.771290
O O7 0.408091 0.242241 0.857958
O O8 0.390108 0.381517 0.005070
O O9 0.102541 0.000000 0.817718
O O10 0.292116 0.500000 0.641019
O O11 0.249923 0.500000 0.890040
O O12 0.625075 0.000000 0.655056
O O13 0.493603 0.909928 0.771759
O O14 0.583937 0.000000 0.904717
O O15 0.151963 0.589519 0.065160
#
# Coordination Sequence:
#
# PCOD8094275 Si02
#       8
#     8   8   8   4   4   4   8   4
#     4   9  19  38  63  80 104 154 201 230 286 329
#     4  11  22  34  59  91 123 148 183 234 300 349
#     4  10  19  37  60  85 117 152 188 235 283 353
#     4  11  21  39  56  85 117 152 200 235 285 338
#     4   9  21  41  67  74 110 164 195 251 281 314
#     4  10  21  37  59  85 118 151 194 236 288 342
#     4  11  21  36  59  89 118 149 187 239 293 357
#     4  10  21  34  56  86 120 149 186 239 294 351
#
# _framework density 18.929076999999999
#
# number of rings (size 3 to 8) (size 9 to 14) (size 15 to 20)
#    0.500    1.333    3.333    2.500    4.667    4.000 
#    3.000    2.500    3.667    0.000    0.000    0.000 
#    0.000    0.000    0.000    0.000    0.000    0.000 
#
# Total GULP energy -297457.205105 kJ/mol
# GULP energy per Si atom -12394.050213 kJ/mol
# Density = 1.888599 g / cm^3
# Si number density = 18.929077 Si / 1000 Ang^3
#
#
#
# Elastic Constant Matrix: (Units=GPa)
#
#
# Indices 1 2 3 4 5 6 
#
# 1 104.5578 27.3442 43.5847 0.0000 21.3386 0.0000
# 2 27.3442 93.7611 7.0723 0.0000 11.5859 0.0000
# 3 43.5847 7.0723 80.0087 0.0000 13.9988 0.0000
# 4 0.0000 0.0000 0.0000 4.0733 0.0000 3.4117
# 5 21.3386 11.5859 13.9988 0.0000 31.5655 0.0000
# 6 0.0000 0.0000 0.0000 3.4117 0.0000 9.4825
#
#
#
# Elastic Compliance Matrix: (Units=1/GPa)
#
#
# Indices 1 2 3 4 5 6 
#
# 1 0.014188 -0.002953 -0.006482 0.000000 -0.005633 0.000000
# 2 -0.002953 0.011793 0.001056 0.000000 -0.002801 0.000000
# 3 -0.006482 0.001056 0.016519 0.000000 -0.003332 0.000000
# 4 0.000000 0.000000 0.000000 0.351400 0.000000 -0.126432
# 5 -0.005633 -0.002801 -0.003332 0.000000 0.037993 0.000000
# 6 0.000000 0.000000 0.000000 -0.126432 0.000000 0.150948
#
#
# Mechanical properties :
#
#
# Convention : Reuss Voigt Hill
#
# Bulk Modulus (GPa) = 38.84641 48.25888 43.55265
# Shear Modulus (GPa) = 8.22124 22.37936 15.30030
#
# Velocity S-wave (km/s) = 2.08629 3.44215 2.84614
# Velocity P-wave (km/s) = 5.13518 6.43023 5.81885
#
# Compressibility (1/GPa) = 0.02574240
#
# Stress axis : x y z
#
# Youngs Moduli (GPa) = 70.48216 84.79632 60.53466
#
# Poissons Ratio (x) = 0.25038 0.39241
# Poissons Ratio (y) = 0.20812 -0.06393
# Poissons Ratio (z) = 0.45689 -0.08956
#
# Static dielectric constant tensor:
#      x y z
#    x 3.793650 0.000000 0.013000 
#    y 0.000000 3.207850 0.000000 
#    z 0.013000 0.000000 3.305400 
# 
# 
# High freq. dielectric constant tensor:
#      x y z
#    x 1.757210 0.000000 0.004410 
#    y 0.000000 1.711070 0.000000 
#    z 0.004410 0.000000 1.717120 
# 
# From -- ./inp_files/142947.got.cif
#   From: 2010.06.25/outbox.cif.g09.slc.cpg/sg12_72_cif.got.tgz:142947.got - 2010.06.28 00:19:55.
