data_PCOD8094186
_publ_section_title
;
Structure prediction by ZEFSAII (Michael W. Deem and Ramdas Pophale) SiO2 
 PCOD8094186
Probable space group: C 2/M
;
_chemical_formula_sum "Si O2"
_cell_formula_units_Z 64
_cell_length_a 15.809241
_cell_length_b 17.578518
_cell_length_c 23.069413
_cell_angle_alpha 90.000000
_cell_angle_beta 150.148893
_cell_angle_gamma 90.000000
_cell_volume 3191.090852
_symmetry_space_group_name_H-M "C 2/M"
_symmetry_group_IT_number 12
_symmetry_cell_setting 'monoclinic'
loop_
_space_group_symop_operation_xyz
x,y,z
-x,y,-z
-x,-y,-z
x,-y,z
1/2+x,1/2+y,z
1/2-x,1/2+y,-z
1/2-x,1/2-y,-z
1/2+x,1/2-y,z
loop_
_atom_site_type_symbol
_atom_site_label
_atom_site_fract_x
_atom_site_fract_y
_atom_site_fract_z
Si Si1 0.230136 0.314911 0.036879
Si Si2 0.742480 0.282359 0.819825
Si Si3 0.515716 0.085292 0.353166
Si Si4 0.058235 0.584861 0.100813
Si Si5 0.626200 0.232880 0.375523
Si Si6 0.841201 0.655189 0.442670
Si Si7 0.869135 0.123844 0.870550
Si Si8 0.457987 0.415510 0.797052
O O1 0.180664 0.277736 0.069169
O O2 0.409202 0.356973 0.151607
O O3 0.250000 0.250000 0.000000
O O4 0.081910 0.377825 0.938451
O O5 0.778908 0.359345 0.805143
O O6 0.542315 0.276440 0.705488
O O7 0.831148 0.213093 0.838897
O O8 0.587007 0.142371 0.345249
O O9 0.587683 0.117303 0.456569
O O10 0.311573 0.082227 0.228081
O O11 0.585046 0.000000 0.384009
O O12 0.104067 0.500000 0.151309
O O13 0.000000 0.578179 0.000000
O O14 0.750000 0.250000 0.500000
O O15 0.717708 0.270743 0.374718
O O16 0.730507 0.594120 0.341410
O O17 0.000000 0.683312 0.500000
O O18 0.958051 0.093354 0.866021
O O19 0.000000 0.105315 0.000000
O O20 0.520531 0.500000 0.818602
#
# Coordination Sequence:
#
# PCOD8094186 Si02
#       8
#     8   8   8   8   8   8   8   8
#     4  11  21  36  56  82 116 152 192 231 284 344
#     4  10  19  37  57  80 109 147 197 228 276 340
#     4  10  21  37  61  86 117 153 190 243 295 343
#     4   9  18  33  54  79 112 145 182 232 284 334
#     4   9  20  38  58  86 112 148 195 233 281 356
#     4  11  21  39  61  88 118 149 189 244 303 352
#     4  11  22  37  56  83 115 158 200 232 282 358
#     4  12  24  36  58  89 121 150 188 246 304 347
#
# _framework density 20.055837
#
# number of rings (size 3 to 8) (size 9 to 14) (size 15 to 20)
#    0.000    1.625    2.500    3.750    0.000    2.000 
#    0.000    0.625    0.000    1.125    0.000    0.000 
#    0.000    0.000    0.000    0.000    0.000    0.000 
#
# Total GULP energy -396545.941049 kJ/mol
# GULP energy per Si atom -12392.060658 kJ/mol
# Density = 2.001019 g / cm^3
# Si number density = 20.055837 Si / 1000 Ang^3
#
#
#
# Elastic Constant Matrix: (Units=GPa)
#
#
# Indices 1 2 3 4 5 6 
#
# 1 60.8823 49.1433 26.7652 0.0010 13.9373 0.0002
# 2 49.1433 166.1796 38.2250 -0.0027 20.4837 -0.0003
# 3 26.7652 38.2250 98.3171 -0.0003 8.0231 0.0000
# 4 0.0010 -0.0027 -0.0003 19.2092 -0.0008 6.3877
# 5 13.9373 20.4837 8.0231 -0.0008 32.7527 0.0000
# 6 0.0002 -0.0003 0.0000 6.3877 0.0000 22.1286
#
#
#
# Elastic Compliance Matrix: (Units=1/GPa)
#
#
# Indices 1 2 3 4 5 6 
#
# 1 0.023863 -0.005444 -0.003907 -0.000002 -0.005793 0.000000
# 2 -0.005444 0.008288 -0.001537 0.000001 -0.002490 0.000000
# 3 -0.003907 -0.001537 0.011855 0.000000 -0.000280 0.000000
# 4 -0.000002 0.000001 0.000000 0.057586 0.000001 -0.016623
# 5 -0.005793 -0.002490 -0.000280 0.000001 0.034623 0.000000
# 6 0.000000 0.000000 0.000000 -0.016623 0.000000 0.049989
#
#
# Mechanical properties :
#
#
# Convention : Reuss Voigt Hill
#
# Bulk Modulus (GPa) = 44.98410 61.51623 53.25016
# Shear Modulus (GPa) = 23.21360 28.90113 26.05736
#
# Velocity S-wave (km/s) = 3.40582 3.80021 3.60841
# Velocity P-wave (km/s) = 6.15989 7.07068 6.63094
#
# Compressibility (1/GPa) = 0.02223008
#
# Stress axis : x y z
#
# Youngs Moduli (GPa) = 41.90535 120.65514 84.35092
#
# Poissons Ratio (x) = 0.65688 0.32956
# Poissons Ratio (y) = 0.22814 0.12965
# Poissons Ratio (z) = 0.16372 0.18545
#
# Static dielectric constant tensor:
#      x y z
#    x 3.841950 -0.000030 0.205490 
#    y -0.000030 4.594310 0.000020 
#    z 0.205490 0.000020 3.644720 
# 
# 
# High freq. dielectric constant tensor:
#      x y z
#    x 1.761420 0.000000 0.018200 
#    y 0.000000 1.788150 0.000000 
#    z 0.018200 0.000000 1.781000 
# 
# From -- ./inp_files/340848.got.cif
#   From: 2010.06.25/outbox.cif.g09.slc.cpg/sg12_171_cif.got.tgz:340848.got - 2010.06.28 00:19:55.
