data_PCOD8094393
_publ_section_title
;
Structure prediction by ZEFSAII (Michael W. Deem and Ramdas Pophale) SiO2 
 PCOD8094393
Probable space group: C 2/M
;
_chemical_formula_sum "Si O2"
_cell_formula_units_Z 56
_cell_length_a 15.208621
_cell_length_b 8.590938
_cell_length_c 21.754154
_cell_angle_alpha 90.000000
_cell_angle_beta 77.960622
_cell_angle_gamma 90.000000
_cell_volume 2779.799444
_symmetry_space_group_name_H-M "C 2/M"
_symmetry_group_IT_number 12
_symmetry_cell_setting 'monoclinic'
loop_
_space_group_symop_operation_xyz
x,y,z
-x,y,-z
-x,-y,-z
x,-y,z
1/2+x,1/2+y,z
1/2-x,1/2+y,-z
1/2-x,1/2-y,-z
1/2+x,1/2-y,z
loop_
_atom_site_type_symbol
_atom_site_label
_atom_site_fract_x
_atom_site_fract_y
_atom_site_fract_z
Si Si1 0.864759 0.317839 0.123449
Si Si2 0.041280 0.817874 0.138862
Si Si3 0.847737 0.183665 0.997571
Si Si4 0.701121 0.683779 0.566365
Si Si5 0.487912 0.816028 0.431515
Si Si6 0.328409 0.815489 0.654474
Si Si7 0.185885 0.316317 0.205057
O O1 0.844638 0.500000 0.128560
O O2 0.775788 0.227664 0.156348
O O3 0.947024 0.273787 0.156035
O O4 0.890724 0.263836 0.051038
O O5 0.091296 0.771357 0.068984
O O6 0.100385 0.767872 0.188060
O O7 0.021045 0.000000 0.145078
O O8 0.843173 0.000000 0.008490
O O9 0.750000 0.250000 0.000000
O O10 0.707922 0.500000 0.562066
O O11 0.750000 0.750000 0.500000
O O12 0.598387 0.735649 0.585688
O O13 0.752028 0.748398 0.619503
O O14 0.500000 0.762821 0.500000
O O15 0.573849 0.755469 0.381095
O O16 0.474868 0.000000 0.429308
O O17 0.307063 0.755707 0.725996
O O18 0.328628 0.000000 0.652417
O O19 0.170858 0.500000 0.203409
#
# Coordination Sequence:
#
# PCOD8094393 Si02
#       7
#     8   8   8   8   8   8   8
#     4  12  25  41  63  92 126 165 211 256 304 365
#     4  11  24  42  64  92 125 161 206 257 311 368
#     4  11  22  38  64  94 126 160 203 258 316 367
#     4  11  21  37  60  90 122 154 197 244 299 359
#     4  10  19  37  62  87 120 156 191 241 304 361
#     4   9  21  40  61  87 122 161 198 244 306 367
#     4  11  23  42  65  88 122 165 208 254 307 367
#
# _framework density 20.145337999999999
#
# number of rings (size 3 to 8) (size 9 to 14) (size 15 to 20)
#    0.000    1.286    2.857    3.429    0.000    4.857 
#    0.000    7.143    0.000    0.000    0.000    0.000 
#    0.000    0.000    0.000    0.000    0.000    0.000 
#
# Total GULP energy -347342.579847 kJ/mol
# GULP energy per Si atom -12405.092137 kJ/mol
# Density = 2.009949 g / cm^3
# Si number density = 20.145338 Si / 1000 Ang^3
#
#
#
# Elastic Constant Matrix: (Units=GPa)
#
#
# Indices 1 2 3 4 5 6 
#
# 1 127.3948 18.9554 35.6416 0.0000 27.9939 0.0000
# 2 18.9554 38.6402 25.9932 0.0000 -3.9149 0.0000
# 3 35.6416 25.9932 118.0886 0.0000 23.6444 0.0000
# 4 0.0000 0.0000 0.0000 20.7795 0.0000 5.4438
# 5 27.9939 -3.9149 23.6444 0.0000 27.0753 0.0000
# 6 0.0000 0.0000 0.0000 5.4438 0.0000 36.3405
#
#
#
# Elastic Compliance Matrix: (Units=1/GPa)
#
#
# Indices 1 2 3 4 5 6 
#
# 1 0.011908 -0.008004 0.001048 0.000000 -0.014385 0.000000
# 2 -0.008004 0.039631 -0.011043 0.000000 0.023650 0.000000
# 3 0.001048 -0.011043 0.013476 0.000000 -0.014448 0.000000
# 4 0.000000 0.000000 0.000000 0.050090 0.000000 -0.007504
# 5 -0.014385 0.023650 -0.014448 0.000000 0.067844 0.000000
# 6 0.000000 0.000000 0.000000 -0.007504 0.000000 0.028642
#
#
# Mechanical properties :
#
#
# Convention : Reuss Voigt Hill
#
# Bulk Modulus (GPa) = 34.46302 49.47823 41.97062
# Shear Modulus (GPa) = 19.43548 30.40792 24.92170
#
# Velocity S-wave (km/s) = 3.10943 3.88935 3.52105
# Velocity P-wave (km/s) = 5.48049 6.69204 6.11633
#
# Compressibility (1/GPa) = 0.02901661
#
# Stress axis : x y z
#
# Youngs Moduli (GPa) = 83.97460 25.23274 74.20822
#
# Poissons Ratio (x) = 0.20197 -0.07776
# Poissons Ratio (y) = 0.67214 0.81948
# Poissons Ratio (z) = -0.08799 0.27864
#
# Static dielectric constant tensor:
#      x y z
#    x 3.925820 0.000000 0.138650 
#    y 0.000000 3.535540 0.000000 
#    z 0.138650 0.000000 3.892960 
# 
# 
# High freq. dielectric constant tensor:
#      x y z
#    x 1.802660 0.000000 0.007490 
#    y 0.000000 1.778640 0.000000 
#    z 0.007490 0.000000 1.786210 
# 
# From -- ./inp_files/309028.got.cif
#   From: 2010.06.25/outbox.cif.g09.slc.cpg/sg12_155_cif.got.tgz:309028.got - 2010.06.28 00:19:55.
