data_PCOD8094090
_publ_section_title
;
Structure prediction by ZEFSAII (Michael W. Deem and Ramdas Pophale) SiO2 
 PCOD8094090
Probable space group: C 2/M
;
_chemical_formula_sum "Si O2"
_cell_formula_units_Z 64
_cell_length_a 17.986895
_cell_length_b 32.975039
_cell_length_c 11.344816
_cell_angle_alpha 90.000000
_cell_angle_beta 151.719836
_cell_angle_gamma 90.000000
_cell_volume 3188.003386
_symmetry_space_group_name_H-M "C 2/M"
_symmetry_group_IT_number 12
_symmetry_cell_setting 'monoclinic'
loop_
_space_group_symop_operation_xyz
x,y,z
-x,y,-z
-x,-y,-z
x,-y,z
1/2+x,1/2+y,z
1/2-x,1/2+y,-z
1/2-x,1/2-y,-z
1/2+x,1/2-y,z
loop_
_atom_site_type_symbol
_atom_site_label
_atom_site_fract_x
_atom_site_fract_y
_atom_site_fract_z
Si Si1 0.057799 0.312653 0.446756
Si Si2 0.346366 0.891926 0.340563
Si Si3 0.816446 0.547183 0.717924
Si Si4 0.229941 0.310125 0.111842
Si Si5 0.130598 0.115498 0.582478
Si Si6 0.100937 0.164972 0.871819
Si Si7 0.315131 0.454346 0.723600
Si Si8 0.357389 0.267686 0.884424
O O1 0.086069 0.360641 0.469519
O O2 0.217998 0.291848 0.626886
O O3 0.000000 0.301959 0.500000
O O4 0.931921 0.300022 0.176903
O O5 0.500000 0.913363 0.500000
O O6 0.245412 0.926656 0.256357
O O7 0.248356 0.863805 0.111389
O O8 0.779428 0.500000 0.690500
O O9 0.714108 0.573478 0.665984
O O10 0.757241 0.559059 0.503531
O O11 0.000000 0.556172 0.000000
O O12 0.235623 0.352725 0.189498
O O13 0.369404 0.312184 0.210891
O O14 0.241764 0.271337 0.211701
O O15 0.000000 0.106137 0.500000
O O16 0.048882 0.135709 0.353174
O O17 0.068338 0.201227 0.916715
O O18 0.259460 0.500000 0.670084
O O19 0.500000 0.450493 0.000000
O O20 0.500000 0.254332 0.000000
#
# Coordination Sequence:
#
# PCOD8094090 Si02
#       8
#     8   8   8   8   8   8   8   8
#     4  10  21  39  63  84 112 162 198 241 308 363
#     4  10  19  36  63  90 115 153 200 247 294 353
#     4  10  23  43  63  91 132 170 198 240 313 379
#     4  11  22  41  61  84 119 161 202 247 302 368
#     4  10  24  39  65  94 116 156 212 255 294 358
#     4  10  21  42  62  87 120 161 197 248 309 369
#     4  10  22  39  62  91 124 161 198 242 301 365
#     4  11  25  39  59  90 119 153 204 258 301 351
#
# _framework density 20.07526
#
# number of rings (size 3 to 8) (size 9 to 14) (size 15 to 20)
#    0.000    1.750    3.750    1.125    3.500    6.000 
#    0.000    0.000    0.000    5.250    0.000    0.000 
#    0.000    0.000    0.000    0.000    0.000    0.000 
#
# Total GULP energy -396476.610896 kJ/mol
# GULP energy per Si atom -12389.894091 kJ/mol
# Density = 2.002957 g / cm^3
# Si number density = 20.075260 Si / 1000 Ang^3
#
#
#
# Elastic Constant Matrix: (Units=GPa)
#
#
# Indices 1 2 3 4 5 6 
#
# 1 78.4225 63.7047 28.1092 0.0000 10.7263 0.0000
# 2 63.7047 108.5139 24.6166 0.0000 13.3621 0.0000
# 3 28.1092 24.6166 86.0475 0.0000 -0.2931 0.0000
# 4 0.0000 0.0000 0.0000 18.0932 0.0000 10.3668
# 5 10.7263 13.3621 -0.2931 0.0000 28.1257 0.0000
# 6 0.0000 0.0000 0.0000 10.3668 0.0000 33.6324
#
#
#
# Elastic Compliance Matrix: (Units=1/GPa)
#
#
# Indices 1 2 3 4 5 6 
#
# 1 0.026141 -0.013887 -0.004578 0.000000 -0.003420 0.000000
# 2 -0.013887 0.017898 -0.000595 0.000000 -0.003214 0.000000
# 3 -0.004578 -0.000595 0.013295 0.000000 0.002167 0.000000
# 4 0.000000 0.000000 0.000000 0.067124 0.000000 -0.020690
# 5 -0.003420 -0.003214 0.002167 0.000000 0.038408 0.000000
# 6 0.000000 0.000000 0.000000 -0.020690 0.000000 0.036111
#
#
# Mechanical properties :
#
#
# Convention : Reuss Voigt Hill
#
# Bulk Modulus (GPa) = 52.04559 56.20497 54.12528
# Shear Modulus (GPa) = 20.53376 26.40715 23.47045
#
# Velocity S-wave (km/s) = 3.20165 3.63079 3.42295
# Velocity P-wave (km/s) = 6.29674 6.75535 6.53007
#
# Compressibility (1/GPa) = 0.01921392
#
# Stress axis : x y z
#
# Youngs Moduli (GPa) = 38.25463 55.87082 75.21797
#
# Poissons Ratio (x) = 0.77585 0.34437
# Poissons Ratio (y) = 0.53123 0.04476
# Poissons Ratio (z) = 0.17514 0.03324
#
# Static dielectric constant tensor:
#      x y z
#    x 3.379450 0.000000 -0.044630 
#    y 0.000000 3.646740 0.000000 
#    z -0.044630 0.000000 3.931530 
# 
# 
# High freq. dielectric constant tensor:
#      x y z
#    x 1.754270 0.000000 0.000730 
#    y 0.000000 1.785540 0.000000 
#    z 0.000730 0.000000 1.801940 
# 
# From -- ./inp_files/161237.got.cif
#   From: 2010.06.25/outbox.cif.g09.slc.cpg/sg12_81_cif.got.tgz:161237.got - 2010.06.28 00:19:55.
