data_PCOD8094665
_publ_section_title
;
Structure prediction by ZEFSAII (Michael W. Deem and Ramdas Pophale) SiO2 
 PCOD8094665
Probable space group: C 2/M
;
_chemical_formula_sum "Si O2"
_cell_formula_units_Z 48
_cell_length_a 20.335520
_cell_length_b 8.834923
_cell_length_c 15.002816
_cell_angle_alpha 90.000000
_cell_angle_beta 111.751775
_cell_angle_gamma 90.000000
_cell_volume 2503.526193
_symmetry_space_group_name_H-M "C 2/M"
_symmetry_group_IT_number 12
_symmetry_cell_setting 'monoclinic'
loop_
_space_group_symop_operation_xyz
x,y,z
-x,y,-z
-x,-y,-z
x,-y,z
1/2+x,1/2+y,z
1/2-x,1/2+y,-z
1/2-x,1/2-y,-z
1/2+x,1/2-y,z
loop_
_atom_site_type_symbol
_atom_site_label
_atom_site_fract_x
_atom_site_fract_y
_atom_site_fract_z
Si Si1 0.583148 0.678332 0.315099
Si Si2 0.423551 0.821928 0.985843
Si Si3 0.678295 0.821190 0.218366
Si Si4 0.063770 0.677409 0.809067
Si Si5 0.327698 0.174386 0.287208
Si Si6 0.074242 0.674361 0.497004
O O1 0.585626 0.500000 0.308853
O O2 0.648126 0.745787 0.292147
O O3 0.509529 0.736709 0.239247
O O4 0.594155 0.725620 0.422557
O O5 0.364134 0.757284 0.889204
O O6 0.427684 0.000000 0.973865
O O7 0.500000 0.750447 0.000000
O O8 0.403823 0.782062 0.077900
O O9 0.759598 0.778734 0.247237
O O10 0.670905 0.000000 0.223913
O O11 0.047218 0.500000 0.791249
O O12 0.119014 0.731330 0.762617
O O13 0.363952 0.196627 0.400703
O O14 0.306706 0.000000 0.260893
O O15 0.066384 0.500000 0.463294
O O16 0.000000 0.731643 0.500000
#
# Coordination Sequence:
#
# PCOD8094665 Si02
#       6
#     8   8   8   8   8   8
#     4  12  24  37  59  91 122 153 197 250 298 345
#     4   9  17  33  62  90 113 151 205 245 282 348
#     4  11  23  40  61  86 121 161 198 242 297 354
#     4  10  19  38  64  88 117 158 201 240 291 354
#     4  10  22  39  61  89 122 154 192 244 298 353
#     4  10  20  39  65  89 114 156 202 238 290 356
#
# _framework density 19.172957
#
# number of rings (size 3 to 8) (size 9 to 14) (size 15 to 20)
#    0.000    1.667    3.333    2.000    0.000    3.000 
#    0.000    2.500    0.000    0.000    0.000    0.000 
#    0.000    0.000    0.000    0.000    0.000    0.000 
#
# Total GULP energy -297682.931015 kJ/mol
# GULP energy per Si atom -12403.455459 kJ/mol
# Density = 1.912932 g / cm^3
# Si number density = 19.172957 Si / 1000 Ang^3
#
#
#
# Elastic Constant Matrix: (Units=GPa)
#
#
# Indices 1 2 3 4 5 6 
#
# 1 86.2186 31.1773 24.3653 0.0000 1.4889 0.0000
# 2 31.1773 69.3417 25.7338 0.0000 -3.6941 0.0000
# 3 24.3653 25.7338 93.4786 0.0000 -1.4656 0.0000
# 4 0.0000 0.0000 0.0000 9.8059 0.0000 8.9696
# 5 1.4889 -3.6941 -1.4656 0.0000 32.9315 0.0000
# 6 0.0000 0.0000 0.0000 8.9696 0.0000 30.6464
#
#
#
# Elastic Compliance Matrix: (Units=1/GPa)
#
#
# Indices 1 2 3 4 5 6 
#
# 1 0.014297 -0.005692 -0.002181 0.000000 -0.001382 0.000000
# 2 -0.005692 0.018414 -0.003552 0.000000 0.002165 0.000000
# 3 -0.002181 -0.003552 0.012248 0.000000 0.000245 0.000000
# 4 0.000000 0.000000 0.000000 0.139262 0.000000 -0.040759
# 5 -0.001382 0.002165 0.000245 0.000000 0.030682 0.000000
# 6 0.000000 0.000000 0.000000 -0.040759 0.000000 0.044560
#
#
# Mechanical properties :
#
#
# Convention : Reuss Voigt Hill
#
# Bulk Modulus (GPa) = 45.23112 45.73244 45.48178
# Shear Modulus (GPa) = 17.26026 25.86093 21.56060
#
# Velocity S-wave (km/s) = 3.00365 3.67662 3.35704
# Velocity P-wave (km/s) = 5.97257 6.47516 6.22894
#
# Compressibility (1/GPa) = 0.02210867
#
# Stress axis : x y z
#
# Youngs Moduli (GPa) = 69.94424 54.30616 81.64784
#
# Poissons Ratio (x) = 0.30913 0.17809
# Poissons Ratio (y) = 0.39815 0.28998
# Poissons Ratio (z) = 0.15256 0.19287
#
# Static dielectric constant tensor:
#      x y z
#    x 3.501940 0.000000 -0.106300 
#    y 0.000000 3.257150 0.000000 
#    z -0.106300 0.000000 3.748190 
# 
# 
# High freq. dielectric constant tensor:
#      x y z
#    x 1.746150 0.000000 -0.006670 
#    y 0.000000 1.722040 0.000000 
#    z -0.006670 0.000000 1.762200 
# 
# From -- ./inp_files/230458.got.cif
#   From: 2010.06.25/outbox.cif.g09.slc.cpg/sg12_116_cif.got.tgz:230458.got - 2010.06.28 00:19:55.
