data_PCOD8094642
_publ_section_title
;
Structure prediction by ZEFSAII (Michael W. Deem and Ramdas Pophale) SiO2 
 PCOD8094642
Probable space group: C 2/M
;
_chemical_formula_sum "Si O2"
_cell_formula_units_Z 56
_cell_length_a 11.072291
_cell_length_b 15.017328
_cell_length_c 17.012256
_cell_angle_alpha 90.000000
_cell_angle_beta 71.417500
_cell_angle_gamma 90.000000
_cell_volume 2681.259910
_symmetry_space_group_name_H-M "C 2/M"
_symmetry_group_IT_number 12
_symmetry_cell_setting 'monoclinic'
loop_
_space_group_symop_operation_xyz
x,y,z
-x,y,-z
-x,-y,-z
x,-y,z
1/2+x,1/2+y,z
1/2-x,1/2+y,-z
1/2-x,1/2-y,-z
1/2+x,1/2-y,z
loop_
_atom_site_type_symbol
_atom_site_label
_atom_site_fract_x
_atom_site_fract_y
_atom_site_fract_z
Si Si1 0.716750 0.400217 0.309725
Si Si2 0.735888 0.400350 0.662669
Si Si3 0.569156 0.715835 0.907574
Si Si4 0.975997 0.177971 0.758168
Si Si5 0.557652 0.096936 0.847592
Si Si6 0.668525 0.852337 0.196849
Si Si7 0.648816 0.250494 0.449857
O O1 0.709855 0.500000 0.346515
O O2 0.621654 0.395462 0.254326
O O3 0.856074 0.379338 0.246204
O O4 0.685997 0.330126 0.383649
O O5 0.714497 0.500000 0.632658
O O6 0.608716 0.340007 0.685988
O O7 0.780980 0.412491 0.742875
O O8 0.841130 0.347125 0.591353
O O9 0.494035 0.674078 0.848715
O O10 0.568655 0.823845 0.907938
O O11 0.715136 0.686442 0.878196
O O12 0.500000 0.680715 0.000000
O O13 0.917692 0.273601 0.747643
O O14 0.413750 0.089065 0.845637
O O15 0.594657 0.000000 0.876480
O O16 0.500000 0.265259 0.500000
O O17 0.750000 0.250000 0.500000
#
# Coordination Sequence:
#
# PCOD8094642 Si02
#       7
#     8   8   8   8   8   8   8
#     4  11  22  42  68  92 122 168 217 263 313 385
#     4  11  23  40  66  92 123 165 213 260 310 380
#     4  10  21  36  62  89 128 169 209 256 326 380
#     4  10  19  38  65  92 121 163 219 262 305 372
#     4  10  21  36  60  90 121 159 213 263 306 367
#     4  10  19  38  63  87 119 164 216 253 311 370
#     4  12  27  43  65  96 137 170 207 269 336 396
#
# _framework density 20.885704
#
# number of rings (size 3 to 8) (size 9 to 14) (size 15 to 20)
#    0.000    1.429    2.857    3.429    2.000    3.714 
#    0.000    0.000    0.000   14.571    0.000    0.000 
#    0.000    0.000    0.000    0.000    0.000    0.000 
#
# Total GULP energy -347058.702932 kJ/mol
# GULP energy per Si atom -12394.953676 kJ/mol
# Density = 2.083817 g / cm^3
# Si number density = 20.885704 Si / 1000 Ang^3
#
#
#
# Elastic Constant Matrix: (Units=GPa)
#
#
# Indices 1 2 3 4 5 6 
#
# 1 121.8521 27.2290 43.3623 0.0000 -8.7157 0.0000
# 2 27.2290 101.9509 46.3439 0.0000 -9.4182 0.0000
# 3 43.3623 46.3439 88.8828 0.0000 -3.5290 0.0000
# 4 0.0000 0.0000 0.0000 17.6168 0.0000 2.7747
# 5 -8.7157 -9.4182 -3.5290 0.0000 23.9216 0.0000
# 6 0.0000 0.0000 0.0000 2.7747 0.0000 18.8224
#
#
#
# Elastic Compliance Matrix: (Units=1/GPa)
#
#
# Indices 1 2 3 4 5 6 
#
# 1 0.010146 -0.000322 -0.004667 0.000000 0.002881 0.000000
# 2 -0.000322 0.013278 -0.006602 0.000000 0.004136 0.000000
# 3 -0.004667 -0.006602 0.016898 0.000000 -0.001807 0.000000
# 4 0.000000 0.000000 0.000000 0.058113 0.000000 -0.008567
# 5 0.002881 0.004136 -0.001807 0.000000 0.044215 0.000000
# 6 0.000000 0.000000 0.000000 -0.008567 0.000000 0.054391
#
#
# Mechanical properties :
#
#
# Convention : Reuss Voigt Hill
#
# Bulk Modulus (GPa) = 58.34489 60.72845 59.53667
# Shear Modulus (GPa) = 22.13015 25.12221 23.62618
#
# Velocity S-wave (km/s) = 3.25866 3.47196 3.36700
# Velocity P-wave (km/s) = 6.49264 6.72402 6.60934
#
# Compressibility (1/GPa) = 0.01713946
#
# Stress axis : x y z
#
# Youngs Moduli (GPa) = 98.56460 75.31418 59.17756
#
# Poissons Ratio (x) = 0.02424 0.27621
# Poissons Ratio (y) = 0.03172 0.39068
# Poissons Ratio (z) = 0.46004 0.49721
#
# Static dielectric constant tensor:
#      x y z
#    x 4.071940 0.000000 -0.068730 
#    y 0.000000 3.714870 0.000000 
#    z -0.068730 0.000000 3.466660 
# 
# 
# High freq. dielectric constant tensor:
#      x y z
#    x 1.833520 0.000000 -0.008030 
#    y 0.000000 1.817790 0.000000 
#    z -0.008030 0.000000 1.789230 
# 
# From -- ./inp_files/262835.got.cif
#   From: 2010.06.25/outbox.cif.g09.slc.cpg/sg12_132_cif.got.tgz:262835.got - 2010.06.28 00:19:55.
