data_PCOD8094027
_publ_section_title
;
Structure prediction by ZEFSAII (Michael W. Deem and Ramdas Pophale) SiO2 
 PCOD8094027
Probable space group: C 2/M
;
_chemical_formula_sum "Si O2"
_cell_formula_units_Z 64
_cell_length_a 19.072945
_cell_length_b 8.852308
_cell_length_c 32.165928
_cell_angle_alpha 90.000000
_cell_angle_beta 37.358909
_cell_angle_gamma 90.000000
_cell_volume 3295.491448
_symmetry_space_group_name_H-M "C 2/M"
_symmetry_group_IT_number 12
_symmetry_cell_setting 'monoclinic'
loop_
_space_group_symop_operation_xyz
x,y,z
-x,y,-z
-x,-y,-z
x,-y,z
1/2+x,1/2+y,z
1/2-x,1/2+y,-z
1/2-x,1/2-y,-z
1/2+x,1/2-y,z
loop_
_atom_site_type_symbol
_atom_site_label
_atom_site_fract_x
_atom_site_fract_y
_atom_site_fract_z
Si Si1 0.176053 0.321124 0.317114
Si Si2 0.791537 0.677534 0.417157
Si Si3 0.915622 0.322116 0.442506
Si Si4 0.644546 0.324690 0.698929
Si Si5 0.619742 0.675802 0.173917
Si Si6 0.476857 0.326915 0.058698
Si Si7 0.229463 0.319056 0.199585
Si Si8 0.281059 0.680579 0.028588
O O1 0.185348 0.500000 0.311705
O O2 0.268005 0.257531 0.307361
O O3 0.203376 0.260492 0.258174
O O4 0.046534 0.269183 0.389786
O O5 0.782422 0.500000 0.417858
O O6 0.878327 0.725961 0.413402
O O7 0.664045 0.741786 0.485919
O O8 0.839406 0.739999 0.351756
O O9 0.901616 0.500000 0.454821
O O10 0.671170 0.500000 0.678660
O O11 0.513657 0.300310 0.776260
O O12 0.652441 0.500000 0.158685
O O13 0.638306 0.745413 0.210912
O O14 0.698942 0.761507 0.103666
O O15 0.465920 0.500000 0.076788
O O16 0.356224 0.251876 0.128825
O O17 0.500000 0.304355 0.000000
O O18 0.588502 0.257153 0.028143
O O19 0.220339 0.500000 0.199539
O O20 0.275687 0.500000 0.031582
O O21 0.250000 0.750000 0.000000
#
# Coordination Sequence:
#
# PCOD8094027 Si02
#       8
#     8   8   8   8   8   8   8   8
#     4   9  19  35  58  83 105 144 195 233 266 321
#     4  10  20  35  58  86 112 143 180 225 281 332
#     4   9  18  35  58  83 109 141 186 230 270 324
#     4  10  22  38  56  80 113 151 189 228 273 329
#     4  11  23  38  57  83 115 150 186 230 286 338
#     4   9  17  33  58  85 107 141 190 231 274 330
#     4  10  19  36  62  83 107 145 192 238 275 327
#     4  11  23  39  60  85 114 149 189 233 284 338
#
# _framework density 19.420472
#
# number of rings (size 3 to 8) (size 9 to 14) (size 15 to 20)
#    0.000    2.125    1.250    1.875    1.750    3.000 
#    0.000    6.250    0.000    0.000    0.000    0.000 
#    0.000    0.000    0.000    0.000    0.000    0.000 
#
# Total GULP energy -396742.743075 kJ/mol
# GULP energy per Si atom -12398.210721 kJ/mol
# Density = 1.937627 g / cm^3
# Si number density = 19.420472 Si / 1000 Ang^3
#
#
#
# Elastic Constant Matrix: (Units=GPa)
#
#
# Indices 1 2 3 4 5 6 
#
# 1 122.5283 28.7192 34.0971 0.0064 -16.4413 0.0370
# 2 28.7192 51.1286 27.9548 0.0072 -3.3778 0.0007
# 3 34.0971 27.9548 82.6305 0.0011 -13.8927 0.0037
# 4 0.0064 0.0072 0.0011 24.4686 -0.0012 0.7846
# 5 -16.4413 -3.3778 -13.8927 -0.0012 38.8190 0.0049
# 6 0.0370 0.0007 0.0037 0.7846 0.0049 25.2539
#
#
#
# Elastic Compliance Matrix: (Units=1/GPa)
#
#
# Indices 1 2 3 4 5 6 
#
# 1 0.010215 -0.004312 -0.002226 -0.000001 0.003155 -0.000015
# 2 -0.004312 0.025846 -0.007335 -0.000007 -0.002202 0.000007
# 3 -0.002226 -0.007335 0.016212 0.000002 0.004221 0.000000
# 4 -0.000001 -0.000007 0.000002 0.040909 0.000001 -0.001271
# 5 0.003155 -0.002202 0.004221 0.000001 0.028416 -0.000011
# 6 -0.000015 0.000007 0.000000 -0.001271 -0.000011 0.039637
#
#
# Mechanical properties :
#
#
# Convention : Reuss Voigt Hill
#
# Bulk Modulus (GPa) = 40.77249 48.64774 44.71012
# Shear Modulus (GPa) = 25.36068 28.74272 27.05170
#
# Velocity S-wave (km/s) = 3.61761 3.85128 3.73627
# Velocity P-wave (km/s) = 6.20400 6.69930 6.45640
#
# Compressibility (1/GPa) = 0.02452634
#
# Stress axis : x y z
#
# Youngs Moduli (GPa) = 97.89675 38.69132 61.68421
#
# Poissons Ratio (x) = 0.16685 0.13730
# Poissons Ratio (y) = 0.42217 0.45243
# Poissons Ratio (z) = 0.21790 0.28379
#
# Static dielectric constant tensor:
#      x y z
#    x 3.843300 -0.000060 -0.142880 
#    y -0.000060 3.293440 0.000040 
#    z -0.142880 0.000040 3.649050 
# 
# 
# High freq. dielectric constant tensor:
#      x y z
#    x 1.765790 0.000000 -0.007560 
#    y 0.000000 1.726630 0.000000 
#    z -0.007560 0.000000 1.768750 
# 
# From -- ./inp_files/378078.got.cif
#   From: 2010.06.25/outbox.cif.g09.slc.cpg/sg12_190_cif.got.tgz:378078.got - 2010.06.28 00:19:55.
