data_PCOD8094445
_publ_section_title
;
Structure prediction by ZEFSAII (Michael W. Deem and Ramdas Pophale) SiO2 
 PCOD8094445
Probable space group: C 2/M
;
_chemical_formula_sum "Si O2"
_cell_formula_units_Z 52
_cell_length_a 23.705011
_cell_length_b 15.575920
_cell_length_c 17.171240
_cell_angle_alpha 90.000000
_cell_angle_beta 21.382752
_cell_angle_gamma 90.000000
_cell_volume 2311.575104
_symmetry_space_group_name_H-M "C 2/M"
_symmetry_group_IT_number 12
_symmetry_cell_setting 'monoclinic'
loop_
_space_group_symop_operation_xyz
x,y,z
-x,y,-z
-x,-y,-z
x,-y,z
1/2+x,1/2+y,z
1/2-x,1/2+y,-z
1/2-x,1/2-y,-z
1/2+x,1/2-y,z
loop_
_atom_site_type_symbol
_atom_site_label
_atom_site_fract_x
_atom_site_fract_y
_atom_site_fract_z
Si Si1 0.750872 0.841876 0.426069
Si Si2 0.432084 0.000000 0.715352
Si Si3 0.710739 0.500000 0.721647
Si Si4 0.591979 0.857678 0.131191
Si Si5 0.160665 0.000000 0.959835
Si Si6 0.168450 0.267472 0.813437
Si Si7 0.167280 0.096843 0.306772
Si Si8 0.556371 0.316608 0.111879
O O1 0.835495 0.920150 0.272661
O O2 0.584859 0.871826 0.673595
O O3 0.725769 0.773528 0.389416
O O4 0.869226 0.806967 0.340109
O O5 0.385257 0.089965 0.818361
O O6 0.614293 0.000000 0.472336
O O7 0.344091 0.000000 0.745651
O O8 0.618178 0.500000 0.922443
O O9 0.610236 0.752595 0.109102
O O10 0.713772 0.899595 0.917134
O O11 0.090500 0.914834 0.091405
O O12 0.262337 0.352752 0.711611
O O13 0.150338 0.205345 0.911801
O O14 0.000000 0.293596 0.000000
O O15 0.000000 0.136668 0.500000
O O16 0.143579 0.000000 0.365368
#
# Coordination Sequence:
#
# PCOD8094445 Si02
#       8
#     8   4   4   8   4   8   8   8
#     4  10  19  37  63  89 120 151 196 247 306 364
#     4  10  23  40  59  82 120 160 209 249 288 358
#     4  10  20  36  59  90 119 161 190 244 305 358
#     4  10  21  42  61  84 116 160 201 250 303 352
#     4  12  22  38  55  90 128 157 202 237 300 366
#     4   9  19  37  60  91 120 154 197 243 303 368
#     4  10  21  41  63  83 114 159 207 255 304 359
#     4  10  21  36  61  89 122 158 193 245 301 366
#
# _framework density 22.495484000000001
#
# number of rings (size 3 to 8) (size 9 to 14) (size 15 to 20)
#    0.000    2.000    2.308    1.154    0.000    1.538 
#   13.846    0.000    0.000    0.000    0.000    0.000 
#    0.000    0.000    0.000    0.000    0.000    0.000 
#
# Total GULP energy -322209.933307 kJ/mol
# GULP energy per Si atom -12392.689743 kJ/mol
# Density = 2.244428 g / cm^3
# Si number density = 22.495484 Si / 1000 Ang^3
#
#
#
# Elastic Constant Matrix: (Units=GPa)
#
#
# Indices 1 2 3 4 5 6 
#
# 1 38.2617 22.7453 10.4942 0.0008 -2.9348 -0.0001
# 2 22.7453 138.2478 11.6633 0.0020 -6.6177 -0.0003
# 3 10.4942 11.6633 111.3959 0.0064 -2.8812 -0.0018
# 4 0.0008 0.0020 0.0064 80.7041 -0.0007 -27.4822
# 5 -2.9348 -6.6177 -2.8812 -0.0007 22.3159 0.0003
# 6 -0.0001 -0.0003 -0.0018 -27.4822 0.0003 38.8668
#
#
#
# Elastic Compliance Matrix: (Units=1/GPa)
#
#
# Indices 1 2 3 4 5 6 
#
# 1 0.029650 -0.004580 -0.002255 0.000000 0.002250 0.000000
# 2 -0.004580 0.008102 -0.000372 0.000000 0.001752 0.000000
# 3 -0.002255 -0.000372 0.009249 -0.000001 0.000787 0.000000
# 4 0.000000 0.000000 -0.000001 0.016321 0.000000 0.011540
# 5 0.002250 0.001752 0.000787 0.000000 0.045728 0.000000
# 6 0.000000 0.000000 0.000000 0.011540 0.000000 0.033889
#
#
# Mechanical properties :
#
#
# Convention : Reuss Voigt Hill
#
# Bulk Modulus (GPa) = 30.68766 41.96788 36.32777
# Shear Modulus (GPa) = 29.72390 44.57753 37.15071
#
# Velocity S-wave (km/s) = 3.63895 4.45637 4.06824
# Velocity P-wave (km/s) = 5.59708 6.72128 6.18477
#
# Compressibility (1/GPa) = 0.03258639
#
# Stress axis : x y z
#
# Youngs Moduli (GPa) = 33.72714 123.42382 108.12296
#
# Poissons Ratio (x) = 0.56530 0.24387
# Poissons Ratio (y) = 0.15448 0.04017
# Poissons Ratio (z) = 0.07607 0.04585
#
# Static dielectric constant tensor:
#      x y z
#    x 3.708170 0.000000 -0.035700 
#    y 0.000000 4.237520 0.000000 
#    z -0.035700 0.000000 3.977560 
# 
# 
# High freq. dielectric constant tensor:
#      x y z
#    x 1.851650 0.000000 -0.008190 
#    y 0.000000 1.896460 0.000000 
#    z -0.008190 0.000000 1.893450 
# 
# From -- ./inp_files/328326.got.cif
#   From: 2010.06.25/outbox.cif.g09.slc.cpg/sg12_165_cif.got.tgz:328326.got - 2010.06.28 00:19:55.
