data_PCOD8094565
_publ_section_title
;
Structure prediction by ZEFSAII (Michael W. Deem and Ramdas Pophale) SiO2 
 PCOD8094565
Probable space group: C 2/M
;
_chemical_formula_sum "Si O2"
_cell_formula_units_Z 56
_cell_length_a 17.291487
_cell_length_b 12.387800
_cell_length_c 11.820664
_cell_angle_alpha 90.000000
_cell_angle_beta 112.646361
_cell_angle_gamma 90.000000
_cell_volume 2336.805455
_symmetry_space_group_name_H-M "C 2/M"
_symmetry_group_IT_number 12
_symmetry_cell_setting 'monoclinic'
loop_
_space_group_symop_operation_xyz
x,y,z
-x,y,-z
-x,-y,-z
x,-y,z
1/2+x,1/2+y,z
1/2-x,1/2+y,-z
1/2-x,1/2-y,-z
1/2+x,1/2-y,z
loop_
_atom_site_type_symbol
_atom_site_label
_atom_site_fract_x
_atom_site_fract_y
_atom_site_fract_z
Si Si1 0.225400 0.627578 0.847508
Si Si2 0.891527 0.378977 0.855385
Si Si3 0.381249 0.266933 0.043846
Si Si4 0.712101 0.322007 0.693906
Si Si5 0.541251 0.622201 0.714386
Si Si6 0.892944 0.732948 0.631782
Si Si7 0.249269 0.121698 0.455697
O O1 0.210953 0.500000 0.820563
O O2 0.157806 0.678280 0.893909
O O3 0.213751 0.690206 0.719443
O O4 0.315887 0.649458 0.952411
O O5 0.922064 0.500000 0.895474
O O6 0.789694 0.373904 0.806303
O O7 0.925396 0.344276 0.750558
O O8 0.928869 0.301312 0.973630
O O9 0.447233 0.340152 0.149308
O O10 0.626768 0.370991 0.693545
O O11 0.718743 0.358638 0.568140
O O12 0.507892 0.500000 0.693305
O O13 0.468104 0.697695 0.619598
O O14 0.820480 0.808347 0.651713
O O15 0.846033 0.664803 0.505232
O O16 0.244180 0.000000 0.412425
#
# Coordination Sequence:
#
# PCOD8094565 Si02
#       7
#     8   8   8   8   8   8   8
#     4   9  16  30  50  81 116 148 179 223 271 323
#     4  10  19  38  60  81 109 152 196 231 260 314
#     4   9  19  31  52  80 111 148 191 222 265 331
#     4   9  19  34  59  86 110 140 189 231 272 331
#     4  11  21  36  55  85 119 144 174 234 290 325
#     4  10  22  36  55  84 111 137 184 227 279 338
#     4  10  20  41  63  80 104 145 189 233 274 327
#
# _framework density 23.964338999999999
#
# number of rings (size 3 to 8) (size 9 to 14) (size 15 to 20)
#    0.000    2.286    0.000    4.714    0.000    1.143 
#    0.000   30.000    0.000    0.000    0.000   20.000 
#    0.000    0.000    0.000    0.000    0.000    0.000 
#
# Total GULP energy -346989.142239 kJ/mol
# GULP energy per Si atom -12392.469366 kJ/mol
# Density = 2.390980 g / cm^3
# Si number density = 23.964339 Si / 1000 Ang^3
#
#
#
# Elastic Constant Matrix: (Units=GPa)
#
#
# Indices 1 2 3 4 5 6 
#
# 1 71.6614 7.0418 6.2436 0.0000 7.1775 0.0000
# 2 7.0418 150.9797 0.8365 0.0000 2.1206 0.0000
# 3 6.2436 0.8365 61.5151 0.0000 -2.6970 0.0000
# 4 0.0000 0.0000 0.0000 27.1191 0.0000 -0.4648
# 5 7.1775 2.1206 -2.6970 0.0000 12.2444 0.0000
# 6 0.0000 0.0000 0.0000 -0.4648 0.0000 26.5709
#
#
#
# Elastic Compliance Matrix: (Units=1/GPa)
#
#
# Indices 1 2 3 4 5 6 
#
# 1 0.015097 -0.000565 -0.001927 0.000000 -0.009176 0.000000
# 2 -0.000565 0.006662 -0.000070 0.000000 -0.000838 0.000000
# 3 -0.001927 -0.000070 0.016664 0.000000 0.004812 0.000000
# 4 0.000000 0.000000 0.000000 0.036885 0.000000 0.000645
# 5 -0.009176 -0.000838 0.004812 0.000000 0.088254 0.000000
# 6 0.000000 0.000000 0.000000 0.000645 0.000000 0.037646
#
#
# Mechanical properties :
#
#
# Convention : Reuss Voigt Hill
#
# Bulk Modulus (GPa) = 30.03051 34.71110 32.37080
# Shear Modulus (GPa) = 22.99574 31.18916 27.09245
#
# Velocity S-wave (km/s) = 3.10107 3.61152 3.36599
# Velocity P-wave (km/s) = 5.03793 5.64860 5.35198
#
# Compressibility (1/GPa) = 0.03329947
#
# Stress axis : x y z
#
# Youngs Moduli (GPa) = 66.23854 150.10732 60.01074
#
# Poissons Ratio (x) = 0.08475 0.11564
# Poissons Ratio (y) = 0.03740 0.00420
# Poissons Ratio (z) = 0.12764 0.01051
#
# Static dielectric constant tensor:
#      x y z
#    x 4.086740 0.000000 0.015810 
#    y 0.000000 4.384470 0.000000 
#    z 0.015810 0.000000 4.633770 
# 
# 
# High freq. dielectric constant tensor:
#      x y z
#    x 1.934850 0.000000 -0.001710 
#    y 0.000000 1.948550 0.000000 
#    z -0.001710 0.000000 1.959380 
# 
# From -- ./inp_files/223921.got.cif
#   From: 2010.06.25/outbox.cif.g09.slc.cpg/sg12_112_cif.got.tgz:223921.got - 2010.06.28 00:19:55.
