data_PCOD8094223
_publ_section_title
;
Structure prediction by ZEFSAII (Michael W. Deem and Ramdas Pophale) SiO2 
 PCOD8094223
Probable space group: C 2/M
;
_chemical_formula_sum "Si O2"
_cell_formula_units_Z 64
_cell_length_a 30.614990
_cell_length_b 8.850713
_cell_length_c 22.909878
_cell_angle_alpha 90.000000
_cell_angle_beta 148.638485
_cell_angle_gamma 90.000000
_cell_volume 3230.744754
_symmetry_space_group_name_H-M "C 2/M"
_symmetry_group_IT_number 12
_symmetry_cell_setting 'monoclinic'
loop_
_space_group_symop_operation_xyz
x,y,z
-x,y,-z
-x,-y,-z
x,-y,z
1/2+x,1/2+y,z
1/2-x,1/2+y,-z
1/2-x,1/2-y,-z
1/2+x,1/2-y,z
loop_
_atom_site_type_symbol
_atom_site_label
_atom_site_fract_x
_atom_site_fract_y
_atom_site_fract_z
Si Si1 0.879277 0.177983 0.001214
Si Si2 0.829687 0.678315 0.061080
Si Si3 0.877353 0.173868 0.577671
Si Si4 0.751957 0.322317 0.244732
Si Si5 0.046861 0.174067 0.712644
Si Si6 0.082085 0.322282 0.630575
Si Si7 0.725030 0.679309 0.342904
Si Si8 0.433353 0.679075 0.768137
O O1 0.830792 0.267387 0.995924
O O2 0.975242 0.236408 0.106650
O O3 0.874987 0.000000 0.010292
O O4 0.831552 0.217664 0.886871
O O5 0.823254 0.500000 0.056641
O O6 0.912667 0.733961 0.188325
O O7 0.750000 0.750000 0.000000
O O8 0.797272 0.271606 0.469542
O O9 0.912975 0.237000 0.679666
O O10 0.946959 0.192435 0.606403
O O11 0.849883 0.000000 0.552695
O O12 0.763469 0.500000 0.263830
O O13 0.836268 0.259172 0.310300
O O14 0.740951 0.251111 0.296667
O O15 0.077272 0.237617 0.686103
O O16 0.074314 0.000000 0.749080
O O17 0.088993 0.500000 0.651088
O O18 0.000000 0.282114 0.500000
O O19 0.723682 0.500000 0.338606
O O20 0.636204 0.740806 0.265966
O O21 0.433508 0.500000 0.767930
#
# Coordination Sequence:
#
# PCOD8094223 Si02
#       8
#     8   8   8   8   8   8   8   8
#     4  10  19  37  59  80 115 154 187 236 289 336
#     4  12  24  38  58  85 114 147 189 232 282 343
#     4  10  20  36  55  81 116 150 184 233 296 343
#     4   9  19  34  55  82 111 148 193 237 283 335
#     4  11  22  37  58  83 114 149 191 238 288 347
#     4  10  20  35  54  80 118 157 196 244 290 338
#     4  10  20  35  57  85 111 146 195 238 284 344
#     4   9  18  34  57  83 114 147 187 240 291 338
#
# _framework density 19.809674000000001
#
# number of rings (size 3 to 8) (size 9 to 14) (size 15 to 20)
#    0.000    1.875    1.250    3.375    0.000    3.750 
#    0.000    4.375    0.000    0.000    0.000    1.750 
#    0.000    0.000    0.000    0.000    0.000    0.000 
#
# Total GULP energy -396857.758956 kJ/mol
# GULP energy per Si atom -12401.804967 kJ/mol
# Density = 1.976459 g / cm^3
# Si number density = 19.809674 Si / 1000 Ang^3
#
#
#
# Elastic Constant Matrix: (Units=GPa)
#
#
# Indices 1 2 3 4 5 6 
#
# 1 145.8139 22.7883 60.5589 0.0000 9.2344 0.0000
# 2 22.7883 53.0204 23.3848 0.0000 0.1579 0.0000
# 3 60.5589 23.3848 133.4056 0.0000 9.5292 0.0000
# 4 0.0000 0.0000 0.0000 25.0668 0.0000 -3.6544
# 5 9.2344 0.1579 9.5292 0.0000 34.7541 0.0000
# 6 0.0000 0.0000 0.0000 -3.6544 0.0000 20.5968
#
#
#
# Elastic Compliance Matrix: (Units=1/GPa)
#
#
# Indices 1 2 3 4 5 6 
#
# 1 0.008736 -0.002216 -0.003480 0.000000 -0.001357 0.000000
# 2 -0.002216 0.021031 -0.002770 0.000000 0.001253 0.000000
# 3 -0.003480 -0.002770 0.009684 0.000000 -0.001718 0.000000
# 4 0.000000 0.000000 0.000000 0.040953 0.000000 0.007266
# 5 -0.001357 0.001253 -0.001718 0.000000 0.029599 0.000000
# 6 0.000000 0.000000 0.000000 0.007266 0.000000 0.049841
#
#
# Mechanical properties :
#
#
# Convention : Reuss Voigt Hill
#
# Bulk Modulus (GPa) = 44.40774 60.63379 52.52076
# Shear Modulus (GPa) = 27.13236 31.11739 29.12487
#
# Velocity S-wave (km/s) = 3.70490 3.96765 3.83852
# Velocity P-wave (km/s) = 6.38495 7.18779 6.79823
#
# Compressibility (1/GPa) = 0.02251860
#
# Stress axis : x y z
#
# Youngs Moduli (GPa) = 114.47367 47.54874 103.26222
#
# Poissons Ratio (x) = 0.10535 0.35937
# Poissons Ratio (y) = 0.25363 0.28606
# Poissons Ratio (z) = 0.39839 0.13172
#
# Static dielectric constant tensor:
#      x y z
#    x 3.921280 0.000000 0.063350 
#    y 0.000000 3.308690 0.000000 
#    z 0.063350 0.000000 3.745910 
# 
# 
# High freq. dielectric constant tensor:
#      x y z
#    x 1.784070 0.000000 0.005250 
#    y 0.000000 1.736610 0.000000 
#    z 0.005250 0.000000 1.783150 
# 
# From -- ./inp_files/249721.got.cif
#   From: 2010.06.25/outbox.cif.g09.slc.cpg/sg12_125_cif.got.tgz:249721.got - 2010.06.28 00:19:55.
