data_PCOD8094428
_publ_section_title
;
Structure prediction by ZEFSAII (Michael W. Deem and Ramdas Pophale) SiO2 
 PCOD8094428
Probable space group: C 2/M
;
_chemical_formula_sum "Si O2"
_cell_formula_units_Z 56
_cell_length_a 19.292671
_cell_length_b 8.837173
_cell_length_c 18.533798
_cell_angle_alpha 90.000000
_cell_angle_beta 66.803805
_cell_angle_gamma 90.000000
_cell_volume 2904.437031
_symmetry_space_group_name_H-M "C 2/M"
_symmetry_group_IT_number 12
_symmetry_cell_setting 'monoclinic'
loop_
_space_group_symop_operation_xyz
x,y,z
-x,y,-z
-x,-y,-z
x,-y,z
1/2+x,1/2+y,z
1/2-x,1/2+y,-z
1/2-x,1/2-y,-z
1/2+x,1/2-y,z
loop_
_atom_site_type_symbol
_atom_site_label
_atom_site_fract_x
_atom_site_fract_y
_atom_site_fract_z
Si Si1 0.784023 0.672513 0.696140
Si Si2 0.442267 0.168776 0.459058
Si Si3 0.792130 0.825699 0.547701
Si Si4 0.776749 0.820823 0.125018
Si Si5 0.920602 0.678424 0.995318
Si Si6 0.125334 0.178619 0.132934
Si Si7 0.561377 0.826176 0.294588
O O1 0.769664 0.500000 0.680802
O O2 0.759384 0.770682 0.637805
O O3 0.735428 0.717814 0.785930
O O4 0.871851 0.702184 0.675834
O O5 0.500000 0.170322 0.500000
O O6 0.380089 0.292177 0.502232
O O7 0.483280 0.210685 0.366877
O O8 0.406632 0.000000 0.467463
O O9 0.750000 0.750000 0.500000
O O10 0.776165 0.000000 0.550061
O O11 0.706855 0.757879 0.106933
O O12 0.781770 0.000000 0.108956
O O13 0.853663 0.739306 0.072795
O O14 0.911495 0.500000 0.987666
O O15 0.916890 0.761990 0.920407
O O16 0.000000 0.718730 0.000000
O O17 0.070797 0.217307 0.222279
O O18 0.137750 0.000000 0.122715
O O19 0.565023 0.000000 0.266130
#
# Coordination Sequence:
#
# PCOD8094428 Si02
#       7
#     8   8   8   8   8   8   8
#     4   9  18  37  61  86 116 152 192 238 293 346
#     4  10  19  37  63  87 116 155 194 238 295 349
#     4  12  25  39  57  83 118 158 201 246 291 346
#     4  10  21  39  65  91 117 152 193 240 290 345
#     4  11  24  42  62  86 119 156 194 238 291 349
#     4  11  22  37  61  90 122 155 194 240 285 343
#     4   9  18  35  61  89 118 152 192 240 292 344
#
# _framework density 19.280844999999999
#
# number of rings (size 3 to 8) (size 9 to 14) (size 15 to 20)
#    0.000    1.714    1.429    4.714    0.000    4.857 
#    2.571    0.000    0.000    0.000    0.000    0.000 
#    0.000    0.000    0.000    0.000    0.000    0.000 
#
# Total GULP energy -347244.636511 kJ/mol
# GULP energy per Si atom -12401.594161 kJ/mol
# Density = 1.923696 g / cm^3
# Si number density = 19.280845 Si / 1000 Ang^3
#
#
#
# Elastic Constant Matrix: (Units=GPa)
#
#
# Indices 1 2 3 4 5 6 
#
# 1 72.0066 36.4761 56.5215 0.0000 12.5411 0.0000
# 2 36.4761 107.3350 53.8885 0.0000 16.2906 0.0000
# 3 56.5215 53.8885 114.3397 0.0000 9.2229 0.0000
# 4 0.0000 0.0000 0.0000 36.3899 0.0000 0.3381
# 5 12.5411 16.2906 9.2229 0.0000 27.0579 0.0000
# 6 0.0000 0.0000 0.0000 0.3381 0.0000 28.0221
#
#
#
# Elastic Compliance Matrix: (Units=1/GPa)
#
#
# Indices 1 2 3 4 5 6 
#
# 1 0.024307 -0.001974 -0.010563 0.000000 -0.006477 0.000000
# 2 -0.001974 0.013230 -0.004823 0.000000 -0.005406 0.000000
# 3 -0.010563 -0.004823 0.016053 0.000000 0.002328 0.000000
# 4 0.000000 0.000000 0.000000 0.027483 0.000000 -0.000332
# 5 -0.006477 -0.005406 0.002328 0.000000 0.042421 0.000000
# 6 0.000000 0.000000 0.000000 -0.000332 0.000000 0.035690
#
#
# Mechanical properties :
#
#
# Convention : Reuss Voigt Hill
#
# Bulk Modulus (GPa) = 52.99675 65.27262 59.13468
# Shear Modulus (GPa) = 24.97581 28.08033 26.52807
#
# Velocity S-wave (km/s) = 3.60303 3.82040 3.71331
# Velocity P-wave (km/s) = 6.69742 7.30669 7.00868
#
# Compressibility (1/GPa) = 0.01886908
#
# Stress axis : x y z
#
# Youngs Moduli (GPa) = 41.14034 75.58864 62.29456
#
# Poissons Ratio (x) = 0.14922 0.65801
# Poissons Ratio (y) = 0.08122 0.30046
# Poissons Ratio (z) = 0.43456 0.36457
#
# Static dielectric constant tensor:
#      x y z
#    x 3.437380 0.000000 -0.148310 
#    y 0.000000 3.730030 0.000000 
#    z -0.148310 0.000000 3.865890 
# 
# 
# High freq. dielectric constant tensor:
#      x y z
#    x 1.730660 0.000000 0.000240 
#    y 0.000000 1.751710 0.000000 
#    z 0.000240 0.000000 1.768280 
# 
# From -- ./inp_files/275169.got.cif
#   From: 2010.06.25/outbox.cif.g09.slc.cpg/sg12_138_cif.got.tgz:275169.got - 2010.06.28 00:19:55.
