data_PCOD8094771
_publ_section_title
;
Structure prediction by ZEFSAII (Michael W. Deem and Ramdas Pophale) SiO2 
 PCOD8094771
Probable space group: C 2/M
;
_chemical_formula_sum "Si O2"
_cell_formula_units_Z 64
_cell_length_a 24.212171
_cell_length_b 8.708242
_cell_length_c 28.883348
_cell_angle_alpha 90.000000
_cell_angle_beta 147.680286
_cell_angle_gamma 90.000000
_cell_volume 3255.935269
_symmetry_space_group_name_H-M "C 2/M"
_symmetry_group_IT_number 12
_symmetry_cell_setting 'monoclinic'
loop_
_space_group_symop_operation_xyz
x,y,z
-x,y,-z
-x,-y,-z
x,-y,z
1/2+x,1/2+y,z
1/2-x,1/2+y,-z
1/2-x,1/2-y,-z
1/2+x,1/2-y,z
loop_
_atom_site_type_symbol
_atom_site_label
_atom_site_fract_x
_atom_site_fract_y
_atom_site_fract_z
Si Si1 0.684520 0.682738 0.912570
Si Si2 0.459741 0.319617 0.338211
Si Si3 0.144190 0.817555 0.408298
Si Si4 0.825233 0.319662 0.752583
Si Si5 0.446622 0.318562 0.752734
Si Si6 0.221686 0.321553 0.844030
Si Si7 0.908899 0.183195 0.402386
Si Si8 0.113827 0.674405 0.100860
O O1 0.694234 0.500000 0.916055
O O2 0.565483 0.735504 0.833808
O O3 0.739988 0.762110 0.908473
O O4 0.750000 0.750000 0.000000
O O5 0.467757 0.500000 0.349566
O O6 0.564414 0.254981 0.390193
O O7 0.370302 0.281178 0.239683
O O8 0.436373 0.246389 0.371658
O O9 0.250000 0.750000 0.500000
O O10 0.113162 0.756822 0.335238
O O11 0.147583 0.000000 0.410170
O O12 0.827692 0.500000 0.746211
O O13 0.892930 0.244228 0.760607
O O14 0.706087 0.259355 0.665029
O O15 0.876680 0.276681 0.838508
O O16 0.441588 0.500000 0.751285
O O17 0.193305 0.500000 0.823048
O O18 0.321747 0.292901 0.883869
O O19 0.000000 0.245903 0.500000
O O20 0.908722 0.000000 0.401547
O O21 0.156435 0.500000 0.125931
O O22 0.000000 0.685910 0.000000
#
# Coordination Sequence:
#
# PCOD8094771 Si02
#       8
#     8   8   8   8   8   8   8   8
#     4  11  24  44  66  90 122 162 205 250 304 366
#     4  10  19  39  64  83 116 160 203 251 303 361
#     4  10  22  39  61  88 118 161 203 247 306 360
#     4  10  21  37  60  88 117 154 201 245 290 352
#     4  10  23  42  60  83 124 164 194 242 308 363
#     4  12  24  39  63  93 122 157 202 255 307 356
#     4   9  18  33  58  88 114 147 195 245 294 351
#     4  10  22  41  63  88 119 160 202 246 299 358
#
# _framework density 19.656410999999999
#
# number of rings (size 3 to 8) (size 9 to 14) (size 15 to 20)
#    0.000    1.750    2.500    1.500    3.500    2.750 
#    0.000    0.000    0.000    0.750    0.000    0.000 
#    0.000    0.000    0.000    0.000    0.000    0.000 
#
# Total GULP energy -396755.885079 kJ/mol
# GULP energy per Si atom -12398.621409 kJ/mol
# Density = 1.961167 g / cm^3
# Si number density = 19.656411 Si / 1000 Ang^3
#
#
#
# Elastic Constant Matrix: (Units=GPa)
#
#
# Indices 1 2 3 4 5 6 
#
# 1 138.7548 61.4519 51.0440 0.0001 -0.9397 0.0001
# 2 61.4519 -29.3345 24.7288 0.0003 -2.0698 0.0004
# 3 51.0440 24.7288 134.3167 -0.0002 -5.5516 -0.0001
# 4 0.0001 0.0003 -0.0002 24.8480 0.0001 0.4755
# 5 -0.9397 -2.0698 -5.5516 0.0001 34.1947 0.0001
# 6 0.0001 0.0004 -0.0001 0.4755 0.0001 31.2094
#
#
#
# Elastic Compliance Matrix: (Units=1/GPa)
#
#
# Indices 1 2 3 4 5 6 
#
# 1 0.005017 0.007705 -0.003323 0.000000 0.000065 0.000000
# 2 0.007705 -0.017649 0.000288 0.000000 -0.000810 0.000000
# 3 -0.003323 0.000288 0.008710 0.000000 0.001340 0.000000
# 4 0.000000 0.000000 0.000000 0.040256 0.000000 -0.000613
# 5 0.000065 -0.000810 0.001340 0.000000 0.029415 0.000000
# 6 0.000000 0.000000 0.000000 -0.000613 0.000000 0.032051
#
#
# Mechanical properties :
#
#
# Convention : Reuss Voigt Hill
#
# Bulk Modulus (GPa) = 184.53938 57.57626 121.05782
# Shear Modulus (GPa) = 55.39153 25.15126 40.27139
#
# Velocity S-wave (km/s) = 5.31423 3.58095 4.53124
# Velocity P-wave (km/s) = 11.47785 6.81561 9.43911
#
# Compressibility (1/GPa) = 0.00541890
#
# Stress axis : x y z
#
# Youngs Moduli (GPa) = 199.31189 -56.66082 114.80820
#
# Poissons Ratio (x) = 0.43657 0.38146
# Poissons Ratio (y) = -1.53570 -0.03303
# Poissons Ratio (z) = 0.66223 0.01630
#
# Static dielectric constant tensor:
#      x y z
#    x 3.973730 0.000000 -0.128090 
#    y 0.000000 3.316180 0.000000 
#    z -0.128090 0.000000 3.496460 
# 
# 
# High freq. dielectric constant tensor:
#      x y z
#    x 1.783270 0.000000 -0.003230 
#    y 0.000000 1.738460 0.000000 
#    z -0.003230 0.000000 1.778120 
# 
# From -- ./inp_files/382533.got.cif
#   From: 2010.06.25/outbox.cif.g09.slc.cpg/sg12_192_cif.got.tgz:382533.got - 2010.06.28 00:19:55.
