data_PCOD8094213
_publ_section_title
;
Structure prediction by ZEFSAII (Michael W. Deem and Ramdas Pophale) SiO2 
 PCOD8094213
Probable space group: C 2/M
;
_chemical_formula_sum "Si O2"
_cell_formula_units_Z 32
_cell_length_a 18.959680
_cell_length_b 10.101015
_cell_length_c 24.313715
_cell_angle_alpha 90.000000
_cell_angle_beta 21.778829
_cell_angle_gamma 90.000000
_cell_volume 1727.627864
_symmetry_space_group_name_H-M "C 2/M"
_symmetry_group_IT_number 12
_symmetry_cell_setting 'monoclinic'
loop_
_space_group_symop_operation_xyz
x,y,z
-x,y,-z
-x,-y,-z
x,-y,z
1/2+x,1/2+y,z
1/2-x,1/2+y,-z
1/2-x,1/2-y,-z
1/2+x,1/2-y,z
loop_
_atom_site_type_symbol
_atom_site_label
_atom_site_fract_x
_atom_site_fract_y
_atom_site_fract_z
Si Si1 0.535602 0.738129 0.257651
Si Si2 0.413746 0.000000 0.841720
Si Si3 0.298324 0.000000 0.277565
Si Si4 0.208025 0.500000 0.953076
Si Si5 0.000000 0.778062 0.500000
Si Si6 0.138202 0.347245 0.509090
O O1 0.701457 0.630158 0.138963
O O2 0.361741 0.685596 0.346601
O O3 0.468385 0.758558 0.368661
O O4 0.620468 0.871715 0.170634
O O5 0.628880 0.000000 0.711274
O O6 0.262490 0.000000 0.001669
O O7 0.176566 0.130784 0.354394
O O8 0.481256 0.000000 0.104492
O O9 0.051954 0.682859 0.512358
O O10 0.107377 0.500000 0.546393
#
# Coordination Sequence:
#
# PCOD8094213 Si02
#       6
#     8   4   4   4   4   8
#     4  11  21  37  61  92 117 148 200 250 290 339
#     4  10  19  37  58  88 119 145 192 244 291 341
#     4   9  22  36  62  87 111 158 194 243 287 350
#     4  10  21  37  64  89 117 155 192 246 297 348
#     4  11  21  40  58  86 121 157 196 232 298 356
#     4  11  22  36  60  86 121 155 194 245 291 348
#
# _framework density 18.522507000000001
#
# number of rings (size 3 to 8) (size 9 to 14) (size 15 to 20)
#    0.750    0.750    5.000    1.125    0.000    2.000 
#    0.000    2.500    2.750    1.500    0.000    0.000 
#    0.000    0.000    0.000    0.000    0.000    0.000 
#
# Total GULP energy -198427.022583 kJ/mol
# GULP energy per Si atom -12401.688911 kJ/mol
# Density = 1.848035 g / cm^3
# Si number density = 18.522507 Si / 1000 Ang^3
#
#
#
# Elastic Constant Matrix: (Units=GPa)
#
#
# Indices 1 2 3 4 5 6 
#
# 1 80.2921 24.2607 20.8538 0.0183 -1.2611 0.0021
# 2 24.2607 127.8597 55.6215 0.0017 -5.6354 0.0065
# 3 20.8538 55.6215 117.6690 0.0330 -1.4505 0.0152
# 4 0.0183 0.0017 0.0330 24.7541 0.0112 8.7946
# 5 -1.2611 -5.6354 -1.4505 0.0112 20.1943 -0.0023
# 6 0.0021 0.0065 0.0152 8.7946 -0.0023 16.8350
#
#
#
# Elastic Compliance Matrix: (Units=1/GPa)
#
#
# Indices 1 2 3 4 5 6 
#
# 1 0.013414 -0.001892 -0.001480 -0.000010 0.000203 0.000006
# 2 -0.001892 0.010232 -0.004471 0.000007 0.002416 -0.000003
# 3 -0.001480 -0.004471 0.010867 -0.000012 -0.000560 -0.000002
# 4 -0.000010 0.000007 -0.000012 0.049604 -0.000030 -0.025913
# 5 0.000203 0.002416 -0.000560 -0.000030 0.050166 0.000022
# 6 0.000006 -0.000003 -0.000002 -0.025913 0.000022 0.072937
#
#
# Mechanical properties :
#
#
# Convention : Reuss Voigt Hill
#
# Bulk Modulus (GPa) = 53.12013 58.58809 55.85411
# Shear Modulus (GPa) = 21.81664 27.36233 24.58948
#
# Velocity S-wave (km/s) = 3.43570 3.84767 3.64750
# Velocity P-wave (km/s) = 6.66931 7.17209 6.92526
#
# Compressibility (1/GPa) = 0.01882525
#
# Stress axis : x y z
#
# Youngs Moduli (GPa) = 74.54922 97.73522 92.01799
#
# Poissons Ratio (x) = 0.18495 0.13621
# Poissons Ratio (y) = 0.14107 0.41144
# Poissons Ratio (z) = 0.11035 0.43701
#
# Static dielectric constant tensor:
#      x y z
#    x 3.154870 0.000000 0.005830 
#    y 0.000000 3.364990 0.000030 
#    z 0.005830 0.000030 3.307690 
# 
# 
# High freq. dielectric constant tensor:
#      x y z
#    x 1.699440 0.000000 0.007580 
#    y 0.000000 1.730710 0.000000 
#    z 0.007580 0.000000 1.711690 
# 
# From -- ./inp_files/365335.got.cif
#   From: 2010.06.25/outbox.cif.g09.slc.cpg/sg12_183_cif.got.tgz:365335.got - 2010.06.28 00:19:55.
