data_PCOD8094785
_publ_section_title
;
Structure prediction by ZEFSAII (Michael W. Deem and Ramdas Pophale) SiO2 
 PCOD8094785
Probable space group: C 2/M
;
_chemical_formula_sum "Si O2"
_cell_formula_units_Z 64
_cell_length_a 19.088492
_cell_length_b 9.092839
_cell_length_c 30.367017
_cell_angle_alpha 90.000000
_cell_angle_beta 38.496367
_cell_angle_gamma 90.000000
_cell_volume 3280.863784
_symmetry_space_group_name_H-M "C 2/M"
_symmetry_group_IT_number 12
_symmetry_cell_setting 'monoclinic'
loop_
_space_group_symop_operation_xyz
x,y,z
-x,y,-z
-x,-y,-z
x,-y,z
1/2+x,1/2+y,z
1/2-x,1/2+y,-z
1/2-x,1/2-y,-z
1/2+x,1/2-y,z
loop_
_atom_site_type_symbol
_atom_site_label
_atom_site_fract_x
_atom_site_fract_y
_atom_site_fract_z
Si Si1 0.545901 0.171177 0.781069
Si Si2 0.869574 0.827175 0.439035
Si Si3 0.492666 0.333258 0.288475
Si Si4 0.226083 0.832128 0.213207
Si Si5 0.032399 0.325224 0.936527
Si Si6 0.539522 0.331256 0.431083
Si Si7 0.868734 0.671323 0.940480
Si Si8 0.736655 0.826486 0.294405
O O1 0.543432 0.224443 0.732243
O O2 0.428658 0.201155 0.864066
O O3 0.640549 0.258410 0.760721
O O4 0.576587 0.000000 0.766729
O O5 0.750000 0.750000 0.500000
O O6 0.932688 0.782654 0.362976
O O7 0.944261 0.774966 0.443931
O O8 0.849235 0.000000 0.451422
O O9 0.456731 0.500000 0.294113
O O10 0.627452 0.323602 0.225920
O O11 0.341180 0.771906 0.135625
O O12 0.188835 0.727153 0.271219
O O13 0.239981 0.000000 0.223528
O O14 0.028267 0.500000 0.939498
O O15 0.947078 0.265692 0.941295
O O16 0.000000 0.259090 0.000000
O O17 0.500000 0.312130 0.500000
O O18 0.570073 0.500000 0.405068
O O19 0.651243 0.232629 0.373253
O O20 0.847143 0.500000 0.958468
O O21 0.750000 0.750000 0.000000
O O22 0.744259 0.000000 0.293382
#
# Coordination Sequence:
#
# PCOD8094785 Si02
#       8
#     8   8   8   8   8   8   8   8
#     4  11  24  42  62  86 122 165 205 247 300 363
#     4  10  22  40  60  87 123 158 197 245 296 354
#     4  10  22  39  62  91 120 156 201 251 299 352
#     4  10  19  39  65  86 119 158 199 248 300 359
#     4   9  18  34  60  89 113 150 199 242 291 356
#     4  10  22  42  66  90 118 160 204 242 299 366
#     4  10  22  39  60  86 120 157 198 247 299 359
#     4  12  24  39  63  92 122 156 202 256 304 352
#
# _framework density 19.507057
#
# number of rings (size 3 to 8) (size 9 to 14) (size 15 to 20)
#    0.000    1.750    2.500    1.500    3.500    2.750 
#    0.000    0.000    0.000    0.750    0.000    0.000 
#    0.000    0.000    0.000    0.000    0.000    0.000 
#
# Total GULP energy -396881.044479 kJ/mol
# GULP energy per Si atom -12402.532640 kJ/mol
# Density = 1.946266 g / cm^3
# Si number density = 19.507057 Si / 1000 Ang^3
#
#
#
# Elastic Constant Matrix: (Units=GPa)
#
#
# Indices 1 2 3 4 5 6 
#
# 1 83.5394 30.3557 39.8457 0.0009 7.8909 0.0031
# 2 30.3557 85.1294 44.0680 0.0024 -1.3617 0.0016
# 3 39.8457 44.0680 114.2090 0.0000 -3.3521 -0.0002
# 4 0.0009 0.0024 0.0000 29.7486 0.0000 -5.1064
# 5 7.8909 -1.3617 -3.3521 0.0000 39.8547 0.0000
# 6 0.0031 0.0016 -0.0002 -5.1064 0.0000 30.1053
#
#
#
# Elastic Compliance Matrix: (Units=1/GPa)
#
#
# Indices 1 2 3 4 5 6 
#
# 1 0.015559 -0.003425 -0.004211 0.000000 -0.003552 -0.000002
# 2 -0.003425 0.015433 -0.004736 -0.000001 0.000807 -0.000001
# 3 -0.004211 -0.004736 0.012102 0.000001 0.001690 0.000001
# 4 0.000000 -0.000001 0.000001 0.034623 0.000000 0.005873
# 5 -0.003552 0.000807 0.001690 0.000000 0.025964 0.000000
# 6 -0.000002 -0.000001 0.000001 0.005873 0.000000 0.034213
#
#
# Mechanical properties :
#
#
# Convention : Reuss Voigt Hill
#
# Bulk Modulus (GPa) = 54.49747 56.82408 55.66077
# Shear Modulus (GPa) = 29.62881 31.18226 30.40553
#
# Velocity S-wave (km/s) = 3.90150 4.00248 3.95231
# Velocity P-wave (km/s) = 6.94936 7.11006 7.03017
#
# Compressibility (1/GPa) = 0.01834948
#
# Stress axis : x y z
#
# Youngs Moduli (GPa) = 64.27172 64.79721 82.63050
#
# Poissons Ratio (x) = 0.22193 0.34795
# Poissons Ratio (y) = 0.22013 0.39135
# Poissons Ratio (z) = 0.27064 0.30689
#
# Static dielectric constant tensor:
#      x y z
#    x 3.636470 0.000000 0.024150 
#    y 0.000000 3.344150 0.000000 
#    z 0.024150 0.000000 3.679160 
# 
# 
# High freq. dielectric constant tensor:
#      x y z
#    x 1.765140 0.000000 -0.001560 
#    y 0.000000 1.735550 0.000000 
#    z -0.001560 0.000000 1.772320 
# 
# From -- ./inp_files/377995.got.cif
#   From: 2010.06.25/outbox.cif.g09.slc.cpg/sg12_189_cif.got.tgz:377995.got - 2010.06.28 00:19:55.
