data_PCOD8094126
_publ_section_title
;
Structure prediction by ZEFSAII (Michael W. Deem and Ramdas Pophale) SiO2 
 PCOD8094126
Probable space group: C 2/M
;
_chemical_formula_sum "Si O2"
_cell_formula_units_Z 44
_cell_length_a 11.000109
_cell_length_b 22.569346
_cell_length_c 9.102836
_cell_angle_alpha 90.000000
_cell_angle_beta 87.697432
_cell_angle_gamma 90.000000
_cell_volume 2258.093333
_symmetry_space_group_name_H-M "C 2/M"
_symmetry_group_IT_number 12
_symmetry_cell_setting 'monoclinic'
loop_
_space_group_symop_operation_xyz
x,y,z
-x,y,-z
-x,-y,-z
x,-y,z
1/2+x,1/2+y,z
1/2-x,1/2+y,-z
1/2-x,1/2-y,-z
1/2+x,1/2-y,z
loop_
_atom_site_type_symbol
_atom_site_label
_atom_site_fract_x
_atom_site_fract_y
_atom_site_fract_z
Si Si1 0.302485 0.275189 0.350292
Si Si2 0.205436 0.931283 0.366306
Si Si3 0.151000 0.339714 0.834473
Si Si4 0.105735 0.565343 0.400261
Si Si5 0.000000 0.148530 0.500000
Si Si6 0.869303 0.649359 0.837804
O O1 0.250000 0.250000 0.500000
O O2 0.307613 0.221801 0.235363
O O3 0.426100 0.310347 0.387006
O O4 0.202577 0.317214 0.285737
O O5 0.295874 0.897684 0.249214
O O6 0.266344 0.931274 0.522781
O O7 0.081988 0.893646 0.391619
O O8 0.181556 0.000000 0.316325
O O9 0.007571 0.330894 0.840759
O O10 0.196465 0.346228 0.001460
O O11 0.054263 0.500000 0.385590
O O12 0.125106 0.583877 0.230511
O O13 0.000000 0.600487 0.500000
#
# Coordination Sequence:
#
# PCOD8094126 Si02
#       6
#     8   8   8   8   4   8
#     4  12  23  41  65  90 123 161 211 265 308 366
#     4  11  23  41  64  92 127 164 212 258 305 371
#     4  11  24  40  61  94 127 165 202 254 324 371
#     4  10  19  36  64  92 120 157 208 262 304 360
#     4  12  23  40  68  94 119 166 212 262 306 366
#     4  11  23  40  62  91 128 161 205 254 320 382
#
# _framework density 19.485464
#
# number of rings (size 3 to 8) (size 9 to 14) (size 15 to 20)
#    0.000    0.909    5.455    1.909    0.000    0.727 
#    0.000    1.818    0.000    1.091    0.000    0.000 
#    0.000    0.000    0.000    0.000    0.000    0.000 
#
# Total GULP energy -272537.136403 kJ/mol
# GULP energy per Si atom -12388.051655 kJ/mol
# Density = 1.944111 g / cm^3
# Si number density = 19.485464 Si / 1000 Ang^3
#
#
#
# Elastic Constant Matrix: (Units=GPa)
#
#
# Indices 1 2 3 4 5 6 
#
# 1 84.8364 38.6323 38.7655 0.0000 3.1824 0.0000
# 2 38.6323 107.1237 53.2538 0.0000 -2.9054 0.0000
# 3 38.7655 53.2538 139.5169 0.0000 0.8215 0.0000
# 4 0.0000 0.0000 0.0000 18.3844 0.0000 1.8467
# 5 3.1824 -2.9054 0.8215 0.0000 29.4989 0.0000
# 6 0.0000 0.0000 0.0000 1.8467 0.0000 33.9047
#
#
#
# Elastic Compliance Matrix: (Units=1/GPa)
#
#
# Indices 1 2 3 4 5 6 
#
# 1 0.014921 -0.004170 -0.002543 0.000000 -0.001950 0.000000
# 2 -0.004170 0.012733 -0.003712 0.000000 0.001807 0.000000
# 3 -0.002543 -0.003712 0.009293 0.000000 -0.000350 0.000000
# 4 0.000000 0.000000 0.000000 0.054693 0.000000 -0.002979
# 5 -0.001950 0.001807 -0.000350 0.000000 0.034298 0.000000
# 6 0.000000 0.000000 0.000000 -0.002979 0.000000 0.029657
#
#
# Mechanical properties :
#
#
# Convention : Reuss Voigt Hill
#
# Bulk Modulus (GPa) = 62.12063 65.86444 63.99254
# Shear Modulus (GPa) = 27.50104 29.74596 28.62350
#
# Velocity S-wave (km/s) = 3.76089 3.91138 3.83687
# Velocity P-wave (km/s) = 7.12802 7.36707 7.24853
#
# Compressibility (1/GPa) = 0.01609771
#
# Stress axis : x y z
#
# Youngs Moduli (GPa) = 67.01821 78.53416 107.60558
#
# Poissons Ratio (x) = 0.32748 0.27362
# Poissons Ratio (y) = 0.27946 0.39947
# Poissons Ratio (z) = 0.17042 0.29155
#
# Static dielectric constant tensor:
#      x y z
#    x 3.697100 0.000000 0.021070 
#    y 0.000000 3.710560 0.000000 
#    z 0.021070 0.000000 3.828650 
# 
# 
# High freq. dielectric constant tensor:
#      x y z
#    x 1.759140 0.000000 -0.000320 
#    y 0.000000 1.767790 0.000000 
#    z -0.000320 0.000000 1.754690 
# 
# From -- ./inp_files/49283.got.cif
#   From: 2010.06.25/outbox.cif.g09.slc.cpg/sg12_25_cif.got.tgz:49283.got - 2010.06.28 00:19:55.
