data_PCOD8094891
_publ_section_title
;
Structure prediction by ZEFSAII (Michael W. Deem and Ramdas Pophale) SiO2 
 PCOD8094891
Probable space group: C 2/M
;
_chemical_formula_sum "Si O2"
_cell_formula_units_Z 64
_cell_length_a 22.915643
_cell_length_b 9.429253
_cell_length_c 18.730867
_cell_angle_alpha 90.000000
_cell_angle_beta 95.119940
_cell_angle_gamma 90.000000
_cell_volume 4031.168438
_symmetry_space_group_name_H-M "C 2/M"
_symmetry_group_IT_number 12
_symmetry_cell_setting 'monoclinic'
loop_
_space_group_symop_operation_xyz
x,y,z
-x,y,-z
-x,-y,-z
x,-y,z
1/2+x,1/2+y,z
1/2-x,1/2+y,-z
1/2-x,1/2-y,-z
1/2+x,1/2-y,z
loop_
_atom_site_type_symbol
_atom_site_label
_atom_site_fract_x
_atom_site_fract_y
_atom_site_fract_z
Si Si1 0.722039 0.664658 0.395843
Si Si2 0.472930 0.837456 0.147578
Si Si3 0.957319 0.835522 0.430182
Si Si4 0.493256 0.165557 0.695001
Si Si5 0.414649 0.661718 0.873301
Si Si6 0.434543 0.657047 0.024903
Si Si7 0.622585 0.336672 0.280162
Si Si8 0.174101 0.163725 0.544382
O O1 0.737765 0.500000 0.393365
O O2 0.681969 0.713376 0.324992
O O3 0.782921 0.749161 0.399034
O O4 0.686443 0.702571 0.463579
O O5 0.463632 0.817017 0.231466
O O6 0.535902 0.774456 0.138032
O O7 0.424650 0.759750 0.091939
O O8 0.471990 0.000000 0.124907
O O9 0.892278 0.794153 0.447073
O O10 0.000000 0.801207 0.500000
O O11 0.973046 0.735928 0.366321
O O12 0.962259 0.000000 0.407981
O O13 0.431220 0.241938 0.699377
O O14 0.481148 0.000000 0.678572
O O15 0.440243 0.500000 0.874540
O O16 0.366852 0.677973 0.804675
O O17 0.391424 0.691444 0.952026
O O18 0.422211 0.500000 0.052568
O O19 0.500000 0.672023 0.000000
O O20 0.608640 0.500000 0.299769
O O21 0.186095 0.000000 0.561009
#
# Coordination Sequence:
#
# PCOD8094891 Si02
#       8
#     8   8   8   8   8   8   8   8
#     4   9  17  30  48  66  84 109 140 172 207 249
#     4   9  16  24  34  51  77 108 139 169 203 245
#     4  10  20  34  50  65  84 112 144 175 208 251
#     4  10  20  30  41  62  89 114 143 179 215 250
#     4   8  14  23  35  53  77 105 138 173 204 239
#     4   8  13  21  33  50  73 103 138 171 202 238
#     4   9  16  28  45  62  84 116 148 175 208 251
#     4   9  18  31  46  65  86 108 137 173 210 247
#
# _framework density 15.876291
#
# number of rings (size 3 to 8) (size 9 to 14) (size 15 to 20)
#    0.000    3.000    0.000    2.250    0.000    7.000 
#    0.000    2.500    0.000    0.000    0.000    0.000 
#    0.000    1.000    0.000    2.250    0.000    5.625 
#
# Total GULP energy -396480.398467 kJ/mol
# GULP energy per Si atom -12390.012452 kJ/mol
# Density = 1.584016 g / cm^3
# Si number density = 15.876291 Si / 1000 Ang^3
#
#
#
# Elastic Constant Matrix: (Units=GPa)
#
#
# Indices 1 2 3 4 5 6 
#
# 1 79.8891 39.3252 53.3373 0.0000 16.3139 0.0000
# 2 39.3252 85.0799 63.0566 0.0000 8.5438 0.0000
# 3 53.3373 63.0566 123.4701 0.0000 27.1999 0.0000
# 4 0.0000 0.0000 0.0000 24.0546 0.0000 2.5798
# 5 16.3139 8.5438 27.1999 0.0000 20.0938 0.0000
# 6 0.0000 0.0000 0.0000 2.5798 0.0000 15.8124
#
#
#
# Elastic Compliance Matrix: (Units=1/GPa)
#
#
# Indices 1 2 3 4 5 6 
#
# 1 0.019373 -0.005264 -0.003860 0.000000 -0.008266 0.000000
# 2 -0.005264 0.021096 -0.010638 0.000000 0.009703 0.000000
# 3 -0.003860 -0.010638 0.019254 0.000000 -0.018406 0.000000
# 4 0.000000 0.000000 0.000000 0.042312 0.000000 -0.006903
# 5 -0.008266 0.009703 -0.018406 0.000000 0.077268 0.000000
# 6 0.000000 0.000000 0.000000 -0.006903 0.000000 0.064368
#
#
# Mechanical properties :
#
#
# Convention : Reuss Voigt Hill
#
# Bulk Modulus (GPa) = 49.50206 66.65303 58.07755
# Shear Modulus (GPa) = 17.24562 20.84015 19.04289
#
# Velocity S-wave (km/s) = 3.29941 3.62699 3.46707
# Velocity P-wave (km/s) = 6.76479 7.72101 7.25866
#
# Compressibility (1/GPa) = 0.02020118
#
# Stress axis : x y z
#
# Youngs Moduli (GPa) = 51.61705 47.40146 51.93719
#
# Poissons Ratio (x) = 0.24952 0.20046
# Poissons Ratio (y) = 0.27171 0.55249
# Poissons Ratio (z) = 0.19923 0.50424
#
# Static dielectric constant tensor:
#      x y z
#    x 2.633500 0.000000 0.328250 
#    y 0.000000 3.077620 0.000000 
#    z 0.328250 0.000000 3.567690 
# 
# 
# High freq. dielectric constant tensor:
#      x y z
#    x 1.548420 0.000000 0.027760 
#    y 0.000000 1.615280 0.000000 
#    z 0.027760 0.000000 1.623250 
# 
# From -- ./inp_files/291578.got.cif
#   From: 2010.06.25/outbox.cif.g09.slc.cpg/sg12_146_cif.got.tgz:291578.got - 2010.06.28 00:19:55.
