data_PCOD8094929
_publ_section_title
;
Structure prediction by ZEFSAII (Michael W. Deem and Ramdas Pophale) SiO2 
 PCOD8094929
Probable space group: C 2/M
;
_chemical_formula_sum "Si O2"
_cell_formula_units_Z 56
_cell_length_a 9.859913
_cell_length_b 27.924312
_cell_length_c 18.557023
_cell_angle_alpha 90.000000
_cell_angle_beta 34.247975
_cell_angle_gamma 90.000000
_cell_volume 2875.406286
_symmetry_space_group_name_H-M "C 2/M"
_symmetry_group_IT_number 12
_symmetry_cell_setting 'monoclinic'
loop_
_space_group_symop_operation_xyz
x,y,z
-x,y,-z
-x,-y,-z
x,-y,z
1/2+x,1/2+y,z
1/2-x,1/2+y,-z
1/2-x,1/2-y,-z
1/2+x,1/2-y,z
loop_
_atom_site_type_symbol
_atom_site_label
_atom_site_fract_x
_atom_site_fract_y
_atom_site_fract_z
Si Si1 0.623737 0.897126 0.117092
Si Si2 0.664582 0.297485 0.498304
Si Si3 0.890686 0.128915 0.710231
Si Si4 0.840650 0.944766 0.499896
Si Si5 0.929291 0.375281 0.705885
Si Si6 0.461723 0.398291 0.830755
Si Si7 0.753047 0.500000 0.927667
Si Si8 0.786528 0.000000 0.892211
O O1 0.377933 0.875194 0.199170
O O2 0.699675 0.871339 0.158603
O O3 0.587891 0.952905 0.155622
O O4 0.812866 0.890686 0.969502
O O5 0.500000 0.287555 0.500000
O O6 0.750000 0.250000 0.500000
O O7 0.498648 0.323585 0.628945
O O8 0.902618 0.328834 0.377279
O O9 0.884731 0.136342 0.799285
O O10 0.046096 0.082778 0.617936
O O11 0.582284 0.923828 0.633848
O O12 0.000000 0.936041 0.500000
O O13 0.816382 0.000000 0.488915
O O14 0.733529 0.382707 0.729166
O O15 0.418933 0.450672 0.811180
O O16 0.500000 0.500000 0.000000
O O17 0.664268 0.500000 0.046560
O O18 0.500000 0.000000 0.000000
#
# Coordination Sequence:
#
# PCOD8094929 Si02
#       8
#     8   8   8   8   8   8   4   4
#     4  11  20  38  59  87 134 173 213 251 297 370
#     4  11  25  47  75  95 116 153 206 270 330 395
#     4  11  22  40  62  92 122 162 214 253 319 375
#     4  10  21  36  57  83 117 168 209 256 310 360
#     4  11  22  40  62  92 126 158 214 259 317 376
#     4  11  24  34  60  94 132 176 210 261 300 358
#     4  10  20  30  52  85 120 176 224 243 271 340
#     4  10  20  38  48  81 134 184 228 235 283 344
#
# _framework density 19.475508999999999
#
# number of rings (size 3 to 8) (size 9 to 14) (size 15 to 20)
#    0.000    1.286    2.857    5.143    6.000    1.714 
#    0.000    0.714    0.000    5.143    0.000    0.000 
#    0.000    0.000    0.000    0.000    0.000    0.000 
#
# Total GULP energy -346932.063390 kJ/mol
# GULP energy per Si atom -12390.430835 kJ/mol
# Density = 1.943118 g / cm^3
# Si number density = 19.475509 Si / 1000 Ang^3
#
#
#
# Elastic Constant Matrix: (Units=GPa)
#
#
# Indices 1 2 3 4 5 6 
#
# 1 122.1969 61.3316 26.8426 -0.0004 9.2759 0.0002
# 2 61.3316 107.8416 38.4834 0.0001 -17.4824 0.0000
# 3 26.8426 38.4834 67.1839 -0.0005 1.2655 -0.0003
# 4 -0.0004 0.0001 -0.0005 1.2558 0.0005 10.6879
# 5 9.2759 -17.4824 1.2655 0.0005 21.6886 -0.0001
# 6 0.0002 0.0000 -0.0003 10.6879 -0.0001 18.3694
#
#
#
# Elastic Compliance Matrix: (Units=1/GPa)
#
#
# Indices 1 2 3 4 5 6 
#
# 1 0.014797 -0.011193 0.000789 -0.000004 -0.015397 0.000002
# 2 -0.011193 0.022652 -0.008947 0.000005 0.023568 -0.000003
# 3 0.000789 -0.008947 0.019858 -0.000003 -0.008708 0.000002
# 4 -0.000004 0.000005 -0.000003 -0.201501 0.000011 0.117240
# 5 -0.015397 0.023568 -0.008708 0.000011 0.072198 -0.000006
# 6 0.000002 -0.000003 0.000002 0.117240 -0.000006 -0.013776
#
#
# Mechanical properties :
#
#
# Convention : Reuss Voigt Hill
#
# Bulk Modulus (GPa) = 53.74690 61.17084 57.45887
# Shear Modulus (GPa) = -122.33803 19.63375 -51.35214
#
# Velocity S-wave (km/s) = -7.93427 3.17854 -5.14050
# Velocity P-wave (km/s) = 7.50199 6.70434 2.38031
#
# Compressibility (1/GPa) = 0.01860572
#
# Stress axis : x y z
#
# Youngs Moduli (GPa) = 67.58307 44.14648 50.35734
#
# Poissons Ratio (x) = 0.49412 -0.03976
# Poissons Ratio (y) = 0.75644 0.45055
# Poissons Ratio (z) = -0.05336 0.39498
#
# Static dielectric constant tensor:
#      x y z
#    x 3.623970 0.000000 0.061300 
#    y 0.000000 3.734570 0.000000 
#    z 0.061300 0.000000 3.636270 
# 
# 
# High freq. dielectric constant tensor:
#      x y z
#    x 1.778510 0.000000 0.005760 
#    y 0.000000 1.726620 0.000000 
#    z 0.005760 0.000000 1.761110 
# 
# From -- ./inp_files/259846.got.cif
#   From: 2010.06.25/outbox.cif.g09.slc.cpg/sg12_130_cif.got.tgz:259846.got - 2010.06.28 00:19:55.
