data_PCOD8094233
_publ_section_title
;
Structure prediction by ZEFSAII (Michael W. Deem and Ramdas Pophale) SiO2 
 PCOD8094233
Probable space group: C 2/M
;
_chemical_formula_sum "Si O2"
_cell_formula_units_Z 64
_cell_length_a 23.052100
_cell_length_b 19.908714
_cell_length_c 8.831268
_cell_angle_alpha 90.000000
_cell_angle_beta 129.649615
_cell_angle_gamma 90.000000
_cell_volume 3120.653024
_symmetry_space_group_name_H-M "C 2/M"
_symmetry_group_IT_number 12
_symmetry_cell_setting 'monoclinic'
loop_
_space_group_symop_operation_xyz
x,y,z
-x,y,-z
-x,-y,-z
x,-y,z
1/2+x,1/2+y,z
1/2-x,1/2+y,-z
1/2-x,1/2-y,-z
1/2+x,1/2-y,z
loop_
_atom_site_type_symbol
_atom_site_label
_atom_site_fract_x
_atom_site_fract_y
_atom_site_fract_z
Si Si1 0.038149 0.074837 0.401274
Si Si2 0.670664 0.654088 0.751173
Si Si3 0.505379 0.200115 0.689304
Si Si4 0.945359 0.576941 0.047268
Si Si5 0.913118 0.164663 0.084335
Si Si6 0.203459 0.840057 0.362898
Si Si7 0.837888 0.729195 0.467855
Si Si8 0.772820 0.576352 0.732854
O O1 0.114618 0.116610 0.540321
O O2 0.000000 0.071551 0.500000
O O3 0.983787 0.114821 0.198068
O O4 0.053769 0.000000 0.364833
O O5 0.645966 0.645871 0.881790
O O6 0.671769 0.732541 0.708678
O O7 0.751095 0.619842 0.847002
O O8 0.500000 0.209815 0.500000
O O9 0.540043 0.127659 0.788982
O O10 0.557356 0.258959 0.847179
O O11 0.422256 0.201532 0.623184
O O12 0.957904 0.500000 0.124024
O O13 0.860756 0.587405 0.846332
O O14 0.000000 0.594928 0.000000
O O15 0.870874 0.147658 0.859451
O O16 0.182107 0.775629 0.424531
O O17 0.275112 0.829074 0.370230
O O18 0.224951 0.902138 0.505948
O O19 0.753409 0.500000 0.737774
#
# Coordination Sequence:
#
# PCOD8094233 Si02
#       8
#     8   8   8   8   8   8   8   8
#     4   9  17  33  55  80 118 162 198 234 286 358
#     4  10  19  37  59  85 125 160 203 242 307 382
#     4  12  23  39  64  93 128 163 199 264 318 367
#     4  10  24  44  68  91 117 163 216 260 315 380
#     4  11  22  36  58  98 125 161 206 253 305 367
#     4  10  24  37  59  89 120 162 204 262 303 359
#     4  10  21  40  56  84 124 159 200 249 314 367
#     4  10  22  43  63  86 121 167 210 255 313 373
#
# _framework density 20.508527000000001
#
# number of rings (size 3 to 8) (size 9 to 14) (size 15 to 20)
#    0.000    1.750    2.500    1.500    7.000    2.750 
#    0.000    0.000    0.000    5.250    0.000    0.000 
#    0.000    0.000    0.000    0.000    0.000    0.000 
#
# Total GULP energy -396722.948887 kJ/mol
# GULP energy per Si atom -12397.592153 kJ/mol
# Density = 2.046185 g / cm^3
# Si number density = 20.508527 Si / 1000 Ang^3
#
#
#
# Elastic Constant Matrix: (Units=GPa)
#
#
# Indices 1 2 3 4 5 6 
#
# 1 72.9559 0.6721 0.9963 0.0000 15.6485 0.0000
# 2 0.6721 73.5453 6.2062 0.0000 8.1496 0.0000
# 3 0.9963 6.2062 66.9506 0.0000 10.0260 0.0000
# 4 0.0000 0.0000 0.0000 28.2827 0.0000 5.5833
# 5 15.6485 8.1496 10.0260 0.0000 23.2017 0.0000
# 6 0.0000 0.0000 0.0000 5.5833 0.0000 25.5383
#
#
#
# Elastic Compliance Matrix: (Units=1/GPa)
#
#
# Indices 1 2 3 4 5 6 
#
# 1 0.016241 0.001053 0.001450 0.000000 -0.011950 0.000000
# 2 0.001053 0.014239 -0.000513 0.000000 -0.005490 0.000000
# 3 0.001450 -0.000513 0.016125 0.000000 -0.007766 0.000000
# 4 0.000000 0.000000 0.000000 0.036952 0.000000 -0.008079
# 5 -0.011950 -0.005490 -0.007766 0.000000 0.056444 0.000000
# 6 0.000000 0.000000 0.000000 -0.008079 0.000000 0.040923
#
#
# Mechanical properties :
#
#
# Convention : Reuss Voigt Hill
#
# Bulk Modulus (GPa) = 19.76849 25.46677 22.61763
# Shear Modulus (GPa) = 25.79900 29.10971 27.45435
#
# Velocity S-wave (km/s) = 3.55063 3.77157 3.66277
# Velocity P-wave (km/s) = 5.14484 5.60455 5.37961
#
# Compressibility (1/GPa) = 0.05058555
#
# Stress axis : x y z
#
# Youngs Moduli (GPa) = 61.57387 70.22905 62.01419
#
# Poissons Ratio (x) = -0.07398 -0.08994
# Poissons Ratio (y) = -0.06486 0.03184
# Poissons Ratio (z) = -0.08930 0.03606
#
# Static dielectric constant tensor:
#      x y z
#    x 3.936980 0.000000 0.259250 
#    y 0.000000 3.777630 0.000000 
#    z 0.259250 0.000000 3.465410 
# 
# 
# High freq. dielectric constant tensor:
#      x y z
#    x 1.820010 0.000000 0.016960 
#    y 0.000000 1.794500 0.000000 
#    z 0.016960 0.000000 1.778570 
# 
# From -- ./inp_files/99105.got.cif
#   From: 2010.06.25/outbox.cif.g09.slc.cpg/sg12_50_cif.got.tgz:99105.got - 2010.06.28 00:19:55.
