data_PCOD8094295
_publ_section_title
;
Structure prediction by ZEFSAII (Michael W. Deem and Ramdas Pophale) SiO2 
 PCOD8094295
Probable space group: C 2/M
;
_chemical_formula_sum "Si O2"
_cell_formula_units_Z 52
_cell_length_a 18.908741
_cell_length_b 11.546256
_cell_length_c 21.737300
_cell_angle_alpha 90.000000
_cell_angle_beta 145.783714
_cell_angle_gamma 90.000000
_cell_volume 2668.650662
_symmetry_space_group_name_H-M "C 2/M"
_symmetry_group_IT_number 12
_symmetry_cell_setting 'monoclinic'
loop_
_space_group_symop_operation_xyz
x,y,z
-x,y,-z
-x,-y,-z
x,-y,z
1/2+x,1/2+y,z
1/2-x,1/2+y,-z
1/2-x,1/2-y,-z
1/2+x,1/2-y,z
loop_
_atom_site_type_symbol
_atom_site_label
_atom_site_fract_x
_atom_site_fract_y
_atom_site_fract_z
Si Si1 0.961819 0.138601 0.289151
Si Si2 0.123104 0.638474 0.236940
Si Si3 0.000000 0.810462 0.500000
Si Si4 0.176560 0.125313 0.526404
Si Si5 0.104522 0.780803 0.892982
Si Si6 0.203178 0.742040 0.732069
Si Si7 0.309761 0.500000 0.836463
Si Si8 0.952718 0.000000 0.066650
O O1 0.942213 0.191296 0.208555
O O2 0.844477 0.176972 0.246690
O O3 0.097846 0.187134 0.414179
O O4 0.965298 0.000000 0.289560
O O5 0.135735 0.500000 0.240146
O O6 0.202166 0.685904 0.354198
O O7 0.174895 0.697829 0.211673
O O8 0.977794 0.673210 0.141062
O O9 0.925626 0.893450 0.492848
O O10 0.904994 0.725668 0.396274
O O11 0.220608 0.000000 0.534043
O O12 0.083329 0.888556 0.921212
O O13 0.250000 0.750000 0.000000
O O14 0.227244 0.615239 0.776026
O O15 0.398955 0.500000 0.840641
O O16 0.382421 0.500000 0.952102
#
# Coordination Sequence:
#
# PCOD8094295 Si02
#       8
#     8   8   4   8   8   8   4   4
#     4  10  20  37  62  88 119 153 194 237 288 349
#     4  10  21  38  61  89 120 149 193 243 291 343
#     4   8  15  27  54  86 124 144 185 229 286 342
#     4   8  15  30  55  86 116 151 185 231 288 345
#     4  12  25  41  61  84 116 156 198 245 297 345
#     4  10  19  37  60  92 116 155 189 239 287 346
#     4  11  22  39  64  80 114 153 204 239 284 348
#     4  11  24  44  60  82 109 155 202 243 291 349
#
# _framework density 19.485503000000001
#
# number of rings (size 3 to 8) (size 9 to 14) (size 15 to 20)
#    0.000    2.000    2.308    1.615    1.077    4.615 
#    1.385    0.000    0.000    2.769    0.000    0.000 
#    0.000    0.000    0.000    0.000    0.000    0.000 
#
# Total GULP energy -322134.662780 kJ/mol
# GULP energy per Si atom -12389.794722 kJ/mol
# Density = 1.944115 g / cm^3
# Si number density = 19.485503 Si / 1000 Ang^3
#
#
#
# Elastic Constant Matrix: (Units=GPa)
#
#
# Indices 1 2 3 4 5 6 
#
# 1 76.3329 15.0479 31.3736 0.0000 0.5447 0.0000
# 2 15.0479 70.9052 25.2855 0.0000 -0.7429 0.0000
# 3 31.3736 25.2855 75.4791 0.0000 5.6142 0.0001
# 4 0.0000 0.0000 0.0000 31.3353 0.0000 -0.0052
# 5 0.5447 -0.7429 5.6142 0.0000 35.2299 0.0000
# 6 0.0000 0.0000 0.0001 -0.0052 0.0000 33.5610
#
#
#
# Elastic Compliance Matrix: (Units=1/GPa)
#
#
# Indices 1 2 3 4 5 6 
#
# 1 0.015901 -0.001125 -0.006287 0.000000 0.000732 0.000000
# 2 -0.001125 0.016147 -0.005028 0.000000 0.001159 0.000000
# 3 -0.006287 -0.005028 0.017757 0.000000 -0.002839 0.000000
# 4 0.000000 0.000000 0.000000 0.031913 0.000000 0.000005
# 5 0.000732 0.001159 -0.002839 0.000000 0.028850 0.000000
# 6 0.000000 0.000000 0.000000 0.000005 0.000000 0.029796
#
#
# Mechanical properties :
#
#
# Convention : Reuss Voigt Hill
#
# Bulk Modulus (GPa) = 40.11886 40.68125 40.40006
# Shear Modulus (GPa) = 28.80945 30.09260 29.45102
#
# Velocity S-wave (km/s) = 3.84931 3.93410 3.89193
# Velocity P-wave (km/s) = 6.35531 6.44664 6.40114
#
# Compressibility (1/GPa) = 0.02492593
#
# Stress axis : x y z
#
# Youngs Moduli (GPa) = 62.88873 61.93009 56.31430
#
# Poissons Ratio (x) = 0.06967 0.35405
# Poissons Ratio (y) = 0.07074 0.28315
# Poissons Ratio (z) = 0.39539 0.31138
#
# Static dielectric constant tensor:
#      x y z
#    x 3.611890 0.000000 -0.047810 
#    y 0.000000 3.263380 0.000000 
#    z -0.047810 0.000000 3.853580 
# 
# 
# High freq. dielectric constant tensor:
#      x y z
#    x 1.756970 0.000000 -0.004400 
#    y 0.000000 1.739400 0.000000 
#    z -0.004400 0.000000 1.768050 
# 
# From -- ./inp_files/315826.got.cif
#   From: 2010.06.25/outbox.cif.g09.slc.cpg/sg12_158_cif.got.tgz:315826.got - 2010.06.28 00:19:55.
