data_PCOD8094265
_publ_section_title
;
Structure prediction by ZEFSAII (Michael W. Deem and Ramdas Pophale) SiO2 
 PCOD8094265
Probable space group: C 2/M
;
_chemical_formula_sum "Si O2"
_cell_formula_units_Z 56
_cell_length_a 29.299799
_cell_length_b 9.117887
_cell_length_c 11.035882
_cell_angle_alpha 90.000000
_cell_angle_beta 110.526566
_cell_angle_gamma 90.000000
_cell_volume 2761.074846
_symmetry_space_group_name_H-M "C 2/M"
_symmetry_group_IT_number 12
_symmetry_cell_setting 'monoclinic'
loop_
_space_group_symop_operation_xyz
x,y,z
-x,y,-z
-x,-y,-z
x,-y,z
1/2+x,1/2+y,z
1/2-x,1/2+y,-z
1/2-x,1/2-y,-z
1/2+x,1/2-y,z
loop_
_atom_site_type_symbol
_atom_site_label
_atom_site_fract_x
_atom_site_fract_y
_atom_site_fract_z
Si Si1 0.376674 0.326297 0.581103
Si Si2 0.022402 0.673291 0.895386
Si Si3 0.632501 0.166526 0.972424
Si Si4 0.671325 0.832566 0.270762
Si Si5 0.706525 0.672891 0.892166
Si Si6 0.721127 0.673455 0.635608
Si Si7 0.471948 0.826226 0.597873
O O1 0.383484 0.500000 0.582887
O O2 0.372960 0.264671 0.714739
O O3 0.324031 0.269450 0.485078
O O4 0.419554 0.252348 0.544189
O O5 0.016342 0.500000 0.893244
O O6 0.078281 0.722566 0.948258
O O7 0.998110 0.730095 0.746459
O O8 0.000000 0.739518 0.000000
O O9 0.654489 0.273773 0.892842
O O10 0.631322 0.000000 0.921653
O O11 0.666257 0.175422 0.121992
O O12 0.725332 0.768042 0.355223
O O13 0.664819 0.000000 0.309200
O O14 0.711409 0.500000 0.912147
O O15 0.709032 0.727219 0.757998
O O16 0.750000 0.750000 0.000000
O O17 0.723938 0.500000 0.634176
O O18 0.500000 0.780363 0.500000
O O19 0.464631 0.000000 0.593913
#
# Coordination Sequence:
#
# PCOD8094265 Si02
#       7
#     8   8   8   8   8   8   8
#     4  11  23  38  58  84 115 151 193 234 286 343
#     4   9  18  35  60  86 112 148 192 238 290 347
#     4  10  20  35  60  88 114 148 189 234 289 345
#     4  10  19  37  60  83 115 151 187 230 283 338
#     4  11  21  37  57  82 116 153 190 232 284 339
#     4   9  20  37  56  81 116 154 188 229 280 339
#     4  10  22  40  60  85 115 149 197 249 290 339
#
# _framework density 20.281956999999998
#
# number of rings (size 3 to 8) (size 9 to 14) (size 15 to 20)
#    0.000    2.000    1.429    2.143    2.000    3.143 
#    0.000    3.571    0.000    1.714    0.000    0.000 
#    0.000    0.000    0.000    0.000    0.000    0.000 
#
# Total GULP energy -347073.354368 kJ/mol
# GULP energy per Si atom -12395.476942 kJ/mol
# Density = 2.023579 g / cm^3
# Si number density = 20.281957 Si / 1000 Ang^3
#
#
#
# Elastic Constant Matrix: (Units=GPa)
#
#
# Indices 1 2 3 4 5 6 
#
# 1 165.9922 44.4759 44.5893 0.0000 -10.0491 0.0000
# 2 44.4759 54.2703 18.8940 0.0000 -7.3866 0.0000
# 3 44.5893 18.8940 78.0065 0.0000 -4.6852 0.0000
# 4 0.0000 0.0000 0.0000 17.0559 0.0000 -0.6510
# 5 -10.0491 -7.3866 -4.6852 0.0000 38.2662 0.0000
# 6 0.0000 0.0000 0.0000 -0.6510 0.0000 38.8637
#
#
#
# Elastic Compliance Matrix: (Units=1/GPa)
#
#
# Indices 1 2 3 4 5 6 
#
# 1 0.008516 -0.005681 -0.003449 0.000000 0.000718 0.000000
# 2 -0.005681 0.024338 -0.002473 0.000000 0.002903 0.000000
# 3 -0.003449 -0.002473 0.015420 0.000000 0.000505 0.000000
# 4 0.000000 0.000000 0.000000 0.058668 0.000000 0.000983
# 5 0.000718 0.002903 0.000505 0.000000 0.026943 0.000000
# 6 0.000000 0.000000 0.000000 0.000983 0.000000 0.025747
#
#
# Mechanical properties :
#
#
# Convention : Reuss Voigt Hill
#
# Bulk Modulus (GPa) = 39.89078 57.13193 48.51136
# Shear Modulus (GPa) = 26.15103 31.52447 28.83775
#
# Velocity S-wave (km/s) = 3.59468 3.94675 3.77482
# Velocity P-wave (km/s) = 6.07781 6.99994 6.55511
#
# Compressibility (1/GPa) = 0.02506845
#
# Stress axis : x y z
#
# Youngs Moduli (GPa) = 117.41944 41.08754 64.84961
#
# Poissons Ratio (x) = 0.23342 0.22367
# Poissons Ratio (y) = 0.66706 0.16039
# Poissons Ratio (z) = 0.40498 0.10162
#
# Static dielectric constant tensor:
#      x y z
#    x 3.992630 0.000000 -0.055890 
#    y 0.000000 3.347330 0.000000 
#    z -0.055890 0.000000 3.820940 
# 
# 
# High freq. dielectric constant tensor:
#      x y z
#    x 1.811860 0.000000 -0.003260 
#    y 0.000000 1.755300 0.000000 
#    z -0.003260 0.000000 1.795720 
# 
# From -- ./inp_files/180806.got.cif
#   From: 2010.06.25/outbox.cif.g09.slc.cpg/sg12_91_cif.got.tgz:180806.got - 2010.06.28 00:19:55.
