data_PCOD8094734
_publ_section_title
;
Structure prediction by ZEFSAII (Michael W. Deem and Ramdas Pophale) SiO2 
 PCOD8094734
Probable space group: C 2/M
;
_chemical_formula_sum "Si O2"
_cell_formula_units_Z 64
_cell_length_a 15.843703
_cell_length_b 24.223423
_cell_length_c 8.827254
_cell_angle_alpha 90.000000
_cell_angle_beta 68.956281
_cell_angle_gamma 90.000000
_cell_volume 3161.856934
_symmetry_space_group_name_H-M "C 2/M"
_symmetry_group_IT_number 12
_symmetry_cell_setting 'monoclinic'
loop_
_space_group_symop_operation_xyz
x,y,z
-x,y,-z
-x,-y,-z
x,-y,z
1/2+x,1/2+y,z
1/2-x,1/2+y,-z
1/2-x,1/2-y,-z
1/2+x,1/2-y,z
loop_
_atom_site_type_symbol
_atom_site_label
_atom_site_fract_x
_atom_site_fract_y
_atom_site_fract_z
Si Si1 0.730189 0.368626 0.183670
Si Si2 0.580759 0.437361 0.840192
Si Si3 0.676002 0.289367 0.980625
Si Si4 0.771078 0.561291 0.887626
Si Si5 0.583442 0.754480 0.545021
Si Si6 0.160923 0.864397 0.539940
Si Si7 0.413297 0.198671 0.128287
Si Si8 0.199180 0.654235 0.327441
O O1 0.670704 0.388812 0.364462
O O2 0.819371 0.334493 0.178324
O O3 0.659079 0.333164 0.126778
O O4 0.763505 0.421679 0.068311
O O5 0.558867 0.500000 0.801732
O O6 0.673089 0.436081 0.873824
O O7 0.587639 0.398667 0.685483
O O8 0.500000 0.414894 0.000000
O O9 0.591397 0.253825 0.975966
O O10 0.712314 0.321384 0.811320
O O11 0.750000 0.250000 0.000000
O O12 0.812538 0.500000 0.851993
O O13 0.838014 0.604157 0.755496
O O14 0.500000 0.732785 0.500000
O O15 0.643402 0.701260 0.542248
O O16 0.563218 0.786270 0.713728
O O17 0.627547 0.797990 0.399850
O O18 0.262164 0.870890 0.542038
O O19 0.500000 0.166202 0.000000
#
# Coordination Sequence:
#
# PCOD8094734 Si02
#       8
#     8   8   8   8   8   8   8   8
#     4  10  21  36  59  83 115 155 194 247 297 345
#     4   9  20  40  64  88 121 162 198 243 299 343
#     4   9  18  33  54  75 107 155 192 223 281 351
#     4   9  20  38  64  88 108 150 206 246 290 358
#     4  12  25  34  54  87 123 157 198 245 292 354
#     4  11  21  37  58  85 122 158 203 238 283 350
#     4  11  23  36  53  83 118 159 197 239 295 358
#     4  10  19  39  57  77 115 159 192 245 292 351
#
# _framework density 20.241268999999999
#
# number of rings (size 3 to 8) (size 9 to 14) (size 15 to 20)
#    0.000    1.875    2.500    1.875    7.000    2.000 
#    0.000    0.000    0.000    3.375    0.000    0.000 
#    0.000    0.000    0.000    0.000    0.000    0.000 
#
# Total GULP energy -396464.208013 kJ/mol
# GULP energy per Si atom -12389.506500 kJ/mol
# Density = 2.019520 g / cm^3
# Si number density = 20.241269 Si / 1000 Ang^3
#
#
#
# Elastic Constant Matrix: (Units=GPa)
#
#
# Indices 1 2 3 4 5 6 
#
# 1 41.5316 6.4535 25.7384 0.0000 8.2786 0.0000
# 2 6.4535 116.6319 58.0792 0.0000 -0.6849 0.0000
# 3 25.7384 58.0792 153.2912 0.0000 5.9482 0.0000
# 4 0.0000 0.0000 0.0000 29.7944 0.0000 -3.1619
# 5 8.2786 -0.6849 5.9482 0.0000 28.5299 0.0000
# 6 0.0000 0.0000 0.0000 -3.1619 0.0000 14.4212
#
#
#
# Elastic Compliance Matrix: (Units=1/GPa)
#
#
# Indices 1 2 3 4 5 6 
#
# 1 0.028354 0.000764 -0.004770 0.000000 -0.007215 0.000000
# 2 0.000764 0.010623 -0.004188 0.000000 0.000906 0.000000
# 3 -0.004770 -0.004188 0.008934 0.000000 -0.000579 0.000000
# 4 0.000000 0.000000 0.000000 0.034363 0.000000 0.007534
# 5 -0.007215 0.000906 -0.000579 0.000000 0.037287 0.000000
# 6 0.000000 0.000000 0.000000 0.007534 0.000000 0.070994
#
#
# Mechanical properties :
#
#
# Convention : Reuss Voigt Hill
#
# Bulk Modulus (GPa) = 31.72436 54.66631 43.19533
# Shear Modulus (GPa) = 22.99379 29.29467 26.14423
#
# Velocity S-wave (km/s) = 3.37409 3.80843 3.59782
# Velocity P-wave (km/s) = 5.55756 6.81211 6.21656
#
# Compressibility (1/GPa) = 0.03152152
#
# Stress axis : x y z
#
# Youngs Moduli (GPa) = 35.26875 94.13875 111.93449
#
# Poissons Ratio (x) = -0.07195 0.53397
# Poissons Ratio (y) = -0.02695 0.46880
# Poissons Ratio (z) = 0.16824 0.39427
#
# Static dielectric constant tensor:
#      x y z
#    x 3.383860 0.000000 0.234290 
#    y 0.000000 3.758090 0.000000 
#    z 0.234290 0.000000 3.898930 
# 
# 
# High freq. dielectric constant tensor:
#      x y z
#    x 1.761080 0.000000 0.022150 
#    y 0.000000 1.772160 0.000000 
#    z 0.022150 0.000000 1.802790 
# 
# From -- ./inp_files/66918.got.cif
#   From: 2010.06.25/outbox.cif.g09.slc.cpg/sg12_34_cif.got.tgz:66918.got - 2010.06.28 00:19:55.
