data_PCOD8094163
_publ_section_title
;
Structure prediction by ZEFSAII (Michael W. Deem and Ramdas Pophale) SiO2 
 PCOD8094163
Probable space group: C 2/M
;
_chemical_formula_sum "Si O2"
_cell_formula_units_Z 56
_cell_length_a 16.504945
_cell_length_b 30.462582
_cell_length_c 7.671214
_cell_angle_alpha 90.000000
_cell_angle_beta 48.878657
_cell_angle_gamma 90.000000
_cell_volume 2905.517551
_symmetry_space_group_name_H-M "C 2/M"
_symmetry_group_IT_number 12
_symmetry_cell_setting 'monoclinic'
loop_
_space_group_symop_operation_xyz
x,y,z
-x,y,-z
-x,-y,-z
x,-y,z
1/2+x,1/2+y,z
1/2-x,1/2+y,-z
1/2-x,1/2-y,-z
1/2+x,1/2-y,z
loop_
_atom_site_type_symbol
_atom_site_label
_atom_site_fract_x
_atom_site_fract_y
_atom_site_fract_z
Si Si1 0.764624 0.874571 0.141002
Si Si2 0.496533 0.651687 0.805122
Si Si3 0.380898 0.048540 0.221041
Si Si4 0.116936 0.548317 0.374437
Si Si5 0.266563 0.627601 0.549353
Si Si6 0.283083 0.192750 0.087212
Si Si7 0.078950 0.760551 0.255678
O O1 0.709172 0.920399 0.166479
O O2 0.743931 0.864077 0.375850
O O3 0.891997 0.878896 0.918171
O O4 0.713423 0.837145 0.092426
O O5 0.604858 0.626011 0.593406
O O6 0.486092 0.697844 0.724461
O O7 0.500000 0.664308 0.000000
O O8 0.370641 0.043721 0.439620
O O9 0.288366 0.083160 0.297569
O O10 0.360955 0.000000 0.164583
O O11 0.500000 0.065748 0.000000
O O12 0.128000 0.500000 0.270776
O O13 0.000000 0.568742 0.500000
O O14 0.213934 0.666703 0.735448
O O15 0.179668 0.223499 0.226639
O O16 0.386195 0.225255 0.939997
O O17 0.000000 0.735525 0.500000
#
# Coordination Sequence:
#
# PCOD8094163 Si02
#       7
#     8   8   8   8   8   8   8
#     4   9  20  35  54  83 109 138 185 225 266 326
#     4   9  18  36  58  79 105 144 178 224 274 328
#     4   9  19  35  54  81 112 141 181 224 267 327
#     4   9  18  33  54  77 109 147 177 219 275 321
#     4  10  19  37  59  80 110 145 182 220 277 327
#     4  10  21  35  56  79 105 145 183 221 272 322
#     4  10  19  37  53  77 109 141 181 225 273 321
#
# _framework density 19.273675000000001
#
# number of rings (size 3 to 8) (size 9 to 14) (size 15 to 20)
#    0.000    2.571    1.429    0.000    2.000    0.571 
#    5.143    3.571    0.000    4.286    0.000    3.000 
#    0.000    0.000    0.000    0.000    0.000    0.000 
#
# Total GULP energy -346961.428337 kJ/mol
# GULP energy per Si atom -12391.479583 kJ/mol
# Density = 1.922981 g / cm^3
# Si number density = 19.273675 Si / 1000 Ang^3
#
#
#
# Elastic Constant Matrix: (Units=GPa)
#
#
# Indices 1 2 3 4 5 6 
#
# 1 54.0806 38.3283 33.4373 0.0000 -15.8358 0.0000
# 2 38.3283 100.6030 73.8947 0.0000 -25.5358 0.0000
# 3 33.4373 73.8947 122.8633 0.0000 -23.3058 0.0000
# 4 0.0000 0.0000 0.0000 35.9538 0.0000 -7.7736
# 5 -15.8358 -25.5358 -23.3058 0.0000 31.3781 0.0000
# 6 0.0000 0.0000 0.0000 -7.7736 0.0000 20.8470
#
#
#
# Elastic Compliance Matrix: (Units=1/GPa)
#
#
# Indices 1 2 3 4 5 6 
#
# 1 0.026509 -0.007327 -0.001631 0.000000 0.006204 0.000000
# 2 -0.007327 0.021542 -0.009705 0.000000 0.006625 0.000000
# 3 -0.001631 -0.009705 0.014859 0.000000 0.002315 0.000000
# 4 0.000000 0.000000 0.000000 0.030253 0.000000 0.011281
# 5 0.006204 0.006625 0.002315 0.000000 0.042111 0.000000
# 6 0.000000 0.000000 0.000000 0.011281 0.000000 0.052175
#
#
# Mechanical properties :
#
#
# Convention : Reuss Voigt Hill
#
# Bulk Modulus (GPa) = 39.08726 63.20750 51.14738
# Shear Modulus (GPa) = 21.43140 26.42822 23.92981
#
# Velocity S-wave (km/s) = 3.33821 3.70700 3.52743
# Velocity P-wave (km/s) = 5.93147 7.15461 6.57156
#
# Compressibility (1/GPa) = 0.02558378
#
# Stress axis : x y z
#
# Youngs Moduli (GPa) = 37.72357 46.42149 67.29757
#
# Poissons Ratio (x) = 0.34011 0.10975
# Poissons Ratio (y) = 0.27639 0.65315
# Poissons Ratio (z) = 0.06152 0.45054
#
# Static dielectric constant tensor:
#      x y z
#    x 3.554450 0.000000 -0.186050 
#    y 0.000000 3.837670 0.000000 
#    z -0.186050 0.000000 3.739190 
# 
# 
# High freq. dielectric constant tensor:
#      x y z
#    x 1.735920 0.000000 -0.000010 
#    y 0.000000 1.735560 0.000000 
#    z -0.000010 0.000000 1.760040 
# 
# From -- ./inp_files/80438.got.cif
#   From: 2010.06.25/outbox.cif.g09.slc.cpg/sg12_41_cif.got.tgz:80438.got - 2010.06.28 00:19:55.
