data_PCOD8094099
_publ_section_title
;
Structure prediction by ZEFSAII (Michael W. Deem and Ramdas Pophale) SiO2 
 PCOD8094099
Probable space group: C 2/M
;
_chemical_formula_sum "Si O2"
_cell_formula_units_Z 48
_cell_length_a 12.467306
_cell_length_b 13.365361
_cell_length_c 15.104066
_cell_angle_alpha 90.000000
_cell_angle_beta 120.663743
_cell_angle_gamma 90.000000
_cell_volume 2164.881309
_symmetry_space_group_name_H-M "C 2/M"
_symmetry_group_IT_number 12
_symmetry_cell_setting 'monoclinic'
loop_
_space_group_symop_operation_xyz
x,y,z
-x,y,-z
-x,-y,-z
x,-y,z
1/2+x,1/2+y,z
1/2-x,1/2+y,-z
1/2-x,1/2-y,-z
1/2+x,1/2-y,z
loop_
_atom_site_type_symbol
_atom_site_label
_atom_site_fract_x
_atom_site_fract_y
_atom_site_fract_z
Si Si1 0.839263 0.885253 0.782350
Si Si2 0.361496 0.881884 0.441893
Si Si3 0.402277 0.302538 0.150834
Si Si4 0.743067 0.111636 0.932924
Si Si5 0.176478 0.117138 0.508743
Si Si6 0.899515 0.117116 0.335393
O O1 0.710033 0.856251 0.679226
O O2 0.825654 0.868569 0.880879
O O3 0.949892 0.815925 0.793224
O O4 0.873997 0.000000 0.774099
O O5 0.500000 0.833790 0.500000
O O6 0.287828 0.835642 0.495856
O O7 0.371333 0.000000 0.458593
O O8 0.372018 0.188292 0.112007
O O9 0.351230 0.325801 0.227985
O O10 0.333132 0.377099 0.054621
O O11 0.686358 0.000000 0.907777
O O12 0.168788 0.163457 0.605269
O O13 0.047261 0.133609 0.403644
O O14 0.200136 0.000000 0.530470
O O15 0.868569 0.000000 0.313800
#
# Coordination Sequence:
#
# PCOD8094099 Si02
#       6
#     8   8   8   8   8   8
#     4  10  19  36  63  91 123 164 207 256 314 379
#     4   9  16  28  52  86 123 164 206 249 309 378
#     4  11  20  35  64  91 121 162 211 259 304 380
#     4  10  23  39  59  92 128 162 205 262 321 371
#     4   8  14  25  45  83 128 161 194 247 313 374
#     4   9  15  26  51  87 125 160 199 251 312 376
#
# _framework density 22.172115999999999
#
# number of rings (size 3 to 8) (size 9 to 14) (size 15 to 20)
#    0.000    2.500    1.667    3.000    0.000    1.333 
#    0.000    1.667    3.667   14.000    0.000    0.000 
#    0.000    0.667    0.000    0.000    0.000    0.000 
#
# Total GULP energy -297604.538354 kJ/mol
# GULP energy per Si atom -12400.189098 kJ/mol
# Density = 2.212165 g / cm^3
# Si number density = 22.172116 Si / 1000 Ang^3
#
#
#
# Elastic Constant Matrix: (Units=GPa)
#
#
# Indices 1 2 3 4 5 6 
#
# 1 135.9024 23.5247 74.3342 0.0000 -7.4179 0.0000
# 2 23.5247 60.5806 29.6275 0.0000 0.2571 0.0000
# 3 74.3342 29.6275 163.0265 0.0000 -21.5091 0.0000
# 4 0.0000 0.0000 0.0000 22.1724 0.0000 0.7793
# 5 -7.4179 0.2571 -21.5091 0.0000 39.5773 0.0000
# 6 0.0000 0.0000 0.0000 0.7793 0.0000 13.7181
#
#
#
# Elastic Compliance Matrix: (Units=1/GPa)
#
#
# Indices 1 2 3 4 5 6 
#
# 1 0.009988 -0.001779 -0.004290 0.000000 -0.000448 0.000000
# 2 -0.001779 0.018590 -0.002830 0.000000 -0.001992 0.000000
# 3 -0.004290 -0.002830 0.009157 0.000000 0.004191 0.000000
# 4 0.000000 0.000000 0.000000 0.045191 0.000000 -0.002567
# 5 -0.000448 -0.001992 0.004191 0.000000 0.027474 0.000000
# 6 0.000000 0.000000 0.000000 -0.002567 0.000000 0.073042
#
#
# Mechanical properties :
#
#
# Convention : Reuss Voigt Hill
#
# Bulk Modulus (GPa) = 50.15616 68.27581 59.21598
# Shear Modulus (GPa) = 24.05151 30.56177 27.30664
#
# Velocity S-wave (km/s) = 3.29715 3.71669 3.51319
# Velocity P-wave (km/s) = 6.09634 7.01989 6.57435
#
# Compressibility (1/GPa) = 0.01993773
#
# Stress axis : x y z
#
# Youngs Moduli (GPa) = 100.11801 53.79150 109.20068
#
# Poissons Ratio (x) = 0.09567 0.46849
# Poissons Ratio (y) = 0.17807 0.30908
# Poissons Ratio (z) = 0.42952 0.15225
#
# Static dielectric constant tensor:
#      x y z
#    x 4.086830 0.000000 -0.316000 
#    y 0.000000 3.905540 0.000000 
#    z -0.316000 0.000000 4.079570 
# 
# 
# High freq. dielectric constant tensor:
#      x y z
#    x 1.858320 0.000000 -0.021640 
#    y 0.000000 1.878330 0.000000 
#    z -0.021640 0.000000 1.873800 
# 
# From -- ./inp_files/205140.got.cif
#   From: 2010.06.25/outbox.cif.g09.slc.cpg/sg12_103_cif.got.tgz:205140.got - 2010.06.28 00:19:55.
