data_PCOD8094411
_publ_section_title
;
Structure prediction by ZEFSAII (Michael W. Deem and Ramdas Pophale) SiO2 
 PCOD8094411
Probable space group: C 2/M
;
_chemical_formula_sum "Si O2"
_cell_formula_units_Z 32
_cell_length_a 12.174278
_cell_length_b 17.847636
_cell_length_c 10.124340
_cell_angle_alpha 90.000000
_cell_angle_beta 52.264052
_cell_angle_gamma 90.000000
_cell_volume 1739.718965
_symmetry_space_group_name_H-M "C 2/M"
_symmetry_group_IT_number 12
_symmetry_cell_setting 'monoclinic'
loop_
_space_group_symop_operation_xyz
x,y,z
-x,y,-z
-x,-y,-z
x,-y,z
1/2+x,1/2+y,z
1/2-x,1/2+y,-z
1/2-x,1/2-y,-z
1/2+x,1/2-y,z
loop_
_atom_site_type_symbol
_atom_site_label
_atom_site_fract_x
_atom_site_fract_y
_atom_site_fract_z
Si Si1 0.071127 0.327018 0.584432
Si Si2 0.856733 0.914308 0.742244
Si Si3 0.133972 0.845478 0.544720
Si Si4 0.077532 0.585911 0.078545
O O1 0.080767 0.238795 0.599389
O O2 0.226977 0.361312 0.473615
O O3 0.000000 0.349358 0.500000
O O4 0.976066 0.359749 0.769401
O O5 0.832973 0.861395 0.633179
O O6 0.009980 0.898646 0.689313
O O7 0.845185 0.000000 0.702782
O O8 0.741263 0.897586 0.937761
O O9 0.050689 0.500000 0.140282
O O10 0.000000 0.604436 0.000000
#
# Coordination Sequence:
#
# PCOD8094411 Si02
#       4
#     8   8   8   8
#     4  11  22  37  57  85 124 151 183 238 295 347
#     4  10  19  37  63  84 108 151 204 242 267 330
#     4  10  20  36  56  87 117 150 192 231 292 342
#     4  10  21  37  58  85 113 152 199 235 277 339
#
# _framework density 18.393774000000001
#
# number of rings (size 3 to 8) (size 9 to 14) (size 15 to 20)
#    0.000    1.750    5.000    1.500    0.000    2.500 
#    0.000    1.250    0.000    3.000    0.000    0.000 
#    0.000    0.000    0.000    0.000    0.000    0.000 
#
# Total GULP energy -198391.473630 kJ/mol
# GULP energy per Si atom -12399.467102 kJ/mol
# Density = 1.835191 g / cm^3
# Si number density = 18.393774 Si / 1000 Ang^3
#
#
#
# Elastic Constant Matrix: (Units=GPa)
#
#
# Indices 1 2 3 4 5 6 
#
# 1 149.2711 36.5356 69.0591 0.0000 -15.5566 0.0000
# 2 36.5356 87.2149 73.8893 0.0000 -6.5048 0.0000
# 3 69.0591 73.8893 132.9792 0.0000 -14.0683 0.0000
# 4 0.0000 0.0000 0.0000 32.4480 0.0000 -3.9962
# 5 -15.5566 -6.5048 -14.0683 0.0000 28.6946 0.0000
# 6 0.0000 0.0000 0.0000 -3.9962 0.0000 21.4509
#
#
#
# Elastic Compliance Matrix: (Units=1/GPa)
#
#
# Indices 1 2 3 4 5 6 
#
# 1 0.009020 0.000282 -0.004553 0.000000 0.002722 0.000000
# 2 0.000282 0.021703 -0.012307 0.000000 -0.000961 0.000000
# 3 -0.004553 -0.012307 0.017051 0.000000 0.003101 0.000000
# 4 0.000000 0.000000 0.000000 0.031542 0.000000 0.005876
# 5 0.002722 -0.000961 0.003101 0.000000 0.037628 0.000000
# 6 0.000000 0.000000 0.000000 0.005876 0.000000 0.047713
#
#
# Mechanical properties :
#
#
# Convention : Reuss Voigt Hill
#
# Bulk Modulus (GPa) = 68.41223 80.93703 74.67463
# Shear Modulus (GPa) = 24.66860 29.18410 26.92635
#
# Velocity S-wave (km/s) = 3.66613 3.98757 3.83022
# Velocity P-wave (km/s) = 7.42930 8.08077 7.76188
#
# Compressibility (1/GPa) = 0.01461727
#
# Stress axis : x y z
#
# Youngs Moduli (GPa) = 110.86020 46.07665 58.64783
#
# Poissons Ratio (x) = -0.01297 0.26702
# Poissons Ratio (y) = -0.03121 0.72178
# Poissons Ratio (z) = 0.50474 0.56707
#
# Static dielectric constant tensor:
#      x y z
#    x 3.756550 0.000000 -0.381100 
#    y 0.000000 3.386430 0.000000 
#    z -0.381100 0.000000 3.402300 
# 
# 
# High freq. dielectric constant tensor:
#      x y z
#    x 1.718470 0.000000 -0.029890 
#    y 0.000000 1.713340 0.000000 
#    z -0.029890 0.000000 1.697800 
# 
# From -- ./inp_files/46001.got.cif
#   From: 2010.06.25/outbox.cif.g09.slc.cpg/sg12_24_cif.got.tgz:46001.got - 2010.06.28 00:19:55.
