data_PCOD8094770
_publ_section_title
;
Structure prediction by ZEFSAII (Michael W. Deem and Ramdas Pophale) SiO2 
 PCOD8094770
Probable space group: C 2/M
;
_chemical_formula_sum "Si O2"
_cell_formula_units_Z 64
_cell_length_a 15.815245
_cell_length_b 29.065800
_cell_length_c 9.330730
_cell_angle_alpha 90.000000
_cell_angle_beta 46.356669
_cell_angle_gamma 90.000000
_cell_volume 3103.862430
_symmetry_space_group_name_H-M "C 2/M"
_symmetry_group_IT_number 12
_symmetry_cell_setting 'monoclinic'
loop_
_space_group_symop_operation_xyz
x,y,z
-x,y,-z
-x,-y,-z
x,-y,z
1/2+x,1/2+y,z
1/2-x,1/2+y,-z
1/2-x,1/2-y,-z
1/2+x,1/2-y,z
loop_
_atom_site_type_symbol
_atom_site_label
_atom_site_fract_x
_atom_site_fract_y
_atom_site_fract_z
Si Si1 0.468035 0.553442 0.375164
Si Si2 0.987877 0.277445 0.273388
Si Si3 0.110542 0.598815 0.282725
Si Si4 0.888832 0.804106 0.196822
Si Si5 0.709758 0.392916 0.579350
Si Si6 0.467035 0.123279 0.195463
Si Si7 0.336266 0.552808 0.082371
Si Si8 0.670142 0.201918 0.279001
O O1 0.500000 0.564820 0.500000
O O2 0.437703 0.500000 0.390841
O O3 0.354032 0.584131 0.480543
O O4 0.570236 0.568683 0.145923
O O5 0.951218 0.235598 0.215944
O O6 0.961190 0.321715 0.208138
O O7 0.907403 0.276322 0.506343
O O8 0.122734 0.278146 0.180457
O O9 0.208514 0.559749 0.164856
O O10 0.157258 0.646285 0.299780
O O11 0.000000 0.580478 0.500000
O O12 0.075735 0.606389 0.160683
O O13 0.817003 0.838324 0.383114
O O14 0.804335 0.785631 0.165564
O O15 0.000000 0.830865 0.000000
O O16 0.847748 0.399666 0.394365
O O17 0.657071 0.417131 0.782072
O O18 0.500000 0.106026 0.000000
O O19 0.356215 0.500000 0.101878
#
# Coordination Sequence:
#
# PCOD8094770 Si02
#       8
#     8   8   8   8   8   8   8   8
#     4  10  24  45  64  89 129 167 198 250 323 377
#     4  10  20  40  60  85 121 168 213 248 314 373
#     4  11  18  40  64  90 122 164 204 252 315 365
#     4  12  23  36  61  92 123 159 211 267 305 360
#     4  12  23  42  64  92 124 162 210 260 307 368
#     4  11  23  39  63  92 124 167 207 252 312 374
#     4  11  22  39  69  96 119 161 210 252 303 382
#     4  10  19  39  64  79 121 172 201 254 314 370
#
# _framework density 20.619471000000001
#
# number of rings (size 3 to 8) (size 9 to 14) (size 15 to 20)
#    0.000    1.125    6.250    2.250    1.750    1.750 
#    2.250    0.000    0.000    1.875    0.000    0.000 
#    0.000    0.000    0.000    0.000    0.000    0.000 
#
# Total GULP energy -396625.579278 kJ/mol
# GULP energy per Si atom -12394.549352 kJ/mol
# Density = 2.057254 g / cm^3
# Si number density = 20.619471 Si / 1000 Ang^3
#
#
#
# Elastic Constant Matrix: (Units=GPa)
#
#
# Indices 1 2 3 4 5 6 
#
# 1 151.0225 42.6542 40.6499 0.0000 -8.9206 0.0000
# 2 42.6542 54.0855 13.3669 0.0000 3.3697 0.0000
# 3 40.6499 13.3669 78.5698 0.0000 6.4224 0.0000
# 4 0.0000 0.0000 0.0000 9.0763 0.0000 2.0316
# 5 -8.9206 3.3697 6.4224 0.0000 32.1560 0.0000
# 6 0.0000 0.0000 0.0000 2.0316 0.0000 32.6990
#
#
#
# Elastic Compliance Matrix: (Units=1/GPa)
#
#
# Indices 1 2 3 4 5 6 
#
# 1 0.010072 -0.007141 -0.004357 0.000000 0.004413 0.000000
# 2 -0.007141 0.024425 -0.000091 0.000000 -0.004522 0.000000
# 3 -0.004357 -0.000091 0.015346 0.000000 -0.004264 0.000000
# 4 0.000000 0.000000 0.000000 0.111731 0.000000 -0.006942
# 5 0.004413 -0.004522 -0.004264 0.000000 0.033648 0.000000
# 6 0.000000 0.000000 0.000000 -0.006942 0.000000 0.031013
#
#
# Mechanical properties :
#
#
# Convention : Reuss Voigt Hill
#
# Bulk Modulus (GPa) = 37.50256 53.00219 45.25237
# Shear Modulus (GPa) = 19.35723 27.25337 23.30530
#
# Velocity S-wave (km/s) = 3.06728 3.63950 3.36558
# Velocity P-wave (km/s) = 5.54723 6.58954 6.09072
#
# Compressibility (1/GPa) = 0.02666485
#
# Stress axis : x y z
#
# Youngs Moduli (GPa) = 99.28759 40.94102 65.16535
#
# Poissons Ratio (x) = 0.29237 0.28390
# Poissons Ratio (y) = 0.70903 0.00594
# Poissons Ratio (z) = 0.43256 0.00373
#
# Static dielectric constant tensor:
#      x y z
#    x 4.240460 0.000000 -0.038740 
#    y 0.000000 3.485430 0.000000 
#    z -0.038740 0.000000 3.651740 
# 
# 
# High freq. dielectric constant tensor:
#      x y z
#    x 1.831050 0.000000 -0.004180 
#    y 0.000000 1.780950 0.000000 
#    z -0.004180 0.000000 1.796790 
# 
# From -- ./inp_files/68618.got.cif
#   From: 2010.06.25/outbox.cif.g09.slc.cpg/sg12_35_cif.got.tgz:68618.got - 2010.06.28 00:19:55.
