data_PCOD8094688
_publ_section_title
;
Structure prediction by ZEFSAII (Michael W. Deem and Ramdas Pophale) SiO2 
 PCOD8094688
Probable space group: C 2/M
;
_chemical_formula_sum "Si O2"
_cell_formula_units_Z 56
_cell_length_a 20.956917
_cell_length_b 21.114959
_cell_length_c 18.844633
_cell_angle_alpha 90.000000
_cell_angle_beta 160.691233
_cell_angle_gamma 90.000000
_cell_volume 2757.308811
_symmetry_space_group_name_H-M "C 2/M"
_symmetry_group_IT_number 12
_symmetry_cell_setting 'monoclinic'
loop_
_space_group_symop_operation_xyz
x,y,z
-x,y,-z
-x,-y,-z
x,-y,z
1/2+x,1/2+y,z
1/2-x,1/2+y,-z
1/2-x,1/2-y,-z
1/2+x,1/2-y,z
loop_
_atom_site_type_symbol
_atom_site_label
_atom_site_fract_x
_atom_site_fract_y
_atom_site_fract_z
Si Si1 0.462284 0.425910 0.037348
Si Si2 0.784145 0.298174 0.780021
Si Si3 0.648086 0.430584 0.592061
Si Si4 0.788313 0.572947 0.488305
Si Si5 0.185155 0.374924 0.855284
Si Si6 0.974931 0.874480 0.677951
Si Si7 0.451127 0.739765 0.336295
O O1 0.428463 0.500000 0.995677
O O2 0.650012 0.407943 0.278904
O O3 0.500000 0.395468 0.000000
O O4 0.266871 0.397783 0.865583
O O5 0.787590 0.370582 0.753261
O O6 0.713124 0.293975 0.787276
O O7 0.644750 0.252858 0.586960
O O8 0.000000 0.271349 0.000000
O O9 0.500000 0.431592 0.500000
O O10 0.753893 0.500000 0.699608
O O11 0.528962 0.420555 0.394281
O O12 0.760928 0.500000 0.481108
O O13 0.726320 0.615475 0.490773
O O14 0.004752 0.584394 0.691125
O O15 0.124171 0.302941 0.779203
O O16 0.344212 0.389023 0.082013
O O17 0.993625 0.802493 0.673080
#
# Coordination Sequence:
#
# PCOD8094688 Si02
#       7
#     8   8   8   8   8   8   8
#     4   9  20  39  60  84 116 151 192 246 303 356
#     4  10  21  39  62  87 128 159 200 257 303 354
#     4  10  19  38  65  91 121 156 198 251 304 360
#     4  10  22  38  57  87 118 150 197 247 297 360
#     4  11  23  37  63  85 118 160 202 244 300 364
#     4  10  21  40  59  84 124 158 195 245 302 357
#     4  10  22  40  56  89 119 159 205 248 296 357
#
# _framework density 20.309660000000001
#
# number of rings (size 3 to 8) (size 9 to 14) (size 15 to 20)
#    0.000    2.000    2.857    1.286    0.000   10.571 
#    0.000    2.143    0.000    0.000    0.000    0.000 
#    0.000    0.000    0.000    0.000    0.000    0.000 
#
# Total GULP energy -347069.914125 kJ/mol
# GULP energy per Si atom -12395.354076 kJ/mol
# Density = 2.026343 g / cm^3
# Si number density = 20.309660 Si / 1000 Ang^3
#
#
#
# Elastic Constant Matrix: (Units=GPa)
#
#
# Indices 1 2 3 4 5 6 
#
# 1 161.4151 32.1100 62.3412 0.0046 3.9526 -0.0101
# 2 32.1100 39.4840 15.0836 0.0135 -7.7305 -0.0177
# 3 62.3412 15.0836 92.2020 0.0056 21.8357 -0.0133
# 4 0.0046 0.0135 0.0056 40.3722 0.0002 -8.4857
# 5 3.9526 -7.7305 21.8357 0.0002 32.5512 -0.0087
# 6 -0.0101 -0.0177 -0.0133 -8.4857 -0.0087 30.5510
#
#
#
# Elastic Compliance Matrix: (Units=1/GPa)
#
#
# Indices 1 2 3 4 5 6 
#
# 1 0.009471 -0.005108 -0.005954 0.000001 0.001631 -0.000002
# 2 -0.005108 0.033666 -0.004867 -0.000006 0.011881 0.000017
# 3 -0.005954 -0.004867 0.018749 0.000000 -0.013010 0.000000
# 4 0.000001 -0.000006 0.000000 0.026305 0.000000 0.007306
# 5 0.001631 0.011881 -0.013010 0.000000 0.042071 0.000014
# 6 -0.000002 0.000017 0.000000 0.007306 0.000014 0.034762
#
#
# Mechanical properties :
#
#
# Convention : Reuss Voigt Hill
#
# Bulk Modulus (GPa) = 33.30371 56.90785 45.10578
# Shear Modulus (GPa) = 24.16700 32.93264 28.54982
#
# Velocity S-wave (km/s) = 3.45327 4.03119 3.75337
# Velocity P-wave (km/s) = 5.68627 7.05324 6.40632
#
# Compressibility (1/GPa) = 0.03002668
#
# Stress axis : x y z
#
# Youngs Moduli (GPa) = 105.58410 29.70316 53.33601
#
# Poissons Ratio (x) = 0.15173 0.31758
# Poissons Ratio (y) = 0.53935 0.25960
# Poissons Ratio (z) = 0.62869 0.14457
#
# Static dielectric constant tensor:
#      x y z
#    x 3.970440 0.000000 -0.131110 
#    y 0.000000 3.773540 0.000000 
#    z -0.131110 0.000000 3.551140 
# 
# 
# High freq. dielectric constant tensor:
#      x y z
#    x 1.807380 0.000000 -0.005780 
#    y 0.000000 1.789760 0.000000 
#    z -0.005780 0.000000 1.778180 
# 
# From -- ./inp_files/286066.got.cif
#   From: 2010.06.25/outbox.cif.g09.slc.cpg/sg12_144_cif.got.tgz:286066.got - 2010.06.28 00:19:55.
