data_PCOD8094556
_publ_section_title
;
Structure prediction by ZEFSAII (Michael W. Deem and Ramdas Pophale) SiO2 
 PCOD8094556
Probable space group: C 2/M
;
_chemical_formula_sum "Si O2"
_cell_formula_units_Z 56
_cell_length_a 14.520385
_cell_length_b 23.349638
_cell_length_c 14.310576
_cell_angle_alpha 90.000000
_cell_angle_beta 35.895918
_cell_angle_gamma 90.000000
_cell_volume 2844.763320
_symmetry_space_group_name_H-M "C 2/M"
_symmetry_group_IT_number 12
_symmetry_cell_setting 'monoclinic'
loop_
_space_group_symop_operation_xyz
x,y,z
-x,y,-z
-x,-y,-z
x,-y,z
1/2+x,1/2+y,z
1/2-x,1/2+y,-z
1/2-x,1/2-y,-z
1/2+x,1/2-y,z
loop_
_atom_site_type_symbol
_atom_site_label
_atom_site_fract_x
_atom_site_fract_y
_atom_site_fract_z
Si Si1 0.856144 0.775462 0.271049
Si Si2 0.082234 0.565554 0.734877
Si Si3 0.659473 0.432526 0.326088
Si Si4 0.116781 0.679685 0.329146
Si Si5 0.637050 0.820218 0.599910
Si Si6 0.597248 0.365995 0.005180
Si Si7 0.781715 0.065827 0.926173
O O1 0.725377 0.775269 0.296237
O O2 0.799174 0.808830 0.411594
O O3 0.877489 0.709537 0.285739
O O4 0.015171 0.805322 0.101559
O O5 0.115080 0.500000 0.674221
O O6 0.189013 0.581553 0.736016
O O7 0.123020 0.610928 0.619955
O O8 0.902323 0.574374 0.908305
O O9 0.500000 0.405781 0.500000
O O10 0.641165 0.500000 0.330982
O O11 0.680119 0.406260 0.205765
O O12 0.227626 0.637774 0.179754
O O13 0.000000 0.647682 0.500000
O O14 0.003829 0.708424 0.345101
O O15 0.500000 0.394946 0.000000
O O16 0.607801 0.404991 0.087445
O O17 0.829051 0.000000 0.890653
#
# Coordination Sequence:
#
# PCOD8094556 Si02
#       7
#     8   8   8   8   8   8   8
#     4   9  21  36  57  83 116 150 192 241 297 341
#     4  10  20  36  59  84 116 153 192 234 287 356
#     4   9  19  35  54  81 118 154 188 239 293 342
#     4   9  18  37  59  78 114 155 186 240 294 341
#     4  10  19  38  59  85 115 152 192 239 292 349
#     4  10  20  37  57  84 114 154 196 245 292 342
#     4  10  20  36  57  82 115 158 197 240 297 349
#
# _framework density 19.685293000000001
#
# number of rings (size 3 to 8) (size 9 to 14) (size 15 to 20)
#    0.000    2.429    1.429    0.429    2.000    2.571 
#    2.571    3.571    0.000    9.429    0.000    0.000 
#    0.000    0.000    0.000    0.000    0.000    0.000 
#
# Total GULP energy -346883.702703 kJ/mol
# GULP energy per Si atom -12388.703668 kJ/mol
# Density = 1.964049 g / cm^3
# Si number density = 19.685293 Si / 1000 Ang^3
#
#
#
# Elastic Constant Matrix: (Units=GPa)
#
#
# Indices 1 2 3 4 5 6 
#
# 1 127.4289 39.2499 31.1439 -0.0036 2.5712 -0.0049
# 2 39.2499 72.3895 29.7990 0.0057 4.1806 -0.0198
# 3 31.1439 29.7990 98.5765 -0.0152 0.0613 -0.0254
# 4 -0.0036 0.0057 -0.0152 20.9439 0.0129 6.4959
# 5 2.5712 4.1806 0.0613 0.0129 26.7704 0.0033
# 6 -0.0049 -0.0198 -0.0254 6.4959 0.0033 23.8688
#
#
#
# Elastic Compliance Matrix: (Units=1/GPa)
#
#
# Indices 1 2 3 4 5 6 
#
# 1 0.009659 -0.004532 -0.001681 0.000003 -0.000216 -0.000004
# 2 -0.004532 0.018067 -0.004028 -0.000011 -0.002377 0.000013
# 3 -0.001681 -0.004028 0.011893 0.000007 0.000763 0.000007
# 4 0.000003 -0.000011 0.000007 0.052148 -0.000022 -0.014192
# 5 -0.000216 -0.002377 0.000763 -0.000022 0.037745 0.000000
# 6 -0.000004 0.000013 0.000007 -0.014192 0.000000 0.045758
#
#
# Mechanical properties :
#
#
# Convention : Reuss Voigt Hill
#
# Bulk Modulus (GPa) = 52.26037 55.42005 53.84021
# Shear Modulus (GPa) = 24.73626 27.53010 26.13318
#
# Velocity S-wave (km/s) = 3.54868 3.74372 3.64751
# Velocity P-wave (km/s) = 6.58759 6.84846 6.71929
#
# Compressibility (1/GPa) = 0.01913496
#
# Stress axis : x y z
#
# Youngs Moduli (GPa) = 103.53188 55.34907 84.08456
#
# Poissons Ratio (x) = 0.25087 0.14137
# Poissons Ratio (y) = 0.46926 0.33870
# Poissons Ratio (z) = 0.17407 0.22295
#
# Static dielectric constant tensor:
#      x y z
#    x 3.849790 -0.000010 0.031910 
#    y -0.000010 3.204040 0.000030 
#    z 0.031910 0.000030 3.800270 
# 
# 
# High freq. dielectric constant tensor:
#      x y z
#    x 1.785050 0.000000 -0.001900 
#    y 0.000000 1.715770 0.000000 
#    z -0.001900 0.000000 1.776620 
# 
# From -- ./inp_files/65288.got.cif
#   From: 2010.06.25/outbox.cif.g09.slc.cpg/sg12_33_cif.got.tgz:65288.got - 2010.06.28 00:19:55.
