data_PCOD8094064
_publ_section_title
;
Structure prediction by ZEFSAII (Michael W. Deem and Ramdas Pophale) SiO2 
 PCOD8094064
Probable space group: C 2/M
;
_chemical_formula_sum "Si O2"
_cell_formula_units_Z 56
_cell_length_a 13.966745
_cell_length_b 19.278614
_cell_length_c 17.292049
_cell_angle_alpha 90.000000
_cell_angle_beta 144.602746
_cell_angle_gamma 90.000000
_cell_volume 2696.979173
_symmetry_space_group_name_H-M "C 2/M"
_symmetry_group_IT_number 12
_symmetry_cell_setting 'monoclinic'
loop_
_space_group_symop_operation_xyz
x,y,z
-x,y,-z
-x,-y,-z
x,-y,z
1/2+x,1/2+y,z
1/2-x,1/2+y,-z
1/2-x,1/2-y,-z
1/2+x,1/2-y,z
loop_
_atom_site_type_symbol
_atom_site_label
_atom_site_fract_x
_atom_site_fract_y
_atom_site_fract_z
Si Si1 0.016860 0.634559 0.425516
Si Si2 0.620875 0.283886 0.690933
Si Si3 0.382577 0.333934 0.652311
Si Si4 0.888340 0.694685 0.744606
Si Si5 0.359916 0.419647 0.092362
Si Si6 0.866145 0.323391 0.969881
Si Si7 0.910034 0.421221 0.202686
O O1 0.950270 0.712506 0.386407
O O2 0.906084 0.591076 0.292424
O O3 0.000000 0.601769 0.500000
O O4 0.206312 0.631107 0.522672
O O5 0.476716 0.334064 0.630814
O O6 0.721768 0.318607 0.685983
O O7 0.742004 0.270218 0.844628
O O8 0.358280 0.254191 0.662047
O O9 0.474290 0.375397 0.782225
O O10 0.943724 0.624902 0.737984
O O11 0.042438 0.718031 0.900840
O O12 0.401183 0.500000 0.133127
O O13 0.224772 0.393446 0.064477
O O14 0.275427 0.405986 0.952551
O O15 0.000000 0.353998 0.000000
O O16 0.957505 0.500000 0.214812
#
# Coordination Sequence:
#
# PCOD8094064 Si02
#       7
#     8   8   8   8   8   8   8
#     4  12  24  39  60  91 119 159 202 254 308 355
#     4  10  20  35  57  92 123 153 196 245 305 357
#     4  11  22  36  62  90 121 157 200 257 301 354
#     4  10  19  36  62  91 122 155 203 252 300 356
#     4   9  20  38  59  85 119 159 200 244 300 362
#     4   8  17  31  55  91 121 154 191 244 295 358
#     4  10  23  42  64  88 123 166 203 246 302 366
#
# _framework density 20.763971000000002
#
# number of rings (size 3 to 8) (size 9 to 14) (size 15 to 20)
#    0.000    2.000    2.857    0.429    2.000    2.857 
#    0.000    7.857    0.000    2.571    0.000    0.000 
#    0.000    0.000    0.000    0.000    0.000    0.000 
#
# Total GULP energy -346990.794676 kJ/mol
# GULP energy per Si atom -12392.528381 kJ/mol
# Density = 2.071671 g / cm^3
# Si number density = 20.763971 Si / 1000 Ang^3
#
#
#
# Elastic Constant Matrix: (Units=GPa)
#
#
# Indices 1 2 3 4 5 6 
#
# 1 78.0815 10.5007 29.5980 0.0001 -7.4925 0.0004
# 2 10.5007 70.0461 32.7896 0.0009 -4.5379 0.0007
# 3 29.5980 32.7896 79.8102 0.0014 -8.7734 0.0015
# 4 0.0001 0.0009 0.0014 16.8922 0.0004 -2.0866
# 5 -7.4925 -4.5379 -8.7734 0.0004 35.4081 0.0002
# 6 0.0004 0.0007 0.0015 -2.0866 0.0002 15.1098
#
#
#
# Elastic Compliance Matrix: (Units=1/GPa)
#
#
# Indices 1 2 3 4 5 6 
#
# 1 0.015031 0.000472 -0.005563 0.000000 0.001863 0.000000
# 2 0.000472 0.017698 -0.007387 0.000000 0.000538 0.000000
# 3 -0.005563 -0.007387 0.017881 -0.000001 0.002307 -0.000002
# 4 0.000000 0.000000 -0.000001 0.060226 -0.000001 0.008317
# 5 0.001863 0.000538 0.002307 -0.000001 0.029277 -0.000001
# 6 0.000000 0.000000 -0.000002 0.008317 -0.000001 0.067331
#
#
# Mechanical properties :
#
#
# Convention : Reuss Voigt Hill
#
# Bulk Modulus (GPa) = 38.98116 41.52382 40.25249
# Shear Modulus (GPa) = 20.75084 23.81865 22.28474
#
# Velocity S-wave (km/s) = 3.16471 3.39058 3.27959
# Velocity P-wave (km/s) = 5.67169 5.94723 5.81109
#
# Compressibility (1/GPa) = 0.02565342
#
# Stress axis : x y z
#
# Youngs Moduli (GPa) = 66.52760 56.50210 55.92376
#
# Poissons Ratio (x) = -0.02665 0.31113
# Poissons Ratio (y) = -0.03138 0.41312
# Poissons Ratio (z) = 0.37012 0.41739
#
# Static dielectric constant tensor:
#      x y z
#    x 3.858980 0.000000 -0.117320 
#    y 0.000000 3.332860 0.000000 
#    z -0.117320 0.000000 4.249030 
# 
# 
# High freq. dielectric constant tensor:
#      x y z
#    x 1.807460 0.000000 -0.008090 
#    y 0.000000 1.768020 0.000000 
#    z -0.008090 0.000000 1.835630 
# 
# From -- ./inp_files/272403.got.cif
#   From: 2010.06.25/outbox.cif.g09.slc.cpg/sg12_137_cif.got.tgz:272403.got - 2010.06.28 00:19:55.
