data_PCOD8094516
_publ_section_title
;
Structure prediction by ZEFSAII (Michael W. Deem and Ramdas Pophale) SiO2 
 PCOD8094516
Probable space group: C 2/M
;
_chemical_formula_sum "Si O2"
_cell_formula_units_Z 48
_cell_length_a 17.742893
_cell_length_b 15.293846
_cell_length_c 16.486103
_cell_angle_alpha 90.000000
_cell_angle_beta 30.212144
_cell_angle_gamma 90.000000
_cell_volume 2251.139876
_symmetry_space_group_name_H-M "C 2/M"
_symmetry_group_IT_number 12
_symmetry_cell_setting 'monoclinic'
loop_
_space_group_symop_operation_xyz
x,y,z
-x,y,-z
-x,-y,-z
x,-y,z
1/2+x,1/2+y,z
1/2-x,1/2+y,-z
1/2-x,1/2-y,-z
1/2+x,1/2-y,z
loop_
_atom_site_type_symbol
_atom_site_label
_atom_site_fract_x
_atom_site_fract_y
_atom_site_fract_z
Si Si1 0.584257 0.680244 0.079034
Si Si2 0.500000 0.305454 0.500000
Si Si3 0.279174 0.897778 0.298844
Si Si4 0.500000 0.216596 0.000000
Si Si5 0.244103 0.500000 0.233922
Si Si6 0.892420 0.337897 0.718433
Si Si7 0.607248 0.191488 0.649936
Si Si8 0.978273 0.000000 0.144673
O O1 0.531451 0.716550 0.042168
O O2 0.532793 0.746669 0.196007
O O3 0.501524 0.587879 0.175769
O O4 0.763076 0.670142 0.907344
O O5 0.607576 0.366296 0.454464
O O6 0.595867 0.247884 0.347947
O O7 0.362949 0.846707 0.149080
O O8 0.353445 0.878307 0.317166
O O9 0.289954 0.000000 0.271795
O O10 0.140577 0.416313 0.313093
O O11 0.309677 0.500000 0.264345
O O12 0.390460 0.500000 0.043034
O O13 0.047878 0.355736 0.623144
O O14 0.750000 0.250000 0.500000
#
# Coordination Sequence:
#
# PCOD8094516 Si02
#       8
#     8   4   8   4   4   8   8   4
#     4  10  20  38  64  90 124 161 199 249 304 371
#     4  12  23  41  66  86 120 164 206 253 305 364
#     4  11  24  42  65  90 121 159 208 263 306 361
#     4  10  19  37  68  94 116 156 204 255 311 358
#     4   9  20  33  62  90 126 149 197 254 295 366
#     4  11  22  40  61  91 123 162 203 247 307 371
#     4  11  24  41  61  87 124 164 201 252 318 365
#     4   9  18  34  62 100 118 152 202 248 308 364
#
# _framework density 21.32253
#
# number of rings (size 3 to 8) (size 9 to 14) (size 15 to 20)
#    0.000    1.500    3.333    3.000    3.500    0.333 
#    1.500    0.000    0.000    0.000    0.000    0.000 
#    0.000    0.000    0.000    0.000    0.000    0.000 
#
# Total GULP energy -297558.593667 kJ/mol
# GULP energy per Si atom -12398.274736 kJ/mol
# Density = 2.127400 g / cm^3
# Si number density = 21.322530 Si / 1000 Ang^3
#
#
#
# Elastic Constant Matrix: (Units=GPa)
#
#
# Indices 1 2 3 4 5 6 
#
# 1 99.2829 38.0364 18.3887 0.0001 -29.6976 0.0000
# 2 38.0364 125.1591 21.4478 -0.0005 -19.3727 0.0000
# 3 18.3887 21.4478 61.0484 -0.0015 -15.2369 0.0000
# 4 0.0001 -0.0005 -0.0015 20.9405 0.0003 -12.2397
# 5 -29.6976 -19.3727 -15.2369 0.0003 34.2282 0.0000
# 6 0.0000 0.0000 0.0000 -12.2397 0.0000 23.3382
#
#
#
# Elastic Compliance Matrix: (Units=1/GPa)
#
#
# Indices 1 2 3 4 5 6 
#
# 1 0.014404 -0.002592 -0.000759 0.000000 0.010692 0.000000
# 2 -0.002592 0.009462 -0.001989 0.000000 0.002221 0.000000
# 3 -0.000759 -0.001989 0.018970 0.000002 0.006660 0.000001
# 4 0.000000 0.000000 0.000002 0.068864 0.000000 0.036116
# 5 0.010692 0.002221 0.006660 0.000000 0.042714 0.000000
# 6 0.000000 0.000000 0.000001 0.036116 0.000000 0.061789
#
#
# Mechanical properties :
#
#
# Convention : Reuss Voigt Hill
#
# Bulk Modulus (GPa) = 31.09931 49.02626 40.06278
# Shear Modulus (GPa) = 21.04337 29.54254 25.29295
#
# Velocity S-wave (km/s) = 3.14492 3.72628 3.44787
# Velocity P-wave (km/s) = 5.27297 6.44641 5.88899
#
# Compressibility (1/GPa) = 0.03215506
#
# Stress axis : x y z
#
# Youngs Moduli (GPa) = 69.42333 105.68262 52.71402
#
# Poissons Ratio (x) = 0.27397 0.04003
# Poissons Ratio (y) = 0.17997 0.10486
# Poissons Ratio (z) = 0.05272 0.21022
#
# Static dielectric constant tensor:
#      x y z
#    x 3.765700 0.000000 -0.160530 
#    y 0.000000 4.022790 0.000000 
#    z -0.160530 0.000000 3.957400 
# 
# 
# High freq. dielectric constant tensor:
#      x y z
#    x 1.829910 0.000000 -0.018760 
#    y 0.000000 1.834010 0.000000 
#    z -0.018760 0.000000 1.833840 
# 
# From -- ./inp_files/278112.got.cif
#   From: 2010.06.25/outbox.cif.g09.slc.cpg/sg12_140_cif.got.tgz:278112.got - 2010.06.28 00:19:55.
