data_PCOD8094284
_publ_section_title
;
Structure prediction by ZEFSAII (Michael W. Deem and Ramdas Pophale) SiO2 
 PCOD8094284
Probable space group: C 2/M
;
_chemical_formula_sum "Si O2"
_cell_formula_units_Z 56
_cell_length_a 24.040540
_cell_length_b 13.247658
_cell_length_c 9.312009
_cell_angle_alpha 90.000000
_cell_angle_beta 110.399775
_cell_angle_gamma 90.000000
_cell_volume 2779.698032
_symmetry_space_group_name_H-M "C 2/M"
_symmetry_group_IT_number 12
_symmetry_cell_setting 'monoclinic'
loop_
_space_group_symop_operation_xyz
x,y,z
-x,y,-z
-x,-y,-z
x,-y,z
1/2+x,1/2+y,z
1/2-x,1/2+y,-z
1/2-x,1/2-y,-z
1/2+x,1/2-y,z
loop_
_atom_site_type_symbol
_atom_site_label
_atom_site_fract_x
_atom_site_fract_y
_atom_site_fract_z
Si Si1 0.051931 0.616178 0.254027
Si Si2 0.652727 0.613790 0.330124
Si Si3 0.423015 0.190225 0.211677
Si Si4 0.935750 0.798922 0.948540
Si Si5 0.201146 0.613579 0.990007
Si Si6 0.122711 0.736336 0.535816
Si Si7 0.253220 0.285231 0.773172
O O1 0.060623 0.500000 0.214108
O O2 0.064125 0.688754 0.129577
O O3 0.100590 0.641196 0.420785
O O4 0.984812 0.630333 0.251534
O O5 0.668815 0.500000 0.384325
O O6 0.608173 0.619254 0.156212
O O7 0.619346 0.663364 0.435854
O O8 0.711568 0.670941 0.331189
O O9 0.420893 0.240863 0.367061
O O10 0.417861 0.282814 0.096806
O O11 0.366055 0.119316 0.131168
O O12 0.000000 0.849181 0.000000
O O13 0.213467 0.500000 0.052062
O O14 0.213702 0.684237 0.139942
O O15 0.247449 0.639665 0.903757
O O16 0.189219 0.732943 0.650797
#
# Coordination Sequence:
#
# PCOD8094284 Si02
#       7
#     8   8   8   8   8   8   8
#     4  10  21  36  59  90 122 154 188 229 292 362
#     4  11  22  40  60  80 111 156 202 242 291 340
#     4  10  19  37  60  86 123 148 186 237 294 348
#     4   9  20  38  59  86 115 149 189 242 293 339
#     4  10  20  34  60  91 118 150 191 240 293 347
#     4  10  23  38  56  83 121 157 191 236 287 344
#     4  10  21  39  56  84 121 152 194 241 289 342
#
# _framework density 20.146073999999999
#
# number of rings (size 3 to 8) (size 9 to 14) (size 15 to 20)
#    0.000    2.000    1.429    1.714    0.000    8.000 
#    0.000    0.714    0.000   11.143    0.000    0.000 
#    0.000    0.000    0.000    0.000    0.000    0.000 
#
# Total GULP energy -347079.941110 kJ/mol
# GULP energy per Si atom -12395.712182 kJ/mol
# Density = 2.010022 g / cm^3
# Si number density = 20.146074 Si / 1000 Ang^3
#
#
#
# Elastic Constant Matrix: (Units=GPa)
#
#
# Indices 1 2 3 4 5 6 
#
# 1 34.6835 15.4933 -2.5627 0.0000 -6.6312 0.0000
# 2 15.4933 100.7928 13.9869 0.0000 -3.8416 0.0000
# 3 -2.5627 13.9869 63.5655 0.0000 -2.1964 0.0000
# 4 0.0000 0.0000 0.0000 13.7142 0.0000 1.8587
# 5 -6.6312 -3.8416 -2.1964 0.0000 39.5257 0.0000
# 6 0.0000 0.0000 0.0000 1.8587 0.0000 6.9638
#
#
#
# Elastic Compliance Matrix: (Units=1/GPa)
#
#
# Indices 1 2 3 4 5 6 
#
# 1 0.032285 -0.005131 0.002606 0.000000 0.005062 0.000000
# 2 -0.005131 0.011079 -0.002642 0.000000 0.000069 0.000000
# 3 0.002606 -0.002642 0.016456 0.000000 0.001095 0.000000
# 4 0.000000 0.000000 0.000000 0.075654 0.000000 -0.020193
# 5 0.005062 0.000069 0.001095 0.000000 0.026217 0.000000
# 6 0.000000 0.000000 0.000000 -0.020193 0.000000 0.148989
#
#
# Mechanical properties :
#
#
# Convention : Reuss Voigt Hill
#
# Bulk Modulus (GPa) = 20.20849 28.09741 24.15295
# Shear Modulus (GPa) = 14.81434 23.51570 19.16502
#
# Velocity S-wave (km/s) = 2.71467 3.42022 3.08767
# Velocity P-wave (km/s) = 4.45855 5.43823 4.97258
#
# Compressibility (1/GPa) = 0.04948416
#
# Stress axis : x y z
#
# Youngs Moduli (GPa) = 30.97444 90.25757 60.76767
#
# Poissons Ratio (x) = 0.46313 -0.15834
# Poissons Ratio (y) = 0.15894 0.16057
# Poissons Ratio (z) = -0.08071 0.23850
#
# Static dielectric constant tensor:
#      x y z
#    x 3.910620 0.000000 -0.077240 
#    y 0.000000 3.260990 0.000000 
#    z -0.077240 0.000000 3.967940 
# 
# 
# High freq. dielectric constant tensor:
#      x y z
#    x 1.799180 0.000000 0.002800 
#    y 0.000000 1.749970 0.000000 
#    z 0.002800 0.000000 1.796760 
# 
# From -- ./inp_files/103277.got.cif
#   From: 2010.06.25/outbox.cif.g09.slc.cpg/sg12_52_cif.got.tgz:103277.got - 2010.06.28 00:19:55.
