data_PCOD8094140
_publ_section_title
;
Structure prediction by ZEFSAII (Michael W. Deem and Ramdas Pophale) SiO2 
 PCOD8094140
Probable space group: C 2/M
;
_chemical_formula_sum "Si O2"
_cell_formula_units_Z 64
_cell_length_a 23.704849
_cell_length_b 16.826086
_cell_length_c 10.897575
_cell_angle_alpha 90.000000
_cell_angle_beta 46.957941
_cell_angle_gamma 90.000000
_cell_volume 3176.728664
_symmetry_space_group_name_H-M "C 2/M"
_symmetry_group_IT_number 12
_symmetry_cell_setting 'monoclinic'
loop_
_space_group_symop_operation_xyz
x,y,z
-x,y,-z
-x,-y,-z
x,-y,z
1/2+x,1/2+y,z
1/2-x,1/2+y,-z
1/2-x,1/2-y,-z
1/2+x,1/2-y,z
loop_
_atom_site_type_symbol
_atom_site_label
_atom_site_fract_x
_atom_site_fract_y
_atom_site_fract_z
Si Si1 0.079223 0.128583 0.134173
Si Si2 0.091896 0.089670 0.626222
Si Si3 0.732249 0.413538 0.777714
Si Si4 0.016071 0.593751 0.277475
Si Si5 0.816407 0.206658 0.332030
Si Si6 0.561975 0.782540 0.012116
Si Si7 0.116196 0.353388 0.356451
Si Si8 0.410154 0.675248 0.620375
O O1 0.059528 0.218370 0.124044
O O2 0.111789 0.127672 0.224413
O O3 0.000612 0.080355 0.229477
O O4 0.146052 0.087800 0.958778
O O5 0.123425 0.154391 0.676761
O O6 0.113519 0.120173 0.458358
O O7 0.125546 0.000000 0.597718
O O8 0.747273 0.500000 0.701109
O O9 0.737906 0.352717 0.660195
O O10 0.799858 0.393407 0.772921
O O11 0.011888 0.500000 0.258591
O O12 0.045253 0.634018 0.106226
O O13 0.075424 0.613031 0.296858
O O14 0.931989 0.625097 0.447682
O O15 0.750000 0.250000 0.500000
O O16 0.857450 0.271378 0.181380
O O17 0.500000 0.766136 0.000000
O O18 0.132271 0.259401 0.327443
O O19 0.500000 0.695926 0.500000
#
# Coordination Sequence:
#
# PCOD8094140 Si02
#       8
#     8   8   8   8   8   8   8   8
#     4  10  21  40  61  91 123 164 208 254 314 386
#     4  11  22  39  65  94 126 162 208 262 313 376
#     4  11  24  38  59  90 126 161 204 264 321 372
#     4  11  22  39  66  96 123 163 217 269 320 370
#     4  11  25  44  64  89 122 169 213 253 315 383
#     4  11  22  41  66  90 122 161 216 259 307 384
#     4  11  20  40  66  91 127 167 213 258 315 388
#     4  10  19  36  65  92 119 162 211 254 313 380
#
# _framework density 20.146511
#
# number of rings (size 3 to 8) (size 9 to 14) (size 15 to 20)
#    0.000    1.250    3.750    3.750    1.750    3.500 
#    2.250    3.125    0.000    0.000    0.000    0.000 
#    0.000    0.000    0.000    0.000    0.000    0.000 
#
# Total GULP energy -396581.860954 kJ/mol
# GULP energy per Si atom -12393.183155 kJ/mol
# Density = 2.010066 g / cm^3
# Si number density = 20.146511 Si / 1000 Ang^3
#
#
#
# Elastic Constant Matrix: (Units=GPa)
#
#
# Indices 1 2 3 4 5 6 
#
# 1 79.9572 23.1209 37.0943 0.0000 -1.1050 0.0000
# 2 23.1209 101.5946 39.7214 0.0000 -4.5414 0.0000
# 3 37.0943 39.7214 72.9088 0.0000 9.9028 0.0000
# 4 0.0000 0.0000 0.0000 -4.1106 0.0000 -11.3503
# 5 -1.1050 -4.5414 9.9028 0.0000 29.5781 0.0000
# 6 0.0000 0.0000 0.0000 -11.3503 0.0000 16.1434
#
#
#
# Elastic Compliance Matrix: (Units=1/GPa)
#
#
# Indices 1 2 3 4 5 6 
#
# 1 0.016739 -0.000164 -0.008914 0.000000 0.003585 0.000000
# 2 -0.000164 0.013081 -0.007664 0.000000 0.004568 0.000000
# 3 -0.008914 -0.007664 0.023709 0.000000 -0.009448 0.000000
# 4 0.000000 0.000000 0.000000 -0.082707 0.000000 -0.058151
# 5 0.003585 0.004568 -0.009448 0.000000 0.037807 0.000000
# 6 0.000000 0.000000 0.000000 -0.058151 0.000000 0.021059
#
#
# Mechanical properties :
#
#
# Convention : Reuss Voigt Hill
#
# Bulk Modulus (GPa) = 49.88482 50.48153 50.18318
# Shear Modulus (GPa) = 71.57729 18.62378 45.10053
#
# Velocity S-wave (km/s) = 5.96704 3.04372 4.73655
# Velocity P-wave (km/s) = 8.50228 6.12078 7.40786
#
# Compressibility (1/GPa) = 0.02004618
#
# Stress axis : x y z
#
# Youngs Moduli (GPa) = 59.74038 76.44747 42.17744
#
# Poissons Ratio (x) = 0.01254 0.37597
# Poissons Ratio (y) = 0.00980 0.32323
# Poissons Ratio (z) = 0.53252 0.58586
#
# Static dielectric constant tensor:
#      x y z
#    x 3.921520 0.000000 0.128100 
#    y 0.000000 3.468240 0.000000 
#    z 0.128100 0.000000 3.742030 
# 
# 
# High freq. dielectric constant tensor:
#      x y z
#    x 1.786830 0.000000 0.005790 
#    y 0.000000 1.789690 0.000000 
#    z 0.005790 0.000000 1.777050 
# 
# From -- ./inp_files/183791.got.cif
#   From: 2010.06.25/outbox.cif.g09.slc.cpg/sg12_92_cif.got.tgz:183791.got - 2010.06.28 00:19:55.
