data_PCOD8094384
_publ_section_title
;
Structure prediction by ZEFSAII (Michael W. Deem and Ramdas Pophale) SiO2 
 PCOD8094384
Probable space group: C 2/M
;
_chemical_formula_sum "Si O2"
_cell_formula_units_Z 56
_cell_length_a 27.683402
_cell_length_b 9.846573
_cell_length_c 16.862972
_cell_angle_alpha 90.000000
_cell_angle_beta 143.206301
_cell_angle_gamma 90.000000
_cell_volume 2753.079576
_symmetry_space_group_name_H-M "C 2/M"
_symmetry_group_IT_number 12
_symmetry_cell_setting 'monoclinic'
loop_
_space_group_symop_operation_xyz
x,y,z
-x,y,-z
-x,-y,-z
x,-y,z
1/2+x,1/2+y,z
1/2-x,1/2+y,-z
1/2-x,1/2-y,-z
1/2+x,1/2-y,z
loop_
_atom_site_type_symbol
_atom_site_label
_atom_site_fract_x
_atom_site_fract_y
_atom_site_fract_z
Si Si1 0.685527 0.344665 0.286576
Si Si2 0.456030 0.151262 0.336208
Si Si3 0.088552 0.338373 0.900239
Si Si4 0.829944 0.148559 0.471997
Si Si5 0.378471 0.222336 0.385433
Si Si6 0.700981 0.648158 0.129402
Si Si7 0.050480 0.843986 0.232247
O O1 0.708565 0.500000 0.335667
O O2 0.763673 0.257013 0.410887
O O3 0.661179 0.324045 0.163005
O O4 0.610794 0.298623 0.241932
O O5 0.430180 0.197184 0.215208
O O6 0.415812 0.255520 0.347367
O O7 0.552800 0.143044 0.473939
O O8 0.422065 0.000000 0.308660
O O9 0.088983 0.500000 0.917356
O O10 0.023948 0.260272 0.870162
O O11 0.174624 0.270033 0.035724
O O12 0.854650 0.151728 0.410953
O O13 0.908640 0.173323 0.628375
O O14 0.793635 0.000000 0.441256
O O15 0.297358 0.137351 0.265384
O O16 0.672464 0.500000 0.059910
O O17 0.021416 0.000000 0.181514
#
# Coordination Sequence:
#
# PCOD8094384 Si02
#       7
#     8   8   8   8   8   8   8
#     4   9  20  36  60  86 113 155 203 238 279 345
#     4  10  20  37  62  90 114 148 198 247 288 342
#     4  11  24  39  58  86 119 156 195 243 297 346
#     4  10  20  34  56  89 125 152 183 240 302 346
#     4  10  19  37  62  87 114 150 193 238 288 344
#     4  10  21  38  59  85 115 154 195 239 290 348
#     4  10  20  38  58  83 118 156 196 241 288 344
#
# _framework density 20.340858999999998
#
# number of rings (size 3 to 8) (size 9 to 14) (size 15 to 20)
#    0.000    2.000    1.429    2.571    0.000    5.714 
#    0.000    5.714    0.000    0.000    0.000    0.000 
#    0.000    0.000    0.000    0.000    0.000    0.000 
#
# Total GULP energy -346969.375469 kJ/mol
# GULP energy per Si atom -12391.763410 kJ/mol
# Density = 2.029456 g / cm^3
# Si number density = 20.340859 Si / 1000 Ang^3
#
#
#
# Elastic Constant Matrix: (Units=GPa)
#
#
# Indices 1 2 3 4 5 6 
#
# 1 108.0207 34.8555 48.6188 0.0000 5.4727 0.0000
# 2 34.8555 93.7064 45.4837 0.0000 -2.6563 0.0000
# 3 48.6188 45.4837 98.8539 0.0000 -4.4039 0.0000
# 4 0.0000 0.0000 0.0000 29.7394 0.0000 0.0864
# 5 5.4727 -2.6563 -4.4039 0.0000 22.6170 0.0000
# 6 0.0000 0.0000 0.0000 0.0864 0.0000 21.5194
#
#
#
# Elastic Compliance Matrix: (Units=1/GPa)
#
#
# Indices 1 2 3 4 5 6 
#
# 1 0.012612 -0.002201 -0.005384 0.000000 -0.004359 0.000000
# 2 -0.002201 0.014128 -0.005367 0.000000 0.001147 0.000000
# 3 -0.005384 -0.005367 0.015397 0.000000 0.003671 0.000000
# 4 0.000000 0.000000 0.000000 0.033626 0.000000 -0.000135
# 5 -0.004359 0.001147 0.003671 0.000000 0.046119 0.000000
# 6 0.000000 0.000000 0.000000 -0.000135 0.000000 0.046470
#
#
# Mechanical properties :
#
#
# Convention : Reuss Voigt Hill
#
# Bulk Modulus (GPa) = 61.60555 62.05522 61.83039
# Shear Modulus (GPa) = 25.04179 26.21671 25.62925
#
# Velocity S-wave (km/s) = 3.51252 3.59398 3.55348
# Velocity P-wave (km/s) = 6.84125 6.91347 6.87746
#
# Compressibility (1/GPa) = 0.01623230
#
# Stress axis : x y z
#
# Youngs Moduli (GPa) = 79.28951 70.78230 64.94863
#
# Poissons Ratio (x) = 0.15582 0.34970
# Poissons Ratio (y) = 0.17454 0.34855
# Poissons Ratio (z) = 0.42691 0.37986
#
# Static dielectric constant tensor:
#      x y z
#    x 3.774810 0.000000 -0.059000 
#    y 0.000000 3.505660 0.000000 
#    z -0.059000 0.000000 3.609140 
# 
# 
# High freq. dielectric constant tensor:
#      x y z
#    x 1.796890 0.000000 -0.002450 
#    y 0.000000 1.774750 0.000000 
#    z -0.002450 0.000000 1.791820 
# 
# From -- ./inp_files/329620.got.cif
#   From: 2010.06.25/outbox.cif.g09.slc.cpg/sg12_165_cif.got.tgz:329620.got - 2010.06.28 00:19:55.
