data_PCOD8094375
_publ_section_title
;
Structure prediction by ZEFSAII (Michael W. Deem and Ramdas Pophale) SiO2 
 PCOD8094375
Probable space group: C 2/M
;
_chemical_formula_sum "Si O2"
_cell_formula_units_Z 56
_cell_length_a 30.836294
_cell_length_b 8.932190
_cell_length_c 11.874812
_cell_angle_alpha 90.000000
_cell_angle_beta 119.028619
_cell_angle_gamma 90.000000
_cell_volume 2859.866862
_symmetry_space_group_name_H-M "C 2/M"
_symmetry_group_IT_number 12
_symmetry_cell_setting 'monoclinic'
loop_
_space_group_symop_operation_xyz
x,y,z
-x,y,-z
-x,-y,-z
x,-y,z
1/2+x,1/2+y,z
1/2-x,1/2+y,-z
1/2-x,1/2-y,-z
1/2+x,1/2-y,z
loop_
_atom_site_type_symbol
_atom_site_label
_atom_site_fract_x
_atom_site_fract_y
_atom_site_fract_z
Si Si1 0.058030 0.674992 0.070525
Si Si2 0.424290 0.323206 0.136209
Si Si3 0.712813 0.822791 0.540008
Si Si4 0.251303 0.827506 0.170483
Si Si5 0.009870 0.676783 0.385139
Si Si6 0.602461 0.176943 0.360997
Si Si7 0.672815 0.827448 0.930604
O O1 0.068925 0.500000 0.066355
O O2 0.082025 0.737273 0.216021
O O3 0.082440 0.765889 0.999578
O O4 0.000000 0.708124 0.000000
O O5 0.427570 0.500000 0.142445
O O6 0.473253 0.256646 0.253300
O O7 0.376936 0.267934 0.146826
O O8 0.750000 0.750000 0.500000
O O9 0.730790 0.774807 0.685532
O O10 0.657261 0.757683 0.452561
O O11 0.713332 0.000000 0.524918
O O12 0.296886 0.799702 0.144644
O O13 0.234489 0.000000 0.147078
O O14 0.204348 0.727446 0.077632
O O15 0.000951 0.500000 0.363214
O O16 0.065514 0.722197 0.416717
O O17 0.000000 0.732061 0.500000
O O18 0.605003 0.000000 0.357950
O O19 0.658896 0.000000 0.930775
#
# Coordination Sequence:
#
# PCOD8094375 Si02
#       7
#     8   8   8   8   8   8   8
#     4  10  19  37  62  86 114 149 200 249 288 344
#     4  12  25  38  57  88 127 158 192 241 301 358
#     4  10  22  39  59  86 119 155 197 242 295 352
#     4   9  20  39  61  86 118 150 193 253 306 351
#     4  10  21  39  66  92 117 155 206 248 292 357
#     4   9  19  37  61  88 116 151 196 250 295 344
#     4  10  21  38  63  88 114 153 201 244 296 357
#
# _framework density 19.581330999999999
#
# number of rings (size 3 to 8) (size 9 to 14) (size 15 to 20)
#    0.000    2.000    1.429    1.714    4.000    1.714 
#    0.000    0.714    0.000    0.000    0.000    0.000 
#    0.000    0.000    0.000    0.000    0.000    0.000 
#
# Total GULP energy -347280.745658 kJ/mol
# GULP energy per Si atom -12402.883774 kJ/mol
# Density = 1.953676 g / cm^3
# Si number density = 19.581331 Si / 1000 Ang^3
#
#
#
# Elastic Constant Matrix: (Units=GPa)
#
#
# Indices 1 2 3 4 5 6 
#
# 1 131.2132 36.3357 68.6671 0.0000 5.0259 0.0000
# 2 36.3357 49.1575 31.0464 0.0000 -1.4276 0.0000
# 3 68.6671 31.0464 135.8348 0.0000 -7.8199 0.0000
# 4 0.0000 0.0000 0.0000 20.2693 0.0000 2.0557
# 5 5.0259 -1.4276 -7.8199 0.0000 32.4369 0.0000
# 6 0.0000 0.0000 0.0000 2.0557 0.0000 29.2889
#
#
#
# Elastic Compliance Matrix: (Units=1/GPa)
#
#
# Indices 1 2 3 4 5 6 
#
# 1 0.011912 -0.005818 -0.004881 0.000000 -0.003278 0.000000
# 2 -0.005818 0.026618 -0.003066 0.000000 0.001334 0.000000
# 3 -0.004881 -0.003066 0.010715 0.000000 0.003204 0.000000
# 4 0.000000 0.000000 0.000000 0.049689 0.000000 -0.003487
# 5 -0.003278 0.001334 0.003204 0.000000 0.032168 0.000000
# 6 0.000000 0.000000 0.000000 -0.003487 0.000000 0.034387
#
#
# Mechanical properties :
#
#
# Convention : Reuss Voigt Hill
#
# Bulk Modulus (GPa) = 46.04999 65.36712 55.70856
# Shear Modulus (GPa) = 24.96785 28.40943 26.68864
#
# Velocity S-wave (km/s) = 3.57471 3.81312 3.69584
# Velocity P-wave (km/s) = 6.37231 7.26921 6.83549
#
# Compressibility (1/GPa) = 0.02171553
#
# Stress axis : x y z
#
# Youngs Moduli (GPa) = 83.94868 37.56828 93.33138
#
# Poissons Ratio (x) = 0.21856 0.45553
# Poissons Ratio (y) = 0.48838 0.28617
# Poissons Ratio (z) = 0.40974 0.11519
#
# Static dielectric constant tensor:
#      x y z
#    x 3.746090 0.000000 0.012190 
#    y 0.000000 3.332620 0.000000 
#    z 0.012190 0.000000 3.747510 
# 
# 
# High freq. dielectric constant tensor:
#      x y z
#    x 1.775920 0.000000 -0.000360 
#    y 0.000000 1.736860 0.000000 
#    z -0.000360 0.000000 1.769780 
# 
# From -- ./inp_files/186435.got.cif
#   From: 2010.06.25/outbox.cif.g09.slc.cpg/sg12_94_cif.got.tgz:186435.got - 2010.06.28 00:19:55.
