data_PCOD8094718
_publ_section_title
;
Structure prediction by ZEFSAII (Michael W. Deem and Ramdas Pophale) SiO2 
 PCOD8094718
Probable space group: C 2/M
;
_chemical_formula_sum "Si O2"
_cell_formula_units_Z 60
_cell_length_a 13.941911
_cell_length_b 12.013455
_cell_length_c 18.336950
_cell_angle_alpha 90.000000
_cell_angle_beta 79.802887
_cell_angle_gamma 90.000000
_cell_volume 3022.753218
_symmetry_space_group_name_H-M "C 2/M"
_symmetry_group_IT_number 12
_symmetry_cell_setting 'monoclinic'
loop_
_space_group_symop_operation_xyz
x,y,z
-x,y,-z
-x,-y,-z
x,-y,z
1/2+x,1/2+y,z
1/2-x,1/2+y,-z
1/2-x,1/2-y,-z
1/2+x,1/2-y,z
loop_
_atom_site_type_symbol
_atom_site_label
_atom_site_fract_x
_atom_site_fract_y
_atom_site_fract_z
Si Si1 0.000000 0.733903 0.500000
Si Si2 0.694678 0.369582 0.993855
Si Si3 0.818986 0.243262 0.743726
Si Si4 0.179776 0.122091 0.526158
Si Si5 0.289115 0.188929 0.377923
Si Si6 0.857309 0.872619 0.166335
Si Si7 0.429555 0.625889 0.851684
Si Si8 0.993053 0.628013 0.652390
O O1 0.089615 0.811894 0.506131
O O2 0.027277 0.656053 0.428910
O O3 0.742022 0.500000 0.997230
O O4 0.603509 0.363877 0.060274
O O5 0.750000 0.250000 0.000000
O O6 0.659380 0.359442 0.916787
O O7 0.786282 0.168819 0.678427
O O8 0.725723 0.317153 0.774266
O O9 0.845271 0.172527 0.810959
O O10 0.916091 0.311014 0.713793
O O11 0.261575 0.113198 0.451684
O O12 0.219900 0.182860 0.593146
O O13 0.147132 0.000000 0.554910
O O14 0.398121 0.161280 0.337705
O O15 0.963252 0.817771 0.170470
O O16 0.856662 0.000000 0.189711
O O17 0.442607 0.500000 0.825912
O O18 0.975869 0.500000 0.668529
#
# Coordination Sequence:
#
# PCOD8094718 Si02
#       8
#     4   8   8   8   8   8   8   8
#     4  10  20  40  58  86 108 144 202 250 300 370
#     4  10  19  38  67  96 128 168 215 255 302 365
#     4  12  22  40  59  88 125 154 200 256 305 366
#     4  10  20  38  60  82 112 149 195 253 307 357
#     4  10  23  39  56  87 116 151 200 246 301 376
#     4  10  21  38  63  92 124 163 207 253 298 355
#     4  10  22  39  63  93 124 167 208 247 299 362
#     4  11  23  39  60  83 114 155 196 246 307 367
#
# _framework density 19.849453
#
# number of rings (size 3 to 8) (size 9 to 14) (size 15 to 20)
#    0.000    1.600    2.667    2.400    0.000    3.733 
#    0.000    2.000    0.000    3.200    0.000    0.000 
#    0.000    0.000    0.000    0.000    0.000    0.000 
#
# Total GULP energy -371665.187989 kJ/mol
# GULP energy per Si atom -12388.839600 kJ/mol
# Density = 1.980427 g / cm^3
# Si number density = 19.849453 Si / 1000 Ang^3
#
#
#
# Elastic Constant Matrix: (Units=GPa)
#
#
# Indices 1 2 3 4 5 6 
#
# 1 81.1530 14.5440 9.5744 0.0000 -10.5172 0.0000
# 2 14.5440 78.6174 -1.7771 0.0000 -2.4926 0.0000
# 3 9.5744 -1.7771 60.4830 0.0000 -6.3608 0.0000
# 4 0.0000 0.0000 0.0000 3.7104 0.0000 1.8740
# 5 -10.5172 -2.4926 -6.3608 0.0000 35.8632 0.0000
# 6 0.0000 0.0000 0.0000 1.8740 0.0000 16.2761
#
#
#
# Elastic Compliance Matrix: (Units=1/GPa)
#
#
# Indices 1 2 3 4 5 6 
#
# 1 0.013417 -0.002414 -0.001833 0.000000 0.003442 0.000000
# 2 -0.002414 0.013196 0.000807 0.000000 0.000352 0.000000
# 3 -0.001833 0.000807 0.017116 0.000000 0.002554 0.000000
# 4 0.000000 0.000000 0.000000 0.286151 0.000000 -0.032947
# 5 0.003442 0.000352 0.002554 0.000000 0.029371 0.000000
# 6 0.000000 0.000000 0.000000 -0.032947 0.000000 0.065233
#
#
# Mechanical properties :
#
#
# Convention : Reuss Voigt Hill
#
# Bulk Modulus (GPa) = 27.13817 29.43734 28.28775
# Shear Modulus (GPa) = 11.27021 24.36409 17.81715
#
# Velocity S-wave (km/s) = 2.38541 3.50729 2.99927
# Velocity P-wave (km/s) = 4.61395 5.59142 5.12604
#
# Compressibility (1/GPa) = 0.03684847
#
# Stress axis : x y z
#
# Youngs Moduli (GPa) = 74.52994 75.78101 58.42471
#
# Poissons Ratio (x) = 0.18297 0.10709
# Poissons Ratio (y) = 0.17995 -0.04715
# Poissons Ratio (z) = 0.13661 -0.06115
#
# Static dielectric constant tensor:
#      x y z
#    x 3.777620 0.000000 -0.046420 
#    y 0.000000 3.868570 0.000000 
#    z -0.046420 0.000000 3.649070 
# 
# 
# High freq. dielectric constant tensor:
#      x y z
#    x 1.776910 0.000000 -0.005010 
#    y 0.000000 1.765490 0.000000 
#    z -0.005010 0.000000 1.781250 
# 
# From -- ./inp_files/269260.got.cif
#   From: 2010.06.25/outbox.cif.g09.slc.cpg/sg12_135_cif.got.tgz:269260.got - 2010.06.28 00:19:55.
