data_PCOD8094968
_publ_section_title
;
Structure prediction by ZEFSAII (Michael W. Deem and Ramdas Pophale) SiO2 
 PCOD8094968
Probable space group: C 2/M
;
_chemical_formula_sum "Si O2"
_cell_formula_units_Z 56
_cell_length_a 25.565206
_cell_length_b 9.318656
_cell_length_c 21.222645
_cell_angle_alpha 90.000000
_cell_angle_beta 140.554859
_cell_angle_gamma 90.000000
_cell_volume 3212.237768
_symmetry_space_group_name_H-M "C 2/M"
_symmetry_group_IT_number 12
_symmetry_cell_setting 'monoclinic'
loop_
_space_group_symop_operation_xyz
x,y,z
-x,y,-z
-x,-y,-z
x,-y,z
1/2+x,1/2+y,z
1/2-x,1/2+y,-z
1/2-x,1/2-y,-z
1/2+x,1/2-y,z
loop_
_atom_site_type_symbol
_atom_site_label
_atom_site_fract_x
_atom_site_fract_y
_atom_site_fract_z
Si Si1 0.888250 0.333940 0.982876
Si Si2 0.999172 0.170514 0.399546
Si Si3 0.062169 0.333393 0.204421
Si Si4 0.314111 0.169858 0.783153
Si Si5 0.130434 0.170798 0.621581
Si Si6 0.996246 0.165218 0.255796
Si Si7 0.679355 0.665546 0.968792
O O1 0.864503 0.500000 0.972403
O O2 0.870091 0.286235 0.894655
O O3 0.830797 0.235139 0.972316
O O4 0.983476 0.305894 0.086699
O O5 0.080021 0.221102 0.512908
O O6 0.003820 0.232205 0.333003
O O7 0.917097 0.225829 0.359778
O O8 0.994899 0.000000 0.392303
O O9 0.070497 0.500000 0.229034
O O10 0.141089 0.275438 0.238813
O O11 0.056862 0.249005 0.265151
O O12 0.222396 0.236801 0.703804
O O13 0.307723 0.000000 0.773627
O O14 0.134368 0.000000 0.627017
O O15 0.902659 0.184835 0.148033
O O16 0.023521 0.000000 0.279742
O O17 0.703955 0.500000 0.999341
O O18 0.750000 0.750000 0.000000
#
# Coordination Sequence:
#
# PCOD8094968 Si02
#       7
#     8   8   8   8   8   8   8
#     4   9  17  29  46  66  92 123 153 186 226 266
#     4   8  14  26  43  66  93 115 144 189 236 272
#     4   9  17  30  45  67  95 122 154 188 222 269
#     4   9  16  26  45  68  91 120 155 191 228 267
#     4   8  14  24  42  68  92 113 145 193 235 267
#     4   9  18  31  48  66  89 123 154 183 227 275
#     4  10  20  31  44  66  95 122 153 187 223 270
#
# _framework density 17.433330000000002
#
# number of rings (size 3 to 8) (size 9 to 14) (size 15 to 20)
#    0.000    3.143    0.000    1.714    2.000    2.286 
#    0.000    1.429    0.000    3.429    0.000    3.000 
#    0.000    0.000    0.000    0.000    0.000    0.000 
#
# Total GULP energy -347074.500987 kJ/mol
# GULP energy per Si atom -12395.517892 kJ/mol
# Density = 1.739365 g / cm^3
# Si number density = 17.433330 Si / 1000 Ang^3
#
#
#
# Elastic Constant Matrix: (Units=GPa)
#
#
# Indices 1 2 3 4 5 6 
#
# 1 169.9658 41.6672 76.3470 0.0000 -14.3119 0.0000
# 2 41.6672 40.1698 20.3202 0.0000 -4.6706 0.0000
# 3 76.3470 20.3202 83.7614 0.0000 -16.8435 0.0000
# 4 0.0000 0.0000 0.0000 11.3700 0.0000 -5.4369
# 5 -14.3119 -4.6706 -16.8435 0.0000 32.3114 0.0000
# 6 0.0000 0.0000 0.0000 -5.4369 0.0000 25.5053
#
#
#
# Elastic Compliance Matrix: (Units=1/GPa)
#
#
# Indices 1 2 3 4 5 6 
#
# 1 0.011750 -0.007727 -0.008952 0.000000 -0.000579 0.000000
# 2 -0.007727 0.033468 -0.000884 0.000000 0.000954 0.000000
# 3 -0.008952 -0.000884 0.021772 0.000000 0.007256 0.000000
# 4 0.000000 0.000000 0.000000 0.097934 0.000000 0.020876
# 5 -0.000579 0.000954 0.007256 0.000000 0.034613 0.000000
# 6 0.000000 0.000000 0.000000 0.020876 0.000000 0.043658
#
#
# Mechanical properties :
#
#
# Convention : Reuss Voigt Hill
#
# Bulk Modulus (GPa) = 31.38392 63.39619 47.39005
# Shear Modulus (GPa) = 17.30452 24.20818 20.75635
#
# Velocity S-wave (km/s) = 3.15399 3.73045 3.45427
# Velocity P-wave (km/s) = 5.59508 7.41613 6.56901
#
# Compressibility (1/GPa) = 0.03186346
#
# Stress axis : x y z
#
# Youngs Moduli (GPa) = 85.10459 29.87955 45.93075
#
# Poissons Ratio (x) = 0.23088 0.41117
# Poissons Ratio (y) = 0.65762 0.04061
# Poissons Ratio (z) = 0.76185 0.02642
#
# Static dielectric constant tensor:
#      x y z
#    x 3.694620 0.000000 -0.090160 
#    y 0.000000 3.803120 0.000000 
#    z -0.090160 0.000000 3.367200 
# 
# 
# High freq. dielectric constant tensor:
#      x y z
#    x 1.684890 0.000000 -0.005950 
#    y 0.000000 1.623290 0.000000 
#    z -0.005950 0.000000 1.664430 
# 
# From -- ./inp_files/282932.got.cif
#   From: 2010.06.25/outbox.cif.g09.slc.cpg/sg12_142_cif.got.tgz:282932.got - 2010.06.28 00:19:55.
