data_PCOD8094334
_publ_section_title
;
Structure prediction by ZEFSAII (Michael W. Deem and Ramdas Pophale) SiO2 
 PCOD8094334
Probable space group: C 2/M
;
_chemical_formula_sum "Si O2"
_cell_formula_units_Z 64
_cell_length_a 32.828136
_cell_length_b 9.137281
_cell_length_c 16.233288
_cell_angle_alpha 90.000000
_cell_angle_beta 137.862039
_cell_angle_gamma 90.000000
_cell_volume 3266.925145
_symmetry_space_group_name_H-M "C 2/M"
_symmetry_group_IT_number 12
_symmetry_cell_setting 'monoclinic'
loop_
_space_group_symop_operation_xyz
x,y,z
-x,y,-z
-x,-y,-z
x,-y,z
1/2+x,1/2+y,z
1/2-x,1/2+y,-z
1/2-x,1/2-y,-z
1/2+x,1/2-y,z
loop_
_atom_site_type_symbol
_atom_site_label
_atom_site_fract_x
_atom_site_fract_y
_atom_site_fract_z
Si Si1 0.573528 0.834684 0.308359
Si Si2 0.869740 0.329073 0.975640
Si Si3 0.021320 0.827639 0.941897
Si Si4 0.399441 0.828645 0.203753
Si Si5 0.235300 0.170274 0.715103
Si Si6 0.461104 0.832152 0.561853
Si Si7 0.630709 0.671917 0.684622
Si Si8 0.288636 0.168939 0.489960
O O1 0.529464 0.721073 0.198904
O O2 0.574675 0.803927 0.407287
O O3 0.641557 0.813245 0.377835
O O4 0.549805 0.000000 0.256129
O O5 0.884601 0.500000 0.990966
O O6 0.801596 0.291857 0.848076
O O7 0.914269 0.245704 0.980356
O O8 0.879900 0.274416 0.084097
O O9 0.029400 0.000000 0.947923
O O10 0.000000 0.777318 0.000000
O O11 0.469478 0.787094 0.321591
O O12 0.359215 0.743213 0.210585
O O13 0.387191 0.000000 0.195532
O O14 0.187794 0.216155 0.714184
O O15 0.222902 0.263738 0.616118
O O16 0.228796 0.000000 0.682558
O O17 0.431627 0.732865 0.447402
O O18 0.455348 0.000000 0.524476
O O19 0.624700 0.500000 0.685980
O O20 0.250000 0.250000 0.500000
O O21 0.269494 0.000000 0.458232
#
# Coordination Sequence:
#
# PCOD8094334 Si02
#       8
#     8   8   8   8   8   8   8   8
#     4  10  21  40  65  90 117 160 206 241 290 357
#     4  10  22  43  65  85 115 160 208 247 289 357
#     4  11  25  41  60  92 127 156 192 248 307 353
#     4  10  21  38  61  86 114 153 201 249 293 350
#     4  10  23  42  62  87 121 160 202 248 298 351
#     4  10  19  37  61  87 117 153 201 246 289 351
#     4  11  23  37  57  89 124 155 192 244 304 356
#     4  11  24  41  64  92 123 158 202 248 297 355
#
# _framework density 19.590287
#
# number of rings (size 3 to 8) (size 9 to 14) (size 15 to 20)
#    0.000    1.625    2.500    1.500    1.750    6.500 
#    0.000    0.000    0.000    0.000    0.000    0.000 
#    0.000    0.000    0.000    0.000    0.000    0.000 
#
# Total GULP energy -396973.169569 kJ/mol
# GULP energy per Si atom -12405.411549 kJ/mol
# Density = 1.954570 g / cm^3
# Si number density = 19.590287 Si / 1000 Ang^3
#
#
#
# Elastic Constant Matrix: (Units=GPa)
#
#
# Indices 1 2 3 4 5 6 
#
# 1 125.5385 59.6087 39.3855 0.0000 -4.1850 0.0000
# 2 59.6087 75.3396 41.1461 0.0000 -2.6232 0.0000
# 3 39.3855 41.1461 85.8205 0.0000 5.0244 0.0000
# 4 0.0000 0.0000 0.0000 29.6545 0.0000 -4.1860
# 5 -4.1850 -2.6232 5.0244 0.0000 27.2094 0.0000
# 6 0.0000 0.0000 0.0000 -4.1860 0.0000 38.1614
#
#
#
# Elastic Compliance Matrix: (Units=1/GPa)
#
#
# Indices 1 2 3 4 5 6 
#
# 1 0.012930 -0.009344 -0.001534 0.000000 0.001371 0.000000
# 2 -0.009344 0.025044 -0.007861 0.000000 0.002429 0.000000
# 3 -0.001534 -0.007861 0.016360 0.000000 -0.004015 0.000000
# 4 0.000000 0.000000 0.000000 0.034252 0.000000 0.003757
# 5 0.001371 0.002429 -0.004015 0.000000 0.037938 0.000000
# 6 0.000000 0.000000 0.000000 0.003757 0.000000 0.026617
#
#
# Mechanical properties :
#
#
# Convention : Reuss Voigt Hill
#
# Bulk Modulus (GPa) = 59.32873 62.99769 61.16321
# Shear Modulus (GPa) = 25.47916 28.77560 27.12738
#
# Velocity S-wave (km/s) = 3.61030 3.83674 3.72524
# Velocity P-wave (km/s) = 6.90866 7.20103 7.05636
#
# Compressibility (1/GPa) = 0.01685524
#
# Stress axis : x y z
#
# Youngs Moduli (GPa) = 77.34198 39.92898 61.12387
#
# Poissons Ratio (x) = 0.37311 0.09376
# Poissons Ratio (y) = 0.72272 0.48051
# Poissons Ratio (z) = 0.11863 0.31389
#
# Static dielectric constant tensor:
#      x y z
#    x 3.928850 0.000000 -0.121540 
#    y 0.000000 3.507250 0.000000 
#    z -0.121540 0.000000 3.576030 
# 
# 
# High freq. dielectric constant tensor:
#      x y z
#    x 1.779530 0.000000 -0.002890 
#    y 0.000000 1.758730 0.000000 
#    z -0.002890 0.000000 1.763250 
# 
# From -- ./inp_files/250004.got.cif
#   From: 2010.06.25/outbox.cif.g09.slc.cpg/sg12_126_cif.got.tgz:250004.got - 2010.06.28 00:19:55.
