data_PCOD8094357
_publ_section_title
;
Structure prediction by ZEFSAII (Michael W. Deem and Ramdas Pophale) SiO2 
 PCOD8094357
Probable space group: C 2/M
;
_chemical_formula_sum "Si O2"
_cell_formula_units_Z 48
_cell_length_a 14.892082
_cell_length_b 8.953258
_cell_length_c 18.834539
_cell_angle_alpha 90.000000
_cell_angle_beta 90.380718
_cell_angle_gamma 90.000000
_cell_volume 2511.203600
_symmetry_space_group_name_H-M "C 2/M"
_symmetry_group_IT_number 12
_symmetry_cell_setting 'monoclinic'
loop_
_space_group_symop_operation_xyz
x,y,z
-x,y,-z
-x,-y,-z
x,-y,z
1/2+x,1/2+y,z
1/2-x,1/2+y,-z
1/2-x,1/2-y,-z
1/2+x,1/2-y,z
loop_
_atom_site_type_symbol
_atom_site_label
_atom_site_fract_x
_atom_site_fract_y
_atom_site_fract_z
Si Si1 0.517812 0.176843 0.080350
Si Si2 0.379143 0.828000 0.684834
Si Si3 0.227249 0.823966 0.573820
Si Si4 0.134227 0.677017 0.814605
Si Si5 0.419558 0.172673 0.340694
Si Si6 0.336246 0.676742 0.828962
O O1 0.435970 0.238997 0.127918
O O2 0.610319 0.251329 0.105597
O O3 0.527952 0.000000 0.087474
O O4 0.500000 0.226655 0.000000
O O5 0.302126 0.773899 0.631065
O O6 0.474436 0.806414 0.646482
O O7 0.378026 0.728472 0.754922
O O8 0.366032 0.000000 0.707632
O O9 0.250000 0.750000 0.500000
O O10 0.130565 0.767374 0.599476
O O11 0.225508 0.000000 0.563698
O O12 0.129317 0.500000 0.814062
O O13 0.107806 0.736809 0.736672
O O14 0.233615 0.732991 0.834915
O O15 0.391067 0.000000 0.347937
O O16 0.342916 0.500000 0.833732
#
# Coordination Sequence:
#
# PCOD8094357 Si02
#       6
#     8   8   8   8   8   8
#     4  10  21  39  60  82 114 156 197 234 280 343
#     4  10  21  38  61  85 112 150 196 233 275 344
#     4  11  24  40  59  87 120 151 190 237 286 340
#     4   9  18  34  57  84 113 149 188 231 287 341
#     4  10  19  37  62  83 112 150 190 237 284 337
#     4  11  21  34  57  86 116 147 186 238 291 338
#
# _framework density 19.114341
#
# number of rings (size 3 to 8) (size 9 to 14) (size 15 to 20)
#    0.000    1.833    3.333    1.000    0.000    3.000 
#    0.000    5.000    0.000    0.000    0.000    0.000 
#    0.000    0.000    0.000    0.000    0.000    0.000 
#
# Total GULP energy -297696.451302 kJ/mol
# GULP energy per Si atom -12404.018804 kJ/mol
# Density = 1.907084 g / cm^3
# Si number density = 19.114341 Si / 1000 Ang^3
#
#
#
# Elastic Constant Matrix: (Units=GPa)
#
#
# Indices 1 2 3 4 5 6 
#
# 1 91.9929 18.0319 12.9689 0.0000 -3.2763 0.0000
# 2 18.0319 45.2873 24.0668 0.0000 2.3705 0.0000
# 3 12.9689 24.0668 82.0464 0.0000 -8.4728 0.0000
# 4 0.0000 0.0000 0.0000 28.5068 0.0000 2.4273
# 5 -3.2763 2.3705 -8.4728 0.0000 34.4306 0.0000
# 6 0.0000 0.0000 0.0000 2.4273 0.0000 29.6535
#
#
#
# Elastic Compliance Matrix: (Units=1/GPa)
#
#
# Indices 1 2 3 4 5 6 
#
# 1 0.011873 -0.004591 -0.000391 0.000000 0.001350 0.000000
# 2 -0.004591 0.028424 -0.008064 0.000000 -0.004378 0.000000
# 3 -0.000391 -0.008064 0.015051 0.000000 0.004222 0.000000
# 4 0.000000 0.000000 0.000000 0.035326 0.000000 -0.002892
# 5 0.001350 -0.004378 0.004222 0.000000 0.030513 0.000000
# 6 0.000000 0.000000 0.000000 -0.002892 0.000000 0.033960
#
#
# Mechanical properties :
#
#
# Convention : Reuss Voigt Hill
#
# Bulk Modulus (GPa) = 34.17921 36.60689 35.39305
# Shear Modulus (GPa) = 26.17941 29.46879 27.82410
#
# Velocity S-wave (km/s) = 3.70485 3.93072 3.81946
# Velocity P-wave (km/s) = 6.01843 6.30824 6.16504
#
# Compressibility (1/GPa) = 0.02925755
#
# Stress axis : x y z
#
# Youngs Moduli (GPa) = 84.22194 35.18192 66.43882
#
# Poissons Ratio (x) = 0.16150 0.02597
# Poissons Ratio (y) = 0.38662 0.53577
# Poissons Ratio (z) = 0.03292 0.28371
#
# Static dielectric constant tensor:
#      x y z
#    x 3.772470 0.000000 0.030850 
#    y 0.000000 3.288500 0.000000 
#    z 0.030850 0.000000 3.475290 
# 
# 
# High freq. dielectric constant tensor:
#      x y z
#    x 1.758720 0.000000 0.000440 
#    y 0.000000 1.723560 0.000000 
#    z 0.000440 0.000000 1.739530 
# 
# From -- ./inp_files/267622.got.cif
#   From: 2010.06.25/outbox.cif.g09.slc.cpg/sg12_134_cif.got.tgz:267622.got - 2010.06.28 00:19:55.
