data_PCOD8094942
_publ_section_title
;
Structure prediction by ZEFSAII (Michael W. Deem and Ramdas Pophale) SiO2 
 PCOD8094942
Probable space group: C 2/M
;
_chemical_formula_sum "Si O2"
_cell_formula_units_Z 56
_cell_length_a 22.547233
_cell_length_b 9.497684
_cell_length_c 21.140508
_cell_angle_alpha 90.000000
_cell_angle_beta 50.061596
_cell_angle_gamma 90.000000
_cell_volume 3471.136512
_symmetry_space_group_name_H-M "C 2/M"
_symmetry_group_IT_number 12
_symmetry_cell_setting 'monoclinic'
loop_
_space_group_symop_operation_xyz
x,y,z
-x,y,-z
-x,-y,-z
x,-y,z
1/2+x,1/2+y,z
1/2-x,1/2+y,-z
1/2-x,1/2-y,-z
1/2+x,1/2-y,z
loop_
_atom_site_type_symbol
_atom_site_label
_atom_site_fract_x
_atom_site_fract_y
_atom_site_fract_z
Si Si1 0.986446 0.838176 0.776964
Si Si2 0.264458 0.659680 0.906148
Si Si3 0.870744 0.338302 0.921696
Si Si4 0.618695 0.658189 0.272631
Si Si5 0.316786 0.163141 0.531532
Si Si6 0.417049 0.834775 0.581072
Si Si7 0.853772 0.836584 0.387264
O O1 0.950672 0.748061 0.859670
O O2 0.940164 0.807665 0.744096
O O3 0.075458 0.792451 0.706429
O O4 0.980334 0.000000 0.801043
O O5 0.288128 0.500000 0.912578
O O6 0.308316 0.778929 0.915337
O O7 0.292772 0.676059 0.813989
O O8 0.171267 0.677671 0.980286
O O9 0.889079 0.500000 0.893526
O O10 0.604883 0.500000 0.307105
O O11 0.604677 0.764614 0.338416
O O12 0.352001 0.207111 0.574621
O O13 0.225477 0.197621 0.595449
O O14 0.359645 0.250332 0.447963
O O15 0.332594 0.000000 0.506171
O O16 0.500000 0.780167 0.500000
O O17 0.419723 0.000000 0.591702
O O18 0.859878 0.000000 0.401692
#
# Coordination Sequence:
#
# PCOD8094942 Si02
#       7
#     8   8   8   8   8   8   8
#     4   9  17  28  41  61  88 112 137 172 211 247
#     4   8  15  27  39  56  85 114 139 170 206 244
#     4   9  15  23  39  61  84 111 139 168 206 250
#     4   9  17  28  42  60  83 111 140 168 199 241
#     4   9  18  31  45  62  84 109 139 175 211 246
#     4  10  20  31  42  60  87 113 136 168 208 245
#     4   9  17  30  47  63  81 109 141 173 210 249
#
# _framework density 16.133044999999999
#
# number of rings (size 3 to 8) (size 9 to 14) (size 15 to 20)
#    0.000    3.000    0.000    2.143    0.000    4.286 
#    0.000    0.000    0.000    0.000    0.000    1.000 
#    0.000    8.000    0.000    0.000    0.000    0.000 
#
# Total GULP energy -346970.754214 kJ/mol
# GULP energy per Si atom -12391.812651 kJ/mol
# Density = 1.609633 g / cm^3
# Si number density = 16.133045 Si / 1000 Ang^3
#
#
#
# Elastic Constant Matrix: (Units=GPa)
#
#
# Indices 1 2 3 4 5 6 
#
# 1 47.4338 24.8243 42.4057 0.0000 -9.1816 0.0000
# 2 24.8243 59.6369 54.4891 0.0002 -9.2863 0.0000
# 3 42.4057 54.4891 140.4060 0.0000 -25.0099 0.0000
# 4 0.0000 0.0002 0.0000 32.6920 0.0000 -1.0267
# 5 -9.1816 -9.2863 -25.0099 0.0000 23.0741 0.0000
# 6 0.0000 0.0000 0.0000 -1.0267 0.0000 14.5331
#
#
#
# Elastic Compliance Matrix: (Units=1/GPa)
#
#
# Indices 1 2 3 4 5 6 
#
# 1 0.030629 -0.006689 -0.006151 0.000000 0.002829 0.000000
# 2 -0.006689 0.027448 -0.008846 0.000000 -0.001203 0.000000
# 3 -0.006151 -0.008846 0.014057 0.000000 0.009228 0.000000
# 4 0.000000 0.000000 0.000000 0.030657 0.000000 0.002166
# 5 0.002829 -0.001203 0.009228 0.000000 0.053982 0.000000
# 6 0.000000 0.000000 0.000000 0.002166 0.000000 0.068961
#
#
# Mechanical properties :
#
#
# Convention : Reuss Voigt Hill
#
# Bulk Modulus (GPa) = 34.76884 54.54608 44.65746
# Shear Modulus (GPa) = 17.94088 22.44369 20.19228
#
# Velocity S-wave (km/s) = 3.33837 3.73388 3.54165
# Velocity P-wave (km/s) = 6.03802 7.24380 6.66822
#
# Compressibility (1/GPa) = 0.02876139
#
# Stress axis : x y z
#
# Youngs Moduli (GPa) = 32.64856 36.43305 71.14066
#
# Poissons Ratio (x) = 0.24371 0.43757
# Poissons Ratio (y) = 0.21839 0.62931
# Poissons Ratio (z) = 0.20082 0.32229
#
# Static dielectric constant tensor:
#      x y z
#    x 2.792560 0.000000 -0.320330 
#    y 0.000000 3.098600 0.000000 
#    z -0.320330 0.000000 3.399250 
# 
# 
# High freq. dielectric constant tensor:
#      x y z
#    x 1.568720 0.000000 -0.027080 
#    y 0.000000 1.626120 0.000000 
#    z -0.027080 0.000000 1.630730 
# 
# From -- ./inp_files/295153.got.cif
#   From: 2010.06.25/outbox.cif.g09.slc.cpg/sg12_148_cif.got.tgz:295153.got - 2010.06.28 00:19:55.
