data_PCOD8094060
_publ_section_title
;
Structure prediction by ZEFSAII (Michael W. Deem and Ramdas Pophale) SiO2 
 PCOD8094060
Probable space group: C 2/M
;
_chemical_formula_sum "Si O2"
_cell_formula_units_Z 64
_cell_length_a 15.407248
_cell_length_b 8.637854
_cell_length_c 23.894944
_cell_angle_alpha 90.000000
_cell_angle_beta 89.269975
_cell_angle_gamma 90.000000
_cell_volume 3179.813848
_symmetry_space_group_name_H-M "C 2/M"
_symmetry_group_IT_number 12
_symmetry_cell_setting 'monoclinic'
loop_
_space_group_symop_operation_xyz
x,y,z
-x,y,-z
-x,-y,-z
x,-y,z
1/2+x,1/2+y,z
1/2-x,1/2+y,-z
1/2-x,1/2-y,-z
1/2+x,1/2-y,z
loop_
_atom_site_type_symbol
_atom_site_label
_atom_site_fract_x
_atom_site_fract_y
_atom_site_fract_z
Si Si1 0.096788 0.317982 0.138251
Si Si2 0.601082 0.180611 0.367270
Si Si3 0.905771 0.317238 0.361921
Si Si4 0.079961 0.181392 0.870708
Si Si5 0.849293 0.821709 0.748680
Si Si6 0.255062 0.682918 0.061274
Si Si7 0.749538 0.182202 0.561313
Si Si8 0.853637 0.320300 0.241086
O O1 0.104654 0.500000 0.148695
O O2 0.098182 0.230285 0.197340
O O3 0.173771 0.256333 0.098081
O O4 0.006002 0.273804 0.109700
O O5 0.501749 0.228343 0.382011
O O6 0.620486 0.216684 0.302813
O O7 0.661988 0.277169 0.407721
O O8 0.616325 0.000000 0.378181
O O9 0.893468 0.500000 0.359277
O O10 0.833408 0.248011 0.404574
O O11 0.889224 0.254095 0.299574
O O12 0.157111 0.241271 0.909937
O O13 0.102326 0.217198 0.806467
O O14 0.063960 0.000000 0.878148
O O15 0.748605 0.794368 0.760750
O O16 0.869195 0.000000 0.734415
O O17 0.252712 0.500000 0.057770
O O18 0.250000 0.750000 0.000000
O O19 0.750000 0.250000 0.500000
O O20 0.741425 0.000000 0.556918
O O21 0.878462 0.500000 0.231728
#
# Coordination Sequence:
#
# PCOD8094060 Si02
#       8
#     8   8   8   8   8   8   8   8
#     4  11  23  41  62  90 124 161 201 246 301 366
#     4  11  22  38  63  92 120 159 201 244 298 359
#     4   9  20  39  61  85 119 158 196 236 291 361
#     4  11  23  40  61  92 124 156 199 251 301 355
#     4  11  21  36  62  94 125 160 198 246 301 357
#     4  10  24  43  63  86 119 158 205 255 303 356
#     4  11  23  43  63  85 118 157 204 254 302 359
#     4  10  19  36  62  90 121 162 198 237 300 364
#
# _framework density 20.126964999999998
#
# number of rings (size 3 to 8) (size 9 to 14) (size 15 to 20)
#    0.000    1.500    2.500    2.625    0.000    4.500 
#    0.000    8.125    0.000    0.000    0.000    0.000 
#    0.000    0.000    0.000    0.000    0.000    0.000 
#
# Total GULP energy -396942.975529 kJ/mol
# GULP energy per Si atom -12404.467985 kJ/mol
# Density = 2.008115 g / cm^3
# Si number density = 20.126965 Si / 1000 Ang^3
#
#
#
# Elastic Constant Matrix: (Units=GPa)
#
#
# Indices 1 2 3 4 5 6 
#
# 1 140.0553 28.2783 60.6905 0.0000 14.3293 0.0000
# 2 28.2783 40.2724 15.8287 0.0000 -0.9494 0.0000
# 3 60.6905 15.8287 140.6856 0.0000 9.3895 0.0000
# 4 0.0000 0.0000 0.0000 36.3628 0.0000 1.6297
# 5 14.3293 -0.9494 9.3895 0.0000 13.4909 0.0000
# 6 0.0000 0.0000 0.0000 1.6297 0.0000 30.7713
#
#
#
# Elastic Compliance Matrix: (Units=1/GPa)
#
#
# Indices 1 2 3 4 5 6 
#
# 1 0.010900 -0.006582 -0.003312 0.000000 -0.009736 0.000000
# 2 -0.006582 0.030167 -0.001220 0.000000 0.009962 0.000000
# 3 -0.003312 -0.001220 0.008856 0.000000 -0.002732 0.000000
# 4 0.000000 0.000000 0.000000 0.027566 0.000000 -0.001460
# 5 -0.009736 0.009962 -0.002732 0.000000 0.087067 0.000000
# 6 0.000000 0.000000 0.000000 -0.001460 0.000000 0.032575
#
#
# Mechanical properties :
#
#
# Convention : Reuss Voigt Hill
#
# Bulk Modulus (GPa) = 36.10563 58.95648 47.53106
# Shear Modulus (GPa) = 21.87322 30.53940 26.20631
#
# Velocity S-wave (km/s) = 3.30018 3.89953 3.61231
# Velocity P-wave (km/s) = 5.70083 7.04492 6.40822
#
# Compressibility (1/GPa) = 0.02769651
#
# Stress axis : x y z
#
# Youngs Moduli (GPa) = 91.74174 33.14929 112.91309
#
# Poissons Ratio (x) = 0.21817 0.37396
# Poissons Ratio (y) = 0.60381 0.13772
# Poissons Ratio (z) = 0.30385 0.04043
#
# Static dielectric constant tensor:
#      x y z
#    x 3.980800 0.000000 -0.200560 
#    y 0.000000 3.487460 0.000000 
#    z -0.200560 0.000000 3.778370 
# 
# 
# High freq. dielectric constant tensor:
#      x y z
#    x 1.805520 0.000000 0.002090 
#    y 0.000000 1.773980 0.000000 
#    z 0.002090 0.000000 1.782500 
# 
# From -- ./inp_files/338666.got.cif
#   From: 2010.06.25/outbox.cif.g09.slc.cpg/sg12_170_cif.got.tgz:338666.got - 2010.06.28 00:19:55.
