data_PCOD8094093
_publ_section_title
;
Structure prediction by ZEFSAII (Michael W. Deem and Ramdas Pophale) SiO2 
 PCOD8094093
Probable space group: C 2/M
;
_chemical_formula_sum "Si O2"
_cell_formula_units_Z 48
_cell_length_a 20.464973
_cell_length_b 8.599751
_cell_length_c 21.108286
_cell_angle_alpha 90.000000
_cell_angle_beta 138.007308
_cell_angle_gamma 90.000000
_cell_volume 2485.417712
_symmetry_space_group_name_H-M "C 2/M"
_symmetry_group_IT_number 12
_symmetry_cell_setting 'monoclinic'
loop_
_space_group_symop_operation_xyz
x,y,z
-x,y,-z
-x,-y,-z
x,-y,z
1/2+x,1/2+y,z
1/2-x,1/2+y,-z
1/2-x,1/2-y,-z
1/2+x,1/2-y,z
loop_
_atom_site_type_symbol
_atom_site_label
_atom_site_fract_x
_atom_site_fract_y
_atom_site_fract_z
Si Si1 0.797316 0.815640 0.742760
Si Si2 0.901421 0.684768 0.459054
Si Si3 0.610534 0.318181 0.061020
Si Si4 0.042752 0.184316 0.240381
Si Si5 0.348929 0.817412 0.043781
Si Si6 0.142984 0.316286 0.432087
O O1 0.691956 0.748440 0.646585
O O2 0.820251 0.766000 0.831118
O O3 0.879782 0.748842 0.754836
O O4 0.799313 0.000000 0.738335
O O5 0.901506 0.500000 0.453597
O O6 0.896180 0.737689 0.527903
O O7 0.000000 0.755311 0.500000
O O8 0.621488 0.500000 0.052506
O O9 0.500000 0.279192 0.000000
O O10 0.643333 0.218507 0.024919
O O11 0.067613 0.250064 0.327079
O O12 0.935720 0.238299 0.144795
O O13 0.046285 0.000000 0.245029
O O14 0.352540 0.000000 0.057621
O O15 0.250000 0.750000 0.000000
O O16 0.148341 0.500000 0.430548
O O17 0.250000 0.250000 0.500000
#
# Coordination Sequence:
#
# PCOD8094093 Si02
#       6
#     8   8   8   8   8   8
#     4   9  17  32  57  86 116 158 201 242 295 362
#     4   9  18  33  54  84 119 154 198 246 292 351
#     4  10  19  36  63  90 118 158 205 247 301 368
#     4  11  21  39  63  89 121 159 205 253 308 370
#     4  12  26  43  62  90 126 162 203 254 313 370
#     4  11  21  35  59  91 121 158 206 255 304 361
#
# _framework density 19.312649
#
# number of rings (size 3 to 8) (size 9 to 14) (size 15 to 20)
#    0.000    1.667    3.333    2.500    0.000    1.667 
#    0.000    3.333    0.000    2.000    0.000    0.000 
#    0.000    0.000    0.000    0.000    0.000    0.000 
#
# Total GULP energy -297656.883332 kJ/mol
# GULP energy per Si atom -12402.370139 kJ/mol
# Density = 1.926869 g / cm^3
# Si number density = 19.312649 Si / 1000 Ang^3
#
#
#
# Elastic Constant Matrix: (Units=GPa)
#
#
# Indices 1 2 3 4 5 6 
#
# 1 144.9167 26.4584 83.3760 0.0000 1.8845 0.0000
# 2 26.4584 40.7462 19.1825 0.0000 -10.8887 0.0000
# 3 83.3760 19.1825 183.1852 0.0000 -7.0274 0.0000
# 4 0.0000 0.0000 0.0000 30.3907 0.0000 -3.9201
# 5 1.8845 -10.8887 -7.0274 0.0000 36.2247 0.0000
# 6 0.0000 0.0000 0.0000 -3.9201 0.0000 26.7369
#
#
#
# Elastic Compliance Matrix: (Units=1/GPa)
#
#
# Indices 1 2 3 4 5 6 
#
# 1 0.010415 -0.005564 -0.004275 0.000000 -0.003044 0.000000
# 2 -0.005564 0.030851 -0.000334 0.000000 0.009498 0.000000
# 3 -0.004275 -0.000334 0.007500 0.000000 0.001577 0.000000
# 4 0.000000 0.000000 0.000000 0.033539 0.000000 0.004917
# 5 -0.003044 0.009498 0.001577 0.000000 0.030925 0.000000
# 6 0.000000 0.000000 0.000000 0.004917 0.000000 0.038122
#
#
# Mechanical properties :
#
#
# Convention : Reuss Voigt Hill
#
# Bulk Modulus (GPa) = 35.18527 69.65355 52.41941
# Shear Modulus (GPa) = 27.59830 34.65921 31.12876
#
# Velocity S-wave (km/s) = 3.78435 4.24091 4.01912
# Velocity P-wave (km/s) = 6.11174 7.75403 6.98135
#
# Compressibility (1/GPa) = 0.02842098
#
# Stress axis : x y z
#
# Youngs Moduli (GPa) = 96.01255 32.41436 133.33409
#
# Poissons Ratio (x) = 0.18036 0.56995
# Poissons Ratio (y) = 0.53423 0.04449
# Poissons Ratio (z) = 0.41041 0.01082
#
# Static dielectric constant tensor:
#      x y z
#    x 4.426750 0.000000 -0.053740 
#    y 0.000000 3.340460 0.000000 
#    z -0.053740 0.000000 3.881280 
# 
# 
# High freq. dielectric constant tensor:
#      x y z
#    x 1.755130 0.000000 -0.004110 
#    y 0.000000 1.723500 0.000000 
#    z -0.004110 0.000000 1.771310 
# 
# From -- ./inp_files/320303.got.cif
#   From: 2010.06.25/outbox.cif.g09.slc.cpg/sg12_161_cif.got.tgz:320303.got - 2010.06.28 00:19:55.
