data_PCOD8094195
_publ_section_title
;
Structure prediction by ZEFSAII (Michael W. Deem and Ramdas Pophale) SiO2 
 PCOD8094195
Probable space group: C 2/M
;
_chemical_formula_sum "Si O2"
_cell_formula_units_Z 64
_cell_length_a 30.228973
_cell_length_b 19.387723
_cell_length_c 9.766834
_cell_angle_alpha 90.000000
_cell_angle_beta 142.576516
_cell_angle_gamma 90.000000
_cell_volume 3478.517885
_symmetry_space_group_name_H-M "C 2/M"
_symmetry_group_IT_number 12
_symmetry_cell_setting 'monoclinic'
loop_
_space_group_symop_operation_xyz
x,y,z
-x,y,-z
-x,-y,-z
x,-y,z
1/2+x,1/2+y,z
1/2-x,1/2+y,-z
1/2-x,1/2-y,-z
1/2+x,1/2-y,z
loop_
_atom_site_type_symbol
_atom_site_label
_atom_site_fract_x
_atom_site_fract_y
_atom_site_fract_z
Si Si1 0.663614 0.683445 0.875620
Si Si2 0.678423 0.840102 0.838004
Si Si3 0.407519 0.173887 0.918349
Si Si4 0.607582 0.672288 0.034274
Si Si5 0.149398 0.919637 0.385279
Si Si6 0.937406 0.838293 0.615323
Si Si7 0.811526 0.419884 0.870019
Si Si8 0.573331 0.182996 0.345017
O O1 0.663379 0.766004 0.867886
O O2 0.648553 0.660504 0.992635
O O3 0.601332 0.651325 0.625883
O O4 0.740607 0.652750 0.020527
O O5 0.622531 0.855311 0.577862
O O6 0.664510 0.896657 0.919972
O O7 0.379194 0.250591 0.879258
O O8 0.489922 0.165487 0.174327
O O9 0.357551 0.118550 0.868435
O O10 0.403361 0.157505 0.747131
O O11 0.523041 0.655830 0.805202
O O12 0.643099 0.619362 0.226596
O O13 0.087036 0.896294 0.337451
O O14 0.226988 0.901896 0.642514
O O15 0.139849 0.000000 0.332480
O O16 0.914037 0.765075 0.621261
O O17 0.827906 0.500000 0.893661
#
# Coordination Sequence:
#
# PCOD8094195 Si02
#       8
#     8   8   8   8   8   8   8   8
#     4  10  20  34  58  90 116 146 197 250 291 336
#     4  10  20  37  58  85 117 153 194 243 292 349
#     4  10  20  38  59  91 122 149 189 247 294 350
#     4  11  21  34  61  90 118 155 196 244 293 346
#     4  11  24  40  58  86 121 159 201 242 291 356
#     4  10  19  37  57  86 123 154 189 240 299 348
#     4  11  24  42  60  83 120 162 197 241 298 351
#     4   9  20  35  61  91 118 145 192 245 297 344
#
# _framework density 18.39864
#
# number of rings (size 3 to 8) (size 9 to 14) (size 15 to 20)
#    0.000    1.750    3.750    0.750    1.750    2.000 
#    0.000    4.375    0.000    1.500    0.000    0.000 
#    0.000    0.000    0.000    0.000    0.000    0.000 
#
# Total GULP energy -396964.032002 kJ/mol
# GULP energy per Si atom -12405.126000 kJ/mol
# Density = 1.835676 g / cm^3
# Si number density = 18.398640 Si / 1000 Ang^3
#
#
#
# Elastic Constant Matrix: (Units=GPa)
#
#
# Indices 1 2 3 4 5 6 
#
# 1 103.2133 48.8575 27.0525 0.0000 -16.5925 0.0000
# 2 48.8575 76.6475 40.6235 0.0000 -2.2614 0.0000
# 3 27.0525 40.6235 101.9374 0.0000 -14.2418 0.0000
# 4 0.0000 0.0000 0.0000 24.3578 0.0000 -1.7586
# 5 -16.5925 -2.2614 -14.2418 0.0000 26.3006 0.0000
# 6 0.0000 0.0000 0.0000 -1.7586 0.0000 28.3344
#
#
#
# Elastic Compliance Matrix: (Units=1/GPa)
#
#
# Indices 1 2 3 4 5 6 
#
# 1 0.015931 -0.010592 0.001374 0.000000 0.009884 0.000000
# 2 -0.010592 0.023714 -0.007885 0.000000 -0.008913 0.000000
# 3 0.001374 -0.007885 0.013646 0.000000 0.007578 0.000000
# 4 0.000000 0.000000 0.000000 0.041239 0.000000 0.002560
# 5 0.009884 -0.008913 0.007578 0.000000 0.047595 0.000000
# 6 0.000000 0.000000 0.000000 0.002560 0.000000 0.035452
#
#
# Mechanical properties :
#
#
# Convention : Reuss Voigt Hill
#
# Bulk Modulus (GPa) = 52.39245 57.20725 54.79985
# Shear Modulus (GPa) = 22.92056 26.81619 24.86837
#
# Velocity S-wave (km/s) = 3.53338 3.82188 3.68046
# Velocity P-wave (km/s) = 6.72194 7.11592 6.92173
#
# Compressibility (1/GPa) = 0.01908672
#
# Stress axis : x y z
#
# Youngs Moduli (GPa) = 62.77003 42.16892 73.27996
#
# Poissons Ratio (x) = 0.44664 -0.10068
# Poissons Ratio (y) = 0.66483 0.57780
# Poissons Ratio (z) = -0.08624 0.33249
#
# Static dielectric constant tensor:
#      x y z
#    x 3.344880 0.000000 -0.013390 
#    y 0.000000 3.114570 0.000000 
#    z -0.013390 0.000000 3.597970 
# 
# 
# High freq. dielectric constant tensor:
#      x y z
#    x 1.722630 0.000000 -0.002640 
#    y 0.000000 1.683850 0.000000 
#    z -0.002640 0.000000 1.727610 
# 
# From -- ./inp_files/99109.got.cif
#   From: 2010.06.25/outbox.cif.g09.slc.cpg/sg12_50_cif.got.tgz:99109.got - 2010.06.28 00:19:55.
