data_PCOD8094892
_publ_section_title
;
Structure prediction by ZEFSAII (Michael W. Deem and Ramdas Pophale) SiO2 
 PCOD8094892
Probable space group: C 2/M
;
_chemical_formula_sum "Si O2"
_cell_formula_units_Z 56
_cell_length_a 25.970921
_cell_length_b 13.972595
_cell_length_c 9.529175
_cell_angle_alpha 90.000000
_cell_angle_beta 105.278962
_cell_angle_gamma 90.000000
_cell_volume 3335.733940
_symmetry_space_group_name_H-M "C 2/M"
_symmetry_group_IT_number 12
_symmetry_cell_setting 'monoclinic'
loop_
_space_group_symop_operation_xyz
x,y,z
-x,y,-z
-x,-y,-z
x,-y,z
1/2+x,1/2+y,z
1/2-x,1/2+y,-z
1/2-x,1/2-y,-z
1/2+x,1/2-y,z
loop_
_atom_site_type_symbol
_atom_site_label
_atom_site_fract_x
_atom_site_fract_y
_atom_site_fract_z
Si Si1 0.334457 0.795935 0.278928
Si Si2 0.181637 0.609655 0.028341
Si Si3 0.446752 0.887567 0.379603
Si Si4 0.006988 0.612644 0.156444
Si Si5 0.214863 0.388257 0.507927
Si Si6 0.715593 0.608564 0.702206
Si Si7 0.622528 0.113161 0.252404
O O1 0.392275 0.832139 0.376475
O O2 0.285867 0.836832 0.340994
O O3 0.332049 0.680583 0.289716
O O4 0.321481 0.825052 0.110951
O O5 0.173864 0.500000 0.973930
O O6 0.236551 0.622321 0.152722
O O7 0.134099 0.642641 0.098996
O O8 0.500000 0.852941 0.500000
O O9 0.458297 0.864050 0.224515
O O10 0.437280 0.000000 0.402194
O O11 0.012081 0.500000 0.139760
O O12 0.063915 0.647635 0.258975
O O13 0.000000 0.662245 0.000000
O O14 0.208904 0.500000 0.533068
O O15 0.266069 0.368743 0.445635
O O16 0.164276 0.342083 0.390355
O O17 0.693901 0.500000 0.694999
O O18 0.631134 0.000000 0.266157
#
# Coordination Sequence:
#
# PCOD8094892 Si02
#       7
#     8   8   8   8   8   8   8
#     4  12  19  28  48  70  90 117 154 188 220 261
#     4   9  17  29  46  70  95 116 143 180 221 266
#     4  10  20  30  41  65  97 118 138 178 228 269
#     4   9  15  23  36  55  83 118 146 164 195 254
#     4   9  17  29  45  65  88 115 145 178 221 270
#     4   9  20  35  46  61  90 123 152 185 225 266
#     4   8  14  26  41  58  89 125 143 161 208 270
#
# _framework density 16.78791
#
# number of rings (size 3 to 8) (size 9 to 14) (size 15 to 20)
#    0.000    2.571    0.000    5.571    0.000    4.571 
#    0.000    0.000    0.000    0.429    0.000    0.000 
#    0.000    5.143    0.000    0.000    0.000    0.571 
#
# Total GULP energy -346908.432513 kJ/mol
# GULP energy per Si atom -12389.586875 kJ/mol
# Density = 1.674970 g / cm^3
# Si number density = 16.787910 Si / 1000 Ang^3
#
#
#
# Elastic Constant Matrix: (Units=GPa)
#
#
# Indices 1 2 3 4 5 6 
#
# 1 63.0913 41.2254 12.8275 0.0000 -5.5190 0.0000
# 2 41.2254 59.6337 13.7302 0.0000 -7.0656 0.0000
# 3 12.8275 13.7302 50.8395 0.0000 -13.8372 0.0000
# 4 0.0000 0.0000 0.0000 13.9285 0.0000 -0.5850
# 5 -5.5190 -7.0656 -13.8372 0.0000 21.4616 0.0000
# 6 0.0000 0.0000 0.0000 -0.5850 0.0000 19.9053
#
#
#
# Elastic Compliance Matrix: (Units=1/GPa)
#
#
# Indices 1 2 3 4 5 6 
#
# 1 0.029107 -0.019675 -0.002130 0.000000 -0.000366 0.000000
# 2 -0.019675 0.031383 -0.002518 0.000000 0.003649 0.000000
# 3 -0.002130 -0.002518 0.024878 0.000000 0.014663 0.000000
# 4 0.000000 0.000000 0.000000 0.071884 0.000000 0.002112
# 5 -0.000366 0.003649 0.014663 0.000000 0.057156 0.000000
# 6 0.000000 0.000000 0.000000 0.002112 0.000000 0.050300
#
#
# Mechanical properties :
#
#
# Convention : Reuss Voigt Hill
#
# Bulk Modulus (GPa) = 27.23182 34.34788 30.78985
# Shear Modulus (GPa) = 15.35646 18.11115 16.73381
#
# Velocity S-wave (km/s) = 3.02774 3.28810 3.16060
# Velocity P-wave (km/s) = 5.33659 5.90930 5.63023
#
# Compressibility (1/GPa) = 0.03672174
#
# Stress axis : x y z
#
# Youngs Moduli (GPa) = 34.35559 31.86461 40.19575
#
# Poissons Ratio (x) = 0.62694 0.08562
# Poissons Ratio (y) = 0.67595 0.10122
# Poissons Ratio (z) = 0.07318 0.08024
#
# Static dielectric constant tensor:
#      x y z
#    x 3.148540 0.000000 -0.160990 
#    y 0.000000 2.735420 0.000000 
#    z -0.160990 0.000000 3.310200 
# 
# 
# High freq. dielectric constant tensor:
#      x y z
#    x 1.638500 0.000000 -0.017070 
#    y 0.000000 1.583550 0.000000 
#    z -0.017070 0.000000 1.661200 
# 
# From -- ./inp_files/104104.got.cif
#   From: 2010.06.25/outbox.cif.g09.slc.cpg/sg12_53_cif.got.tgz:104104.got - 2010.06.28 00:19:55.
