data_PCOD8094555
_publ_section_title
;
Structure prediction by ZEFSAII (Michael W. Deem and Ramdas Pophale) SiO2 
 PCOD8094555
Probable space group: C 2/M
;
_chemical_formula_sum "Si O2"
_cell_formula_units_Z 36
_cell_length_a 8.675469
_cell_length_b 16.697824
_cell_length_c 15.298574
_cell_angle_alpha 90.000000
_cell_angle_beta 44.946265
_cell_angle_gamma 90.000000
_cell_volume 1565.601067
_symmetry_space_group_name_H-M "C 2/M"
_symmetry_group_IT_number 12
_symmetry_cell_setting 'monoclinic'
loop_
_space_group_symop_operation_xyz
x,y,z
-x,y,-z
-x,-y,-z
x,-y,z
1/2+x,1/2+y,z
1/2-x,1/2+y,-z
1/2-x,1/2-y,-z
1/2+x,1/2-y,z
loop_
_atom_site_type_symbol
_atom_site_label
_atom_site_fract_x
_atom_site_fract_y
_atom_site_fract_z
Si Si1 0.197856 0.500000 0.534409
Si Si2 0.481520 0.500000 0.273445
Si Si3 0.522426 0.638338 0.610884
Si Si4 0.739016 0.500000 0.810009
Si Si5 0.657866 0.253412 0.705458
Si Si6 0.787379 0.827702 0.134146
O O1 0.229406 0.500000 0.415349
O O2 0.324924 0.582555 0.513743
O O3 0.958967 0.500000 0.666296
O O4 0.595869 0.580217 0.268028
O O5 0.466784 0.500000 0.174841
O O6 0.667837 0.701913 0.608196
O O7 0.340505 0.684132 0.627411
O O8 0.728369 0.422987 0.876425
O O9 0.422285 0.215880 0.820766
O O10 0.705117 0.315169 0.764523
O O11 0.000000 0.792923 0.000000
#
# Coordination Sequence:
#
# PCOD8094555 Si02
#       6
#     4   4   8   4   8   8
#     4   8  19  36  57  81 113 153 176 217 280 338
#     4   8  17  34  58  77 117 145 182 210 283 330
#     4   8  18  34  60  83 112 145 180 218 280 338
#     4  12  20  38  59  81 111 151 187 232 263 326
#     4  10  19  38  59  85 114 142 178 236 278 323
#     4  11  23  38  59  82 110 147 191 230 275 321
#
# _framework density 22.994363
#
# number of rings (size 3 to 8) (size 9 to 14) (size 15 to 20)
#    1.333    0.889    2.222    1.333    0.000    1.778 
#    0.000    8.889    0.000    1.333    0.000    0.000 
#    0.000    0.000    0.000    0.000    0.000    0.000 
#
# Total GULP energy -222990.638019 kJ/mol
# GULP energy per Si atom -12388.368779 kJ/mol
# Density = 2.294203 g / cm^3
# Si number density = 22.994363 Si / 1000 Ang^3
#
#
#
# Elastic Constant Matrix: (Units=GPa)
#
#
# Indices 1 2 3 4 5 6 
#
# 1 89.6388 50.5637 14.1712 0.0012 -17.2110 0.0009
# 2 50.5637 140.8189 13.2139 -0.0001 -11.8520 -0.0005
# 3 14.1712 13.2139 70.1237 0.0017 -15.7021 0.0030
# 4 0.0012 -0.0001 0.0017 43.3941 -0.0014 21.1377
# 5 -17.2110 -11.8520 -15.7021 -0.0014 22.0754 -0.0021
# 6 0.0009 -0.0005 0.0030 21.1377 -0.0021 67.7777
#
#
#
# Elastic Compliance Matrix: (Units=1/GPa)
#
#
# Indices 1 2 3 4 5 6 
#
# 1 0.015744 -0.004834 -0.000123 0.000000 0.009592 0.000000
# 2 -0.004834 0.008943 -0.000567 0.000000 0.000629 0.000000
# 3 -0.000123 -0.000567 0.017012 0.000000 0.011700 0.000000
# 4 0.000000 0.000000 0.000000 0.027172 0.000001 -0.008474
# 5 0.009592 0.000629 0.011700 0.000001 0.061437 0.000001
# 6 0.000000 0.000000 0.000000 -0.008474 0.000001 0.017397
#
#
# Mechanical properties :
#
#
# Convention : Reuss Voigt Hill
#
# Bulk Modulus (GPa) = 32.62644 50.71992 41.67318
# Shear Modulus (GPa) = 29.59062 41.49161 35.54111
#
# Velocity S-wave (km/s) = 3.59118 4.25246 3.93573
# Velocity P-wave (km/s) = 5.60492 6.79828 6.23024
#
# Compressibility (1/GPa) = 0.03064999
#
# Stress axis : x y z
#
# Youngs Moduli (GPa) = 63.51644 111.81481 58.78144
#
# Poissons Ratio (x) = 0.54055 0.00723
# Poissons Ratio (y) = 0.30706 0.03336
# Poissons Ratio (z) = 0.00781 0.06345
#
# Static dielectric constant tensor:
#      x y z
#    x 3.891390 0.000000 0.000580 
#    y 0.000000 4.403490 0.000000 
#    z 0.000580 0.000000 3.545240 
# 
# 
# High freq. dielectric constant tensor:
#      x y z
#    x 1.894600 0.000000 0.008620 
#    y 0.000000 1.931690 0.000000 
#    z 0.008620 0.000000 1.865680 
# 
# From -- ./inp_files/197483.got.cif
#   From: 2010.06.25/outbox.cif.g09.slc.cpg/sg12_99_cif.got.tgz:197483.got - 2010.06.28 00:19:55.
