data_PCOD8094263
_publ_section_title
;
Structure prediction by ZEFSAII (Michael W. Deem and Ramdas Pophale) SiO2 
 PCOD8094263
Probable space group: C 2/M
;
_chemical_formula_sum "Si O2"
_cell_formula_units_Z 52
_cell_length_a 9.846420
_cell_length_b 22.191771
_cell_length_c 16.337701
_cell_angle_alpha 90.000000
_cell_angle_beta 47.921936
_cell_angle_gamma 90.000000
_cell_volume 2649.727468
_symmetry_space_group_name_H-M "C 2/M"
_symmetry_group_IT_number 12
_symmetry_cell_setting 'monoclinic'
loop_
_space_group_symop_operation_xyz
x,y,z
-x,y,-z
-x,-y,-z
x,-y,z
1/2+x,1/2+y,z
1/2-x,1/2+y,-z
1/2-x,1/2-y,-z
1/2+x,1/2-y,z
loop_
_atom_site_type_symbol
_atom_site_label
_atom_site_fract_x
_atom_site_fract_y
_atom_site_fract_z
Si Si1 0.892919 0.115905 0.413269
Si Si2 0.765146 0.618029 0.353468
Si Si3 0.311294 0.000000 0.530484
Si Si4 0.291282 0.500000 0.056925
Si Si5 0.541184 0.000000 0.710343
Si Si6 0.159670 0.605740 0.993381
Si Si7 0.591348 0.313343 0.202257
Si Si8 0.070251 0.291652 0.830273
O O1 0.750484 0.133078 0.543235
O O2 0.811042 0.058241 0.398591
O O3 0.077726 0.099709 0.385526
O O4 0.930924 0.168908 0.332066
O O5 0.890268 0.561689 0.276544
O O6 0.853736 0.678025 0.282427
O O7 0.500000 0.000000 0.500000
O O8 0.371501 0.000000 0.413202
O O9 0.177709 0.500000 0.188371
O O10 0.500000 0.500000 0.000000
O O11 0.236756 0.558443 0.026924
O O12 0.331818 0.624798 0.867586
O O13 0.000000 0.577394 0.000000
O O14 0.083052 0.666412 0.066725
O O15 0.760247 0.278858 0.177431
O O16 0.512921 0.272258 0.161628
#
# Coordination Sequence:
#
# PCOD8094263 Si02
#       8
#     8   8   4   4   4   8   8   8
#     4   9  19  35  56  88 110 146 194 236 290 339
#     4   9  17  35  63  81 111 144 196 244 277 350
#     4  10  21  37  57  83 124 155 183 233 297 364
#     4  12  25  38  59  96 121 147 191 249 302 341
#     4  10  19  37  60  83 110 154 192 234 295 345
#     4  10  22  41  60  82 117 157 199 237 292 357
#     4  10  22  37  58  85 115 154 197 245 287 344
#     4  10  20  38  59  83 112 155 199 241 291 342
#
# _framework density 19.624661
#
# number of rings (size 3 to 8) (size 9 to 14) (size 15 to 20)
#    0.000    2.154    1.538    1.154    0.000    5.538 
#    5.538    0.000    0.000    0.000    0.000    0.000 
#    0.000    0.000    0.000    0.000    0.000    0.000 
#
# Total GULP energy -322240.821956 kJ/mol
# GULP energy per Si atom -12393.877768 kJ/mol
# Density = 1.957999 g / cm^3
# Si number density = 19.624661 Si / 1000 Ang^3
#
#
#
# Elastic Constant Matrix: (Units=GPa)
#
#
# Indices 1 2 3 4 5 6 
#
# 1 83.7809 43.2201 19.6143 0.0000 -6.2616 0.0000
# 2 43.2201 66.4747 18.8282 0.0000 -3.6014 0.0000
# 3 19.6143 18.8282 84.8041 0.0002 -6.8678 -0.0001
# 4 0.0000 0.0000 0.0002 18.2868 0.0000 6.1351
# 5 -6.2616 -3.6014 -6.8678 0.0000 21.8416 0.0000
# 6 0.0000 0.0000 -0.0001 6.1351 0.0000 31.1743
#
#
#
# Elastic Compliance Matrix: (Units=1/GPa)
#
#
# Indices 1 2 3 4 5 6 
#
# 1 0.018363 -0.011359 -0.001488 0.000000 0.002923 0.000000
# 2 -0.011359 0.023132 -0.002528 0.000000 -0.000237 0.000000
# 3 -0.001488 -0.002528 0.012959 0.000000 0.003231 0.000000
# 4 0.000000 0.000000 0.000000 0.058550 0.000000 -0.011523
# 5 0.002923 -0.000237 0.003231 0.000000 0.047599 0.000000
# 6 0.000000 0.000000 0.000000 -0.011523 0.000000 0.034345
#
#
# Mechanical properties :
#
#
# Convention : Reuss Voigt Hill
#
# Bulk Modulus (GPa) = 42.18837 44.26498 43.22668
# Shear Modulus (GPa) = 21.40420 24.48701 22.94560
#
# Velocity S-wave (km/s) = 3.30613 3.53621 3.42310
# Velocity P-wave (km/s) = 6.00985 6.26720 6.13987
#
# Compressibility (1/GPa) = 0.02370321
#
# Stress axis : x y z
#
# Youngs Moduli (GPa) = 54.45865 43.23079 77.16631
#
# Poissons Ratio (x) = 0.49105 0.11486
# Poissons Ratio (y) = 0.61859 0.19505
# Poissons Ratio (z) = 0.08106 0.10927
#
# Static dielectric constant tensor:
#      x y z
#    x 3.345430 0.000000 0.019790 
#    y 0.000000 3.390110 0.000000 
#    z 0.019790 0.000000 3.909410 
# 
# 
# High freq. dielectric constant tensor:
#      x y z
#    x 1.747420 0.000000 0.002830 
#    y 0.000000 1.748210 0.000000 
#    z 0.002830 0.000000 1.783680 
# 
# From -- ./inp_files/247194.got.cif
#   From: 2010.06.25/outbox.cif.g09.slc.cpg/sg12_124_cif.got.tgz:247194.got - 2010.06.28 00:19:55.
