data_PCOD8094793
_publ_section_title
;
Structure prediction by ZEFSAII (Michael W. Deem and Ramdas Pophale) SiO2 
 PCOD8094793
Probable space group: C 2/M
;
_chemical_formula_sum "Si O2"
_cell_formula_units_Z 36
_cell_length_a 19.505361
_cell_length_b 15.003373
_cell_length_c 8.036547
_cell_angle_alpha 90.000000
_cell_angle_beta 44.349130
_cell_angle_gamma 90.000000
_cell_volume 1644.021178
_symmetry_space_group_name_H-M "C 2/M"
_symmetry_group_IT_number 12
_symmetry_cell_setting 'monoclinic'
loop_
_space_group_symop_operation_xyz
x,y,z
-x,y,-z
-x,-y,-z
x,-y,z
1/2+x,1/2+y,z
1/2-x,1/2+y,-z
1/2-x,1/2-y,-z
1/2+x,1/2-y,z
loop_
_atom_site_type_symbol
_atom_site_label
_atom_site_fract_x
_atom_site_fract_y
_atom_site_fract_z
Si Si1 0.834637 0.500000 0.893128
Si Si2 0.059946 0.318285 0.244438
Si Si3 0.689370 0.000000 0.695558
Si Si4 0.686744 0.500000 0.843443
Si Si5 0.121562 0.322982 0.667231
Si Si6 0.822477 0.190313 0.158407
O O1 0.904676 0.414920 0.761877
O O2 0.767193 0.500000 0.849482
O O3 0.774936 0.500000 0.173114
O O4 0.000000 0.274391 0.500000
O O5 0.987977 0.322338 0.211390
O O6 0.152064 0.254897 0.039581
O O7 0.627403 0.090652 0.777085
O O8 0.775727 0.000000 0.412469
O O9 0.626823 0.592938 0.962924
O O10 0.138432 0.231492 0.737777
O O11 0.204449 0.326361 0.376914
#
# Coordination Sequence:
#
# PCOD8094793 Si02
#       6
#     4   8   4   4   8   8
#     4  12  24  39  66 100 131 161 199 269 339 384
#     4  12  24  39  63  99 129 164 205 265 324 378
#     4  10  19  39  65  96 124 161 201 263 334 371
#     4  10  24  44  62  93 130 169 221 257 303 382
#     4  10  21  40  65  92 128 161 213 257 319 385
#     4  10  22  42  63  88 126 172 210 258 311 370
#
# _framework density 21.897528999999999
#
# number of rings (size 3 to 8) (size 9 to 14) (size 15 to 20)
#    0.000    1.333    2.222    4.333    0.000    4.444 
#    0.000    2.778    0.000    0.000    0.000    0.000 
#    0.000    0.000    0.000    0.000    0.000    0.000 
#
# Total GULP energy -223107.555267 kJ/mol
# GULP energy per Si atom -12394.864182 kJ/mol
# Density = 2.184769 g / cm^3
# Si number density = 21.897529 Si / 1000 Ang^3
#
#
#
# Elastic Constant Matrix: (Units=GPa)
#
#
# Indices 1 2 3 4 5 6 
#
# 1 62.6438 32.4714 13.1357 0.0000 9.2849 0.0000
# 2 32.4714 194.2758 35.4130 0.0000 -7.0240 0.0000
# 3 13.1357 35.4130 101.2781 0.0000 17.0255 0.0000
# 4 0.0000 0.0000 0.0000 19.8614 0.0000 2.8711
# 5 9.2849 -7.0240 17.0255 0.0000 26.0685 0.0000
# 6 0.0000 0.0000 0.0000 2.8711 0.0000 25.4484
#
#
#
# Elastic Compliance Matrix: (Units=1/GPa)
#
#
# Indices 1 2 3 4 5 6 
#
# 1 0.018876 -0.003441 0.000046 0.000000 -0.007680 0.000000
# 2 -0.003441 0.006353 -0.002549 0.000000 0.004602 0.000000
# 3 0.000046 -0.002549 0.012219 0.000000 -0.008683 0.000000
# 4 0.000000 0.000000 0.000000 0.051184 0.000000 -0.005775
# 5 -0.007680 0.004602 -0.008683 0.000000 0.048007 0.000000
# 6 0.000000 0.000000 0.000000 -0.005775 0.000000 0.039947
#
#
# Mechanical properties :
#
#
# Convention : Reuss Voigt Hill
#
# Bulk Modulus (GPa) = 39.12319 57.80421 48.46370
# Shear Modulus (GPa) = 25.38162 32.75417 29.06790
#
# Velocity S-wave (km/s) = 3.40826 3.87174 3.64737
# Velocity P-wave (km/s) = 5.77872 6.81484 6.31806
#
# Compressibility (1/GPa) = 0.02556029
#
# Stress axis : x y z
#
# Youngs Moduli (GPa) = 52.97861 157.39458 81.84090
#
# Poissons Ratio (x) = 0.54159 -0.00377
# Poissons Ratio (y) = 0.18230 0.20861
# Poissons Ratio (z) = -0.00244 0.40119
#
# Static dielectric constant tensor:
#      x y z
#    x 3.643540 0.000000 0.223110 
#    y 0.000000 4.417290 0.000000 
#    z 0.223110 0.000000 3.983120 
# 
# 
# High freq. dielectric constant tensor:
#      x y z
#    x 1.833760 0.000000 0.028740 
#    y 0.000000 1.876080 0.000000 
#    z 0.028740 0.000000 1.856100 
# 
# From -- ./inp_files/58632.got.cif
#   From: 2010.06.25/outbox.cif.g09.slc.cpg/sg12_30_cif.got.tgz:58632.got - 2010.06.28 00:19:55.
