data_PCOD8094818
_publ_section_title
;
Structure prediction by ZEFSAII (Michael W. Deem and Ramdas Pophale) SiO2 
 PCOD8094818
Probable space group: C 2/M
;
_chemical_formula_sum "Si O2"
_cell_formula_units_Z 64
_cell_length_a 14.226136
_cell_length_b 28.127987
_cell_length_c 12.453167
_cell_angle_alpha 90.000000
_cell_angle_beta 142.781643
_cell_angle_gamma 90.000000
_cell_volume 3014.089764
_symmetry_space_group_name_H-M "C 2/M"
_symmetry_group_IT_number 12
_symmetry_cell_setting 'monoclinic'
loop_
_space_group_symop_operation_xyz
x,y,z
-x,y,-z
-x,-y,-z
x,-y,z
1/2+x,1/2+y,z
1/2-x,1/2+y,-z
1/2-x,1/2-y,-z
1/2+x,1/2-y,z
loop_
_atom_site_type_symbol
_atom_site_label
_atom_site_fract_x
_atom_site_fract_y
_atom_site_fract_z
Si Si1 0.203411 0.944346 0.963502
Si Si2 0.395903 0.763466 0.502063
Si Si3 0.288497 0.660804 0.393732
Si Si4 0.046194 0.801428 0.157756
Si Si5 0.341903 0.875628 0.923177
Si Si6 0.316984 0.552939 0.817123
Si Si7 0.024447 0.294790 0.838561
Si Si8 0.891882 0.105424 0.683069
O O1 0.310016 0.920704 0.969761
O O2 0.021794 0.933514 0.774093
O O3 0.227952 0.000000 0.974835
O O4 0.251310 0.928616 0.130021
O O5 0.500000 0.780605 0.500000
O O6 0.403525 0.705655 0.521589
O O7 0.221542 0.782493 0.332943
O O8 0.477658 0.791285 0.672744
O O9 0.304263 0.634712 0.291533
O O10 0.120557 0.684468 0.227643
O O11 0.291515 0.619429 0.486962
O O12 0.930003 0.757991 0.079081
O O13 0.016149 0.846401 0.204697
O O14 0.000000 0.820335 0.000000
O O15 0.500000 0.885924 0.000000
O O16 0.340102 0.831094 0.005835
O O17 0.252209 0.500000 0.731787
O O18 0.281606 0.587591 0.682475
O O19 0.500000 0.550181 0.000000
#
# Coordination Sequence:
#
# PCOD8094818 Si02
#       8
#     8   8   8   8   8   8   8   8
#     4  10  22  40  61  91 122 151 205 266 319 373
#     4  11  22  35  55  85 127 171 203 253 305 354
#     4  10  20  38  55  83 124 162 198 250 307 354
#     4  11  20  35  56  86 122 161 206 248 297 365
#     4  10  23  40  64  84 116 169 211 251 308 372
#     4   8  16  33  55  82 115 147 182 243 314 362
#     4  10  19  40  55  78 116 166 209 237 294 364
#     4  11  19  33  61  88 122 157 197 243 317 368
#
# _framework density 21.233606999999999
#
# number of rings (size 3 to 8) (size 9 to 14) (size 15 to 20)
#    0.000    1.875    2.500    4.875    1.750    2.250 
#    0.000    3.750    0.000    1.500    0.000    7.000 
#    0.000    0.000    0.000    0.000    0.000    0.000 
#
# Total GULP energy -396420.956965 kJ/mol
# GULP energy per Si atom -12388.154905 kJ/mol
# Density = 2.118528 g / cm^3
# Si number density = 21.233607 Si / 1000 Ang^3
#
#
#
# Elastic Constant Matrix: (Units=GPa)
#
#
# Indices 1 2 3 4 5 6 
#
# 1 85.5027 45.3767 24.3557 0.0000 -30.7651 0.0000
# 2 45.3767 113.1179 42.0765 0.0000 -23.5113 0.0000
# 3 24.3557 42.0765 97.5818 0.0000 -41.0968 0.0000
# 4 0.0000 0.0000 0.0000 23.6366 0.0000 -13.9232
# 5 -30.7651 -23.5113 -41.0968 0.0000 28.6542 0.0000
# 6 0.0000 0.0000 0.0000 -13.9232 0.0000 30.8981
#
#
#
# Elastic Compliance Matrix: (Units=1/GPa)
#
#
# Indices 1 2 3 4 5 6 
#
# 1 0.027868 -0.007392 0.015856 0.000000 0.046598 0.000000
# 2 -0.007392 0.012828 -0.006556 0.000000 -0.006814 0.000000
# 3 0.015856 -0.006556 0.035410 0.000000 0.062432 0.000000
# 4 0.000000 0.000000 0.000000 0.057595 0.000000 0.025953
# 5 0.046598 -0.006814 0.062432 0.000000 0.168880 0.000000
# 6 0.000000 0.000000 0.000000 0.025953 0.000000 0.044059
#
#
# Mechanical properties :
#
#
# Convention : Reuss Voigt Hill
#
# Bulk Modulus (GPa) = 12.51201 57.75783 35.13492
# Shear Modulus (GPa) = 13.53306 28.93069 21.23188
#
# Velocity S-wave (km/s) = 2.52730 3.69520 3.16558
# Velocity P-wave (km/s) = 3.79759 6.74287 5.47211
#
# Compressibility (1/GPa) = 0.07992323
#
# Stress axis : x y z
#
# Youngs Moduli (GPa) = 35.88309 77.95426 28.24030
#
# Poissons Ratio (x) = 0.57625 -0.44779
# Poissons Ratio (y) = 0.26525 0.18514
# Poissons Ratio (z) = -0.56898 0.51107
#
# Static dielectric constant tensor:
#      x y z
#    x 3.784870 0.000000 -0.415480 
#    y 0.000000 3.973500 0.000000 
#    z -0.415480 0.000000 3.769610 
# 
# 
# High freq. dielectric constant tensor:
#      x y z
#    x 1.816470 0.000000 -0.035390 
#    y 0.000000 1.827320 0.000000 
#    z -0.035390 0.000000 1.816100 
# 
# From -- ./inp_files/149792.got.cif
#   From: 2010.06.25/outbox.cif.g09.slc.cpg/sg12_75_cif.got.tgz:149792.got - 2010.06.28 00:19:55.
