data_PCOD8094043
_publ_section_title
;
Structure prediction by ZEFSAII (Michael W. Deem and Ramdas Pophale) SiO2 
 PCOD8094043
Probable space group: C 2/M
;
_chemical_formula_sum "Si O2"
_cell_formula_units_Z 56
_cell_length_a 21.067669
_cell_length_b 8.927669
_cell_length_c 31.472786
_cell_angle_alpha 90.000000
_cell_angle_beta 151.150828
_cell_angle_gamma 90.000000
_cell_volume 2856.222741
_symmetry_space_group_name_H-M "C 2/M"
_symmetry_group_IT_number 12
_symmetry_cell_setting 'monoclinic'
loop_
_space_group_symop_operation_xyz
x,y,z
-x,y,-z
-x,-y,-z
x,-y,z
1/2+x,1/2+y,z
1/2-x,1/2+y,-z
1/2-x,1/2-y,-z
1/2+x,1/2-y,z
loop_
_atom_site_type_symbol
_atom_site_label
_atom_site_fract_x
_atom_site_fract_y
_atom_site_fract_z
Si Si1 0.374646 0.825065 0.955085
Si Si2 0.725301 0.673072 0.553144
Si Si3 0.734715 0.829786 0.802944
Si Si4 0.367363 0.323297 0.042290
Si Si5 0.160180 0.823394 0.223348
Si Si6 0.432692 0.832228 0.605844
Si Si7 0.649972 0.177664 0.591810
O O1 0.252176 0.773868 0.854446
O O2 0.367287 0.000000 0.961209
O O3 0.500000 0.781203 0.000000
O O4 0.369966 0.735233 0.995906
O O5 0.713919 0.500000 0.558671
O O6 0.599581 0.719906 0.451320
O O7 0.856669 0.712794 0.604146
O O8 0.732417 0.769871 0.599721
O O9 0.813849 0.761441 0.808987
O O10 0.584228 0.823529 0.703028
O O11 0.779775 0.000000 0.839441
O O12 0.343900 0.500000 0.027681
O O13 0.508874 0.283819 0.147068
O O14 0.250000 0.250000 0.000000
O O15 0.268237 0.757463 0.319750
O O16 0.181413 0.000000 0.234230
O O17 0.390162 0.000000 0.567037
O O18 0.500000 0.240784 0.500000
O O19 0.646128 0.000000 0.591465
#
# Coordination Sequence:
#
# PCOD8094043 Si02
#       7
#     8   8   8   8   8   8   8
#     4  11  23  39  60  88 121 153 192 240 295 355
#     4  10  20  34  52  79 115 149 184 229 285 339
#     4  10  19  36  62  87 111 145 195 242 288 342
#     4  11  23  41  63  88 121 159 203 248 302 358
#     4   9  19  35  58  85 111 147 192 239 287 347
#     4   9  19  35  56  81 110 147 189 233 282 343
#     4  10  20  36  58  81 109 147 190 233 282 342
#
# _framework density 19.606314000000001
#
# number of rings (size 3 to 8) (size 9 to 14) (size 15 to 20)
#    0.000    2.000    1.429    2.143    0.000    5.429 
#    0.000    5.000    0.000    0.000    0.000    0.000 
#    0.000    0.000    0.000    0.000    0.000    0.000 
#
# Total GULP energy -347146.761173 kJ/mol
# GULP energy per Si atom -12398.098613 kJ/mol
# Density = 1.956169 g / cm^3
# Si number density = 19.606314 Si / 1000 Ang^3
#
#
#
# Elastic Constant Matrix: (Units=GPa)
#
#
# Indices 1 2 3 4 5 6 
#
# 1 112.4377 39.9011 64.3595 -0.0002 -8.9189 0.0004
# 2 39.9011 42.5261 30.5886 -0.0010 7.9887 0.0010
# 3 64.3595 30.5886 103.6900 -0.0005 2.9530 0.0001
# 4 -0.0002 -0.0010 -0.0005 23.3479 0.0001 -0.6516
# 5 -8.9189 7.9887 2.9530 0.0001 21.7510 -0.0001
# 6 0.0004 0.0010 0.0001 -0.6516 -0.0001 34.3376
#
#
#
# Elastic Compliance Matrix: (Units=1/GPa)
#
#
# Indices 1 2 3 4 5 6 
#
# 1 0.020843 -0.016350 -0.008561 -0.000001 0.015714 0.000000
# 2 -0.016350 0.044914 -0.002450 0.000002 -0.022868 -0.000001
# 3 -0.008561 -0.002450 0.015816 0.000000 -0.004758 0.000000
# 4 -0.000001 0.000002 0.000000 0.042853 -0.000001 0.000813
# 5 0.015714 -0.022868 -0.004758 -0.000001 0.061464 0.000001
# 6 0.000000 -0.000001 0.000000 0.000813 0.000001 0.029138
#
#
# Mechanical properties :
#
#
# Convention : Reuss Voigt Hill
#
# Bulk Modulus (GPa) = 37.24348 58.70581 47.97464
# Shear Modulus (GPa) = 17.94034 24.14093 21.04064
#
# Velocity S-wave (km/s) = 3.02823 3.51277 3.27946
# Velocity P-wave (km/s) = 5.59140 6.81616 6.23393
#
# Compressibility (1/GPa) = 0.02685034
#
# Stress axis : x y z
#
# Youngs Moduli (GPa) = 47.97744 22.26470 63.22609
#
# Poissons Ratio (x) = 0.36404 0.54130
# Poissons Ratio (y) = 0.78445 0.15489
# Poissons Ratio (z) = 0.41075 0.05455
#
# Static dielectric constant tensor:
#      x y z
#    x 3.657800 0.000000 0.006520 
#    y 0.000000 3.490960 0.000000 
#    z 0.006520 0.000000 3.716470 
# 
# 
# High freq. dielectric constant tensor:
#      x y z
#    x 1.768310 0.000000 0.000310 
#    y 0.000000 1.745580 0.000000 
#    z 0.000310 0.000000 1.769580 
# 
# From -- ./inp_files/380645.got.cif
#   From: 2010.06.25/outbox.cif.g09.slc.cpg/sg12_191_cif.got.tgz:380645.got - 2010.06.28 00:19:55.
