data_PCOD8094200
_publ_section_title
;
Structure prediction by ZEFSAII (Michael W. Deem and Ramdas Pophale) SiO2 
 PCOD8094200
Probable space group: C 2/M
;
_chemical_formula_sum "Si O2"
_cell_formula_units_Z 48
_cell_length_a 9.868518
_cell_length_b 15.335713
_cell_length_c 31.841668
_cell_angle_alpha 90.000000
_cell_angle_beta 31.308300
_cell_angle_gamma 90.000000
_cell_volume 2504.129044
_symmetry_space_group_name_H-M "C 2/M"
_symmetry_group_IT_number 12
_symmetry_cell_setting 'monoclinic'
loop_
_space_group_symop_operation_xyz
x,y,z
-x,y,-z
-x,-y,-z
x,-y,z
1/2+x,1/2+y,z
1/2-x,1/2+y,-z
1/2-x,1/2-y,-z
1/2+x,1/2-y,z
loop_
_atom_site_type_symbol
_atom_site_label
_atom_site_fract_x
_atom_site_fract_y
_atom_site_fract_z
Si Si1 0.228211 0.331025 0.974084
Si Si2 0.421506 0.400914 0.399424
Si Si3 0.784245 0.758989 0.299502
Si Si4 0.562431 0.099217 0.415467
Si Si5 0.288711 0.096730 0.936969
Si Si6 0.849587 0.248100 0.186333
O O1 0.502259 0.331752 0.876373
O O2 0.250000 0.250000 0.000000
O O3 0.189399 0.409435 0.017466
O O4 0.000000 0.326168 0.000000
O O5 0.527766 0.500000 0.371110
O O6 0.662536 0.335820 0.340444
O O7 0.273231 0.380112 0.395524
O O8 0.226918 0.387313 0.489900
O O9 0.600357 0.834367 0.367163
O O10 0.822510 0.779882 0.241101
O O11 0.065480 0.763555 0.244697
O O12 0.596334 0.000000 0.390409
O O13 0.489645 0.162251 0.861820
O O14 0.349031 0.000000 0.903752
O O15 0.000000 0.127280 0.000000
#
# Coordination Sequence:
#
# PCOD8094200 Si02
#       6
#     8   8   8   8   8   8
#     4  10  19  37  58  78 109 150 195 234 283 350
#     4   9  19  38  62  84 113 159 206 242 282 351
#     4  12  21  36  57  91 123 154 194 241 305 358
#     4   9  19  38  61  84 115 158 204 242 285 352
#     4  10  21  39  61  83 110 155 207 247 288 352
#     4  11  22  34  56  84 121 150 184 243 300 352
#
# _framework density 19.168341999999999
#
# number of rings (size 3 to 8) (size 9 to 14) (size 15 to 20)
#    0.000    1.833    1.667    6.500    0.000    1.667 
#    0.000    2.500    0.000    2.000    0.000    0.000 
#    0.000    0.000    0.000    0.000    0.000    0.000 
#
# Total GULP energy -297478.988653 kJ/mol
# GULP energy per Si atom -12394.957861 kJ/mol
# Density = 1.912471 g / cm^3
# Si number density = 19.168342 Si / 1000 Ang^3
#
#
#
# Elastic Constant Matrix: (Units=GPa)
#
#
# Indices 1 2 3 4 5 6 
#
# 1 105.4140 18.3428 33.4195 -0.0185 13.6622 0.0224
# 2 18.3428 88.0923 44.5003 0.0017 9.3426 -0.0086
# 3 33.4195 44.5003 100.0902 -0.0510 15.9267 0.0202
# 4 -0.0185 0.0017 -0.0510 27.1862 0.0041 0.6214
# 5 13.6622 9.3426 15.9267 0.0041 41.9752 -0.0268
# 6 0.0224 -0.0086 0.0202 0.6214 -0.0268 18.4865
#
#
#
# Elastic Compliance Matrix: (Units=1/GPa)
#
#
# Indices 1 2 3 4 5 6 
#
# 1 0.010827 -0.000477 -0.003043 0.000002 -0.002263 -0.000013
# 2 -0.000477 0.014689 -0.006253 -0.000013 -0.000741 0.000014
# 3 -0.003043 -0.006253 0.014270 0.000026 -0.003032 -0.000020
# 4 0.000002 -0.000013 0.000026 0.036812 -0.000012 -0.001237
# 5 -0.002263 -0.000741 -0.003032 -0.000012 0.025876 0.000044
# 6 -0.000013 0.000014 -0.000020 -0.001237 0.000044 0.054135
#
#
# Mechanical properties :
#
#
# Convention : Reuss Voigt Hill
#
# Bulk Modulus (GPa) = 49.40988 54.01351 51.71169
# Shear Modulus (GPa) = 27.33707 30.68517 29.01112
#
# Velocity S-wave (km/s) = 3.78055 4.00537 3.89458
# Velocity P-wave (km/s) = 6.69996 7.04488 6.87458
#
# Compressibility (1/GPa) = 0.02023887
#
# Stress axis : x y z
#
# Youngs Moduli (GPa) = 92.35749 68.07995 70.07865
#
# Poissons Ratio (x) = 0.03250 0.21324
# Poissons Ratio (y) = 0.04409 0.43822
# Poissons Ratio (z) = 0.28103 0.42572
#
# Static dielectric constant tensor:
#      x y z
#    x 3.633740 0.000240 0.228380 
#    y 0.000240 3.603420 0.000150 
#    z 0.228380 0.000150 3.724120 
# 
# 
# High freq. dielectric constant tensor:
#      x y z
#    x 1.742610 0.000000 0.005890 
#    y 0.000000 1.735750 0.000000 
#    z 0.005890 0.000000 1.753770 
# 
# From -- ./inp_files/372849.got.cif
#   From: 2010.06.25/outbox.cif.g09.slc.cpg/sg12_187_cif.got.tgz:372849.got - 2010.06.28 00:19:55.
