data_PCOD8094063
_publ_section_title
;
Structure prediction by ZEFSAII (Michael W. Deem and Ramdas Pophale) SiO2 
 PCOD8094063
Probable space group: C 2/M
;
_chemical_formula_sum "Si O2"
_cell_formula_units_Z 56
_cell_length_a 28.597677
_cell_length_b 19.283543
_cell_length_c 9.543318
_cell_angle_alpha 90.000000
_cell_angle_beta 145.625806
_cell_angle_gamma 90.000000
_cell_volume 2971.353024
_symmetry_space_group_name_H-M "C 2/M"
_symmetry_group_IT_number 12
_symmetry_cell_setting 'monoclinic'
loop_
_space_group_symop_operation_xyz
x,y,z
-x,y,-z
-x,-y,-z
x,-y,z
1/2+x,1/2+y,z
1/2-x,1/2+y,-z
1/2-x,1/2-y,-z
1/2+x,1/2-y,z
loop_
_atom_site_type_symbol
_atom_site_label
_atom_site_fract_x
_atom_site_fract_y
_atom_site_fract_z
Si Si1 0.158301 0.312953 0.153463
Si Si2 0.424869 0.692088 0.649580
Si Si3 0.670153 0.079253 0.683241
Si Si4 0.980148 0.654597 0.792875
Si Si5 0.895560 0.166485 0.890737
Si Si6 0.749233 0.080240 0.581197
Si Si7 0.246317 0.181506 0.901074
O O1 0.159518 0.235856 0.222011
O O2 0.205178 0.369564 0.362161
O O3 0.201294 0.308624 0.109861
O O4 0.062807 0.336406 0.905669
O O5 0.426580 0.775126 0.673152
O O6 0.409772 0.657283 0.761490
O O7 0.350952 0.667075 0.366873
O O8 0.514656 0.668879 0.810426
O O9 0.574148 0.099491 0.426685
O O10 0.715076 0.095699 0.649463
O O11 0.674827 0.000000 0.737902
O O12 0.715298 0.118205 0.920145
O O13 0.000000 0.628388 0.000000
O O14 0.846505 0.099556 0.825417
O O15 0.736898 0.000000 0.507064
O O16 0.250000 0.250000 0.000000
#
# Coordination Sequence:
#
# PCOD8094063 Si02
#       7
#     8   8   8   8   8   8   8
#     4  11  22  36  66  91 120 154 203 253 301 354
#     4  10  19  36  62  91 120 150 195 250 308 348
#     4  11  25  42  59  85 128 167 196 245 310 370
#     4  11  19  38  64  95 120 150 202 258 303 360
#     4  10  19  37  63  92 116 147 199 261 295 345
#     4  11  22  38  62  90 116 157 209 248 299 359
#     4  12  24  39  61  89 125 164 201 242 303 367
#
# _framework density 18.846633000000001
#
# number of rings (size 3 to 8) (size 9 to 14) (size 15 to 20)
#    0.000    1.143    7.143    1.286    0.000    2.000 
#    0.000    5.000    0.000    1.714    0.000    0.000 
#    0.000    0.000    0.000    0.000    0.000    0.000 
#
# Total GULP energy -347187.365701 kJ/mol
# GULP energy per Si atom -12399.548775 kJ/mol
# Density = 1.880374 g / cm^3
# Si number density = 18.846633 Si / 1000 Ang^3
#
#
#
# Elastic Constant Matrix: (Units=GPa)
#
#
# Indices 1 2 3 4 5 6 
#
# 1 68.9355 22.7206 24.8842 0.0000 15.7433 0.0000
# 2 22.7206 50.7560 26.6844 0.0000 4.6835 0.0000
# 3 24.8842 26.6844 126.9957 0.0000 13.8705 0.0000
# 4 0.0000 0.0000 0.0000 23.9184 0.0000 7.3930
# 5 15.7433 4.6835 13.8705 0.0000 29.8154 0.0000
# 6 0.0000 0.0000 0.0000 7.3930 0.0000 5.3416
#
#
#
# Elastic Compliance Matrix: (Units=1/GPa)
#
#
# Indices 1 2 3 4 5 6 
#
# 1 0.019272 -0.007136 -0.001357 0.000000 -0.008424 0.000000
# 2 -0.007136 0.024846 -0.004011 0.000000 0.001731 0.000000
# 3 -0.001357 -0.004011 0.009309 0.000000 -0.002984 0.000000
# 4 0.000000 0.000000 0.000000 0.073066 0.000000 -0.101126
# 5 -0.008424 0.001731 -0.002984 0.000000 0.039104 0.000000
# 6 0.000000 0.000000 0.000000 -0.101126 0.000000 0.327170
#
#
# Mechanical properties :
#
#
# Convention : Reuss Voigt Hill
#
# Bulk Modulus (GPa) = 35.18922 43.91840 39.55381
# Shear Modulus (GPa) = 9.48320 23.30828 16.39574
#
# Velocity S-wave (km/s) = 2.24559 3.52054 2.95270
# Velocity P-wave (km/s) = 5.04336 6.31500 5.71466
#
# Compressibility (1/GPa) = 0.02841780
#
# Stress axis : x y z
#
# Youngs Moduli (GPa) = 51.88879 40.24814 107.42381
#
# Poissons Ratio (x) = 0.28723 0.14574
# Poissons Ratio (y) = 0.37030 0.43092
# Poissons Ratio (z) = 0.07040 0.16145
#
# Static dielectric constant tensor:
#      x y z
#    x 3.947090 0.000000 0.341060 
#    y 0.000000 3.473700 0.000000 
#    z 0.341060 0.000000 3.772000 
# 
# 
# High freq. dielectric constant tensor:
#      x y z
#    x 1.735470 0.000000 0.019470 
#    y 0.000000 1.714420 0.000000 
#    z 0.019470 0.000000 1.735460 
# 
# From -- ./inp_files/106048.got.cif
#   From: 2010.06.25/outbox.cif.g09.slc.cpg/sg12_54_cif.got.tgz:106048.got - 2010.06.28 00:19:55.
