data_PCOD8094547
_publ_section_title
;
Structure prediction by ZEFSAII (Michael W. Deem and Ramdas Pophale) SiO2 
 PCOD8094547
Probable space group: C 2/M
;
_chemical_formula_sum "Si O2"
_cell_formula_units_Z 56
_cell_length_a 15.405304
_cell_length_b 18.716447
_cell_length_c 9.796946
_cell_angle_alpha 90.000000
_cell_angle_beta 83.269601
_cell_angle_gamma 90.000000
_cell_volume 2805.311825
_symmetry_space_group_name_H-M "C 2/M"
_symmetry_group_IT_number 12
_symmetry_cell_setting 'monoclinic'
loop_
_space_group_symop_operation_xyz
x,y,z
-x,y,-z
-x,-y,-z
x,-y,z
1/2+x,1/2+y,z
1/2-x,1/2+y,-z
1/2-x,1/2-y,-z
1/2+x,1/2-y,z
loop_
_atom_site_type_symbol
_atom_site_label
_atom_site_fract_x
_atom_site_fract_y
_atom_site_fract_z
Si Si1 0.201853 0.581579 0.170000
Si Si2 0.847131 0.661623 0.328235
Si Si3 0.576127 0.693136 0.592480
Si Si4 0.766216 0.822777 0.918953
Si Si5 0.775430 0.915074 0.444215
Si Si6 0.019107 0.634911 0.148199
Si Si7 0.961839 0.198027 0.865520
O O1 0.226672 0.500000 0.155367
O O2 0.246658 0.611885 0.299151
O O3 0.097787 0.591309 0.201180
O O4 0.238240 0.614987 0.025257
O O5 0.865002 0.735848 0.403585
O O6 0.790205 0.678388 0.206408
O O7 0.800020 0.605658 0.435346
O O8 0.936704 0.624877 0.262421
O O9 0.500000 0.709783 0.500000
O O10 0.636160 0.627224 0.532677
O O11 0.530195 0.670770 0.741512
O O12 0.866496 0.834752 0.857465
O O13 0.750000 0.750000 0.000000
O O14 0.791685 0.000000 0.449639
O O15 0.047976 0.716918 0.132732
O O16 0.000000 0.605059 0.000000
O O17 0.000000 0.169470 0.000000
#
# Coordination Sequence:
#
# PCOD8094547 Si02
#       7
#     8   8   8   8   8   8   8
#     4  11  24  39  61  90 128 171 206 251 312 378
#     4  11  24  38  66  97 123 162 212 265 312 380
#     4  11  24  41  65  94 123 161 212 267 318 368
#     4  12  20  39  67  91 126 161 206 263 315 374
#     4  11  26  45  62  89 130 174 213 256 318 378
#     4  10  19  38  58  90 124 156 201 252 314 370
#     4  10  20  35  62  94 118 156 203 257 313 365
#
# _framework density 19.962129999999998
#
# number of rings (size 3 to 8) (size 9 to 14) (size 15 to 20)
#    0.000    1.143    2.857    4.714    4.000    1.714 
#    0.000    2.143    0.000    2.571    0.000    0.000 
#    0.000    0.000    0.000    0.000    0.000    0.000 
#
# Total GULP energy -347313.543023 kJ/mol
# GULP energy per Si atom -12404.055108 kJ/mol
# Density = 1.991670 g / cm^3
# Si number density = 19.962130 Si / 1000 Ang^3
#
#
#
# Elastic Constant Matrix: (Units=GPa)
#
#
# Indices 1 2 3 4 5 6 
#
# 1 96.6405 25.0528 31.4451 0.0000 -4.6512 0.0000
# 2 25.0528 66.2886 36.3717 0.0000 -2.8825 0.0000
# 3 31.4451 36.3717 104.8470 0.0000 7.1428 0.0000
# 4 0.0000 0.0000 0.0000 24.5320 0.0000 -2.8726
# 5 -4.6512 -2.8825 7.1428 0.0000 43.2072 0.0000
# 6 0.0000 0.0000 0.0000 -2.8726 0.0000 22.2164
#
#
#
# Elastic Compliance Matrix: (Units=1/GPa)
#
#
# Indices 1 2 3 4 5 6 
#
# 1 0.012078 -0.003029 -0.002676 0.000000 0.001541 0.000000
# 2 -0.003029 0.019628 -0.006036 0.000000 0.001981 0.000000
# 3 -0.002676 -0.006036 0.012623 0.000000 -0.002778 0.000000
# 4 0.000000 0.000000 0.000000 0.041390 0.000000 0.005352
# 5 0.001541 0.001981 -0.002778 0.000000 0.023901 0.000000
# 6 0.000000 0.000000 0.000000 0.005352 0.000000 0.045704
#
#
# Mechanical properties :
#
#
# Convention : Reuss Voigt Hill
#
# Bulk Modulus (GPa) = 47.96819 50.39058 49.17939
# Shear Modulus (GPa) = 26.91705 29.65154 28.28429
#
# Velocity S-wave (km/s) = 3.67605 3.85826 3.76825
# Velocity P-wave (km/s) = 6.48842 6.71908 6.60476
#
# Compressibility (1/GPa) = 0.02084715
#
# Stress axis : x y z
#
# Youngs Moduli (GPa) = 82.79578 50.94734 79.21804
#
# Poissons Ratio (x) = 0.15433 0.21203
# Poissons Ratio (y) = 0.25080 0.47812
# Poissons Ratio (z) = 0.22160 0.30749
#
# Static dielectric constant tensor:
#      x y z
#    x 3.956000 0.000000 -0.284090 
#    y 0.000000 3.387700 0.000000 
#    z -0.284090 0.000000 4.996060 
# 
# 
# High freq. dielectric constant tensor:
#      x y z
#    x 1.796410 0.000000 0.000400 
#    y 0.000000 1.750810 0.000000 
#    z 0.000400 0.000000 1.791600 
# 
# From -- ./inp_files/64052.got.cif
#   From: 2010.06.25/outbox.cif.g09.slc.cpg/sg12_33_cif.got.tgz:64052.got - 2010.06.28 00:19:55.
