data_PCOD8094714
_publ_section_title
;
Structure prediction by ZEFSAII (Michael W. Deem and Ramdas Pophale) SiO2 
 PCOD8094714
Probable space group: C 2/M
;
_chemical_formula_sum "Si O2"
_cell_formula_units_Z 64
_cell_length_a 28.054079
_cell_length_b 16.481199
_cell_length_c 19.947413
_cell_angle_alpha 90.000000
_cell_angle_beta 19.986560
_cell_angle_gamma 90.000000
_cell_volume 3152.412827
_symmetry_space_group_name_H-M "C 2/M"
_symmetry_group_IT_number 12
_symmetry_cell_setting 'monoclinic'
loop_
_space_group_symop_operation_xyz
x,y,z
-x,y,-z
-x,-y,-z
x,-y,z
1/2+x,1/2+y,z
1/2-x,1/2+y,-z
1/2-x,1/2-y,-z
1/2+x,1/2-y,z
loop_
_atom_site_type_symbol
_atom_site_label
_atom_site_fract_x
_atom_site_fract_y
_atom_site_fract_z
Si Si1 0.686630 0.908996 0.803983
Si Si2 0.755472 0.641757 0.411043
Si Si3 0.996232 0.592969 0.834369
Si Si4 0.102189 0.904596 0.804728
Si Si5 0.126662 0.302948 0.559911
Si Si6 0.496729 0.591043 0.577531
Si Si7 0.610964 0.299325 0.171138
Si Si8 0.981692 0.090869 0.818846
O O1 0.656426 0.860370 0.775089
O O2 0.849793 0.908258 0.596556
O O3 0.627152 0.000000 0.874352
O O4 0.609474 0.870388 0.970421
O O5 0.845032 0.601259 0.350888
O O6 0.711282 0.733498 0.488870
O O7 0.617149 0.586228 0.591263
O O8 0.959873 0.500000 0.863715
O O9 0.998931 0.651185 0.766696
O O10 0.252919 0.864611 0.623107
O O11 0.030236 0.878068 0.828940
O O12 0.129992 0.000000 0.766575
O O13 0.000000 0.879153 0.000000
O O14 0.031491 0.255142 0.630923
O O15 0.500000 0.632952 0.500000
O O16 0.437194 0.500000 0.648719
O O17 0.391081 0.635658 0.766543
O O18 0.618556 0.344408 0.087327
O O19 0.750000 0.250000 0.000000
O O20 0.915164 0.000000 0.910795
#
# Coordination Sequence:
#
# PCOD8094714 Si02
#       8
#     8   8   8   8   8   8   8   8
#     4  10  20  35  56  86 117 156 196 238 298 371
#     4  11  20  34  55  87 122 154 191 240 300 375
#     4  11  22  34  55  87 124 158 191 239 304 373
#     4  10  22  41  65  93 121 161 215 262 315 383
#     4  11  23  39  57  87 125 160 202 252 324 370
#     4  10  21  41  64  85 114 155 208 257 303 361
#     4  11  25  42  59  91 126 164 212 258 308 370
#     4  10  19  38  67  87 117 166 206 251 309 374
#
# _framework density 20.301909999999999
#
# number of rings (size 3 to 8) (size 9 to 14) (size 15 to 20)
#    0.000    1.500    3.750    2.625    3.500    2.000 
#    2.250    1.875    0.000    0.000    0.000    2.625 
#    0.000    0.000    0.000    0.000    0.000    0.000 
#
# Total GULP energy -396440.191498 kJ/mol
# GULP energy per Si atom -12388.755984 kJ/mol
# Density = 2.025570 g / cm^3
# Si number density = 20.301910 Si / 1000 Ang^3
#
#
#
# Elastic Constant Matrix: (Units=GPa)
#
#
# Indices 1 2 3 4 5 6 
#
# 1 83.6245 32.5685 29.6318 0.0003 10.5541 -0.0002
# 2 32.5685 81.4660 38.0230 0.0001 5.9085 -0.0001
# 3 29.6318 38.0230 85.6746 0.0005 12.0437 -0.0006
# 4 0.0003 0.0001 0.0005 25.7393 -0.0006 -5.6802
# 5 10.5541 5.9085 12.0437 -0.0006 35.5788 0.0006
# 6 -0.0002 -0.0001 -0.0006 -5.6802 0.0006 24.2107
#
#
#
# Elastic Compliance Matrix: (Units=1/GPa)
#
#
# Indices 1 2 3 4 5 6 
#
# 1 0.015061 -0.004504 -0.002822 0.000000 -0.002765 0.000000
# 2 -0.004504 0.016831 -0.005992 0.000000 0.000569 0.000000
# 3 -0.002822 -0.005992 0.015802 0.000000 -0.003517 0.000000
# 4 0.000000 0.000000 0.000000 0.040972 0.000001 0.009613
# 5 -0.002765 0.000569 -0.003517 0.000001 0.030023 -0.000001
# 6 0.000000 0.000000 0.000000 0.009613 -0.000001 0.043559
#
#
# Mechanical properties :
#
#
# Convention : Reuss Voigt Hill
#
# Bulk Modulus (GPa) = 47.48589 50.13462 48.81025
# Shear Modulus (GPa) = 25.52294 27.14190 26.33242
#
# Velocity S-wave (km/s) = 3.54950 3.66035 3.60535
# Velocity P-wave (km/s) = 6.34344 6.52781 6.43629
#
# Compressibility (1/GPa) = 0.02105889
#
# Stress axis : x y z
#
# Youngs Moduli (GPa) = 66.39690 59.41446 63.28435
#
# Poissons Ratio (x) = 0.26758 0.17857
# Poissons Ratio (y) = 0.29902 0.37920
# Poissons Ratio (z) = 0.18735 0.35602
#
# Static dielectric constant tensor:
#      x y z
#    x 3.817830 0.000000 0.205940 
#    y 0.000000 3.851990 0.000000 
#    z 0.205940 0.000000 3.582150 
# 
# 
# High freq. dielectric constant tensor:
#      x y z
#    x 1.780900 0.000000 0.006530 
#    y 0.000000 1.789160 0.000000 
#    z 0.006530 0.000000 1.777530 
# 
# From -- ./inp_files/330345.got.cif
#   From: 2010.06.25/outbox.cif.g09.slc.cpg/sg12_166_cif.got.tgz:330345.got - 2010.06.28 00:19:55.
