data_PCOD8094129
_publ_section_title
;
Structure prediction by ZEFSAII (Michael W. Deem and Ramdas Pophale) SiO2 
 PCOD8094129
Probable space group: C 2/M
;
_chemical_formula_sum "Si O2"
_cell_formula_units_Z 64
_cell_length_a 10.519240
_cell_length_b 25.030893
_cell_length_c 11.969227
_cell_angle_alpha 90.000000
_cell_angle_beta 83.131618
_cell_angle_gamma 90.000000
_cell_volume 3128.951660
_symmetry_space_group_name_H-M "C 2/M"
_symmetry_group_IT_number 12
_symmetry_cell_setting 'monoclinic'
loop_
_space_group_symop_operation_xyz
x,y,z
-x,y,-z
-x,-y,-z
x,-y,z
1/2+x,1/2+y,z
1/2-x,1/2+y,-z
1/2-x,1/2-y,-z
1/2+x,1/2-y,z
loop_
_atom_site_type_symbol
_atom_site_label
_atom_site_fract_x
_atom_site_fract_y
_atom_site_fract_z
Si Si1 0.250395 0.438589 0.719399
Si Si2 0.138431 0.148039 0.431832
Si Si3 0.164301 0.938764 0.054424
Si Si4 0.735051 0.138221 0.352930
Si Si5 0.090233 0.883779 0.858380
Si Si6 0.986703 0.559424 0.632942
Si Si7 0.793647 0.245099 0.734581
Si Si8 0.529849 0.261602 0.875260
O O1 0.287379 0.500000 0.691488
O O2 0.361662 0.401870 0.653436
O O3 0.237926 0.427615 0.853785
O O4 0.116514 0.422510 0.678888
O O5 0.238892 0.133562 0.518548
O O6 0.183244 0.200024 0.360138
O O7 0.000000 0.158406 0.500000
O O8 0.024154 0.925976 0.119645
O O9 0.170578 0.000000 0.015715
O O10 0.193800 0.901408 0.943577
O O11 0.854662 0.114550 0.271828
O O12 0.616276 0.103477 0.323861
O O13 0.711313 0.199637 0.329999
O O14 0.045388 0.824513 0.890188
O O15 0.946476 0.500000 0.679099
O O16 0.000000 0.558240 0.500000
O O17 0.658902 0.234786 0.811988
O O18 0.909643 0.248762 0.808571
O O19 0.500000 0.236102 0.000000
#
# Coordination Sequence:
#
# PCOD8094129 Si02
#       8
#     8   8   8   8   8   8   8   8
#     4  10  22  40  64  95 124 167 221 265 324 388
#     4  12  24  41  65  92 132 170 211 275 330 380
#     4  10  19  36  64  92 125 164 206 262 328 388
#     4  11  24  40  61  92 124 170 219 261 320 391
#     4  10  20  38  61  90 125 160 206 264 322 383
#     4  10  21  40  61  85 123 169 213 264 316 374
#     4  11  26  41  63  97 129 173 223 271 330 394
#     4  11  22  43  65  90 129 168 216 271 324 388
#
# _framework density 20.454135000000001
#
# number of rings (size 3 to 8) (size 9 to 14) (size 15 to 20)
#    0.000    1.375    2.500    4.500    1.750    1.750 
#    0.000    0.625    0.000    2.250    0.000    0.000 
#    0.000    0.000    0.000    0.000    0.000    0.000 
#
# Total GULP energy -396737.017468 kJ/mol
# GULP energy per Si atom -12398.031796 kJ/mol
# Density = 2.040758 g / cm^3
# Si number density = 20.454135 Si / 1000 Ang^3
#
#
#
# Elastic Constant Matrix: (Units=GPa)
#
#
# Indices 1 2 3 4 5 6 
#
# 1 89.0382 12.2706 20.3260 0.0000 2.8524 0.0000
# 2 12.2706 63.1698 6.6254 0.0000 -7.8434 0.0000
# 3 20.3260 6.6254 78.0714 0.0000 12.5774 0.0000
# 4 0.0000 0.0000 0.0000 49.6154 0.0000 -13.7415
# 5 2.8524 -7.8434 12.5774 0.0000 39.5120 0.0000
# 6 0.0000 0.0000 0.0000 -13.7415 0.0000 28.6018
#
#
#
# Elastic Compliance Matrix: (Units=1/GPa)
#
#
# Indices 1 2 3 4 5 6 
#
# 1 0.012204 -0.002107 -0.002940 0.000000 -0.000364 0.000000
# 2 -0.002107 0.016896 -0.001528 0.000000 0.003993 0.000000
# 3 -0.002940 -0.001528 0.014460 0.000000 -0.004694 0.000000
# 4 0.000000 0.000000 0.000000 0.023249 0.000000 0.011170
# 5 -0.000364 0.003993 -0.004694 0.000000 0.027622 0.000000
# 6 0.000000 0.000000 0.000000 0.011170 0.000000 0.040329
#
#
# Mechanical properties :
#
#
# Convention : Reuss Voigt Hill
#
# Bulk Modulus (GPa) = 32.88544 34.30262 33.59403
# Shear Modulus (GPa) = 31.63603 36.28300 33.95951
#
# Velocity S-wave (km/s) = 3.93705 4.21630 4.07907
# Velocity P-wave (km/s) = 6.06463 6.36474 6.21649
#
# Compressibility (1/GPa) = 0.03040860
#
# Stress axis : x y z
#
# Youngs Moduli (GPa) = 81.93787 59.18649 69.15554
#
# Poissons Ratio (x) = 0.12473 0.20332
# Poissons Ratio (y) = 0.17268 0.10570
# Poissons Ratio (z) = 0.24090 0.09046
#
# Static dielectric constant tensor:
#      x y z
#    x 3.818920 0.000000 0.272590 
#    y 0.000000 3.746620 0.000000 
#    z 0.272590 0.000000 4.198830 
# 
# 
# High freq. dielectric constant tensor:
#      x y z
#    x 1.785370 0.000000 0.016300 
#    y 0.000000 1.802690 0.000000 
#    z 0.016300 0.000000 1.815460 
# 
# From -- ./inp_files/135372.got.cif
#   From: 2010.06.25/outbox.cif.g09.slc.cpg/sg12_68_cif.got.tgz:135372.got - 2010.06.28 00:19:55.
