data_PCOD8094001
_publ_section_title
;
Structure prediction by ZEFSAII (Michael W. Deem and Ramdas Pophale) SiO2 
 PCOD8094001
Probable space group: C 2/M
;
_chemical_formula_sum "Si O2"
_cell_formula_units_Z 48
_cell_length_a 23.452932
_cell_length_b 8.547571
_cell_length_c 17.259174
_cell_angle_alpha 90.000000
_cell_angle_beta 47.282676
_cell_angle_gamma 90.000000
_cell_volume 2541.999913
_symmetry_space_group_name_H-M "C 2/M"
_symmetry_group_IT_number 12
_symmetry_cell_setting 'monoclinic'
loop_
_space_group_symop_operation_xyz
x,y,z
-x,y,-z
-x,-y,-z
x,-y,z
1/2+x,1/2+y,z
1/2-x,1/2+y,-z
1/2-x,1/2-y,-z
1/2+x,1/2-y,z
loop_
_atom_site_type_symbol
_atom_site_label
_atom_site_fract_x
_atom_site_fract_y
_atom_site_fract_z
Si Si1 0.026628 0.815243 0.184435
Si Si2 0.995594 0.185960 0.622124
Si Si3 0.223499 0.316804 0.791793
Si Si4 0.195325 0.814091 0.984526
Si Si5 0.433703 0.683567 0.122304
Si Si6 0.117936 0.684641 0.396020
O O1 0.005232 0.750061 0.288994
O O2 0.961154 0.766953 0.182870
O O3 0.033776 0.000000 0.181501
O O4 0.109134 0.748458 0.080048
O O5 0.074411 0.245105 0.510471
O O6 0.920188 0.251851 0.647913
O O7 0.992378 0.000000 0.621433
O O8 0.238245 0.500000 0.780209
O O9 0.225160 0.250616 0.876296
O O10 0.143283 0.280423 0.823107
O O11 0.292855 0.235623 0.680476
O O12 0.197610 0.000000 0.980064
O O13 0.250000 0.750000 0.000000
O O14 0.414983 0.500000 0.132560
O O15 0.500000 0.730077 0.000000
O O16 0.109754 0.500000 0.405396
#
# Coordination Sequence:
#
# PCOD8094001 Si02
#       6
#     8   8   8   8   8   8
#     4   9  19  35  58  84 113 149 188 227 283 348
#     4  10  19  36  61  89 119 149 185 236 292 347
#     4  12  24  38  56  84 116 151 195 244 290 338
#     4  11  21  36  56  85 118 153 188 232 287 348
#     4  10  19  38  62  82 111 154 194 233 285 349
#     4  11  22  38  59  84 114 154 197 236 287 349
#
# _framework density 18.882770000000001
#
# number of rings (size 3 to 8) (size 9 to 14) (size 15 to 20)
#    0.000    1.500    1.667    6.000    0.000    1.667 
#    0.000    5.000    0.000    0.000    0.000    0.000 
#    0.000    0.000    0.000    0.000    0.000    0.000 
#
# Total GULP energy -297681.389645 kJ/mol
# GULP energy per Si atom -12403.391235 kJ/mol
# Density = 1.883979 g / cm^3
# Si number density = 18.882770 Si / 1000 Ang^3
#
#
#
# Elastic Constant Matrix: (Units=GPa)
#
#
# Indices 1 2 3 4 5 6 
#
# 1 86.7113 20.8742 42.6537 -0.0001 -5.7112 0.0015
# 2 20.8742 97.0615 39.0553 0.0078 -2.6941 -0.0058
# 3 42.6537 39.0553 117.0154 0.0042 -7.7582 -0.0032
# 4 -0.0001 0.0078 0.0042 25.4701 -0.0028 -4.7280
# 5 -5.7112 -2.6941 -7.7582 -0.0028 34.6566 0.0024
# 6 0.0015 -0.0058 -0.0032 -4.7280 0.0024 31.1983
#
#
#
# Elastic Compliance Matrix: (Units=1/GPa)
#
#
# Indices 1 2 3 4 5 6 
#
# 1 0.014205 -0.001121 -0.004725 0.000001 0.001196 -0.000001
# 2 -0.001121 0.011990 -0.003597 -0.000003 -0.000058 0.000001
# 3 -0.004725 -0.003597 0.011570 -0.000001 0.001532 0.000001
# 4 0.000001 -0.000003 -0.000001 0.040398 0.000003 0.006122
# 5 0.001196 -0.000058 0.001532 0.000003 0.029390 -0.000002
# 6 -0.000001 0.000001 0.000001 0.006122 -0.000002 0.032981
#
#
# Mechanical properties :
#
#
# Convention : Reuss Voigt Hill
#
# Bulk Modulus (GPa) = 52.96541 56.21717 54.59129
# Shear Modulus (GPa) = 30.17282 31.47865 30.82573
#
# Velocity S-wave (km/s) = 4.00171 4.08739 4.04478
# Velocity P-wave (km/s) = 7.03293 7.21886 7.12650
#
# Compressibility (1/GPa) = 0.01888025
#
# Stress axis : x y z
#
# Youngs Moduli (GPa) = 70.39697 83.40631 86.42914
#
# Poissons Ratio (x) = 0.09347 0.40835
# Poissons Ratio (y) = 0.07889 0.31088
# Poissons Ratio (z) = 0.33260 0.30001
#
# Static dielectric constant tensor:
#      x y z
#    x 3.588080 -0.000010 0.089290 
#    y -0.000010 3.437640 0.000000 
#    z 0.089290 0.000000 3.693840 
# 
# 
# High freq. dielectric constant tensor:
#      x y z
#    x 1.735390 0.000000 -0.001640 
#    y 0.000000 1.729340 0.000000 
#    z -0.001640 0.000000 1.739700 
# 
# From -- ./inp_files/280758.got.cif
#   From: 2010.06.25/outbox.cif.g09.slc.cpg/sg12_141_cif.got.tgz:280758.got - 2010.06.28 00:19:55.
