data_PCOD8094993
_publ_section_title
;
Structure prediction by ZEFSAII (Michael W. Deem and Ramdas Pophale) SiO2 
 PCOD8094993
Probable space group: C 2/M
;
_chemical_formula_sum "Si O2"
_cell_formula_units_Z 64
_cell_length_a 27.728007
_cell_length_b 9.051988
_cell_length_c 14.431297
_cell_angle_alpha 90.000000
_cell_angle_beta 74.758026
_cell_angle_gamma 90.000000
_cell_volume 3494.750367
_symmetry_space_group_name_H-M "C 2/M"
_symmetry_group_IT_number 12
_symmetry_cell_setting 'monoclinic'
loop_
_space_group_symop_operation_xyz
x,y,z
-x,y,-z
-x,-y,-z
x,-y,z
1/2+x,1/2+y,z
1/2-x,1/2+y,-z
1/2-x,1/2-y,-z
1/2+x,1/2-y,z
loop_
_atom_site_type_symbol
_atom_site_label
_atom_site_fract_x
_atom_site_fract_y
_atom_site_fract_z
Si Si1 0.679327 0.328905 0.702869
Si Si2 0.517423 0.161542 0.886657
Si Si3 0.878762 0.325365 0.718630
Si Si4 0.058506 0.172991 0.464214
Si Si5 0.134140 0.674539 0.556601
Si Si6 0.608628 0.668513 0.901221
Si Si7 0.410581 0.173712 0.902689
Si Si8 0.709727 0.827096 0.361134
O O1 0.678675 0.500000 0.671797
O O2 0.643119 0.237331 0.654054
O O3 0.659659 0.312801 0.817882
O O4 0.734933 0.256966 0.671497
O O5 0.564018 0.271558 0.858021
O O6 0.468548 0.223303 0.857188
O O7 0.533550 0.000000 0.839692
O O8 0.500000 0.144292 0.000000
O O9 0.886975 0.500000 0.698661
O O10 0.922249 0.240903 0.641965
O O11 0.880182 0.282636 0.826096
O O12 0.824847 0.273303 0.706943
O O13 0.085014 0.251160 0.538044
O O14 0.000000 0.204908 0.500000
O O15 0.070796 0.000000 0.460737
O O16 0.125318 0.500000 0.564418
O O17 0.182671 0.716266 0.470488
O O18 0.596311 0.500000 0.929809
O O19 0.614814 0.750616 0.995799
O O20 0.409261 0.000000 0.922982
O O21 0.717152 0.000000 0.348769
#
# Coordination Sequence:
#
# PCOD8094993 Si02
#       8
#     8   8   8   8   8   8   8   8
#     4  10  20  34  51  73 104 136 164 205 260 305
#     4   8  15  29  47  66  91 124 159 197 244 290
#     4   9  18  34  56  78  98 130 176 213 246 292
#     4  10  21  36  53  77 110 140 163 197 249 302
#     4  10  20  34  55  79  99 129 173 211 246 295
#     4  10  20  31  46  71 101 132 166 204 247 298
#     4   9  18  33  52  72  97 130 166 207 251 293
#     4   8  16  33  54  74  98 129 166 208 252 300
#
# _framework density 18.313182999999999
#
# number of rings (size 3 to 8) (size 9 to 14) (size 15 to 20)
#    0.000    2.750    0.000    3.000    0.000    5.750 
#    0.000    5.625    0.000    0.000    0.000    0.000 
#    0.000    0.000    0.000    0.000    0.000    0.000 
#
# Total GULP energy -396694.384234 kJ/mol
# GULP energy per Si atom -12396.699507 kJ/mol
# Density = 1.827150 g / cm^3
# Si number density = 18.313183 Si / 1000 Ang^3
#
#
#
# Elastic Constant Matrix: (Units=GPa)
#
#
# Indices 1 2 3 4 5 6 
#
# 1 103.6095 47.6250 56.5654 0.0000 3.1539 0.0000
# 2 47.6250 74.6876 44.3982 0.0000 1.3794 0.0000
# 3 56.5654 44.3982 91.8538 0.0000 11.8772 0.0000
# 4 0.0000 0.0000 0.0000 22.4495 0.0000 -0.9609
# 5 3.1539 1.3794 11.8772 0.0000 29.3646 0.0000
# 6 0.0000 0.0000 0.0000 -0.9609 0.0000 20.6002
#
#
#
# Elastic Compliance Matrix: (Units=1/GPa)
#
#
# Indices 1 2 3 4 5 6 
#
# 1 0.016442 -0.006143 -0.007349 0.000000 0.001495 0.000000
# 2 -0.006143 0.021327 -0.006839 0.000000 0.002424 0.000000
# 3 -0.007349 -0.006839 0.019600 0.000000 -0.006817 0.000000
# 4 0.000000 0.000000 0.000000 0.044634 0.000000 0.002082
# 5 0.001495 0.002424 -0.006817 0.000000 0.036537 0.000000
# 6 0.000000 0.000000 0.000000 0.002082 0.000000 0.048640
#
#
# Mechanical properties :
#
#
# Convention : Reuss Voigt Hill
#
# Bulk Modulus (GPa) = 59.85859 63.03647 61.44753
# Shear Modulus (GPa) = 21.42130 22.58701 22.00416
#
# Velocity S-wave (km/s) = 3.42383 3.51575 3.47009
# Velocity P-wave (km/s) = 6.95609 7.13980 7.04854
#
# Compressibility (1/GPa) = 0.01670604
#
# Stress axis : x y z
#
# Youngs Moduli (GPa) = 60.81860 46.88890 51.02069
#
# Poissons Ratio (x) = 0.28805 0.37497
# Poissons Ratio (y) = 0.37363 0.34892
# Poissons Ratio (z) = 0.44698 0.32067
#
# Static dielectric constant tensor:
#      x y z
#    x 3.737810 0.000000 0.065210 
#    y 0.000000 3.277860 0.000000 
#    z 0.065210 0.000000 3.213620 
# 
# 
# High freq. dielectric constant tensor:
#      x y z
#    x 1.709940 0.000000 0.004430 
#    y 0.000000 1.699180 0.000000 
#    z 0.004430 0.000000 1.697220 
# 
# From -- ./inp_files/243863.got.cif
#   From: 2010.06.25/outbox.cif.g09.slc.cpg/sg12_122_cif.got.tgz:243863.got - 2010.06.28 00:19:55.
