data_PCOD8094365
_publ_section_title
;
Structure prediction by ZEFSAII (Michael W. Deem and Ramdas Pophale) SiO2 
 PCOD8094365
Probable space group: C 2/M
;
_chemical_formula_sum "Si O2"
_cell_formula_units_Z 56
_cell_length_a 14.992551
_cell_length_b 8.771669
_cell_length_c 24.617357
_cell_angle_alpha 90.000000
_cell_angle_beta 117.301579
_cell_angle_gamma 90.000000
_cell_volume 2876.787263
_symmetry_space_group_name_H-M "C 2/M"
_symmetry_group_IT_number 12
_symmetry_cell_setting 'monoclinic'
loop_
_space_group_symop_operation_xyz
x,y,z
-x,y,-z
-x,-y,-z
x,-y,z
1/2+x,1/2+y,z
1/2-x,1/2+y,-z
1/2-x,1/2-y,-z
1/2+x,1/2-y,z
loop_
_atom_site_type_symbol
_atom_site_label
_atom_site_fract_x
_atom_site_fract_y
_atom_site_fract_z
Si Si1 0.725777 0.180286 0.126538
Si Si2 0.327106 0.319934 0.563681
Si Si3 0.860222 0.180715 0.789316
Si Si4 0.017057 0.320576 0.567242
Si Si5 0.739778 0.180524 0.651527
Si Si6 0.929303 0.679718 0.136966
Si Si7 0.652591 0.824354 0.995459
O O1 0.693338 0.268841 0.170709
O O2 0.836096 0.234910 0.138952
O O3 0.727995 0.000000 0.138954
O O4 0.641807 0.222547 0.056058
O O5 0.316810 0.500000 0.557205
O O6 0.250000 0.250000 0.500000
O O7 0.439485 0.268687 0.582988
O O8 0.300576 0.259061 0.616345
O O9 0.791419 0.240689 0.720747
O O10 0.968213 0.256677 0.810120
O O11 0.873213 0.000000 0.792679
O O12 0.002537 0.500000 0.571970
O O13 0.000000 0.276641 0.500000
O O14 0.125629 0.260944 0.616441
O O15 0.738995 0.000000 0.650655
O O16 0.919598 0.500000 0.146000
O O17 0.935353 0.712234 0.072698
O O18 0.676575 0.000000 0.001901
O O19 0.750000 0.750000 0.000000
#
# Coordination Sequence:
#
# PCOD8094365 Si02
#       7
#     8   8   8   8   8   8   8
#     4  10  20  37  59  84 114 149 191 240 293 342
#     4  11  21  37  60  88 115 144 181 226 277 331
#     4  11  23  39  57  81 115 156 196 234 280 339
#     4  10  19  37  62  85 112 146 180 222 279 332
#     4   9  21  40  58  79 115 153 186 228 281 335
#     4  10  20  37  59  84 114 150 193 239 288 341
#     4   8  16  31  54  81 110 144 185 237 290 338
#
# _framework density 19.466159999999999
#
# number of rings (size 3 to 8) (size 9 to 14) (size 15 to 20)
#    0.000    2.143    1.429    1.714    0.000    3.143 
#    0.000   10.000    0.000    0.000    0.000    0.000 
#    0.000    0.000    0.000    0.000    0.000    0.000 
#
# Total GULP energy -347014.387030 kJ/mol
# GULP energy per Si atom -12393.370965 kJ/mol
# Density = 1.942185 g / cm^3
# Si number density = 19.466160 Si / 1000 Ang^3
#
#
#
# Elastic Constant Matrix: (Units=GPa)
#
#
# Indices 1 2 3 4 5 6 
#
# 1 81.1837 12.4699 20.9322 0.0000 -3.8848 0.0000
# 2 12.4699 37.8797 23.0087 0.0000 -2.4237 0.0000
# 3 20.9322 23.0087 104.9754 0.0000 -0.3197 0.0000
# 4 0.0000 0.0000 0.0000 24.3127 0.0000 0.8382
# 5 -3.8848 -2.4237 -0.3197 0.0000 35.3334 0.0000
# 6 0.0000 0.0000 0.0000 0.8382 0.0000 35.4479
#
#
#
# Elastic Compliance Matrix: (Units=1/GPa)
#
#
# Indices 1 2 3 4 5 6 
#
# 1 0.013366 -0.003120 -0.001978 0.000000 0.001238 0.000000
# 2 -0.003120 0.031328 -0.006239 0.000000 0.001750 0.000000
# 3 -0.001978 -0.006239 0.011286 0.000000 -0.000543 0.000000
# 4 0.000000 0.000000 0.000000 0.041164 0.000000 -0.000973
# 5 0.001238 0.001750 -0.000543 0.000000 0.028553 0.000000
# 6 0.000000 0.000000 0.000000 -0.000973 0.000000 0.028233
#
#
# Mechanical properties :
#
#
# Convention : Reuss Voigt Hill
#
# Bulk Modulus (GPa) = 30.02330 37.42893 33.72611
# Shear Modulus (GPa) = 26.63733 30.19400 28.41566
#
# Velocity S-wave (km/s) = 3.70319 3.94268 3.82481
# Velocity P-wave (km/s) = 5.80876 6.32421 6.07196
#
# Compressibility (1/GPa) = 0.03330747
#
# Stress axis : x y z
#
# Youngs Moduli (GPa) = 74.81635 31.92028 88.60340
#
# Poissons Ratio (x) = 0.09958 0.17523
# Poissons Ratio (y) = 0.23340 0.55281
# Poissons Ratio (z) = 0.14796 0.19916
#
# Static dielectric constant tensor:
#      x y z
#    x 3.794710 0.000000 0.085320 
#    y 0.000000 3.463990 0.000000 
#    z 0.085320 0.000000 4.135120 
# 
# 
# High freq. dielectric constant tensor:
#      x y z
#    x 1.756790 0.000000 -0.000660 
#    y 0.000000 1.749580 0.000000 
#    z -0.000660 0.000000 1.768160 
# 
# From -- ./inp_files/339053.got.cif
#   From: 2010.06.25/outbox.cif.g09.slc.cpg/sg12_170_cif.got.tgz:339053.got - 2010.06.28 00:19:55.
