data_PCOD8094346
_publ_section_title
;
Structure prediction by ZEFSAII (Michael W. Deem and Ramdas Pophale) SiO2 
 PCOD8094346
Probable space group: C 2/M
;
_chemical_formula_sum "Si O2"
_cell_formula_units_Z 56
_cell_length_a 15.126439
_cell_length_b 19.200110
_cell_length_c 17.156967
_cell_angle_alpha 90.000000
_cell_angle_beta 146.879534
_cell_angle_gamma 90.000000
_cell_volume 2722.654569
_symmetry_space_group_name_H-M "C 2/M"
_symmetry_group_IT_number 12
_symmetry_cell_setting 'monoclinic'
loop_
_space_group_symop_operation_xyz
x,y,z
-x,y,-z
-x,-y,-z
x,-y,z
1/2+x,1/2+y,z
1/2-x,1/2+y,-z
1/2-x,1/2-y,-z
1/2+x,1/2-y,z
loop_
_atom_site_type_symbol
_atom_site_label
_atom_site_fract_x
_atom_site_fract_y
_atom_site_fract_z
Si Si1 0.398736 0.680412 0.713415
Si Si2 0.004097 0.424407 0.257061
Si Si3 0.685198 0.150649 0.138126
Si Si4 0.276065 0.177393 0.665514
Si Si5 0.995462 0.768059 0.367875
Si Si6 0.299116 0.580350 0.070607
Si Si7 0.437840 0.116737 0.536172
O O1 0.361829 0.746036 0.744335
O O2 0.400810 0.721564 0.633349
O O3 0.560639 0.635689 0.846720
O O4 0.256357 0.623525 0.609972
O O5 0.054481 0.500000 0.260426
O O6 0.133637 0.365381 0.334583
O O7 0.998952 0.431936 0.347108
O O8 0.832486 0.403603 0.092869
O O9 0.718990 0.129374 0.252996
O O10 0.722320 0.091410 0.100738
O O11 0.810042 0.212666 0.213859
O O12 0.500000 0.175711 0.000000
O O13 0.089161 0.186924 0.502810
O O14 0.981806 0.690801 0.388578
O O15 0.359903 0.500000 0.111704
O O16 0.500000 0.085711 0.500000
#
# Coordination Sequence:
#
# PCOD8094346 Si02
#       7
#     8   8   8   8   8   8   8
#     4  10  20  38  66  90 118 162 205 255 302 366
#     4  11  23  39  59  84 121 162 198 248 308 364
#     4  11  22  34  59  95 123 161 201 244 293 367
#     4  11  19  38  59  91 124 156 203 251 310 354
#     4  10  19  37  61  89 127 156 194 253 311 358
#     4  10  24  43  61  86 126 170 204 248 308 367
#     4  11  21  39  63  89 117 153 199 260 312 357
#
# _framework density 20.568161
#
# number of rings (size 3 to 8) (size 9 to 14) (size 15 to 20)
#    0.000    1.429    4.286    3.000    0.000    3.429 
#    0.000    0.714    0.000    4.286    0.000    0.000 
#    0.000    0.000    0.000    0.000    0.000    0.000 
#
# Total GULP energy -346865.766624 kJ/mol
# GULP energy per Si atom -12388.063094 kJ/mol
# Density = 2.052135 g / cm^3
# Si number density = 20.568161 Si / 1000 Ang^3
#
#
#
# Elastic Constant Matrix: (Units=GPa)
#
#
# Indices 1 2 3 4 5 6 
#
# 1 93.1557 9.3688 24.1090 0.0045 -9.6600 0.0021
# 2 9.3688 78.8593 39.8862 0.0133 6.4424 0.0095
# 3 24.1090 39.8862 96.9481 0.0235 7.0328 0.0175
# 4 0.0045 0.0133 0.0235 20.2123 0.0088 -7.8923
# 5 -9.6600 6.4424 7.0328 0.0088 38.8088 0.0033
# 6 0.0021 0.0095 0.0175 -7.8923 0.0033 2.5552
#
#
#
# Elastic Compliance Matrix: (Units=1/GPa)
#
#
# Indices 1 2 3 4 5 6 
#
# 1 0.011939 -0.000097 -0.003188 -0.000013 0.003566 -0.000032
# 2 -0.000097 0.016099 -0.006489 0.000036 -0.001521 0.000098
# 3 -0.003188 -0.006489 0.013940 0.000175 -0.002242 0.000475
# 4 -0.000013 0.000036 0.000175 -0.240109 0.000077 -0.741631
# 5 0.003566 -0.001521 -0.002242 0.000077 0.027314 0.000220
# 6 -0.000032 0.000098 0.000475 -0.741631 0.000220 -1.899332
#
#
# Mechanical properties :
#
#
# Convention : Reuss Voigt Hill
#
# Bulk Modulus (GPa) = 44.58343 46.18788 45.38565
# Shear Modulus (GPa) = -2.44723 25.35519 11.45398
#
# Velocity S-wave (km/s) = -1.09197 3.51485 2.36239
# Velocity P-wave (km/s) = 4.48700 6.24315 5.43646
#
# Compressibility (1/GPa) = 0.02242986
#
# Stress axis : x y z
#
# Youngs Moduli (GPa) = 83.75749 62.11748 71.73809
#
# Poissons Ratio (x) = 0.00605 0.22867
# Poissons Ratio (y) = 0.00816 0.46549
# Poissons Ratio (z) = 0.26698 0.40306
#
# Static dielectric constant tensor:
#      x y z
#    x 3.938800 -0.000010 -0.098530 
#    y -0.000010 3.455430 -0.000010 
#    z -0.098530 -0.000010 3.791890 
# 
# 
# High freq. dielectric constant tensor:
#      x y z
#    x 1.809680 0.000000 -0.002320 
#    y 0.000000 1.780930 0.000000 
#    z -0.002320 0.000000 1.808100 
# 
# From -- ./inp_files/272397.got.cif
#   From: 2010.06.25/outbox.cif.g09.slc.cpg/sg12_137_cif.got.tgz:272397.got - 2010.06.28 00:19:55.
