data_PCOD8094804
_publ_section_title
;
Structure prediction by ZEFSAII (Michael W. Deem and Ramdas Pophale) SiO2 
 PCOD8094804
Probable space group: C 2/M
;
_chemical_formula_sum "Si O2"
_cell_formula_units_Z 64
_cell_length_a 34.399323
_cell_length_b 8.768721
_cell_length_c 15.363049
_cell_angle_alpha 90.000000
_cell_angle_beta 43.354007
_cell_angle_gamma 90.000000
_cell_volume 3181.314939
_symmetry_space_group_name_H-M "C 2/M"
_symmetry_group_IT_number 12
_symmetry_cell_setting 'monoclinic'
loop_
_space_group_symop_operation_xyz
x,y,z
-x,y,-z
-x,-y,-z
x,-y,z
1/2+x,1/2+y,z
1/2-x,1/2+y,-z
1/2-x,1/2-y,-z
1/2+x,1/2-y,z
loop_
_atom_site_type_symbol
_atom_site_label
_atom_site_fract_x
_atom_site_fract_y
_atom_site_fract_z
Si Si1 0.652551 0.180662 0.238403
Si Si2 0.758873 0.178628 0.172427
Si Si3 0.535471 0.822842 0.858563
Si Si4 0.013899 0.821201 0.231195
Si Si5 0.541290 0.822076 0.512821
Si Si6 0.367735 0.819626 0.921324
Si Si7 0.763105 0.824394 0.614783
Si Si8 0.834536 0.325475 0.357780
O O1 0.713463 0.234169 0.174234
O O2 0.603492 0.236227 0.383850
O O3 0.642462 0.249204 0.158692
O O4 0.649053 0.000000 0.238575
O O5 0.733217 0.216587 0.307842
O O6 0.770771 0.000000 0.145075
O O7 0.816564 0.270617 0.066429
O O8 0.518235 0.724105 0.803965
O O9 0.601084 0.791065 0.772859
O O10 0.524030 0.000000 0.856565
O O11 0.500000 0.768930 0.000000
O O12 0.074737 0.742309 0.132335
O O13 0.976696 0.772137 0.374035
O O14 0.023079 0.000000 0.218959
O O15 0.500000 0.788261 0.500000
O O16 0.540128 0.000000 0.539571
O O17 0.371816 0.000000 0.912174
O O18 0.815803 0.782838 0.467263
O O19 0.703672 0.790412 0.664033
O O20 0.768205 0.000000 0.634544
O O21 0.826181 0.500000 0.401460
#
# Coordination Sequence:
#
# PCOD8094804 Si02
#       8
#     8   8   8   8   8   8   8   8
#     4   9  20  38  62  89 121 161 207 251 299 355
#     4  11  23  38  59  92 126 158 200 255 310 360
#     4  10  23  43  68  93 119 162 212 256 305 371
#     4  12  26  41  60  95 131 163 201 257 321 374
#     4  10  19  39  67  91 119 166 216 255 299 366
#     4  11  22  42  65  86 117 165 213 252 298 366
#     4  10  21  38  61  90 119 158 202 246 302 364
#     4   9  20  40  63  87 117 154 201 253 301 353
#
# _framework density 20.117466
#
# number of rings (size 3 to 8) (size 9 to 14) (size 15 to 20)
#    0.000    1.750    1.250    2.625    3.500    1.500 
#    0.000    2.500    0.000    0.000    0.000    0.000 
#    0.000    0.000    0.000    0.000    0.000    0.000 
#
# Total GULP energy -396955.758234 kJ/mol
# GULP energy per Si atom -12404.867445 kJ/mol
# Density = 2.007168 g / cm^3
# Si number density = 20.117466 Si / 1000 Ang^3
#
#
#
# Elastic Constant Matrix: (Units=GPa)
#
#
# Indices 1 2 3 4 5 6 
#
# 1 72.4248 29.9168 29.8848 0.0000 -1.7943 0.0000
# 2 29.9168 71.0137 30.0430 0.0001 2.9671 0.0003
# 3 29.8848 30.0430 106.0711 -0.0001 -8.5224 0.0000
# 4 0.0000 0.0001 -0.0001 20.0292 0.0000 -6.0152
# 5 -1.7943 2.9671 -8.5224 0.0000 34.6145 0.0001
# 6 0.0000 0.0003 0.0000 -6.0152 0.0001 22.6221
#
#
#
# Elastic Compliance Matrix: (Units=1/GPa)
#
#
# Indices 1 2 3 4 5 6 
#
# 1 0.017669 -0.006121 -0.003192 0.000000 0.000655 0.000000
# 2 -0.006121 0.018341 -0.003695 0.000000 -0.002799 0.000000
# 3 -0.003192 -0.003695 0.011615 0.000000 0.003011 0.000000
# 4 0.000000 0.000000 0.000000 0.054260 0.000000 0.014428
# 5 0.000655 -0.002799 0.003011 0.000000 0.029905 0.000000
# 6 0.000000 0.000000 0.000000 0.014428 0.000000 0.048041
#
#
# Mechanical properties :
#
#
# Convention : Reuss Voigt Hill
#
# Bulk Modulus (GPa) = 46.27572 47.68876 46.98224
# Shear Modulus (GPa) = 23.46872 26.09748 24.78310
#
# Velocity S-wave (km/s) = 3.41923 3.60565 3.51368
# Velocity P-wave (km/s) = 6.21618 6.41022 6.31395
#
# Compressibility (1/GPa) = 0.02160961
#
# Stress axis : x y z
#
# Youngs Moduli (GPa) = 56.59624 54.52408 86.09205
#
# Poissons Ratio (x) = 0.33372 0.27480
# Poissons Ratio (y) = 0.34640 0.31812
# Poissons Ratio (z) = 0.18065 0.20147
#
# Static dielectric constant tensor:
#      x y z
#    x 3.752590 0.000000 -0.053170 
#    y 0.000000 3.467080 0.000000 
#    z -0.053170 0.000000 3.820040 
# 
# 
# High freq. dielectric constant tensor:
#      x y z
#    x 1.791880 0.000000 -0.003990 
#    y 0.000000 1.769840 0.000000 
#    z -0.003990 0.000000 1.796240 
# 
# From -- ./inp_files/249819.got.cif
#   From: 2010.06.25/outbox.cif.g09.slc.cpg/sg12_125_cif.got.tgz:249819.got - 2010.06.28 00:19:55.
