data_PCOD8094703
_publ_section_title
;
Structure prediction by ZEFSAII (Michael W. Deem and Ramdas Pophale) SiO2 
 PCOD8094703
Probable space group: C 2/M
;
_chemical_formula_sum "Si O2"
_cell_formula_units_Z 64
_cell_length_a 24.400079
_cell_length_b 8.877912
_cell_length_c 31.482963
_cell_angle_alpha 90.000000
_cell_angle_beta 151.418528
_cell_angle_gamma 90.000000
_cell_volume 3262.691594
_symmetry_space_group_name_H-M "C 2/M"
_symmetry_group_IT_number 12
_symmetry_cell_setting 'monoclinic'
loop_
_space_group_symop_operation_xyz
x,y,z
-x,y,-z
-x,-y,-z
x,-y,z
1/2+x,1/2+y,z
1/2-x,1/2+y,-z
1/2-x,1/2-y,-z
1/2+x,1/2-y,z
loop_
_atom_site_type_symbol
_atom_site_label
_atom_site_fract_x
_atom_site_fract_y
_atom_site_fract_z
Si Si1 0.624652 0.172900 0.875164
Si Si2 0.438120 0.825325 0.680656
Si Si3 0.722106 0.822014 0.741117
Si Si4 0.351282 0.177415 0.013319
Si Si5 0.866048 0.175276 0.403385
Si Si6 0.304734 0.678531 0.453818
Si Si7 0.020030 0.821689 0.653170
Si Si8 0.961733 0.677107 0.926354
O O1 0.504821 0.197048 0.770108
O O2 0.608999 0.232096 0.912747
O O3 0.662067 0.000000 0.901340
O O4 0.724543 0.259822 0.917933
O O5 0.309681 0.763749 0.600786
O O6 0.498203 0.722786 0.686675
O O7 0.438870 0.000000 0.666930
O O8 0.686324 0.772810 0.669747
O O9 0.637242 0.752427 0.718022
O O10 0.848180 0.766626 0.837732
O O11 0.716814 0.000000 0.740812
O O12 0.439848 0.237574 0.038455
O O13 0.345239 0.000000 0.005781
O O14 0.804682 0.230014 0.404812
O O15 0.000000 0.205779 0.500000
O O16 0.843037 0.000000 0.377708
O O17 0.309071 0.500000 0.458136
O O18 0.415564 0.742735 0.553592
O O19 0.031784 0.000000 0.656815
O O20 0.938634 0.500000 0.904599
O O21 0.000000 0.715247 0.000000
#
# Coordination Sequence:
#
# PCOD8094703 Si02
#       8
#     8   8   8   8   8   8   8   8
#     4   9  19  35  57  84 115 152 189 234 295 355
#     4  10  21  36  57  88 119 152 196 245 301 353
#     4  12  26  41  60  91 126 161 199 250 310 366
#     4   9  19  37  60  84 113 150 194 240 288 345
#     4  10  19  38  66  91 119 162 209 250 294 356
#     4   9  19  36  61  88 118 157 201 245 296 352
#     4  11  22  40  61  84 116 160 207 246 292 356
#     4  10  23  42  65  92 119 154 203 253 299 360
#
# _framework density 19.615707
#
# number of rings (size 3 to 8) (size 9 to 14) (size 15 to 20)
#    0.000    2.000    1.250    1.875    3.500    1.500 
#    0.000    1.250    0.000    0.000    0.000    0.000 
#    0.000    0.000    0.000    0.000    0.000    0.000 
#
# Total GULP energy -396877.477274 kJ/mol
# GULP energy per Si atom -12402.421165 kJ/mol
# Density = 1.957106 g / cm^3
# Si number density = 19.615707 Si / 1000 Ang^3
#
#
#
# Elastic Constant Matrix: (Units=GPa)
#
#
# Indices 1 2 3 4 5 6 
#
# 1 153.7566 39.2244 50.3445 0.0008 11.0110 -0.0004
# 2 39.2244 62.9203 41.1244 0.0005 3.1742 -0.0011
# 3 50.3445 41.1244 90.0764 0.0018 9.6971 -0.0004
# 4 0.0008 0.0005 0.0018 13.7273 -0.0001 8.9798
# 5 11.0110 3.1742 9.6971 -0.0001 32.6792 -0.0002
# 6 -0.0004 -0.0011 -0.0004 8.9798 -0.0002 21.3610
#
#
#
# Elastic Compliance Matrix: (Units=1/GPa)
#
#
# Indices 1 2 3 4 5 6 
#
# 1 0.008440 -0.003151 -0.003105 0.000000 -0.001616 0.000000
# 2 -0.003151 0.023854 -0.009291 0.000000 0.001502 0.000001
# 3 -0.003105 -0.009291 0.017426 -0.000002 -0.003222 0.000001
# 4 0.000000 0.000000 -0.000002 0.100478 0.000001 -0.042239
# 5 -0.001616 0.001502 -0.003222 0.000001 0.031955 0.000000
# 6 0.000000 0.000001 0.000001 -0.042239 0.000000 0.064571
#
#
# Mechanical properties :
#
#
# Convention : Reuss Voigt Hill
#
# Bulk Modulus (GPa) = 53.68700 63.12667 58.40684
# Shear Modulus (GPa) = 17.60395 25.29083 21.44739
#
# Velocity S-wave (km/s) = 2.99898 3.59460 3.31021
# Velocity P-wave (km/s) = 6.27859 7.03418 6.66710
#
# Compressibility (1/GPa) = 0.01862648
#
# Stress axis : x y z
#
# Youngs Moduli (GPa) = 118.48533 41.92112 57.38616
#
# Poissons Ratio (x) = 0.13208 0.17816
# Poissons Ratio (y) = 0.37331 0.53320
# Poissons Ratio (z) = 0.36786 0.38951
#
# Static dielectric constant tensor:
#      x y z
#    x 3.666590 0.000000 0.167380 
#    y 0.000000 3.357900 0.000000 
#    z 0.167380 0.000000 3.529560 
# 
# 
# High freq. dielectric constant tensor:
#      x y z
#    x 1.778530 0.000000 0.000580 
#    y 0.000000 1.740340 0.000000 
#    z 0.000580 0.000000 1.770690 
# 
# From -- ./inp_files/382559.got.cif
#   From: 2010.06.25/outbox.cif.g09.slc.cpg/sg12_192_cif.got.tgz:382559.got - 2010.06.28 00:19:55.
