data_PCOD8094539
_publ_section_title
;
Structure prediction by ZEFSAII (Michael W. Deem and Ramdas Pophale) SiO2 
 PCOD8094539
Probable space group: C 2/M
;
_chemical_formula_sum "Si O2"
_cell_formula_units_Z 56
_cell_length_a 23.775876
_cell_length_b 16.219443
_cell_length_c 19.759285
_cell_angle_alpha 90.000000
_cell_angle_beta 23.255908
_cell_angle_gamma 90.000000
_cell_volume 3008.591926
_symmetry_space_group_name_H-M "C 2/M"
_symmetry_group_IT_number 12
_symmetry_cell_setting 'monoclinic'
loop_
_space_group_symop_operation_xyz
x,y,z
-x,y,-z
-x,-y,-z
x,-y,z
1/2+x,1/2+y,z
1/2-x,1/2+y,-z
1/2-x,1/2-y,-z
1/2+x,1/2-y,z
loop_
_atom_site_type_symbol
_atom_site_label
_atom_site_fract_x
_atom_site_fract_y
_atom_site_fract_z
Si Si1 0.066948 0.270637 0.265781
Si Si2 0.133215 0.907422 0.815986
Si Si3 0.206088 0.821191 0.458465
Si Si4 0.105472 0.834703 0.711645
Si Si5 0.624925 0.213081 0.048513
Si Si6 0.528809 0.903191 0.890319
Si Si7 0.942303 0.407797 0.489703
O O1 0.205051 0.221031 0.138903
O O2 0.937409 0.206554 0.421490
O O3 0.049374 0.352671 0.328687
O O4 0.072347 0.305864 0.183181
O O5 0.113581 0.907900 0.756688
O O6 0.284774 0.865912 0.666020
O O7 0.137211 0.000000 0.839669
O O8 0.000000 0.860781 0.000000
O O9 0.158164 0.867149 0.580760
O O10 0.295293 0.739985 0.374900
O O11 0.303988 0.883756 0.307617
O O12 0.942938 0.802346 0.892336
O O13 0.572321 0.144891 0.051995
O O14 0.499600 0.000000 0.912563
O O15 0.500000 0.876436 0.000000
O O16 0.934023 0.500000 0.466649
O O17 0.000000 0.413701 0.500000
#
# Coordination Sequence:
#
# PCOD8094539 Si02
#       7
#     8   8   8   8   8   8   8
#     4  10  19  38  57  84 111 146 184 227 274 329
#     4  10  21  34  50  75 110 148 183 218 264 318
#     4   9  18  34  56  80 106 132 182 232 272 324
#     4   9  17  33  53  79 105 139 177 228 269 318
#     4   9  21  36  59  81 112 143 182 228 279 333
#     4  10  22  39  58  82 111 145 186 236 287 334
#     4  10  22  36  51  77 114 150 185 221 264 323
#
# _framework density 18.613358999999999
#
# number of rings (size 3 to 8) (size 9 to 14) (size 15 to 20)
#    0.000    2.429    1.429    0.857    2.000    4.571 
#    0.000    0.714    0.000    6.857    0.000    0.000 
#    0.000    0.000    0.000    0.000    0.000    0.000 
#
# Total GULP energy -346958.147299 kJ/mol
# GULP energy per Si atom -12391.362404 kJ/mol
# Density = 1.857099 g / cm^3
# Si number density = 18.613359 Si / 1000 Ang^3
#
#
#
# Elastic Constant Matrix: (Units=GPa)
#
#
# Indices 1 2 3 4 5 6 
#
# 1 104.1434 38.4930 54.0566 0.0000 -1.0977 -0.0005
# 2 38.4930 51.6779 36.5193 -0.0004 6.3565 -0.0003
# 3 54.0566 36.5193 104.5388 -0.0012 -2.7691 0.0000
# 4 0.0000 -0.0004 -0.0012 17.0367 0.0008 5.6327
# 5 -1.0977 6.3565 -2.7691 0.0008 34.6176 0.0002
# 6 -0.0005 -0.0003 0.0000 5.6327 0.0002 31.0681
#
#
#
# Elastic Compliance Matrix: (Units=1/GPa)
#
#
# Indices 1 2 3 4 5 6 
#
# 1 0.015158 -0.007926 -0.005029 -0.000001 0.001534 0.000000
# 2 -0.007926 0.030905 -0.006870 0.000001 -0.006476 0.000000
# 3 -0.005029 -0.006870 0.014626 0.000001 0.002272 0.000000
# 4 -0.000001 0.000001 0.000001 0.062440 -0.000001 -0.011321
# 5 0.001534 -0.006476 0.002272 -0.000001 0.030306 0.000000
# 6 0.000000 0.000000 0.000000 -0.011321 0.000000 0.034240
#
#
# Mechanical properties :
#
#
# Convention : Reuss Voigt Hill
#
# Bulk Modulus (GPa) = 47.52534 57.61088 52.56811
# Shear Modulus (GPa) = 21.33681 25.29723 23.31702
#
# Velocity S-wave (km/s) = 3.38940 3.69058 3.54319
# Velocity P-wave (km/s) = 6.39576 7.01278 6.71137
#
# Compressibility (1/GPa) = 0.02104140
#
# Stress axis : x y z
#
# Youngs Moduli (GPa) = 65.97187 32.35712 68.37060
#
# Poissons Ratio (x) = 0.25645 0.34382
# Poissons Ratio (y) = 0.52286 0.46968
# Poissons Ratio (z) = 0.33176 0.22228
#
# Static dielectric constant tensor:
#      x y z
#    x 3.547350 0.000000 -0.097070 
#    y 0.000000 3.136240 0.000000 
#    z -0.097070 0.000000 3.771190 
# 
# 
# High freq. dielectric constant tensor:
#      x y z
#    x 1.723560 0.000000 -0.003940 
#    y 0.000000 1.686490 0.000000 
#    z -0.003940 0.000000 1.736310 
# 
# From -- ./inp_files/328543.got.cif
#   From: 2010.06.25/outbox.cif.g09.slc.cpg/sg12_165_cif.got.tgz:328543.got - 2010.06.28 00:19:55.
