data_PCOD8094055
_publ_section_title
;
Structure prediction by ZEFSAII (Michael W. Deem and Ramdas Pophale) SiO2 
 PCOD8094055
Probable space group: C 2/M
;
_chemical_formula_sum "Si O2"
_cell_formula_units_Z 56
_cell_length_a 28.852983
_cell_length_b 8.804959
_cell_length_c 11.465151
_cell_angle_alpha 90.000000
_cell_angle_beta 111.018054
_cell_angle_gamma 90.000000
_cell_volume 2718.923692
_symmetry_space_group_name_H-M "C 2/M"
_symmetry_group_IT_number 12
_symmetry_cell_setting 'monoclinic'
loop_
_space_group_symop_operation_xyz
x,y,z
-x,y,-z
-x,-y,-z
x,-y,z
1/2+x,1/2+y,z
1/2-x,1/2+y,-z
1/2-x,1/2-y,-z
1/2+x,1/2-y,z
loop_
_atom_site_type_symbol
_atom_site_label
_atom_site_fract_x
_atom_site_fract_y
_atom_site_fract_z
Si Si1 0.057461 0.675029 0.043626
Si Si2 0.419442 0.323044 0.166711
Si Si3 0.793062 0.178674 0.615619
Si Si4 0.230554 0.677845 0.162467
Si Si5 0.008937 0.675978 0.374618
Si Si6 0.606627 0.175121 0.333838
Si Si7 0.679603 0.822665 0.874096
O O1 0.064813 0.500000 0.013277
O O2 0.082931 0.711946 0.188056
O O3 0.083555 0.780234 0.971793
O O4 0.000000 0.716937 0.000000
O O5 0.410499 0.500000 0.174884
O O6 0.472811 0.276587 0.264002
O O7 0.376259 0.234479 0.196958
O O8 0.750000 0.250000 0.500000
O O9 0.792607 0.241153 0.746586
O O10 0.845366 0.221054 0.602797
O O11 0.786063 0.000000 0.611197
O O12 0.232481 0.500000 0.189540
O O13 0.285913 0.737438 0.188090
O O14 0.196057 0.716853 0.020738
O O15 0.997981 0.500000 0.336052
O O16 0.065873 0.715468 0.395351
O O17 0.000000 0.716660 0.500000
O O18 0.622939 0.000000 0.357081
O O19 0.683270 0.000000 0.851145
#
# Coordination Sequence:
#
# PCOD8094055 Si02
#       7
#     8   8   8   8   8   8   8
#     4  10  19  36  62  89 121 161 202 248 304 369
#     4  12  24  36  56  89 128 162 201 252 301 359
#     4  12  26  43  64  89 122 164 211 259 311 370
#     4  10  21  40  64  92 123 156 201 257 312 364
#     4  10  22  42  65  86 115 159 207 250 300 369
#     4  10  21  40  65  92 122 157 201 258 315 366
#     4  10  21  38  63  91 124 164 202 245 303 371
#
# _framework density 20.596385999999999
#
# number of rings (size 3 to 8) (size 9 to 14) (size 15 to 20)
#    0.000    1.429    1.429    4.286    0.000    8.000 
#    0.000    4.286    0.000    0.000    0.000    0.000 
#    0.000    0.000    0.000    0.000    0.000    0.000 
#
# Total GULP energy -347378.538045 kJ/mol
# GULP energy per Si atom -12406.376359 kJ/mol
# Density = 2.054951 g / cm^3
# Si number density = 20.596386 Si / 1000 Ang^3
#
#
#
# Elastic Constant Matrix: (Units=GPa)
#
#
# Indices 1 2 3 4 5 6 
#
# 1 138.3945 50.3794 45.2546 0.0000 1.5338 0.0000
# 2 50.3794 101.9699 32.3658 0.0000 -0.6765 0.0000
# 3 45.2546 32.3658 60.9108 0.0000 -4.8640 0.0000
# 4 0.0000 0.0000 0.0000 25.2685 0.0000 0.4205
# 5 1.5338 -0.6765 -4.8640 0.0000 35.0223 0.0000
# 6 0.0000 0.0000 0.0000 0.4205 0.0000 39.6253
#
#
#
# Elastic Compliance Matrix: (Units=1/GPa)
#
#
# Indices 1 2 3 4 5 6 
#
# 1 0.010417 -0.003205 -0.006146 0.000000 -0.001372 0.000000
# 2 -0.003205 0.012797 -0.004437 0.000000 -0.000229 0.000000
# 3 -0.006146 -0.004437 0.023618 0.000000 0.003464 0.000000
# 4 0.000000 0.000000 0.000000 0.039582 0.000000 -0.000420
# 5 -0.001372 -0.000229 0.003464 0.000000 0.029090 0.000000
# 6 0.000000 0.000000 0.000000 -0.000420 0.000000 0.025241
#
#
# Mechanical properties :
#
#
# Convention : Reuss Voigt Hill
#
# Bulk Modulus (GPa) = 51.93152 61.91942 56.92547
# Shear Modulus (GPa) = 28.61380 31.53491 30.07435
#
# Velocity S-wave (km/s) = 3.73133 3.91716 3.82537
# Velocity P-wave (km/s) = 6.62060 7.11248 6.87094
#
# Compressibility (1/GPa) = 0.01925613
#
# Stress axis : x y z
#
# Youngs Moduli (GPa) = 95.99239 78.14262 42.34032
#
# Poissons Ratio (x) = 0.25046 0.26024
# Poissons Ratio (y) = 0.30767 0.18786
# Poissons Ratio (z) = 0.59000 0.34671
#
# Static dielectric constant tensor:
#      x y z
#    x 6.150110 0.000000 1.441120 
#    y 0.000000 3.638910 0.000000 
#    z 1.441120 0.000000 4.621220 
# 
# 
# High freq. dielectric constant tensor:
#      x y z
#    x 1.824310 0.000000 0.000610 
#    y 0.000000 1.799310 0.000000 
#    z 0.000610 0.000000 1.794890 
# 
# From -- ./inp_files/187781.got.cif
#   From: 2010.06.25/outbox.cif.g09.slc.cpg/sg12_94_cif.got.tgz:187781.got - 2010.06.28 00:19:55.
