data_PCOD8094864
_publ_section_title
;
Structure prediction by ZEFSAII (Michael W. Deem and Ramdas Pophale) SiO2 
 PCOD8094864
Probable space group: C 2/M
;
_chemical_formula_sum "Si O2"
_cell_formula_units_Z 36
_cell_length_a 14.815616
_cell_length_b 13.843008
_cell_length_c 11.327792
_cell_angle_alpha 90.000000
_cell_angle_beta 52.336185
_cell_angle_gamma 90.000000
_cell_volume 1839.104861
_symmetry_space_group_name_H-M "C 2/M"
_symmetry_group_IT_number 12
_symmetry_cell_setting 'monoclinic'
loop_
_space_group_symop_operation_xyz
x,y,z
-x,y,-z
-x,-y,-z
x,-y,z
1/2+x,1/2+y,z
1/2-x,1/2+y,-z
1/2-x,1/2-y,-z
1/2+x,1/2-y,z
loop_
_atom_site_type_symbol
_atom_site_label
_atom_site_fract_x
_atom_site_fract_y
_atom_site_fract_z
Si Si1 0.289595 0.706117 0.145546
Si Si2 0.847991 0.295034 0.342448
Si Si3 0.025875 0.000000 0.719632
Si Si4 0.292328 0.500000 0.239974
Si Si5 0.579400 0.705449 0.197899
Si Si6 0.771229 0.500000 0.454426
O O1 0.349833 0.746786 0.213190
O O2 0.268534 0.591950 0.177007
O O3 0.170209 0.761180 0.222979
O O4 0.372740 0.725422 0.970395
O O5 0.750000 0.250000 0.500000
O O6 0.830881 0.409132 0.345491
O O7 0.967908 0.270516 0.307203
O O8 0.947663 0.092902 0.760571
O O9 0.133783 0.000000 0.542565
O O10 0.077306 0.000000 0.812620
O O11 0.206519 0.500000 0.421477
#
# Coordination Sequence:
#
# PCOD8094864 Si02
#       6
#     8   8   4   4   8   4
#     4  11  24  40  65  97 127 165 214 265 317 373
#     4  12  21  42  61  92 131 161 209 263 317 368
#     4  10  19  41  69  90 122 167 222 264 294 376
#     4  10  19  41  69  90 122 167 222 264 294 376
#     4  11  24  40  65  97 127 165 214 265 317 373
#     4  10  22  38  62  96 120 166 218 246 320 384
#
# _framework density 19.574741
#
# number of rings (size 3 to 8) (size 9 to 14) (size 15 to 20)
#    0.667    0.444    6.667    1.333    0.000    3.556 
#    0.000    6.667    0.000    0.000    0.000    0.000 
#    0.000    0.000    0.000    0.000    0.000    0.000 
#
# Total GULP energy -223241.615796 kJ/mol
# GULP energy per Si atom -12402.311989 kJ/mol
# Density = 1.953019 g / cm^3
# Si number density = 19.574741 Si / 1000 Ang^3
#
#
#
# Elastic Constant Matrix: (Units=GPa)
#
#
# Indices 1 2 3 4 5 6 
#
# 1 69.3021 35.6750 6.6054 0.0000 -23.6756 0.0000
# 2 35.6750 160.2370 16.5568 0.0000 -22.9599 0.0000
# 3 6.6054 16.5568 47.1698 0.0000 -15.7058 0.0000
# 4 0.0000 0.0000 0.0000 27.1176 0.0000 3.1362
# 5 -23.6756 -22.9599 -15.7058 0.0000 34.4327 0.0000
# 6 0.0000 0.0000 0.0000 3.1362 0.0000 35.6803
#
#
#
# Elastic Compliance Matrix: (Units=1/GPa)
#
#
# Indices 1 2 3 4 5 6 
#
# 1 0.020138 -0.002870 0.002548 0.000000 0.013095 0.000000
# 2 -0.002870 0.007353 -0.001419 0.000000 0.002282 0.000000
# 3 0.002548 -0.001419 0.025479 0.000000 0.012427 0.000000
# 4 0.000000 0.000000 0.000000 0.037255 0.000000 -0.003275
# 5 0.013095 0.002282 0.012427 0.000000 0.045236 0.000000
# 6 0.000000 0.000000 0.000000 -0.003275 0.000000 0.028314
#
#
# Mechanical properties :
#
#
# Convention : Reuss Voigt Hill
#
# Bulk Modulus (GPa) = 20.20755 43.82036 32.01396
# Shear Modulus (GPa) = 27.20998 33.97090 30.59044
#
# Velocity S-wave (km/s) = 3.73239 4.17039 3.95745
# Velocity P-wave (km/s) = 5.37773 6.75458 6.10509
#
# Compressibility (1/GPa) = 0.04948646
#
# Stress axis : x y z
#
# Youngs Moduli (GPa) = 49.65761 135.98982 39.24768
#
# Poissons Ratio (x) = 0.39035 -0.09999
# Poissons Ratio (y) = 0.14254 0.05570
# Poissons Ratio (z) = -0.12651 0.19300
#
# Static dielectric constant tensor:
#      x y z
#    x 3.475590 0.000000 -0.049230 
#    y 0.000000 3.713770 0.000000 
#    z -0.049230 0.000000 3.533770 
# 
# 
# High freq. dielectric constant tensor:
#      x y z
#    x 1.746720 0.000000 -0.006650 
#    y 0.000000 1.773640 0.000000 
#    z -0.006650 0.000000 1.759550 
# 
# From -- ./inp_files/141791.got.cif
#   From: 2010.06.25/outbox.cif.g09.slc.cpg/sg12_71_cif.got.tgz:141791.got - 2010.06.28 00:19:55.
