data_PCOD8094299
_publ_section_title
;
Structure prediction by ZEFSAII (Michael W. Deem and Ramdas Pophale) SiO2 
 PCOD8094299
Probable space group: C 2/M
;
_chemical_formula_sum "Si O2"
_cell_formula_units_Z 48
_cell_length_a 15.128408
_cell_length_b 8.669523
_cell_length_c 26.896080
_cell_angle_alpha 90.000000
_cell_angle_beta 135.832517
_cell_angle_gamma 90.000000
_cell_volume 2457.873121
_symmetry_space_group_name_H-M "C 2/M"
_symmetry_group_IT_number 12
_symmetry_cell_setting 'monoclinic'
loop_
_space_group_symop_operation_xyz
x,y,z
-x,y,-z
-x,-y,-z
x,-y,z
1/2+x,1/2+y,z
1/2-x,1/2+y,-z
1/2-x,1/2-y,-z
1/2+x,1/2-y,z
loop_
_atom_site_type_symbol
_atom_site_label
_atom_site_fract_x
_atom_site_fract_y
_atom_site_fract_z
Si Si1 0.400961 0.817237 0.823931
Si Si2 0.710885 0.681509 0.663004
Si Si3 0.683375 0.817759 0.925077
Si Si4 0.781439 0.179183 0.590808
Si Si5 0.632557 0.182138 0.077931
Si Si6 0.558113 0.179586 0.426153
O O1 0.297197 0.756694 0.743082
O O2 0.539550 0.754291 0.864818
O O3 0.364495 0.759203 0.864185
O O4 0.404733 0.000000 0.824907
O O5 0.685168 0.500000 0.656364
O O6 0.783305 0.720072 0.641340
O O7 0.579858 0.772851 0.611326
O O8 0.752203 0.765744 0.902791
O O9 0.685912 0.000000 0.931004
O O10 0.750000 0.750000 0.000000
O O11 0.653929 0.219559 0.509336
O O12 0.903863 0.225347 0.607650
O O13 0.789474 0.000000 0.607893
O O14 0.651587 0.000000 0.080913
O O15 0.500000 0.232719 0.000000
O O16 0.562754 0.000000 0.414902
#
# Coordination Sequence:
#
# PCOD8094299 Si02
#       6
#     8   8   8   8   8   8
#     4   9  21  39  56  80 116 153 186 228 287 341
#     4  11  22  37  58  84 119 156 191 234 287 345
#     4  11  21  37  59  84 111 142 185 233 281 335
#     4  10  21  38  60  86 116 152 195 239 283 337
#     4  10  19  37  61  81 108 146 183 228 283 336
#     4  10  21  38  60  86 116 151 194 241 286 335
#
# _framework density 19.52908
#
# number of rings (size 3 to 8) (size 9 to 14) (size 15 to 20)
#    0.000    1.833    1.667    2.500    0.000    5.667 
#    0.000    8.333    0.000    0.000    0.000    0.000 
#    0.000    0.000    0.000    0.000    0.000    0.000 
#
# Total GULP energy -297707.215024 kJ/mol
# GULP energy per Si atom -12404.467293 kJ/mol
# Density = 1.948463 g / cm^3
# Si number density = 19.529080 Si / 1000 Ang^3
#
#
#
# Elastic Constant Matrix: (Units=GPa)
#
#
# Indices 1 2 3 4 5 6 
#
# 1 128.2405 23.6092 41.1832 0.0000 -14.4910 0.0000
# 2 23.6092 45.0981 29.7569 0.0000 -1.5856 0.0000
# 3 41.1832 29.7569 78.8300 0.0000 -23.0418 0.0000
# 4 0.0000 0.0000 0.0000 21.2652 0.0000 -0.6192
# 5 -14.4910 -1.5856 -23.0418 0.0000 29.4241 0.0000
# 6 0.0000 0.0000 0.0000 -0.6192 0.0000 40.0111
#
#
#
# Elastic Compliance Matrix: (Units=1/GPa)
#
#
# Indices 1 2 3 4 5 6 
#
# 1 0.009616 -0.002685 -0.003460 0.000000 0.001881 0.000000
# 2 -0.002685 0.032359 -0.013862 0.000000 -0.010434 0.000000
# 3 -0.003460 -0.013862 0.024652 0.000000 0.016854 0.000000
# 4 0.000000 0.000000 0.000000 0.047046 0.000000 0.000728
# 5 0.001881 -0.010434 0.016854 0.000000 0.047548 0.000000
# 6 0.000000 0.000000 0.000000 0.000728 0.000000 0.025004
#
#
# Mechanical properties :
#
#
# Convention : Reuss Voigt Hill
#
# Bulk Modulus (GPa) = 37.57554 49.02967 43.30260
# Shear Modulus (GPa) = 21.26652 28.64805 24.95728
#
# Velocity S-wave (km/s) = 3.30353 3.83422 3.57873
# Velocity P-wave (km/s) = 5.81667 6.69046 6.26881
#
# Compressibility (1/GPa) = 0.02661306
#
# Stress axis : x y z
#
# Youngs Moduli (GPa) = 103.99409 30.90328 40.56408
#
# Poissons Ratio (x) = 0.08296 0.14037
# Poissons Ratio (y) = 0.27919 0.56230
# Poissons Ratio (z) = 0.35986 0.42839
#
# Static dielectric constant tensor:
#      x y z
#    x 3.934310 0.000000 -0.054860 
#    y 0.000000 3.406470 0.000000 
#    z -0.054860 0.000000 3.684510 
# 
# 
# High freq. dielectric constant tensor:
#      x y z
#    x 1.776410 0.000000 -0.002440 
#    y 0.000000 1.750340 0.000000 
#    z -0.002440 0.000000 1.756270 
# 
# From -- ./inp_files/360227.got.cif
#   From: 2010.06.25/outbox.cif.g09.slc.cpg/sg12_181_cif.got.tgz:360227.got - 2010.06.28 00:19:55.
