data_PCOD8094234
_publ_section_title
;
Structure prediction by ZEFSAII (Michael W. Deem and Ramdas Pophale) SiO2 
 PCOD8094234
Probable space group: C 2/M
;
_chemical_formula_sum "Si O2"
_cell_formula_units_Z 32
_cell_length_a 9.946138
_cell_length_b 16.883893
_cell_length_c 10.326528
_cell_angle_alpha 90.000000
_cell_angle_beta 134.995396
_cell_angle_gamma 90.000000
_cell_volume 1226.312897
_symmetry_space_group_name_H-M "C 2/M"
_symmetry_group_IT_number 12
_symmetry_cell_setting 'monoclinic'
loop_
_space_group_symop_operation_xyz
x,y,z
-x,y,-z
-x,-y,-z
x,-y,z
1/2+x,1/2+y,z
1/2-x,1/2+y,-z
1/2-x,1/2-y,-z
1/2+x,1/2-y,z
loop_
_atom_site_type_symbol
_atom_site_label
_atom_site_fract_x
_atom_site_fract_y
_atom_site_fract_z
Si Si1 0.029919 0.670039 0.299224
Si Si2 0.700393 0.315214 0.298219
Si Si3 0.847413 0.091803 0.026349
Si Si4 0.318879 0.654569 0.291912
O O1 0.139943 0.643757 0.504525
O O2 0.054312 0.766079 0.294696
O O3 0.129711 0.628067 0.243303
O O4 0.813032 0.638902 0.166243
O O5 0.563765 0.380007 0.136299
O O6 0.803552 0.252135 0.269586
O O7 0.811949 0.109030 0.152912
O O8 0.829584 0.000000 0.984796
O O9 0.500000 0.629165 0.500000
#
# Coordination Sequence:
#
# PCOD8094234 Si02
#       4
#     8   8   8   8
#     4   9  19  37  58  80 120 160 204 233 289 351
#     4   9  20  39  57  80 121 162 202 236 288 350
#     4  12  23  36  59  95 127 152 185 248 315 353
#     4  10  19  37  59  87 117 158 203 242 288 352
#
# _framework density 26.094481999999999
#
# number of rings (size 3 to 8) (size 9 to 14) (size 15 to 20)
#    1.500    0.500    2.500    1.500    0.000    3.500 
#    0.000    0.000    0.000    0.750    0.000   21.000 
#    0.000    0.250    0.000    0.000    0.000    0.000 
#
# Total GULP energy -198409.538385 kJ/mol
# GULP energy per Si atom -12400.596149 kJ/mol
# Density = 2.603509 g / cm^3
# Si number density = 26.094482 Si / 1000 Ang^3
#
#
#
# Elastic Constant Matrix: (Units=GPa)
#
#
# Indices 1 2 3 4 5 6 
#
# 1 131.8070 27.7272 46.1807 0.0000 23.2819 0.0000
# 2 27.7272 101.2162 63.4876 0.0000 3.9421 0.0000
# 3 46.1807 63.4876 208.6787 0.0000 8.5885 0.0000
# 4 0.0000 0.0000 0.0000 4.0656 0.0000 -0.7420
# 5 23.2819 3.9421 8.5885 0.0000 42.4005 0.0000
# 6 0.0000 0.0000 0.0000 -0.7420 0.0000 28.3767
#
#
#
# Elastic Compliance Matrix: (Units=1/GPa)
#
#
# Indices 1 2 3 4 5 6 
#
# 1 0.009204 -0.001462 -0.001401 0.000000 -0.004634 0.000000
# 2 -0.001462 0.012448 -0.003478 0.000000 0.000350 0.000000
# 3 -0.001401 -0.003478 0.006167 0.000000 -0.000156 0.000000
# 4 0.000000 0.000000 0.000000 0.247144 0.000000 0.006462
# 5 -0.004634 0.000350 -0.000156 0.000000 0.026128 0.000000
# 6 0.000000 0.000000 0.000000 0.006462 0.000000 0.035409
#
#
# Mechanical properties :
#
#
# Convention : Reuss Voigt Hill
#
# Bulk Modulus (GPa) = 66.06613 79.61033 72.83823
# Shear Modulus (GPa) = 14.11517 35.25565 24.68541
#
# Velocity S-wave (km/s) = 2.32830 3.67969 3.07905
# Velocity P-wave (km/s) = 5.70973 6.97339 6.37296
#
# Compressibility (1/GPa) = 0.01513635
#
# Stress axis : x y z
#
# Youngs Moduli (GPa) = 108.64972 80.33218 162.15915
#
# Poissons Ratio (x) = 0.11743 0.22724
# Poissons Ratio (y) = 0.15883 0.56401
# Poissons Ratio (z) = 0.15226 0.27941
#
# Static dielectric constant tensor:
#      x y z
#    x 5.298960 0.000000 0.119650 
#    y 0.000000 3.917760 0.000000 
#    z 0.119650 0.000000 4.742610 
# 
# 
# High freq. dielectric constant tensor:
#      x y z
#    x 2.131610 0.000000 -0.001890 
#    y 0.000000 1.971640 0.000000 
#    z -0.001890 0.000000 2.057730 
# 
# From -- ./inp_files/215132.got.cif
#   From: 2010.06.25/outbox.cif.g09.slc.cpg/sg12_108_cif.got.tgz:215132.got - 2010.06.28 00:19:55.
