data_PCOD8094781
_publ_section_title
;
Structure prediction by ZEFSAII (Michael W. Deem and Ramdas Pophale) SiO2 
 PCOD8094781
Probable space group: C 2/M
;
_chemical_formula_sum "Si O2"
_cell_formula_units_Z 64
_cell_length_a 22.753504
_cell_length_b 17.969085
_cell_length_c 23.598027
_cell_angle_alpha 90.000000
_cell_angle_beta 161.931330
_cell_angle_gamma 90.000000
_cell_volume 2992.478321
_symmetry_space_group_name_H-M "C 2/M"
_symmetry_group_IT_number 12
_symmetry_cell_setting 'monoclinic'
loop_
_space_group_symop_operation_xyz
x,y,z
-x,y,-z
-x,-y,-z
x,-y,z
1/2+x,1/2+y,z
1/2-x,1/2+y,-z
1/2-x,1/2-y,-z
1/2+x,1/2-y,z
loop_
_atom_site_type_symbol
_atom_site_label
_atom_site_fract_x
_atom_site_fract_y
_atom_site_fract_z
Si Si1 0.575760 0.346447 0.822035
Si Si2 0.512128 0.178974 0.751549
Si Si3 0.644527 0.087406 0.293655
Si Si4 0.846907 0.085950 0.906030
Si Si5 0.002495 0.836235 0.435435
Si Si6 0.381887 0.415310 0.745269
Si Si7 0.479459 0.828395 0.590892
Si Si8 0.245832 0.412872 0.121362
O O1 0.473141 0.266853 0.721965
O O2 0.437508 0.397990 0.731772
O O3 0.601770 0.385386 0.785368
O O4 0.774906 0.339521 0.035962
O O5 0.366241 0.133509 0.657545
O O6 0.482756 0.153367 0.660499
O O7 0.830746 0.107619 0.429403
O O8 0.640987 0.000000 0.304847
O O9 0.465726 0.109833 0.090404
O O10 0.663303 0.136940 0.729372
O O11 0.787796 0.000000 0.844405
O O12 0.000000 0.110053 0.000000
O O13 0.936244 0.101390 0.049315
O O14 0.031084 0.758480 0.430527
O O15 0.802495 0.871919 0.231841
O O16 0.000000 0.825315 0.500000
O O17 0.315895 0.500000 0.690223
O O18 0.207374 0.365531 0.606790
O O19 0.266075 0.500000 0.148590
#
# Coordination Sequence:
#
# PCOD8094781 Si02
#       8
#     8   8   8   8   8   8   8   8
#     4  10  19  39  64  97 134 169 210 266 330 400
#     4  10  21  39  67  96 135 169 209 267 332 394
#     4  10  24  44  68 100 134 172 217 273 335 398
#     4  10  24  46  67  91 130 176 219 268 320 383
#     4  12  28  45  65  96 131 175 227 278 329 390
#     4  11  24  39  65  98 129 170 216 265 324 394
#     4  12  25  43  65  99 132 173 217 267 328 393
#     4  10  22  43  69  95 130 175 220 273 335 393
#
# _framework density 21.386955
#
# number of rings (size 3 to 8) (size 9 to 14) (size 15 to 20)
#    0.000    1.375    2.500    1.875    3.500    5.000 
#    0.000    3.125    0.000    0.000    0.000    0.000 
#    0.000    0.000    0.000    0.000    0.000    0.000 
#
# Total GULP energy -396986.698880 kJ/mol
# GULP energy per Si atom -12405.834340 kJ/mol
# Density = 2.133828 g / cm^3
# Si number density = 21.386955 Si / 1000 Ang^3
#
#
#
# Elastic Constant Matrix: (Units=GPa)
#
#
# Indices 1 2 3 4 5 6 
#
# 1 82.7030 5.3014 15.2617 0.0877 -4.1619 -0.0301
# 2 5.3014 80.3754 20.9015 0.2984 -4.9436 -0.0777
# 3 15.2617 20.9015 47.2474 0.4534 7.6694 -0.1400
# 4 0.0877 0.2984 0.4534 36.7838 0.0582 1.8497
# 5 -4.1619 -4.9436 7.6694 0.0582 25.3767 -0.0323
# 6 -0.0301 -0.0777 -0.1400 1.8497 -0.0323 23.1372
#
#
#
# Elastic Compliance Matrix: (Units=1/GPa)
#
#
# Indices 1 2 3 4 5 6 
#
# 1 0.013203 0.000724 -0.005216 0.000021 0.003883 -0.000008
# 2 0.000724 0.014692 -0.007589 -0.000036 0.005275 0.000015
# 3 -0.005216 -0.007589 0.027961 -0.000261 -0.010783 0.000143
# 4 0.000021 -0.000036 -0.000261 0.027299 0.000010 -0.002184
# 5 0.003883 0.005275 -0.010783 0.000010 0.044330 0.000019
# 6 -0.000008 0.000015 0.000143 -0.002184 0.000019 0.043396
#
#
# Mechanical properties :
#
#
# Convention : Reuss Voigt Hill
#
# Bulk Modulus (GPa) = 31.55154 32.58390 32.06772
# Shear Modulus (GPa) = 24.31834 28.31694 26.31764
#
# Velocity S-wave (km/s) = 3.37570 3.64267 3.51172
# Velocity P-wave (km/s) = 5.47526 5.74113 5.60977
#
# Compressibility (1/GPa) = 0.03169417
#
# Stress axis : x y z
#
# Youngs Moduli (GPa) = 75.74113 68.06430 35.76463
#
# Poissons Ratio (x) = -0.04929 0.18653
# Poissons Ratio (y) = -0.05485 0.27143
# Poissons Ratio (z) = 0.39504 0.51656
#
# Static dielectric constant tensor:
#      x y z
#    x 3.769940 -0.000130 -0.146090 
#    y -0.000130 3.821880 -0.000350 
#    z -0.146090 -0.000350 3.951180 
# 
# 
# High freq. dielectric constant tensor:
#      x y z
#    x 1.831810 -0.000010 -0.006250 
#    y -0.000010 1.843700 -0.000040 
#    z -0.006250 -0.000040 1.849010 
# 
# From -- ./inp_files/347918.got.cif
#   From: 2010.06.25/outbox.cif.g09.slc.cpg/sg12_174_cif.got.tgz:347918.got - 2010.06.28 00:19:55.
