data_PCOD8094838
_publ_section_title
;
Structure prediction by ZEFSAII (Michael W. Deem and Ramdas Pophale) SiO2 
 PCOD8094838
Probable space group: C 2/M
;
_chemical_formula_sum "Si O2"
_cell_formula_units_Z 56
_cell_length_a 23.191496
_cell_length_b 16.462434
_cell_length_c 15.452819
_cell_angle_alpha 90.000000
_cell_angle_beta 27.739050
_cell_angle_gamma 90.000000
_cell_volume 2745.991898
_symmetry_space_group_name_H-M "C 2/M"
_symmetry_group_IT_number 12
_symmetry_cell_setting 'monoclinic'
loop_
_space_group_symop_operation_xyz
x,y,z
-x,y,-z
-x,-y,-z
x,-y,z
1/2+x,1/2+y,z
1/2-x,1/2+y,-z
1/2-x,1/2-y,-z
1/2+x,1/2-y,z
loop_
_atom_site_type_symbol
_atom_site_label
_atom_site_fract_x
_atom_site_fract_y
_atom_site_fract_z
Si Si1 0.709147 0.313657 0.406840
Si Si2 0.355364 0.659552 0.192848
Si Si3 0.793504 0.407170 0.955436
Si Si4 1.000000 0.702928 0.750000
Si Si5 0.855364 0.840449 0.692847
Si Si6 0.290851 0.686344 0.093163
Si Si7 0.206496 0.592829 0.544563
O O1 0.827253 0.253396 0.254638
O O2 0.584832 0.259447 0.577291
O O3 0.703667 0.360631 0.322802
O O4 0.715693 0.377713 0.475706
O O5 0.296332 0.639370 0.177199
O O6 0.292001 0.600285 0.346361
O O7 0.500000 0.642082 0.000000
O O8 0.832642 0.500000 0.890128
O O9 0.708001 0.399715 0.153637
O O10 0.715694 0.377711 0.975706
O O11 0.917221 0.353560 0.798075
O O12 0.082781 0.646441 0.701922
O O13 0.915166 0.759445 0.922713
O O14 0.827255 0.746605 0.754634
O O15 0.000000 0.857921 0.500000
O O16 0.167357 0.500000 0.609871
#
# Coordination Sequence:
#
# PCOD8094838 Si02
#       7
#     8   8   8   8   8   8   8
#     4  10  20  36  62  83 108 150 196 231 269 330
#     4  10  20  36  58  83 111 149 193 231 271 332
#     4  11  23  37  57  87 119 146 179 234 291 331
#     4  10  19  40  63  80 108 152 196 230 269 330
#     4  10  20  36  58  83 111 149 193 231 271 332
#     4  10  20  36  62  83 108 150 196 231 269 330
#     4  11  23  37  57  87 119 146 179 234 291 331
#
# _framework density 20.393359
#
# number of rings (size 3 to 8) (size 9 to 14) (size 15 to 20)
#    0.000    1.714    0.000    7.286    0.000    1.714 
#    0.000    5.000    0.000   18.000    0.000    0.000 
#    0.000    0.000    0.000    0.000    0.000    0.000 
#
# Total GULP energy -347277.776148 kJ/mol
# GULP energy per Si atom -12402.777720 kJ/mol
# Density = 2.034694 g / cm^3
# Si number density = 20.393359 Si / 1000 Ang^3
#
#
#
# Elastic Constant Matrix: (Units=GPa)
#
#
# Indices 1 2 3 4 5 6 
#
# 1 127.8787 56.6867 40.9493 0.0000 23.4972 0.0000
# 2 56.6867 72.8429 19.0221 0.0000 10.9394 0.0000
# 3 40.9493 19.0221 89.3405 0.0001 -1.4097 0.0000
# 4 0.0000 0.0000 0.0001 10.0925 0.0000 -5.8724
# 5 23.4972 10.9394 -1.4097 0.0000 34.9008 0.0000
# 6 0.0000 0.0000 0.0000 -5.8724 0.0000 19.4168
#
#
#
# Elastic Compliance Matrix: (Units=1/GPa)
#
#
# Indices 1 2 3 4 5 6 
#
# 1 0.014790 -0.009120 -0.004952 0.000000 -0.007299 0.000000
# 2 -0.009120 0.020968 -0.000291 0.000000 -0.000444 0.000000
# 3 -0.004952 -0.000291 0.013588 0.000000 0.003974 0.000000
# 4 0.000000 0.000000 0.000000 0.120244 0.000000 0.036367
# 5 -0.007299 -0.000444 0.003974 0.000000 0.033866 0.000000
# 6 0.000000 0.000000 0.000000 0.036367 0.000000 0.062500
#
#
# Mechanical properties :
#
#
# Convention : Reuss Voigt Hill
#
# Bulk Modulus (GPa) = 48.50031 58.15314 53.32672
# Shear Modulus (GPa) = 16.58069 24.44228 20.51148
#
# Velocity S-wave (km/s) = 2.85448 3.46575 3.17486
# Velocity P-wave (km/s) = 5.89051 6.67779 6.29647
#
# Compressibility (1/GPa) = 0.02061843
#
# Stress axis : x y z
#
# Youngs Moduli (GPa) = 67.61533 47.69137 73.59594
#
# Poissons Ratio (x) = 0.43495 0.36446
# Poissons Ratio (y) = 0.61665 0.02144
# Poissons Ratio (z) = 0.33484 0.01389
#
# Static dielectric constant tensor:
#      x y z
#    x 3.725820 0.000000 0.086740 
#    y 0.000000 3.347980 0.000000 
#    z 0.086740 0.000000 3.759270 
# 
# 
# High freq. dielectric constant tensor:
#      x y z
#    x 1.808570 0.000000 0.004570 
#    y 0.000000 1.765200 0.000000 
#    z 0.004570 0.000000 1.801430 
# 
# From -- ./inp_files/234658.got.cif
#   From: 2010.06.25/outbox.cif.g09.slc.cpg/sg12_118_cif.got.tgz:234658.got - 2010.06.28 00:19:55.
