data_PCOD8094253
_publ_section_title
;
Structure prediction by ZEFSAII (Michael W. Deem and Ramdas Pophale) SiO2 
 PCOD8094253
Probable space group: C 2/M
;
_chemical_formula_sum "Si O2"
_cell_formula_units_Z 64
_cell_length_a 30.114941
_cell_length_b 9.122823
_cell_length_c 12.333262
_cell_angle_alpha 90.000000
_cell_angle_beta 92.436875
_cell_angle_gamma 90.000000
_cell_volume 3385.293293
_symmetry_space_group_name_H-M "C 2/M"
_symmetry_group_IT_number 12
_symmetry_cell_setting 'monoclinic'
loop_
_space_group_symop_operation_xyz
x,y,z
-x,y,-z
-x,-y,-z
x,-y,z
1/2+x,1/2+y,z
1/2-x,1/2+y,-z
1/2-x,1/2-y,-z
1/2+x,1/2-y,z
loop_
_atom_site_type_symbol
_atom_site_label
_atom_site_fract_x
_atom_site_fract_y
_atom_site_fract_z
Si Si1 0.261314 0.828215 0.834577
Si Si2 0.439296 0.172465 0.809669
Si Si3 0.279190 0.174219 0.594141
Si Si4 0.048302 0.672711 0.551974
Si Si5 0.185315 0.830560 0.986771
Si Si6 0.584138 0.668514 0.976760
Si Si7 0.620717 0.172396 0.389611
Si Si8 0.527948 0.671772 0.759267
O O1 0.260492 0.776887 0.709741
O O2 0.215152 0.780956 0.887079
O O3 0.269919 0.000000 0.840942
O O4 0.302123 0.755445 0.902912
O O5 0.396251 0.212675 0.732843
O O6 0.480682 0.250287 0.758053
O O7 0.448732 0.000000 0.811577
O O8 0.432231 0.227728 0.929735
O O9 0.250000 0.250000 0.500000
O O10 0.329680 0.234524 0.588341
O O11 0.276661 0.000000 0.579207
O O12 0.052804 0.500000 0.573479
O O13 0.086315 0.733684 0.475186
O O14 0.056017 0.759685 0.664055
O O15 0.000000 0.711617 0.500000
O O16 0.134765 0.796274 0.950635
O O17 0.193377 0.000000 0.012732
O O18 0.578306 0.500000 0.012901
O O19 0.554351 0.705814 0.871201
O O20 0.622283 0.000000 0.402436
O O21 0.521338 0.500000 0.740111
#
# Coordination Sequence:
#
# PCOD8094253 Si02
#       8
#     8   8   8   8   8   8   8   8
#     4   9  18  34  56  80 107 141 181 227 275 323
#     4  11  21  37  60  82 106 142 188 228 270 327
#     4  10  21  37  56  80 112 145 181 225 277 330
#     4  10  19  37  60  79 106 144 189 234 275 321
#     4   9  18  34  56  79 106 143 182 223 273 327
#     4  10  22  37  51  76 115 149 177 221 280 331
#     4   9  19  36  58  82 108 142 181 231 283 321
#     4  11  23  37  54  80 115 148 180 224 278 330
#
# _framework density 18.905304999999998
#
# number of rings (size 3 to 8) (size 9 to 14) (size 15 to 20)
#    0.000    2.125    1.250    1.875    0.000    5.750 
#    0.000    3.125    0.000    0.000    0.000    0.000 
#    0.000    0.000    0.000    0.000    0.000    0.000 
#
# Total GULP energy -396850.347284 kJ/mol
# GULP energy per Si atom -12401.573353 kJ/mol
# Density = 1.886228 g / cm^3
# Si number density = 18.905305 Si / 1000 Ang^3
#
#
#
# Elastic Constant Matrix: (Units=GPa)
#
#
# Indices 1 2 3 4 5 6 
#
# 1 88.7621 31.5067 56.7132 0.0000 3.8799 0.0000
# 2 31.5067 52.3087 51.7802 0.0000 2.0141 0.0000
# 3 56.7132 51.7802 147.9214 0.0000 -3.8700 0.0000
# 4 0.0000 0.0000 0.0000 32.2449 0.0000 5.0170
# 5 3.8799 2.0141 -3.8700 0.0000 29.9823 0.0000
# 6 0.0000 0.0000 0.0000 5.0170 0.0000 22.7978
#
#
#
# Elastic Compliance Matrix: (Units=1/GPa)
#
#
# Indices 1 2 3 4 5 6 
#
# 1 0.016014 -0.005235 -0.004367 0.000000 -0.002284 0.000000
# 2 -0.005235 0.031294 -0.009015 0.000000 -0.002588 0.000000
# 3 -0.004367 -0.009015 0.011661 0.000000 0.002676 0.000000
# 4 0.000000 0.000000 0.000000 0.032112 0.000000 -0.007067
# 5 -0.002284 -0.002588 0.002676 0.000000 0.034168 0.000000
# 6 0.000000 0.000000 0.000000 -0.007067 0.000000 0.045419
#
#
# Mechanical properties :
#
#
# Convention : Reuss Voigt Hill
#
# Bulk Modulus (GPa) = 46.00969 63.22135 54.61552
# Shear Modulus (GPa) = 23.23984 26.93781 25.08883
#
# Velocity S-wave (km/s) = 3.50991 3.77885 3.64686
# Velocity P-wave (km/s) = 6.38872 7.24937 6.83261
#
# Compressibility (1/GPa) = 0.02173455
#
# Stress axis : x y z
#
# Youngs Moduli (GPa) = 62.44371 31.95487 85.75884
#
# Poissons Ratio (x) = 0.16727 0.37453
# Poissons Ratio (y) = 0.32687 0.77314
# Poissons Ratio (z) = 0.27271 0.28808
#
# Static dielectric constant tensor:
#      x y z
#    x 3.741090 0.000000 -0.192830 
#    y 0.000000 3.298440 0.000000 
#    z -0.192830 0.000000 3.610920 
# 
# 
# High freq. dielectric constant tensor:
#      x y z
#    x 1.740720 0.000000 -0.006820 
#    y 0.000000 1.718620 0.000000 
#    z -0.006820 0.000000 1.742530 
# 
# From -- ./inp_files/187495.got.cif
#   From: 2010.06.25/outbox.cif.g09.slc.cpg/sg12_94_cif.got.tgz:187495.got - 2010.06.28 00:19:55.
