data_PCOD8094368
_publ_section_title
;
Structure prediction by ZEFSAII (Michael W. Deem and Ramdas Pophale) SiO2 
 PCOD8094368
Probable space group: C 2/M
;
_chemical_formula_sum "Si O2"
_cell_formula_units_Z 48
_cell_length_a 20.325996
_cell_length_b 8.942393
_cell_length_c 14.523093
_cell_angle_alpha 90.000000
_cell_angle_beta 99.359022
_cell_angle_gamma 90.000000
_cell_volume 2604.622992
_symmetry_space_group_name_H-M "C 2/M"
_symmetry_group_IT_number 12
_symmetry_cell_setting 'monoclinic'
loop_
_space_group_symop_operation_xyz
x,y,z
-x,y,-z
-x,-y,-z
x,-y,z
1/2+x,1/2+y,z
1/2-x,1/2+y,-z
1/2-x,1/2-y,-z
1/2+x,1/2-y,z
loop_
_atom_site_type_symbol
_atom_site_label
_atom_site_fract_x
_atom_site_fract_y
_atom_site_fract_z
Si Si1 0.980639 0.830691 0.757613
Si Si2 0.811772 0.823815 0.564358
Si Si3 0.450130 0.174913 0.569619
Si Si4 0.666506 0.670726 0.222521
Si Si5 0.438488 0.672370 0.048783
Si Si6 0.192994 0.324493 0.046044
O O1 0.985839 0.718321 0.673439
O O2 0.912945 0.804067 0.799656
O O3 0.042575 0.804558 0.839758
O O4 0.979854 0.000000 0.718439
O O5 0.750000 0.750000 0.500000
O O6 0.880756 0.761134 0.539306
O O7 0.806047 0.783788 0.670981
O O8 0.810943 0.000000 0.547753
O O9 0.500000 0.221367 0.500000
O O10 0.434614 0.000000 0.565739
O O11 0.684678 0.500000 0.203690
O O12 0.700428 0.774530 0.153869
O O13 0.419186 0.500000 0.024164
O O14 0.500000 0.721957 0.000000
O O15 0.377377 0.778411 0.012605
O O16 0.201594 0.500000 0.042782
O O17 0.250000 0.250000 0.000000
#
# Coordination Sequence:
#
# PCOD8094368 Si02
#       6
#     8   8   8   8   8   8
#     4   9  18  34  60  87 111 147 188 230 280 334
#     4  10  21  38  62  87 113 148 190 235 283 339
#     4  10  21  37  57  83 118 154 186 231 286 332
#     4   9  18  37  60  83 112 149 187 230 284 337
#     4  10  19  37  62  85 114 148 184 229 281 338
#     4  12  25  39  57  83 116 153 191 234 284 335
#
# _framework density 18.42877
#
# number of rings (size 3 to 8) (size 9 to 14) (size 15 to 20)
#    0.000    2.000    1.667    3.500    0.000    5.667 
#    3.000    0.000    0.000    0.000    0.000    0.000 
#    0.000    0.000    0.000    0.000    0.000    0.000 
#
# Total GULP energy -297663.440408 kJ/mol
# GULP energy per Si atom -12402.643350 kJ/mol
# Density = 1.838683 g / cm^3
# Si number density = 18.428770 Si / 1000 Ang^3
#
#
#
# Elastic Constant Matrix: (Units=GPa)
#
#
# Indices 1 2 3 4 5 6 
#
# 1 110.1633 71.8106 78.0438 0.0000 -4.3618 0.0000
# 2 71.8106 119.5173 65.4881 0.0000 -8.1543 0.0000
# 3 78.0438 65.4881 113.5121 0.0000 -2.9268 0.0000
# 4 0.0000 0.0000 0.0000 35.7908 0.0000 1.0209
# 5 -4.3618 -8.1543 -2.9268 0.0000 32.0689 0.0000
# 6 0.0000 0.0000 0.0000 1.0209 0.0000 33.5817
#
#
#
# Elastic Compliance Matrix: (Units=1/GPa)
#
#
# Indices 1 2 3 4 5 6 
#
# 1 0.020953 -0.006854 -0.010448 0.000000 0.000154 0.000000
# 2 -0.006854 0.014676 -0.003691 0.000000 0.002463 0.000000
# 3 -0.010448 -0.003691 0.018104 0.000000 -0.000707 0.000000
# 4 0.000000 0.000000 0.000000 0.027964 0.000000 -0.000850
# 5 0.000154 0.002463 -0.000707 0.000000 0.031765 0.000000
# 6 0.000000 0.000000 0.000000 -0.000850 0.000000 0.029804
#
#
# Mechanical properties :
#
#
# Convention : Reuss Voigt Hill
#
# Bulk Modulus (GPa) = 85.12625 85.98642 85.55634
# Shear Modulus (GPa) = 26.43170 28.81162 27.62166
#
# Velocity S-wave (km/s) = 3.79127 3.95828 3.87568
# Velocity P-wave (km/s) = 8.09057 8.22501 8.15807
#
# Compressibility (1/GPa) = 0.01174726
#
# Stress axis : x y z
#
# Youngs Moduli (GPa) = 47.72593 68.14051 55.23710
#
# Poissons Ratio (x) = 0.46705 0.57710
# Poissons Ratio (y) = 0.32712 0.20386
# Poissons Ratio (z) = 0.49862 0.25148
#
# Static dielectric constant tensor:
#      x y z
#    x 2.584050 0.000000 -0.038960 
#    y 0.000000 3.362530 0.000000 
#    z -0.038960 0.000000 3.474390 
# 
# 
# High freq. dielectric constant tensor:
#      x y z
#    x 1.701700 0.000000 0.005650 
#    y 0.000000 1.715800 0.000000 
#    z 0.005650 0.000000 1.723460 
# 
# From -- ./inp_files/221629.got.cif
#   From: 2010.06.25/outbox.cif.g09.slc.cpg/sg12_111_cif.got.tgz:221629.got - 2010.06.28 00:19:55.
