data_PCOD8094868
_publ_section_title
;
Structure prediction by ZEFSAII (Michael W. Deem and Ramdas Pophale) SiO2 
 PCOD8094868
Probable space group: C 2/M
;
_chemical_formula_sum "Si O2"
_cell_formula_units_Z 36
_cell_length_a 12.572333
_cell_length_b 26.993835
_cell_length_c 9.045751
_cell_angle_alpha 90.000000
_cell_angle_beta 145.388830
_cell_angle_gamma 90.000000
_cell_volume 1743.719587
_symmetry_space_group_name_H-M "C 2/M"
_symmetry_group_IT_number 12
_symmetry_cell_setting 'monoclinic'
loop_
_space_group_symop_operation_xyz
x,y,z
-x,y,-z
-x,-y,-z
x,-y,z
1/2+x,1/2+y,z
1/2-x,1/2+y,-z
1/2-x,1/2-y,-z
1/2+x,1/2-y,z
loop_
_atom_site_type_symbol
_atom_site_label
_atom_site_fract_x
_atom_site_fract_y
_atom_site_fract_z
Si Si1 0.209604 0.810657 0.793867
Si Si2 0.200505 0.414994 0.179523
Si Si3 0.000000 0.872416 0.000000
Si Si4 0.282240 0.200253 0.219702
Si Si5 0.959919 0.943876 0.226913
O O1 0.322992 0.855246 0.847373
O O2 0.281913 0.756992 0.822333
O O3 0.000000 0.819491 0.500000
O O4 0.224434 0.814497 0.987880
O O5 0.265748 0.432444 0.090997
O O6 0.357082 0.436313 0.465858
O O7 0.000000 0.437396 0.000000
O O8 0.179510 0.836129 0.217248
O O9 0.980514 0.906581 0.117677
O O10 0.500000 0.194133 0.500000
O O11 0.952825 0.000000 0.160326
#
# Coordination Sequence:
#
# PCOD8094868 Si02
#       5
#     8   8   4   8   8
#     4  10  19  42  61  93 132 173 209 255 314 387
#     4  11  22  40  67  92 123 164 215 265 317 377
#     4  12  23  42  64  96 130 170 209 266 326 386
#     4  10  23  38  62  93 135 171 210 253 319 391
#     4  11  25  44  64  90 125 167 220 272 321 374
#
# _framework density 20.645522
#
# number of rings (size 3 to 8) (size 9 to 14) (size 15 to 20)
#    0.000    1.333    4.444    1.667    4.667    1.778 
#    0.000    4.444    0.000    4.000    0.000    0.000 
#    0.000    0.000    0.000    0.000    0.000    0.000 
#
# Total GULP energy -223114.787353 kJ/mol
# GULP energy per Si atom -12395.265964 kJ/mol
# Density = 2.059853 g / cm^3
# Si number density = 20.645522 Si / 1000 Ang^3
#
#
#
# Elastic Constant Matrix: (Units=GPa)
#
#
# Indices 1 2 3 4 5 6 
#
# 1 123.7396 56.0668 44.0727 0.0000 20.9648 0.0000
# 2 56.0668 160.5716 23.5839 0.0000 14.4347 0.0000
# 3 44.0727 23.5839 88.7387 0.0000 6.7645 0.0000
# 4 0.0000 0.0000 0.0000 27.9903 0.0000 -8.1760
# 5 20.9648 14.4347 6.7645 0.0000 28.5816 0.0000
# 6 0.0000 0.0000 0.0000 -8.1760 0.0000 13.7902
#
#
#
# Elastic Compliance Matrix: (Units=1/GPa)
#
#
# Indices 1 2 3 4 5 6 
#
# 1 0.012213 -0.002994 -0.004789 0.000000 -0.006313 0.000000
# 2 -0.002994 0.007463 -0.000384 0.000000 -0.001482 0.000000
# 3 -0.004789 -0.000384 0.013714 0.000000 0.000461 0.000000
# 4 0.000000 0.000000 0.000000 0.043210 0.000000 0.025618
# 5 -0.006313 -0.001482 0.000461 0.000000 0.040258 0.000000
# 6 0.000000 0.000000 0.000000 0.025618 0.000000 0.087704
#
#
# Mechanical properties :
#
#
# Convention : Reuss Voigt Hill
#
# Bulk Modulus (GPa) = 58.62348 68.94408 63.78378
# Shear Modulus (GPa) = 22.06729 30.69422 26.38075
#
# Velocity S-wave (km/s) = 3.27290 3.85999 3.57850
# Velocity P-wave (km/s) = 6.53754 7.30293 6.93081
#
# Compressibility (1/GPa) = 0.01705801
#
# Stress axis : x y z
#
# Youngs Moduli (GPa) = 81.87864 134.00147 72.91652
#
# Poissons Ratio (x) = 0.40114 0.34919
# Poissons Ratio (y) = 0.24511 0.02797
# Poissons Ratio (z) = 0.39211 0.05139
#
# Static dielectric constant tensor:
#      x y z
#    x 4.153770 0.000000 -0.331050 
#    y 0.000000 4.282600 0.000000 
#    z -0.331050 0.000000 3.803460 
# 
# 
# High freq. dielectric constant tensor:
#      x y z
#    x 1.796740 0.000000 0.002790 
#    y 0.000000 1.832710 0.000000 
#    z 0.002790 0.000000 1.794380 
# 
# From -- ./inp_files/52233.got.cif
#   From: 2010.06.25/outbox.cif.g09.slc.cpg/sg12_27_cif.got.tgz:52233.got - 2010.06.28 00:19:55.
