data_PCOD8094964
_publ_section_title
;
Structure prediction by ZEFSAII (Michael W. Deem and Ramdas Pophale) SiO2 
 PCOD8094964
Probable space group: C 2/M
;
_chemical_formula_sum "Si O2"
_cell_formula_units_Z 56
_cell_length_a 19.559043
_cell_length_b 9.260971
_cell_length_c 34.305531
_cell_angle_alpha 90.000000
_cell_angle_beta 148.806088
_cell_angle_gamma 90.000000
_cell_volume 3218.432981
_symmetry_space_group_name_H-M "C 2/M"
_symmetry_group_IT_number 12
_symmetry_cell_setting 'monoclinic'
loop_
_space_group_symop_operation_xyz
x,y,z
-x,y,-z
-x,-y,-z
x,-y,z
1/2+x,1/2+y,z
1/2-x,1/2+y,-z
1/2-x,1/2-y,-z
1/2+x,1/2-y,z
loop_
_atom_site_type_symbol
_atom_site_label
_atom_site_fract_x
_atom_site_fract_y
_atom_site_fract_z
Si Si1 0.316085 0.168329 0.588062
Si Si2 0.105552 0.327779 0.289654
Si Si3 0.554900 0.668404 0.418470
Si Si4 0.769448 0.169654 0.298749
Si Si5 0.361848 0.171149 0.122906
Si Si6 0.975684 0.669409 0.872168
Si Si7 0.065611 0.171478 0.991115
O O1 0.355730 0.233114 0.649300
O O2 0.404590 0.250942 0.600606
O O3 0.160812 0.196120 0.504512
O O4 0.349949 0.000000 0.601484
O O5 0.110368 0.500000 0.292073
O O6 0.211606 0.265433 0.310602
O O7 0.960141 0.274678 0.205140
O O8 0.544461 0.500000 0.403357
O O9 0.414323 0.735517 0.362415
O O10 0.670456 0.204542 0.215054
O O11 0.783251 0.000000 0.310694
O O12 0.415088 0.222702 0.106386
O O13 0.362110 0.000000 0.122646
O O14 0.216151 0.230058 0.061613
O O15 0.993399 0.500000 0.889305
O O16 0.986038 0.757353 0.917079
O O17 0.059217 0.000000 0.983330
O O18 0.000000 0.219796 0.000000
#
# Coordination Sequence:
#
# PCOD8094964 Si02
#       7
#     8   8   8   8   8   8   8
#     4   9  17  28  45  68  90 116 148 178 212 257
#     4   8  14  26  45  67  87 110 147 188 217 250
#     4   9  17  29  44  64  92 120 144 176 218 260
#     4   8  15  28  46  67  88 112 145 184 222 254
#     4   8  15  29  47  65  87 115 145 179 221 262
#     4   9  17  31  50  66  83 114 151 182 215 258
#     4  10  20  31  44  66  93 117 142 177 221 262
#
# _framework density 17.399771999999999
#
# number of rings (size 3 to 8) (size 9 to 14) (size 15 to 20)
#    0.000    3.286    0.000    2.143    0.000    2.000 
#    0.000    5.000    0.000    5.143    0.000    4.000 
#    0.000    0.000    0.000    0.000    0.000    0.000 
#
# Total GULP energy -347029.096388 kJ/mol
# GULP energy per Si atom -12393.896300 kJ/mol
# Density = 1.736017 g / cm^3
# Si number density = 17.399772 Si / 1000 Ang^3
#
#
#
# Elastic Constant Matrix: (Units=GPa)
#
#
# Indices 1 2 3 4 5 6 
#
# 1 103.8337 22.7149 73.9524 -0.0002 -9.7169 0.0002
# 2 22.7149 17.2639 23.2011 -0.0005 -6.2576 0.0007
# 3 73.9524 23.2011 116.8029 -0.0002 -13.1180 0.0002
# 4 -0.0002 -0.0005 -0.0002 19.0984 0.0000 -2.9560
# 5 -9.7169 -6.2576 -13.1180 0.0000 36.9779 -0.0001
# 6 0.0002 0.0007 0.0002 -2.9560 -0.0001 16.6916
#
#
#
# Elastic Compliance Matrix: (Units=1/GPa)
#
#
# Indices 1 2 3 4 5 6 
#
# 1 0.019268 -0.012365 -0.009800 0.000000 -0.000506 0.000000
# 2 -0.012365 0.089370 -0.008946 0.000002 0.008701 -0.000003
# 3 -0.009800 -0.008946 0.016751 0.000000 0.001853 0.000000
# 4 0.000000 0.000002 0.000000 0.053836 0.000000 0.009534
# 5 -0.000506 0.008701 0.001853 0.000000 0.029040 0.000000
# 6 0.000000 -0.000003 0.000000 0.009534 0.000000 0.061599
#
#
# Mechanical properties :
#
#
# Convention : Reuss Voigt Hill
#
# Bulk Modulus (GPa) = 15.83095 53.07079 34.45087
# Shear Modulus (GPa) = 14.15856 22.42240 18.29048
#
# Velocity S-wave (km/s) = 2.85567 3.59369 3.24572
# Velocity P-wave (km/s) = 4.47116 6.91278 5.82142
#
# Compressibility (1/GPa) = 0.06316740
#
# Stress axis : x y z
#
# Youngs Moduli (GPa) = 51.89864 11.18942 59.69622
#
# Poissons Ratio (x) = 0.13836 0.58504
# Poissons Ratio (y) = 0.64173 0.53405
# Poissons Ratio (z) = 0.50862 0.10010
#
# Static dielectric constant tensor:
#      x y z
#    x 3.496590 0.000000 0.146980 
#    y 0.000000 2.761880 0.000000 
#    z 0.146980 0.000000 3.530380 
# 
# 
# High freq. dielectric constant tensor:
#      x y z
#    x 1.672840 0.000000 0.002250 
#    y 0.000000 1.622110 0.000000 
#    z 0.002250 0.000000 1.684250 
# 
# From -- ./inp_files/276373.got.cif
#   From: 2010.06.25/outbox.cif.g09.slc.cpg/sg12_139_cif.got.tgz:276373.got - 2010.06.28 00:19:55.
