data_PCOD8094442
_publ_section_title
;
Structure prediction by ZEFSAII (Michael W. Deem and Ramdas Pophale) SiO2 
 PCOD8094442
Probable space group: C 2/M
;
_chemical_formula_sum "Si O2"
_cell_formula_units_Z 64
_cell_length_a 13.739045
_cell_length_b 11.899263
_cell_length_c 23.726555
_cell_angle_alpha 90.000000
_cell_angle_beta 60.297017
_cell_angle_gamma 90.000000
_cell_volume 3369.255752
_symmetry_space_group_name_H-M "C 2/M"
_symmetry_group_IT_number 12
_symmetry_cell_setting 'monoclinic'
loop_
_space_group_symop_operation_xyz
x,y,z
-x,y,-z
-x,-y,-z
x,-y,z
1/2+x,1/2+y,z
1/2-x,1/2+y,-z
1/2-x,1/2-y,-z
1/2+x,1/2-y,z
loop_
_atom_site_type_symbol
_atom_site_label
_atom_site_fract_x
_atom_site_fract_y
_atom_site_fract_z
Si Si1 0.953359 0.240182 0.275662
Si Si2 0.769080 0.626683 0.940283
Si Si3 0.299933 0.369873 0.507545
Si Si4 0.676348 0.130448 0.196703
Si Si5 0.940946 0.740886 0.959228
Si Si6 0.996725 0.873013 0.626785
Si Si7 0.414154 0.370928 0.172075
Si Si8 0.267903 0.371806 0.648833
O O1 0.936832 0.177074 0.339294
O O2 0.963032 0.157576 0.219528
O O3 0.844691 0.315220 0.296844
O O4 0.065999 0.310774 0.251666
O O5 0.739153 0.500000 0.936443
O O6 0.792024 0.684518 0.873200
O O7 0.881147 0.634990 0.946521
O O8 0.659581 0.673044 0.001884
O O9 0.254107 0.500000 0.502759
O O10 0.250000 0.250000 0.500000
O O11 0.428193 0.364674 0.450822
O O12 0.288364 0.360851 0.577014
O O13 0.780188 0.149768 0.209358
O O14 0.646503 0.000000 0.199073
O O15 0.031199 0.795452 0.892037
O O16 0.000000 0.702278 0.000000
O O17 0.876059 0.815669 0.648568
O O18 0.971433 0.000000 0.650147
O O19 0.442425 0.500000 0.150404
O O20 0.255985 0.500000 0.670314
#
# Coordination Sequence:
#
# PCOD8094442 Si02
#       8
#     8   8   8   8   8   8   8   8
#     4  12  21  37  57  81 117 151 184 234 286 333
#     4  10  21  37  57  82 108 137 179 230 280 331
#     4  10  19  37  63  89 118 155 197 246 292 339
#     4  10  21  37  56  79 110 146 184 225 277 343
#     4  11  21  37  61  81 105 141 184 232 278 330
#     4  10  21  37  59  85 115 153 196 238 284 337
#     4  11  23  37  55  83 111 144 187 228 281 339
#     4  10  21  37  60  87 114 152 200 236 276 341
#
# _framework density 18.995293
#
# number of rings (size 3 to 8) (size 9 to 14) (size 15 to 20)
#    0.000    1.500    3.750    2.250    0.000    2.250 
#    0.000    0.000    0.000    3.750    0.000    0.000 
#    0.000    0.000    0.000    0.000    0.000    0.000 
#
# Total GULP energy -396475.841714 kJ/mol
# GULP energy per Si atom -12389.870054 kJ/mol
# Density = 1.895206 g / cm^3
# Si number density = 18.995293 Si / 1000 Ang^3
#
#
#
# Elastic Constant Matrix: (Units=GPa)
#
#
# Indices 1 2 3 4 5 6 
#
# 1 93.8555 25.3724 11.5711 0.0000 -5.4157 0.0000
# 2 25.3724 60.6383 7.6574 0.0000 -4.3625 0.0000
# 3 11.5711 7.6574 65.8696 0.0000 -5.8921 0.0000
# 4 0.0000 0.0000 0.0000 18.0954 0.0000 -3.1182
# 5 -5.4157 -4.3625 -5.8921 0.0000 34.2443 0.0000
# 6 0.0000 0.0000 0.0000 -3.1182 0.0000 19.4217
#
#
#
# Elastic Compliance Matrix: (Units=1/GPa)
#
#
# Indices 1 2 3 4 5 6 
#
# 1 0.012209 -0.004845 -0.001487 0.000000 0.001058 0.000000
# 2 -0.004845 0.018772 -0.001204 0.000000 0.001418 0.000000
# 3 -0.001487 -0.001204 0.015791 0.000000 0.002328 0.000000
# 4 0.000000 0.000000 0.000000 0.056835 0.000000 0.009125
# 5 0.001058 0.001418 0.002328 0.000000 0.029951 0.000000
# 6 0.000000 0.000000 0.000000 0.009125 0.000000 0.052954
#
#
# Mechanical properties :
#
#
# Convention : Reuss Voigt Hill
#
# Bulk Modulus (GPa) = 31.54532 34.39615 32.97074
# Shear Modulus (GPa) = 23.56825 26.06979 24.81902
#
# Velocity S-wave (km/s) = 3.52624 3.70866 3.61860
# Velocity P-wave (km/s) = 5.76386 6.04035 5.90373
#
# Compressibility (1/GPa) = 0.03170042
#
# Stress axis : x y z
#
# Youngs Moduli (GPa) = 81.90909 53.26975 63.32720
#
# Poissons Ratio (x) = 0.25807 0.09416
# Poissons Ratio (y) = 0.39681 0.07627
# Poissons Ratio (z) = 0.12179 0.06416
#
# Static dielectric constant tensor:
#      x y z
#    x 3.643200 0.000000 0.051890 
#    y 0.000000 3.648800 0.000000 
#    z 0.051890 0.000000 3.516560 
# 
# 
# High freq. dielectric constant tensor:
#      x y z
#    x 1.741520 0.000000 -0.003140 
#    y 0.000000 1.725190 0.000000 
#    z -0.003140 0.000000 1.747780 
# 
# From -- ./inp_files/335631.got.cif
#   From: 2010.06.25/outbox.cif.g09.slc.cpg/sg12_168_cif.got.tgz:335631.got - 2010.06.28 00:19:55.
