data_PCOD8094807
_publ_section_title
;
Structure prediction by ZEFSAII (Michael W. Deem and Ramdas Pophale) SiO2 
 PCOD8094807
Probable space group: C 2/M
;
_chemical_formula_sum "Si O2"
_cell_formula_units_Z 44
_cell_length_a 14.633268
_cell_length_b 15.873997
_cell_length_c 9.344447
_cell_angle_alpha 90.000000
_cell_angle_beta 72.133289
_cell_angle_gamma 90.000000
_cell_volume 2065.924867
_symmetry_space_group_name_H-M "C 2/M"
_symmetry_group_IT_number 12
_symmetry_cell_setting 'monoclinic'
loop_
_space_group_symop_operation_xyz
x,y,z
-x,y,-z
-x,-y,-z
x,-y,z
1/2+x,1/2+y,z
1/2-x,1/2+y,-z
1/2-x,1/2-y,-z
1/2+x,1/2-y,z
loop_
_atom_site_type_symbol
_atom_site_label
_atom_site_fract_x
_atom_site_fract_y
_atom_site_fract_z
Si Si1 0.000000 0.823703 0.500000
Si Si2 0.850459 0.899696 0.108354
Si Si3 0.474697 0.598549 0.794231
Si Si4 0.531571 0.900166 0.823513
Si Si5 0.854425 0.400798 0.712478
Si Si6 0.351295 0.797467 0.437984
O O1 0.053396 0.880502 0.355599
O O2 0.071685 0.772219 0.561976
O O3 0.744242 0.861159 0.177660
O O4 0.919268 0.869385 0.206357
O O5 0.843280 0.000000 0.109592
O O6 0.893567 0.863998 0.938843
O O7 0.474261 0.500000 0.815796
O O8 0.444030 0.870682 0.763941
O O9 0.623317 0.843168 0.727255
O O10 0.555378 0.000000 0.799579
O O11 0.500000 0.877671 0.000000
O O12 0.849956 0.500000 0.715785
O O13 0.863740 0.372267 0.545436
O O14 0.250000 0.750000 0.500000
#
# Coordination Sequence:
#
# PCOD8094807 Si02
#       6
#     4   8   8   8   8   8
#     4  12  23  38  53  86 122 162 204 246 317 372
#     4   8  16  33  59  88 111 151 210 257 301 357
#     4   9  18  35  56  82 123 166 208 250 296 375
#     4  10  22  44  71  94 121 164 222 278 318 372
#     4  10  19  39  68  90 117 161 214 262 313 375
#     4  12  25  42  59  93 131 165 204 258 325 390
#
# _framework density 21.297967
#
# number of rings (size 3 to 8) (size 9 to 14) (size 15 to 20)
#    0.000    2.000    1.818    3.000    0.000    2.909 
#    6.545    6.364    0.000    0.000    0.000    0.000 
#    0.000    0.000    0.000    0.000    0.000    0.000 
#
# Total GULP energy -272605.502196 kJ/mol
# GULP energy per Si atom -12391.159191 kJ/mol
# Density = 2.124949 g / cm^3
# Si number density = 21.297967 Si / 1000 Ang^3
#
#
#
# Elastic Constant Matrix: (Units=GPa)
#
#
# Indices 1 2 3 4 5 6 
#
# 1 70.4140 33.3959 41.8975 0.0000 -15.2783 0.0000
# 2 33.3959 25.0343 37.8089 0.0000 -4.4073 0.0000
# 3 41.8975 37.8089 170.6718 0.0000 -1.7938 0.0000
# 4 0.0000 0.0000 0.0000 24.4170 0.0000 -3.2607
# 5 -15.2783 -4.4073 -1.7938 0.0000 31.1208 0.0000
# 6 0.0000 0.0000 0.0000 -3.2607 0.0000 26.3225
#
#
#
# Elastic Compliance Matrix: (Units=1/GPa)
#
#
# Indices 1 2 3 4 5 6 
#
# 1 0.044417 -0.061092 0.002770 0.000000 0.013314 0.000000
# 2 -0.061092 0.145978 -0.017450 0.000000 -0.010324 0.000000
# 3 0.002770 -0.017450 0.009039 0.000000 -0.000590 0.000000
# 4 0.000000 0.000000 0.000000 0.041644 0.000000 0.005159
# 5 0.013314 -0.010324 -0.000590 0.000000 0.037173 0.000000
# 6 0.000000 0.000000 0.000000 0.005159 0.000000 0.038629
#
#
# Mechanical properties :
#
#
# Convention : Reuss Voigt Hill
#
# Bulk Modulus (GPa) = 20.88097 54.70275 37.79186
# Shear Modulus (GPa) = 10.32234 26.57326 18.44780
#
# Velocity S-wave (km/s) = 2.20389 3.53610 2.94628
# Velocity P-wave (km/s) = 4.03754 6.51247 5.41821
#
# Compressibility (1/GPa) = 0.04789049
#
# Stress axis : x y z
#
# Youngs Moduli (GPa) = 22.51401 6.85034 110.63507
#
# Poissons Ratio (x) = 0.41850 -0.30644
# Poissons Ratio (y) = 1.37542 1.93058
# Poissons Ratio (z) = -0.06236 0.11954
#
# Static dielectric constant tensor:
#      x y z
#    x 4.042730 0.000000 -0.193840 
#    y 0.000000 3.648160 0.000000 
#    z -0.193840 0.000000 4.452870 
# 
# 
# High freq. dielectric constant tensor:
#      x y z
#    x 1.821020 0.000000 -0.011160 
#    y 0.000000 1.821230 0.000000 
#    z -0.011160 0.000000 1.849610 
# 
# From -- ./inp_files/60990.got.cif
#   From: 2010.06.25/outbox.cif.g09.slc.cpg/sg12_31_cif.got.tgz:60990.got - 2010.06.28 00:19:55.
