data_PCOD8094505
_publ_section_title
;
Structure prediction by ZEFSAII (Michael W. Deem and Ramdas Pophale) SiO2 
 PCOD8094505
Probable space group: C 2/M
;
_chemical_formula_sum "Si O2"
_cell_formula_units_Z 56
_cell_length_a 25.203680
_cell_length_b 25.287047
_cell_length_c 9.950679
_cell_angle_alpha 90.000000
_cell_angle_beta 155.483893
_cell_angle_gamma 90.000000
_cell_volume 2631.537407
_symmetry_space_group_name_H-M "C 2/M"
_symmetry_group_IT_number 12
_symmetry_cell_setting 'monoclinic'
loop_
_space_group_symop_operation_xyz
x,y,z
-x,y,-z
-x,-y,-z
x,-y,z
1/2+x,1/2+y,z
1/2-x,1/2+y,-z
1/2-x,1/2-y,-z
1/2+x,1/2-y,z
loop_
_atom_site_type_symbol
_atom_site_label
_atom_site_fract_x
_atom_site_fract_y
_atom_site_fract_z
Si Si1 0.942873 0.711461 0.726914
Si Si2 0.537866 0.297571 0.442559
Si Si3 0.949680 0.366748 0.235566
Si Si4 0.175955 0.559680 0.715208
Si Si5 0.190095 0.103848 0.737734
Si Si6 0.450407 0.557783 0.032375
Si Si7 0.704894 0.359729 0.205818
O O1 0.827623 0.675611 0.516521
O O2 0.900892 0.758423 0.528688
O O3 0.036079 0.677084 0.847787
O O4 0.000000 0.733214 0.000000
O O5 0.500000 0.271387 0.500000
O O6 0.642611 0.343612 0.708703
O O7 0.407874 0.319459 0.082412
O O8 0.000000 0.347438 0.500000
O O9 0.031174 0.418544 0.382191
O O10 0.798784 0.378667 0.882161
O O11 0.173317 0.500000 0.653131
O O12 0.270706 0.597916 0.854159
O O13 0.237578 0.560879 0.004498
O O14 0.067492 0.076579 0.393265
O O15 0.402425 0.500000 0.973635
O O16 0.500000 0.550892 0.000000
O O17 0.337374 0.601639 0.769275
#
# Coordination Sequence:
#
# PCOD8094505 Si02
#       7
#     8   8   8   8   8   8   8
#     4  11  26  42  64  89 121 169 213 257 314 367
#     4  11  23  41  65  91 122 163 208 256 317 371
#     4   9  21  40  61  93 128 163 206 253 307 363
#     4  10  19  37  66  97 126 159 201 254 309 366
#     4  10  21  37  63  93 126 162 201 257 305 368
#     4  10  22  38  60  90 126 170 205 249 309 368
#     4  10  23  42  62  90 125 160 206 256 312 364
#
# _framework density 21.280334
#
# number of rings (size 3 to 8) (size 9 to 14) (size 15 to 20)
#    0.000    1.857    1.429    1.286    4.000    6.571 
#    0.000    2.143    0.000    2.143    0.000    0.000 
#    0.000    0.000    0.000    0.000    0.000    0.000 
#
# Total GULP energy -346882.661964 kJ/mol
# GULP energy per Si atom -12388.666499 kJ/mol
# Density = 2.123190 g / cm^3
# Si number density = 21.280334 Si / 1000 Ang^3
#
#
#
# Elastic Constant Matrix: (Units=GPa)
#
#
# Indices 1 2 3 4 5 6 
#
# 1 83.7133 38.3131 19.0953 0.0000 0.5926 0.0000
# 2 38.3131 107.9652 23.9190 0.0000 -1.1699 0.0000
# 3 19.0953 23.9190 34.8363 0.0000 12.7666 0.0000
# 4 0.0000 0.0000 0.0000 15.5043 0.0000 1.6019
# 5 0.5926 -1.1699 12.7666 0.0000 34.7809 0.0000
# 6 0.0000 0.0000 0.0000 1.6019 0.0000 32.1898
#
#
#
# Elastic Compliance Matrix: (Units=1/GPa)
#
#
# Indices 1 2 3 4 5 6 
#
# 1 0.015187 -0.003973 -0.006301 0.000000 0.001920 0.000000
# 2 -0.003973 0.012369 -0.007501 0.000000 0.003237 0.000000
# 3 -0.006301 -0.007501 0.043170 0.000000 -0.015991 0.000000
# 4 0.000000 0.000000 0.000000 0.064832 0.000000 -0.003226
# 5 0.001920 0.003237 -0.015991 0.000000 0.034697 0.000000
# 6 0.000000 0.000000 0.000000 -0.003226 0.000000 0.031226
#
#
# Mechanical properties :
#
#
# Convention : Reuss Voigt Hill
#
# Bulk Modulus (GPa) = 28.42802 43.24106 35.83454
# Shear Modulus (GPa) = 20.09988 26.17414 23.13701
#
# Velocity S-wave (km/s) = 3.07665 3.51090 3.30092
# Velocity P-wave (km/s) = 5.09989 6.06622 5.60392
#
# Compressibility (1/GPa) = 0.03517656
#
# Stress axis : x y z
#
# Youngs Moduli (GPa) = 65.84399 80.84726 23.16406
#
# Poissons Ratio (x) = 0.32119 0.14596
# Poissons Ratio (y) = 0.26158 0.17376
# Poissons Ratio (z) = 0.41488 0.60647
#
# Static dielectric constant tensor:
#      x y z
#    x 4.040240 0.000000 0.237830 
#    y 0.000000 4.144010 0.000000 
#    z 0.237830 0.000000 3.669810 
# 
# 
# High freq. dielectric constant tensor:
#      x y z
#    x 1.837910 0.000000 0.021080 
#    y 0.000000 1.837410 0.000000 
#    z 0.021080 0.000000 1.815760 
# 
# From -- ./inp_files/190407.got.cif
#   From: 2010.06.25/outbox.cif.g09.slc.cpg/sg12_96_cif.got.tgz:190407.got - 2010.06.28 00:19:55.
