data_PCOD8094199
_publ_section_title
;
Structure prediction by ZEFSAII (Michael W. Deem and Ramdas Pophale) SiO2 
 PCOD8094199
Probable space group: C 2/M
;
_chemical_formula_sum "Si O2"
_cell_formula_units_Z 48
_cell_length_a 5.083022
_cell_length_b 25.021476
_cell_length_c 23.284857
_cell_angle_alpha 90.000000
_cell_angle_beta 129.384827
_cell_angle_gamma 90.000000
_cell_volume 2288.931076
_symmetry_space_group_name_H-M "C 2/M"
_symmetry_group_IT_number 12
_symmetry_cell_setting 'monoclinic'
loop_
_space_group_symop_operation_xyz
x,y,z
-x,y,-z
-x,-y,-z
x,-y,z
1/2+x,1/2+y,z
1/2-x,1/2+y,-z
1/2-x,1/2-y,-z
1/2+x,1/2-y,z
loop_
_atom_site_type_symbol
_atom_site_label
_atom_site_fract_x
_atom_site_fract_y
_atom_site_fract_z
Si Si1 0.778984 0.561957 0.257157
Si Si2 0.762072 0.785591 0.914324
Si Si3 0.767313 0.181714 0.579710
Si Si4 0.719433 0.888495 0.416812
Si Si5 0.044335 0.776646 0.721834
Si Si6 0.131512 0.378936 0.203749
O O1 0.792482 0.500000 0.244213
O O2 0.380391 0.577072 0.210450
O O3 0.037730 0.571375 0.346434
O O4 0.886007 0.594287 0.215518
O O5 0.481762 0.742103 0.894689
O O6 0.584854 0.840893 0.869257
O O7 0.000000 0.802696 0.000000
O O8 0.500000 0.208996 0.500000
O O9 0.583160 0.132234 0.585357
O O10 0.105646 0.159468 0.595122
O O11 0.837536 0.230576 0.633907
O O12 0.000000 0.915008 0.500000
O O13 0.386872 0.742077 0.760225
O O14 0.105571 0.839605 0.728309
#
# Coordination Sequence:
#
# PCOD8094199 Si02
#       6
#     8   8   8   8   8   8
#     4  12  24  40  63  88 116 160 210 254 309 362
#     4  10  21  40  68 102 132 162 198 234 287 360
#     4  10  20  35  53  74 110 151 191 245 301 357
#     4  10  19  37  58  78 108 150 202 262 315 349
#     4  12  22  33  55  82 111 150 192 227 290 363
#     4  12  23  41  61  89 127 155 192 254 305 347
#
# _framework density 20.970488
#
# number of rings (size 3 to 8) (size 9 to 14) (size 15 to 20)
#    0.000    1.000    3.333    4.500    0.000    1.000 
#    0.000    0.000    0.000    8.000    0.000    0.000 
#    0.000    0.000    0.000    0.000    0.000    0.000 
#
# Total GULP energy -297339.631019 kJ/mol
# GULP energy per Si atom -12389.151292 kJ/mol
# Density = 2.092276 g / cm^3
# Si number density = 20.970488 Si / 1000 Ang^3
#
#
#
# Elastic Constant Matrix: (Units=GPa)
#
#
# Indices 1 2 3 4 5 6 
#
# 1 100.5697 10.9782 14.6023 0.0000 -8.9166 0.0000
# 2 10.9782 68.7054 14.5937 0.0000 -1.9707 0.0000
# 3 14.6023 14.5937 97.3112 0.0000 12.9111 0.0000
# 4 0.0000 0.0000 0.0000 26.9517 0.0000 5.0393
# 5 -8.9166 -1.9707 12.9111 0.0000 27.5615 0.0000
# 6 0.0000 0.0000 0.0000 5.0393 0.0000 30.5663
#
#
#
# Elastic Compliance Matrix: (Units=1/GPa)
#
#
# Indices 1 2 3 4 5 6 
#
# 1 0.010747 -0.001165 -0.002013 0.000000 0.004337 0.000000
# 2 -0.001165 0.015295 -0.002361 0.000000 0.001823 0.000000
# 3 -0.002013 -0.002361 0.011773 0.000000 -0.006335 0.000000
# 4 0.000000 0.000000 0.000000 0.038284 0.000000 -0.006312
# 5 0.004337 0.001823 -0.006335 0.000000 0.040784 0.000000
# 6 0.000000 0.000000 0.000000 -0.006312 0.000000 0.033756
#
#
# Mechanical properties :
#
#
# Convention : Reuss Voigt Hill
#
# Bulk Modulus (GPa) = 37.40198 38.54831 37.97514
# Shear Modulus (GPa) = 29.30324 32.11002 30.70663
#
# Velocity S-wave (km/s) = 3.74218 3.91730 3.83074
# Velocity P-wave (km/s) = 6.04534 6.23558 6.14119
#
# Compressibility (1/GPa) = 0.02673655
#
# Stress axis : x y z
#
# Youngs Moduli (GPa) = 93.04582 65.38171 84.94005
#
# Poissons Ratio (x) = 0.07619 0.17102
# Poissons Ratio (y) = 0.10842 0.20052
# Poissons Ratio (z) = 0.18734 0.15435
#
# Static dielectric constant tensor:
#      x y z
#    x 4.075480 0.000000 0.048220 
#    y 0.000000 3.352520 0.000000 
#    z 0.048220 0.000000 4.151580 
# 
# 
# High freq. dielectric constant tensor:
#      x y z
#    x 1.848690 0.000000 0.001450 
#    y 0.000000 1.781350 0.000000 
#    z 0.001450 0.000000 1.827780 
# 
# From -- ./inp_files/331294.got.cif
#   From: 2010.06.25/outbox.cif.g09.slc.cpg/sg12_166_cif.got.tgz:331294.got - 2010.06.28 00:19:55.
