data_PCOD8094913
_publ_section_title
;
Structure prediction by ZEFSAII (Michael W. Deem and Ramdas Pophale) SiO2 
 PCOD8094913
Probable space group: C 2/M
;
_chemical_formula_sum "Si O2"
_cell_formula_units_Z 48
_cell_length_a 11.383717
_cell_length_b 16.544888
_cell_length_c 12.725252
_cell_angle_alpha 90.000000
_cell_angle_beta 111.067994
_cell_angle_gamma 90.000000
_cell_volume 2236.494644
_symmetry_space_group_name_H-M "C 2/M"
_symmetry_group_IT_number 12
_symmetry_cell_setting 'monoclinic'
loop_
_space_group_symop_operation_xyz
x,y,z
-x,y,-z
-x,-y,-z
x,-y,z
1/2+x,1/2+y,z
1/2-x,1/2+y,-z
1/2-x,1/2-y,-z
1/2+x,1/2-y,z
loop_
_atom_site_type_symbol
_atom_site_label
_atom_site_fract_x
_atom_site_fract_y
_atom_site_fract_z
Si Si1 0.361416 0.184803 0.928170
Si Si2 0.443172 0.590947 0.877343
Si Si3 0.987008 0.903483 0.664139
Si Si4 0.439662 0.094845 0.753902
Si Si5 0.692022 0.404721 0.570156
Si Si6 0.796785 0.659410 0.136488
O O1 0.376300 0.115517 0.845520
O O2 0.267111 0.254412 0.856834
O O3 0.500000 0.220982 0.000000
O O4 0.301408 0.144347 0.012532
O O5 0.493664 0.500000 0.890531
O O6 0.484952 0.634646 0.781455
O O7 0.291798 0.592094 0.838854
O O8 0.500000 0.635028 0.000000
O O9 0.863739 0.873053 0.558624
O O10 0.110335 0.871626 0.642812
O O11 0.981870 0.000000 0.672903
O O12 0.338676 0.118224 0.630792
O O13 0.563382 0.148684 0.770677
O O14 0.473284 0.000000 0.764056
O O15 0.674299 0.500000 0.568495
#
# Coordination Sequence:
#
# PCOD8094913 Si02
#       6
#     8   8   8   8   8   8
#     4   9  20  36  53  74 107 155 194 219 267 344
#     4  10  20  30  48  80 114 145 180 228 282 332
#     4   8  15  30  49  76 110 145 183 227 273 328
#     4  10  20  34  57  86 108 137 190 245 279 313
#     4   8  15  30  53  77 105 141 188 233 271 319
#     4  10  20  35  51  75 112 149 179 223 281 346
#
# _framework density 21.462157000000001
#
# number of rings (size 3 to 8) (size 9 to 14) (size 15 to 20)
#    0.000    2.833    0.000    2.000    2.333    3.667 
#    0.000    0.833    0.000    5.000    0.000    0.000 
#    0.000    0.000    0.000    0.000    0.000    0.000 
#
# Total GULP energy -297353.805020 kJ/mol
# GULP energy per Si atom -12389.741876 kJ/mol
# Density = 2.141331 g / cm^3
# Si number density = 21.462157 Si / 1000 Ang^3
#
#
#
# Elastic Constant Matrix: (Units=GPa)
#
#
# Indices 1 2 3 4 5 6 
#
# 1 109.2914 18.8167 66.9587 0.0000 13.5064 0.0000
# 2 18.8167 36.8875 15.8684 0.0000 10.3006 0.0000
# 3 66.9587 15.8684 150.0655 0.0000 5.9265 0.0000
# 4 0.0000 0.0000 0.0000 11.2562 0.0000 3.9858
# 5 13.5064 10.3006 5.9265 0.0000 42.7482 0.0000
# 6 0.0000 0.0000 0.0000 3.9858 0.0000 31.5965
#
#
#
# Elastic Compliance Matrix: (Units=1/GPa)
#
#
# Indices 1 2 3 4 5 6 
#
# 1 0.013506 -0.003791 -0.005523 0.000000 -0.002588 0.000000
# 2 -0.003791 0.031360 -0.001381 0.000000 -0.006167 0.000000
# 3 -0.005523 -0.001381 0.009243 0.000000 0.000796 0.000000
# 4 0.000000 0.000000 0.000000 0.092994 0.000000 -0.011731
# 5 -0.002588 -0.006167 0.000796 0.000000 0.025586 0.000000
# 6 0.000000 0.000000 0.000000 -0.011731 0.000000 0.033129
#
#
# Mechanical properties :
#
#
# Convention : Reuss Voigt Hill
#
# Bulk Modulus (GPa) = 30.56417 55.50355 43.03386
# Shear Modulus (GPa) = 20.99832 30.09354 25.54593
#
# Velocity S-wave (km/s) = 3.13131 3.74862 3.45378
# Velocity P-wave (km/s) = 5.22928 6.68232 5.99995
#
# Compressibility (1/GPa) = 0.03271804
#
# Stress axis : x y z
#
# Youngs Moduli (GPa) = 74.03907 31.88824 108.19156
#
# Poissons Ratio (x) = 0.12089 0.59759
# Poissons Ratio (y) = 0.28068 0.14941
# Poissons Ratio (z) = 0.40895 0.04404
#
# Static dielectric constant tensor:
#      x y z
#    x 4.015720 0.000000 0.125750 
#    y 0.000000 3.291450 0.000000 
#    z 0.125750 0.000000 4.196160 
# 
# 
# High freq. dielectric constant tensor:
#      x y z
#    x 1.846530 0.000000 0.009500 
#    y 0.000000 1.795840 0.000000 
#    z 0.009500 0.000000 1.833460 
# 
# From -- ./inp_files/131749.got.cif
#   From: 2010.06.25/outbox.cif.g09.slc.cpg/sg12_66_cif.got.tgz:131749.got - 2010.06.28 00:19:55.
