data_PCOD8094173
_publ_section_title
;
Structure prediction by ZEFSAII (Michael W. Deem and Ramdas Pophale) SiO2 
 PCOD8094173
Probable space group: C 2/M
;
_chemical_formula_sum "Si O2"
_cell_formula_units_Z 40
_cell_length_a 8.369334
_cell_length_b 15.115210
_cell_length_c 20.859796
_cell_angle_alpha 90.000000
_cell_angle_beta 131.091302
_cell_angle_gamma 90.000000
_cell_volume 1988.806084
_symmetry_space_group_name_H-M "C 2/M"
_symmetry_group_IT_number 12
_symmetry_cell_setting 'monoclinic'
loop_
_space_group_symop_operation_xyz
x,y,z
-x,y,-z
-x,-y,-z
x,-y,z
1/2+x,1/2+y,z
1/2-x,1/2+y,-z
1/2-x,1/2-y,-z
1/2+x,1/2-y,z
loop_
_atom_site_type_symbol
_atom_site_label
_atom_site_fract_x
_atom_site_fract_y
_atom_site_fract_z
Si Si1 0.253598 0.681733 0.443759
Si Si2 0.081529 0.675492 0.750424
Si Si3 0.325381 0.000000 0.899886
Si Si4 0.005698 0.142883 0.784358
Si Si5 0.790180 0.000000 0.488055
Si Si6 0.057551 0.500000 0.215890
Si Si7 0.524482 0.500000 0.329562
O O1 0.500000 0.665143 0.500000
O O2 0.250000 0.750000 0.500000
O O3 0.122737 0.707053 0.345899
O O4 0.151241 0.587024 0.436314
O O5 0.117876 0.762408 0.802917
O O6 0.049586 0.589159 0.785819
O O7 0.287101 0.657030 0.763137
O O8 0.176294 0.086026 0.869606
O O9 0.441476 0.000000 0.861265
O O10 0.500000 0.000000 0.000000
O O11 0.951424 0.089350 0.705258
O O12 0.000000 0.000000 0.500000
O O13 0.812089 0.000000 0.570285
O O14 0.296554 0.500000 0.304499
#
# Coordination Sequence:
#
# PCOD8094173 Si02
#       7
#     8   8   4   8   4   4   4
#     4  11  22  35  53  81 118 163 208 260 296 326
#     4  12  21  39  60  91 124 165 214 245 293 369
#     4  10  23  46  69  96 121 144 189 251 314 380
#     4  10  22  38  63  88 119 159 197 247 303 369
#     4  10  20  33  50  74 109 155 202 252 305 340
#     4  10  20  36  63  88 120 162 196 248 305 363
#     4  10  19  37  55  82 115 159 209 255 305 361
#
# _framework density 20.112570000000002
#
# number of rings (size 3 to 8) (size 9 to 14) (size 15 to 20)
#    0.000    1.600    0.000    9.000    0.000    0.000 
#    0.000    7.500    0.000    0.000    0.000    0.000 
#    0.000    0.000    0.000    0.000    0.000    0.000 
#
# Total GULP energy -247833.737041 kJ/mol
# GULP energy per Si atom -12391.686852 kJ/mol
# Density = 2.006679 g / cm^3
# Si number density = 20.112570 Si / 1000 Ang^3
#
#
#
# Elastic Constant Matrix: (Units=GPa)
#
#
# Indices 1 2 3 4 5 6 
#
# 1 104.9514 51.8667 18.8543 0.0000 3.4875 0.0000
# 2 51.8667 185.5635 21.7619 0.0000 -0.7626 0.0000
# 3 18.8543 21.7619 104.0068 0.0000 8.6781 0.0000
# 4 0.0000 0.0000 0.0000 11.6101 0.0000 -0.7382
# 5 3.4875 -0.7626 8.6781 0.0000 21.4217 0.0000
# 6 0.0000 0.0000 0.0000 -0.7382 0.0000 30.3325
#
#
#
# Elastic Compliance Matrix: (Units=1/GPa)
#
#
# Indices 1 2 3 4 5 6 
#
# 1 0.011297 -0.003011 -0.001299 0.000000 -0.001420 0.000000
# 2 -0.003011 0.006337 -0.000869 0.000000 0.001068 0.000000
# 3 -0.001299 -0.000869 0.010368 0.000000 -0.004019 0.000000
# 4 0.000000 0.000000 0.000000 0.086265 0.000000 0.002099
# 5 -0.001420 0.001068 -0.004019 0.000000 0.048579 0.000000
# 6 0.000000 0.000000 0.000000 0.002099 0.000000 0.033019
#
#
# Mechanical properties :
#
#
# Convention : Reuss Voigt Hill
#
# Bulk Modulus (GPa) = 56.68249 64.38750 60.53499
# Shear Modulus (GPa) = 23.57327 32.80879 28.19103
#
# Velocity S-wave (km/s) = 3.42726 4.04327 3.74794
# Velocity P-wave (km/s) = 6.62611 7.34033 6.99234
#
# Compressibility (1/GPa) = 0.01764213
#
# Stress axis : x y z
#
# Youngs Moduli (GPa) = 88.51996 157.80536 96.45492
#
# Poissons Ratio (x) = 0.47516 0.12533
# Poissons Ratio (y) = 0.26654 0.08384
# Poissons Ratio (z) = 0.11502 0.13716
#
# Static dielectric constant tensor:
#      x y z
#    x 3.601110 0.000000 -0.049040 
#    y 0.000000 2.304300 0.000000 
#    z -0.049040 0.000000 3.276000 
# 
# 
# High freq. dielectric constant tensor:
#      x y z
#    x 1.787350 0.000000 -0.006600 
#    y 0.000000 1.817750 0.000000 
#    z -0.006600 0.000000 1.744400 
# 
# From -- ./inp_files/299992.got.cif
#   From: 2010.06.25/outbox.cif.g09.slc.cpg/sg12_150_cif.got.tgz:299992.got - 2010.06.28 00:19:55.
