data_PCOD8094763
_publ_section_title
;
Structure prediction by ZEFSAII (Michael W. Deem and Ramdas Pophale) SiO2 
 PCOD8094763
Probable space group: C 2/M
;
_chemical_formula_sum "Si O2"
_cell_formula_units_Z 40
_cell_length_a 8.928409
_cell_length_b 27.428011
_cell_length_c 14.899352
_cell_angle_alpha 90.000000
_cell_angle_beta 150.258552
_cell_angle_gamma 90.000000
_cell_volume 1810.062371
_symmetry_space_group_name_H-M "C 2/M"
_symmetry_group_IT_number 12
_symmetry_cell_setting 'monoclinic'
loop_
_space_group_symop_operation_xyz
x,y,z
-x,y,-z
-x,-y,-z
x,-y,z
1/2+x,1/2+y,z
1/2-x,1/2+y,-z
1/2-x,1/2-y,-z
1/2+x,1/2-y,z
loop_
_atom_site_type_symbol
_atom_site_label
_atom_site_fract_x
_atom_site_fract_y
_atom_site_fract_z
Si Si1 0.323578 0.113941 0.819385
Si Si2 0.900014 0.788179 0.349419
Si Si3 0.350717 0.096062 0.193226
Si Si4 0.480060 0.816171 0.392116
Si Si5 0.783199 0.445575 0.469073
O O1 0.336717 0.172414 0.812506
O O2 0.491531 0.091785 0.821041
O O3 0.982709 0.093716 0.653176
O O4 0.500000 0.098535 0.000000
O O5 0.765335 0.732664 0.277157
O O6 0.000000 0.805307 0.500000
O O7 0.191283 0.792517 0.439362
O O8 0.390771 0.147847 0.265611
O O9 0.505443 0.054421 0.333166
O O10 0.000000 0.084708 0.000000
O O11 0.500000 0.842692 0.500000
O O12 0.648745 0.500000 0.385978
O O13 0.000000 0.430635 0.500000
#
# Coordination Sequence:
#
# PCOD8094763 Si02
#       5
#     8   8   8   8   8
#     4  12  25  42  67  97 133 172 218 266 319 385
#     4  10  19  39  62  93 128 175 221 267 317 377
#     4  12  25  42  65  99 134 172 218 263 321 382
#     4  10  21  36  65  92 130 174 220 268 318 375
#     4  11  25  48  74  98 126 162 208 267 334 393
#
# _framework density 22.098685
#
# number of rings (size 3 to 8) (size 9 to 14) (size 15 to 20)
#    0.000    1.000    4.000    2.400    2.800    3.200 
#    0.000    2.000    0.000    0.000    0.000    0.000 
#    0.000    0.000    0.000    0.000    0.000    0.000 
#
# Total GULP energy -247799.824829 kJ/mol
# GULP energy per Si atom -12389.991241 kJ/mol
# Density = 2.204839 g / cm^3
# Si number density = 22.098685 Si / 1000 Ang^3
#
#
#
# Elastic Constant Matrix: (Units=GPa)
#
#
# Indices 1 2 3 4 5 6 
#
# 1 172.5938 18.9754 49.3310 0.0000 -17.1078 0.0000
# 2 18.9754 101.2589 9.9506 0.0000 -3.2715 0.0000
# 3 49.3310 9.9506 105.6010 0.0000 -10.1519 0.0000
# 4 0.0000 0.0000 0.0000 14.8649 0.0000 -3.1214
# 5 -17.1078 -3.2715 -10.1519 0.0000 39.3910 0.0000
# 6 0.0000 0.0000 0.0000 -3.1214 0.0000 12.5791
#
#
#
# Elastic Compliance Matrix: (Units=1/GPa)
#
#
# Indices 1 2 3 4 5 6 
#
# 1 0.006958 -0.000943 -0.002951 0.000000 0.002183 0.000000
# 2 -0.000943 0.010110 -0.000483 0.000000 0.000306 0.000000
# 3 -0.002951 -0.000483 0.011040 0.000000 0.001523 0.000000
# 4 0.000000 0.000000 0.000000 0.070970 0.000000 0.017611
# 5 0.002183 0.000306 0.001523 0.000000 0.026752 0.000000
# 6 0.000000 0.000000 0.000000 0.017611 0.000000 0.083867
#
#
# Mechanical properties :
#
#
# Convention : Reuss Voigt Hill
#
# Bulk Modulus (GPa) = 51.67178 59.55198 55.61188
# Shear Modulus (GPa) = 22.23180 33.44677 27.83929
#
# Velocity S-wave (km/s) = 3.17523 3.89462 3.55318
# Velocity P-wave (km/s) = 6.07255 6.87246 6.48485
#
# Compressibility (1/GPa) = 0.01935292
#
# Stress axis : x y z
#
# Youngs Moduli (GPa) = 143.72744 98.91457 90.57712
#
# Poissons Ratio (x) = 0.09330 0.26734
# Poissons Ratio (y) = 0.13557 0.04371
# Poissons Ratio (z) = 0.42421 0.04774
#
# Static dielectric constant tensor:
#      x y z
#    x 4.358150 0.000000 -0.100250 
#    y 0.000000 4.176660 0.000000 
#    z -0.100250 0.000000 3.689060 
# 
# 
# High freq. dielectric constant tensor:
#      x y z
#    x 1.893510 0.000000 -0.009400 
#    y 0.000000 1.875640 0.000000 
#    z -0.009400 0.000000 1.833540 
# 
# From -- ./inp_files/68761.got.cif
#   From: 2010.06.25/outbox.cif.g09.slc.cpg/sg12_35_cif.got.tgz:68761.got - 2010.06.28 00:19:55.
