data_PCOD8094716
_publ_section_title
;
Structure prediction by ZEFSAII (Michael W. Deem and Ramdas Pophale) SiO2 
 PCOD8094716
Probable space group: C 2/M
;
_chemical_formula_sum "Si O2"
_cell_formula_units_Z 56
_cell_length_a 21.283540
_cell_length_b 8.765224
_cell_length_c 19.265037
_cell_angle_alpha 90.000000
_cell_angle_beta 126.645447
_cell_angle_gamma 90.000000
_cell_volume 2883.616493
_symmetry_space_group_name_H-M "C 2/M"
_symmetry_group_IT_number 12
_symmetry_cell_setting 'monoclinic'
loop_
_space_group_symop_operation_xyz
x,y,z
-x,y,-z
-x,-y,-z
x,-y,z
1/2+x,1/2+y,z
1/2-x,1/2+y,-z
1/2-x,1/2-y,-z
1/2+x,1/2-y,z
loop_
_atom_site_type_symbol
_atom_site_label
_atom_site_fract_x
_atom_site_fract_y
_atom_site_fract_z
Si Si1 0.198937 0.820284 0.527852
Si Si2 0.530344 0.819870 0.444135
Si Si3 0.246025 0.677937 0.697885
Si Si4 0.375219 0.180499 0.268222
Si Si5 0.563623 0.824522 0.959739
Si Si6 0.677042 0.823535 0.913776
Si Si7 0.404353 0.323747 0.881895
O O1 0.250000 0.750000 0.500000
O O2 0.110237 0.758934 0.472779
O O3 0.243778 0.777755 0.627626
O O4 0.195902 0.000000 0.515473
O O5 0.500000 0.765259 0.500000
O O6 0.464769 0.773474 0.343898
O O7 0.545473 0.000000 0.456240
O O8 0.233398 0.500000 0.671497
O O9 0.178676 0.739040 0.704638
O O10 0.328300 0.709488 0.787529
O O11 0.343802 0.251198 0.174855
O O12 0.368119 0.000000 0.258103
O O13 0.600491 0.795974 0.909319
O O14 0.473892 0.774277 0.894888
O O15 0.568667 0.000000 0.985544
O O16 0.610091 0.726495 0.048086
O O17 0.697319 0.000000 0.918139
O O18 0.750000 0.750000 0.000000
O O19 0.427951 0.500000 0.896114
#
# Coordination Sequence:
#
# PCOD8094716 Si02
#       7
#     8   8   8   8   8   8   8
#     4  12  26  42  62  89 124 158 197 249 305 364
#     4  10  19  38  67  91 118 158 202 246 300 364
#     4  10  20  38  61  86 114 149 196 243 295 359
#     4   9  18  35  61  87 114 154 196 235 289 359
#     4  10  20  34  52  78 117 155 193 238 292 352
#     4  10  21  36  55  82 115 152 191 237 289 343
#     4  10  20  34  58  83 109 149 198 243 290 350
#
# _framework density 19.420058000000001
#
# number of rings (size 3 to 8) (size 9 to 14) (size 15 to 20)
#    0.000    1.857    1.429    3.857    0.000    4.857 
#    0.000    2.857    0.000    0.000    0.000    0.000 
#    0.000    0.000    0.000    0.000    0.000    0.000 
#
# Total GULP energy -347187.136447 kJ/mol
# GULP energy per Si atom -12399.540587 kJ/mol
# Density = 1.937586 g / cm^3
# Si number density = 19.420058 Si / 1000 Ang^3
#
#
#
# Elastic Constant Matrix: (Units=GPa)
#
#
# Indices 1 2 3 4 5 6 
#
# 1 138.2827 51.4883 73.4274 0.0000 -7.1862 0.0000
# 2 51.4883 61.1092 40.6251 0.0000 1.1941 0.0000
# 3 73.4274 40.6251 152.0841 0.0000 0.6493 0.0000
# 4 0.0000 0.0000 0.0000 29.6779 0.0000 1.4319
# 5 -7.1862 1.1941 0.6493 0.0000 25.6212 0.0000
# 6 0.0000 0.0000 0.0000 1.4319 0.0000 24.9357
#
#
#
# Elastic Compliance Matrix: (Units=1/GPa)
#
#
# Indices 1 2 3 4 5 6 
#
# 1 0.012496 -0.008006 -0.003912 0.000000 0.003977 0.000000
# 2 -0.008006 0.025043 -0.002810 0.000000 -0.003342 0.000000
# 3 -0.003912 -0.002810 0.009220 0.000000 -0.001200 0.000000
# 4 0.000000 0.000000 0.000000 0.033789 0.000000 -0.001940
# 5 0.003977 -0.003342 -0.001200 0.000000 0.040332 0.000000
# 6 0.000000 0.000000 0.000000 -0.001940 0.000000 0.040215
#
#
# Mechanical properties :
#
#
# Convention : Reuss Voigt Hill
#
# Bulk Modulus (GPa) = 57.79140 75.83974 66.81557
# Shear Modulus (GPa) = 25.46890 28.44262 26.95576
#
# Velocity S-wave (km/s) = 3.62536 3.83116 3.72968
# Velocity P-wave (km/s) = 6.88095 7.66208 7.28200
#
# Compressibility (1/GPa) = 0.01730361
#
# Stress axis : x y z
#
# Youngs Moduli (GPa) = 80.02316 39.93101 108.46444
#
# Poissons Ratio (x) = 0.31970 0.42428
# Poissons Ratio (y) = 0.64068 0.30477
# Poissons Ratio (z) = 0.31303 0.11220
#
# Static dielectric constant tensor:
#      x y z
#    x 3.967760 0.000000 -0.027970 
#    y 0.000000 3.438780 0.000000 
#    z -0.027970 0.000000 3.734720 
# 
# 
# High freq. dielectric constant tensor:
#      x y z
#    x 1.763640 0.000000 0.003550 
#    y 0.000000 1.737370 0.000000 
#    z 0.003550 0.000000 1.768280 
# 
# From -- ./inp_files/320224.got.cif
#   From: 2010.06.25/outbox.cif.g09.slc.cpg/sg12_161_cif.got.tgz:320224.got - 2010.06.28 00:19:55.
