data_PCOD8094021
_publ_section_title
;
Structure prediction by ZEFSAII (Michael W. Deem and Ramdas Pophale) SiO2 
 PCOD8094021
Probable space group: C 2/M
;
_chemical_formula_sum "Si O2"
_cell_formula_units_Z 48
_cell_length_a 16.595388
_cell_length_b 17.315442
_cell_length_c 14.597181
_cell_angle_alpha 90.000000
_cell_angle_beta 142.326004
_cell_angle_gamma 90.000000
_cell_volume 2563.601428
_symmetry_space_group_name_H-M "C 2/M"
_symmetry_group_IT_number 12
_symmetry_cell_setting 'monoclinic'
loop_
_space_group_symop_operation_xyz
x,y,z
-x,y,-z
-x,-y,-z
x,-y,z
1/2+x,1/2+y,z
1/2-x,1/2+y,-z
1/2-x,1/2-y,-z
1/2+x,1/2-y,z
loop_
_atom_site_type_symbol
_atom_site_label
_atom_site_fract_x
_atom_site_fract_y
_atom_site_fract_z
Si Si1 0.631329 0.589025 0.672503
Si Si2 0.355542 0.087134 0.399406
Si Si3 0.862243 0.863181 0.929061
Si Si4 0.458706 0.588593 0.206390
Si Si5 0.192856 0.196321 0.372270
Si Si6 0.139832 0.294053 0.151669
O O1 0.500000 0.614006 0.500000
O O2 0.664531 0.500000 0.680653
O O3 0.619545 0.603471 0.770180
O O4 0.749802 0.640928 0.741529
O O5 0.500000 0.115239 0.500000
O O6 0.254146 0.088971 0.223351
O O7 0.310980 0.145163 0.438440
O O8 0.361537 0.000000 0.443279
O O9 0.827069 0.771849 0.894030
O O10 0.866067 0.890288 0.037400
O O11 0.000000 0.880335 0.000000
O O12 0.504124 0.500000 0.240605
O O13 0.587939 0.640236 0.323896
O O14 0.250000 0.250000 0.500000
O O15 0.123900 0.248642 0.233174
O O16 0.000000 0.333593 0.000000
#
# Coordination Sequence:
#
# PCOD8094021 Si02
#       6
#     8   8   8   8   8   8
#     4  10  23  41  61  84 114 158 205 242 278 336
#     4  10  21  37  57  84 120 152 183 234 297 350
#     4  10  19  36  61  92 116 149 188 238 294 356
#     4  11  21  37  63  90 112 150 201 242 282 342
#     4  11  22  36  58  87 115 154 192 238 289 344
#     4  10  20  40  58  85 121 150 189 237 300 342
#
# _framework density 18.723659999999999
#
# number of rings (size 3 to 8) (size 9 to 14) (size 15 to 20)
#    0.000    1.667    5.000    2.000    0.000    7.000 
#    3.000    0.833    0.000    0.000    0.000    0.000 
#    0.000    0.000    0.000    0.000    0.000    0.000 
#
# Total GULP energy -297614.536267 kJ/mol
# GULP energy per Si atom -12400.605678 kJ/mol
# Density = 1.868104 g / cm^3
# Si number density = 18.723660 Si / 1000 Ang^3
#
#
#
# Elastic Constant Matrix: (Units=GPa)
#
#
# Indices 1 2 3 4 5 6 
#
# 1 43.1320 33.5516 32.3269 0.0000 -3.6613 0.0000
# 2 33.5516 98.9885 47.5922 0.0000 7.2604 0.0000
# 3 32.3269 47.5922 109.4277 0.0000 5.4174 0.0000
# 4 0.0000 0.0000 0.0000 29.4409 0.0000 -2.2921
# 5 -3.6613 7.2604 5.4174 0.0000 40.6085 0.0000
# 6 0.0000 0.0000 0.0000 -2.2921 0.0000 24.9028
#
#
#
# Elastic Compliance Matrix: (Units=1/GPa)
#
#
# Indices 1 2 3 4 5 6 
#
# 1 0.036128 -0.009361 -0.006891 0.000000 0.005850 0.000000
# 2 -0.009361 0.015297 -0.003735 0.000000 -0.003081 0.000000
# 3 -0.006891 -0.003735 0.012881 0.000000 -0.001672 0.000000
# 4 0.000000 0.000000 0.000000 0.034212 0.000000 0.003149
# 5 0.005850 -0.003081 -0.001672 0.000000 0.025927 0.000000
# 6 0.000000 0.000000 0.000000 0.003149 0.000000 0.040446
#
#
# Mechanical properties :
#
#
# Convention : Reuss Voigt Hill
#
# Bulk Modulus (GPa) = 41.09877 53.16551 47.13214
# Shear Modulus (GPa) = 23.47688 28.19560 25.83624
#
# Velocity S-wave (km/s) = 3.54483 3.88478 3.71869
# Velocity P-wave (km/s) = 6.22513 6.96983 6.60798
#
# Compressibility (1/GPa) = 0.02433163
#
# Stress axis : x y z
#
# Youngs Moduli (GPa) = 27.67928 65.37326 77.63172
#
# Poissons Ratio (x) = 0.61198 0.53497
# Poissons Ratio (y) = 0.25912 0.28994
# Poissons Ratio (z) = 0.19074 0.24416
#
# Static dielectric constant tensor:
#      x y z
#    x 1.069850 0.000000 4.855590 
#    y 0.000000 3.586380 0.000000 
#    z 4.855590 0.000000 -7.503410 
# 
# 
# High freq. dielectric constant tensor:
#      x y z
#    x 1.708440 0.000000 -0.006320 
#    y 0.000000 1.733720 0.000000 
#    z -0.006320 0.000000 1.735400 
# 
# From -- ./inp_files/75461.got.cif
#   From: 2010.06.25/outbox.cif.g09.slc.cpg/sg12_38_cif.got.tgz:75461.got - 2010.06.28 00:19:55.
