data_PCOD8094715
_publ_section_title
;
Structure prediction by ZEFSAII (Michael W. Deem and Ramdas Pophale) SiO2 
 PCOD8094715
Probable space group: C 2/M
;
_chemical_formula_sum "Si O2"
_cell_formula_units_Z 56
_cell_length_a 12.939823
_cell_length_b 18.102901
_cell_length_c 16.716926
_cell_angle_alpha 90.000000
_cell_angle_beta 134.916333
_cell_angle_gamma 90.000000
_cell_volume 2773.008457
_symmetry_space_group_name_H-M "C 2/M"
_symmetry_group_IT_number 12
_symmetry_cell_setting 'monoclinic'
loop_
_space_group_symop_operation_xyz
x,y,z
-x,y,-z
-x,-y,-z
x,-y,z
1/2+x,1/2+y,z
1/2-x,1/2+y,-z
1/2-x,1/2-y,-z
1/2+x,1/2-y,z
loop_
_atom_site_type_symbol
_atom_site_label
_atom_site_fract_x
_atom_site_fract_y
_atom_site_fract_z
Si Si1 0.142945 0.350051 0.779738
Si Si2 0.103206 0.912740 0.380063
Si Si3 0.376750 0.336289 0.028509
Si Si4 0.330744 0.085675 0.633583
Si Si5 0.777387 0.915078 0.248226
Si Si6 0.845150 0.912944 0.770748
Si Si7 0.738977 0.203176 0.112604
O O1 0.188577 0.389294 0.721154
O O2 0.158627 0.261093 0.782276
O O3 0.978608 0.368633 0.711727
O O4 0.251504 0.379575 0.909756
O O5 0.222172 0.881405 0.507345
O O6 0.142160 0.883183 0.312883
O O7 0.942369 0.889207 0.319939
O O8 0.113638 0.000000 0.387878
O O9 0.534187 0.374232 0.105910
O O10 0.334785 0.338837 0.098547
O O11 0.388045 0.250838 0.002120
O O12 0.253973 0.097474 0.676483
O O13 0.366933 0.000000 0.638540
O O14 0.677697 0.859884 0.139539
O O15 0.748325 0.000000 0.207227
O O16 0.868558 0.000000 0.786863
#
# Coordination Sequence:
#
# PCOD8094715 Si02
#       7
#     8   8   8   8   8   8   8
#     4  10  22  37  55  88 125 164 188 233 299 359
#     4   9  19  36  63  91 115 151 200 249 293 339
#     4   9  20  39  59  85 116 160 193 240 294 343
#     4  10  21  38  60  89 124 157 190 242 301 350
#     4  10  19  38  67  89 111 149 204 254 288 348
#     4  11  21  36  64  92 116 156 204 245 280 342
#     4   9  20  39  60  86 116 154 196 240 305 339
#
# _framework density 20.194673000000002
#
# number of rings (size 3 to 8) (size 9 to 14) (size 15 to 20)
#    0.857    1.429    1.429    1.286    0.000    5.143 
#    2.571    2.857    3.143    1.714    0.000    0.000 
#    0.000    0.000    0.000    0.000    0.000    0.000 
#
# Total GULP energy -347042.130499 kJ/mol
# GULP energy per Si atom -12394.361804 kJ/mol
# Density = 2.014871 g / cm^3
# Si number density = 20.194673 Si / 1000 Ang^3
#
#
#
# Elastic Constant Matrix: (Units=GPa)
#
#
# Indices 1 2 3 4 5 6 
#
# 1 120.4902 43.1711 46.6700 0.0000 -9.7296 0.0000
# 2 43.1711 75.2549 38.0241 0.0000 -11.2990 0.0000
# 3 46.6700 38.0241 86.4465 0.0000 -13.1445 0.0000
# 4 0.0000 0.0000 0.0000 20.5390 0.0000 -7.2907
# 5 -9.7296 -11.2990 -13.1445 0.0000 24.4212 0.0000
# 6 0.0000 0.0000 0.0000 -7.2907 0.0000 23.9128
#
#
#
# Elastic Compliance Matrix: (Units=1/GPa)
#
#
# Indices 1 2 3 4 5 6 
#
# 1 0.011558 -0.004446 -0.004244 0.000000 0.000263 0.000000
# 2 -0.004446 0.019202 -0.005406 0.000000 0.004203 0.000000
# 3 -0.004244 -0.005406 0.016990 0.000000 0.004953 0.000000
# 4 0.000000 0.000000 0.000000 0.054597 0.000000 0.016646
# 5 0.000263 0.004203 0.004953 0.000000 0.045663 0.000000
# 6 0.000000 0.000000 0.000000 0.016646 0.000000 0.046894
#
#
# Mechanical properties :
#
#
# Convention : Reuss Voigt Hill
#
# Bulk Modulus (GPa) = 51.13531 59.76909 55.45220
# Shear Modulus (GPa) = 21.77563 24.06303 22.91933
#
# Velocity S-wave (km/s) = 3.28729 3.45563 3.37251
# Velocity P-wave (km/s) = 6.30750 6.75149 6.53326
#
# Compressibility (1/GPa) = 0.01955596
#
# Stress axis : x y z
#
# Youngs Moduli (GPa) = 86.52330 52.07891 58.85781
#
# Poissons Ratio (x) = 0.23156 0.24978
# Poissons Ratio (y) = 0.38472 0.31821
# Poissons Ratio (z) = 0.36719 0.28156
#
# Static dielectric constant tensor:
#      x y z
#    x 3.628010 0.000000 -0.195420 
#    y 0.000000 3.445570 0.000000 
#    z -0.195420 0.000000 3.576350 
# 
# 
# High freq. dielectric constant tensor:
#      x y z
#    x 1.797800 0.000000 -0.014420 
#    y 0.000000 1.768370 0.000000 
#    z -0.014420 0.000000 1.771310 
# 
# From -- ./inp_files/264322.got.cif
#   From: 2010.06.25/outbox.cif.g09.slc.cpg/sg12_133_cif.got.tgz:264322.got - 2010.06.28 00:19:55.
