data_PCOD8094808
_publ_section_title
;
Structure prediction by ZEFSAII (Michael W. Deem and Ramdas Pophale) SiO2 
 PCOD8094808
Probable space group: C 2/M
;
_chemical_formula_sum "Si O2"
_cell_formula_units_Z 64
_cell_length_a 9.372625
_cell_length_b 18.162890
_cell_length_c 28.682969
_cell_angle_alpha 90.000000
_cell_angle_beta 139.271006
_cell_angle_gamma 90.000000
_cell_volume 3185.948938
_symmetry_space_group_name_H-M "C 2/M"
_symmetry_group_IT_number 12
_symmetry_cell_setting 'monoclinic'
loop_
_space_group_symop_operation_xyz
x,y,z
-x,y,-z
-x,-y,-z
x,-y,z
1/2+x,1/2+y,z
1/2-x,1/2+y,-z
1/2-x,1/2-y,-z
1/2+x,1/2-y,z
loop_
_atom_site_type_symbol
_atom_site_label
_atom_site_fract_x
_atom_site_fract_y
_atom_site_fract_z
Si Si1 0.031508 0.581664 0.797355
Si Si2 0.299654 0.691178 0.320175
Si Si3 0.010763 0.912969 0.055421
Si Si4 0.878594 0.323699 0.017377
Si Si5 0.010982 0.586191 0.554959
Si Si6 0.803638 0.416392 0.839594
Si Si7 0.378533 0.677809 0.518250
Si Si8 0.582065 0.662324 0.300443
O O1 0.043690 0.500000 0.777830
O O2 0.272074 0.615647 0.865088
O O3 0.903070 0.635116 0.731191
O O4 0.913640 0.575553 0.817217
O O5 0.447740 0.660517 0.398516
O O6 0.431910 0.693909 0.304663
O O7 0.207652 0.772158 0.305956
O O8 0.011198 0.000000 0.053344
O O9 0.000000 0.880985 0.000000
O O10 0.804949 0.886319 0.034594
O O11 0.057918 0.356577 0.097146
O O12 0.750000 0.250000 0.000000
O O13 0.000000 0.305840 0.000000
O O14 0.996962 0.500000 0.549855
O O15 0.799474 0.613381 0.531258
O O16 0.000000 0.619766 0.500000
O O17 0.237906 0.607730 0.634575
O O18 0.793686 0.500000 0.859283
O O19 0.560549 0.383068 0.772617
O O20 0.500000 0.689752 0.500000
O O21 0.250000 0.750000 0.500000
#
# Coordination Sequence:
#
# PCOD8094808 Si02
#       8
#     8   8   8   8   8   8   8   8
#     4   9  20  39  66  94 123 163 209 251 301 376
#     4  11  23  38  64  92 126 164 207 257 316 367
#     4  10  19  39  68  92 122 163 207 251 308 372
#     4  12  27  41  63  93 127 162 209 266 313 372
#     4  11  23  41  65  94 124 163 217 266 313 377
#     4  10  22  42  66  92 127 166 207 256 316 375
#     4  12  23  40  65  92 127 165 210 259 320 376
#     4  11  23  40  65  94 126 167 209 258 311 378
#
# _framework density 20.088207000000001
#
# number of rings (size 3 to 8) (size 9 to 14) (size 15 to 20)
#    0.000    1.250    3.750    2.250    1.750    3.250 
#    0.000    0.000    0.000    0.000    0.000    0.000 
#    0.000    0.000    0.000    0.000    0.000    0.000 
#
# Total GULP energy -396778.089704 kJ/mol
# GULP energy per Si atom -12399.315303 kJ/mol
# Density = 2.004249 g / cm^3
# Si number density = 20.088207 Si / 1000 Ang^3
#
#
#
# Elastic Constant Matrix: (Units=GPa)
#
#
# Indices 1 2 3 4 5 6 
#
# 1 95.7347 29.7706 27.9839 0.0000 15.9189 0.0000
# 2 29.7706 81.1941 57.1453 0.0001 4.1765 0.0001
# 3 27.9839 57.1453 156.5739 0.0003 24.7968 0.0002
# 4 0.0000 0.0001 0.0003 20.6178 0.0001 -1.5728
# 5 15.9189 4.1765 24.7968 0.0001 29.3659 0.0000
# 6 0.0000 0.0001 0.0002 -1.5728 0.0000 22.5682
#
#
#
# Elastic Compliance Matrix: (Units=1/GPa)
#
#
# Indices 1 2 3 4 5 6 
#
# 1 0.012890 -0.004721 0.000484 0.000000 -0.006725 0.000000
# 2 -0.004721 0.018563 -0.006832 0.000000 0.005688 0.000000
# 3 0.000484 -0.006832 0.010022 0.000000 -0.007753 0.000000
# 4 0.000000 0.000000 0.000000 0.048761 0.000000 0.003398
# 5 -0.006725 0.005688 -0.007753 0.000000 0.043437 0.000000
# 6 0.000000 0.000000 0.000000 0.003398 0.000000 0.044547
#
#
# Mechanical properties :
#
#
# Convention : Reuss Voigt Hill
#
# Bulk Modulus (GPa) = 51.71408 62.58913 57.15161
# Shear Modulus (GPa) = 24.17746 29.08388 26.63067
#
# Velocity S-wave (km/s) = 3.47301 3.80914 3.64495
# Velocity P-wave (km/s) = 6.47161 7.11132 6.79899
#
# Compressibility (1/GPa) = 0.01933709
#
# Stress axis : x y z
#
# Youngs Moduli (GPa) = 77.57680 53.86986 99.78419
#
# Poissons Ratio (x) = 0.25434 -0.04834
# Poissons Ratio (y) = 0.36627 0.68174
# Poissons Ratio (z) = -0.03758 0.36805
#
# Static dielectric constant tensor:
#      x y z
#    x 2.902580 0.000000 -0.690360 
#    y 0.000000 3.886150 0.000000 
#    z -0.690360 0.000000 2.761390 
# 
# 
# High freq. dielectric constant tensor:
#      x y z
#    x 1.768960 0.000000 0.019800 
#    y 0.000000 1.790090 0.000000 
#    z 0.019800 0.000000 1.799670 
# 
# From -- ./inp_files/373003.got.cif
#   From: 2010.06.25/outbox.cif.g09.slc.cpg/sg12_187_cif.got.tgz:373003.got - 2010.06.28 00:19:55.
