data_PCOD8094422
_publ_section_title
;
Structure prediction by ZEFSAII (Michael W. Deem and Ramdas Pophale) SiO2 
 PCOD8094422
Probable space group: C 2/M
;
_chemical_formula_sum "Si O2"
_cell_formula_units_Z 32
_cell_length_a 18.259614
_cell_length_b 10.461477
_cell_length_c 15.021545
_cell_angle_alpha 90.000000
_cell_angle_beta 32.634222
_cell_angle_gamma 90.000000
_cell_volume 1547.421338
_symmetry_space_group_name_H-M "C 2/M"
_symmetry_group_IT_number 12
_symmetry_cell_setting 'monoclinic'
loop_
_space_group_symop_operation_xyz
x,y,z
-x,y,-z
-x,-y,-z
x,-y,z
1/2+x,1/2+y,z
1/2-x,1/2+y,-z
1/2-x,1/2-y,-z
1/2+x,1/2-y,z
loop_
_atom_site_type_symbol
_atom_site_label
_atom_site_fract_x
_atom_site_fract_y
_atom_site_fract_z
Si Si1 0.860782 0.362075 0.955181
Si Si2 0.377394 0.784944 0.745026
Si Si3 0.459831 0.352535 0.142097
Si Si4 0.340095 0.143751 0.588121
O O1 0.915740 0.500000 0.932932
O O2 0.847486 0.370696 0.862172
O O3 0.959938 0.245009 0.877430
O O4 0.710627 0.344221 0.151935
O O5 0.539999 0.760714 0.567410
O O6 0.321139 0.854068 0.714240
O O7 0.489748 0.500000 0.138607
O O8 0.300190 0.320186 0.316364
O O9 0.500000 0.327285 0.000000
O O10 0.384006 0.000000 0.516718
#
# Coordination Sequence:
#
# PCOD8094422 Si02
#       4
#     8   8   8   8
#     4  11  23  38  59  89 123 154 187 238 299 348
#     4  10  21  37  59  86 115 153 196 240 283 341
#     4  10  21  38  61  87 114 153 199 239 283 345
#     4  10  19  37  63  86 111 152 202 243 278 336
#
# _framework density 20.679565
#
# number of rings (size 3 to 8) (size 9 to 14) (size 15 to 20)
#    0.000    1.750    2.500    3.000    0.000    6.500 
#    0.000    3.750    0.000    0.000    0.000    0.000 
#    0.000    0.000    0.000    0.000    0.000    0.000 
#
# Total GULP energy -198250.096751 kJ/mol
# GULP energy per Si atom -12390.631047 kJ/mol
# Density = 2.063250 g / cm^3
# Si number density = 20.679565 Si / 1000 Ang^3
#
#
#
# Elastic Constant Matrix: (Units=GPa)
#
#
# Indices 1 2 3 4 5 6 
#
# 1 77.3894 52.6513 51.9535 0.0000 -15.1864 0.0000
# 2 52.6513 113.8693 50.6059 0.0000 -20.1566 0.0000
# 3 51.9535 50.6059 132.1687 0.0000 -11.5947 0.0000
# 4 0.0000 0.0000 0.0000 16.5025 0.0000 -9.6568
# 5 -15.1864 -20.1566 -11.5947 0.0000 30.2082 0.0000
# 6 0.0000 0.0000 0.0000 -9.6568 0.0000 18.8244
#
#
#
# Elastic Compliance Matrix: (Units=1/GPa)
#
#
# Indices 1 2 3 4 5 6 
#
# 1 0.022421 -0.007046 -0.005732 0.000000 0.004370 0.000000
# 2 -0.007046 0.013838 -0.002100 0.000000 0.004885 0.000000
# 3 -0.005732 -0.002100 0.010605 0.000000 -0.000213 0.000000
# 4 0.000000 0.000000 0.000000 0.086591 0.000000 0.044420
# 5 0.004370 0.004885 -0.000213 0.000000 0.038479 0.000000
# 6 0.000000 0.000000 0.000000 0.044420 0.000000 0.075910
#
#
# Mechanical properties :
#
#
# Convention : Reuss Voigt Hill
#
# Bulk Modulus (GPa) = 58.45518 70.42764 64.44141
# Shear Modulus (GPa) = 17.64898 24.32145 20.98522
#
# Velocity S-wave (km/s) = 2.92456 3.43317 3.18902
# Velocity P-wave (km/s) = 6.30337 7.06018 6.69248
#
# Compressibility (1/GPa) = 0.01710712
#
# Stress axis : x y z
#
# Youngs Moduli (GPa) = 44.60077 72.26403 94.29694
#
# Poissons Ratio (x) = 0.50918 0.54053
# Poissons Ratio (y) = 0.31426 0.19804
# Poissons Ratio (z) = 0.25566 0.15177
#
# Static dielectric constant tensor:
#      x y z
#    x 3.661360 0.000000 -0.149610 
#    y 0.000000 3.433860 0.000000 
#    z -0.149610 0.000000 4.005510 
# 
# 
# High freq. dielectric constant tensor:
#      x y z
#    x 1.801380 0.000000 -0.008690 
#    y 0.000000 1.774690 0.000000 
#    z -0.008690 0.000000 1.823060 
# 
# From -- ./inp_files/280674.got.cif
#   From: 2010.06.25/outbox.cif.g09.slc.cpg/sg12_141_cif.got.tgz:280674.got - 2010.06.28 00:19:55.
