data_PCOD8094996
_publ_section_title
;
Structure prediction by ZEFSAII (Michael W. Deem and Ramdas Pophale) SiO2 
 PCOD8094996
Probable space group: C 2/M
;
_chemical_formula_sum "Si O2"
_cell_formula_units_Z 64
_cell_length_a 13.375644
_cell_length_b 23.063240
_cell_length_c 16.127825
_cell_angle_alpha 90.000000
_cell_angle_beta 145.217610
_cell_angle_gamma 90.000000
_cell_volume 2838.160174
_symmetry_space_group_name_H-M "C 2/M"
_symmetry_group_IT_number 12
_symmetry_cell_setting 'monoclinic'
loop_
_space_group_symop_operation_xyz
x,y,z
-x,y,-z
-x,-y,-z
x,-y,z
1/2+x,1/2+y,z
1/2-x,1/2+y,-z
1/2-x,1/2-y,-z
1/2+x,1/2-y,z
loop_
_atom_site_type_symbol
_atom_site_label
_atom_site_fract_x
_atom_site_fract_y
_atom_site_fract_z
Si Si1 0.751220 0.326846 0.071539
Si Si2 0.742383 0.434744 0.432604
Si Si3 0.012209 0.283568 0.912575
Si Si4 0.902443 0.063760 0.095216
Si Si5 0.794926 0.216834 0.416210
Si Si6 0.692922 0.064950 0.114955
Si Si7 0.515904 0.600151 0.424773
Si Si8 0.053025 0.320743 0.399424
O O1 0.869381 0.324696 0.067279
O O2 0.856291 0.322798 0.229904
O O3 0.600715 0.279193 0.968241
O O4 0.650217 0.388276 0.007469
O O5 0.820019 0.500000 0.471715
O O6 0.590886 0.420435 0.263264
O O7 0.654390 0.433751 0.463075
O O8 0.891427 0.385290 0.531515
O O9 0.814177 0.280352 0.743492
O O10 0.000000 0.305551 0.000000
O O11 0.746057 0.063270 0.055573
O O12 0.912706 0.000000 0.060512
O O13 0.929992 0.164781 0.514100
O O14 0.911792 0.275746 0.501947
O O15 0.660135 0.207452 0.398024
O O16 0.826416 0.106410 0.253936
O O17 0.703876 0.000000 0.159960
O O18 0.500000 0.090825 0.000000
O O19 0.500000 0.564614 0.500000
#
# Coordination Sequence:
#
# PCOD8094996 Si02
#       8
#     8   8   8   8   8   8   8   8
#     4  10  21  35  55  84 112 145 184 230 280 328
#     4   9  18  32  51  73  99 138 182 224 274 330
#     4  10  22  38  58  82 111 147 188 230 277 335
#     4   9  18  33  52  75 105 142 184 226 273 333
#     4   9  19  35  52  73 103 144 184 224 274 325
#     4   9  19  33  48  70 106 152 193 231 275 323
#     4  10  20  31  46  71 103 141 184 224 270 326
#     4   9  18  34  53  75 106 139 178 227 276 325
#
# _framework density 22.54982
#
# number of rings (size 3 to 8) (size 9 to 14) (size 15 to 20)
#    0.000    2.625    0.000    1.875    0.000   14.000 
#    0.000    1.250    0.000    0.375    0.000    0.000 
#    0.000    4.500    0.000    0.000    0.000    0.000 
#
# Total GULP energy -396513.168600 kJ/mol
# GULP energy per Si atom -12391.036519 kJ/mol
# Density = 2.249850 g / cm^3
# Si number density = 22.549820 Si / 1000 Ang^3
#
#
#
# Elastic Constant Matrix: (Units=GPa)
#
#
# Indices 1 2 3 4 5 6 
#
# 1 24.7776 -4.2101 14.5077 -0.0001 -4.9002 0.0000
# 2 -4.2101 148.0501 86.6991 0.0000 -5.8016 0.0000
# 3 14.5077 86.6991 150.2595 -0.0001 -3.8090 0.0000
# 4 -0.0001 0.0000 -0.0001 43.7893 -0.0001 -2.4087
# 5 -4.9002 -5.8016 -3.8090 -0.0001 25.8042 0.0000
# 6 0.0000 0.0000 0.0000 -2.4087 0.0000 4.0490
#
#
#
# Elastic Compliance Matrix: (Units=1/GPa)
#
#
# Indices 1 2 3 4 5 6 
#
# 1 0.048108 0.006520 -0.008169 0.000000 0.009396 0.000000
# 2 0.006520 0.011138 -0.006987 0.000000 0.002711 0.000000
# 3 -0.008169 -0.006987 0.011439 0.000000 -0.001434 0.000000
# 4 0.000000 0.000000 0.000000 0.023609 0.000000 0.014045
# 5 0.009396 0.002711 -0.001434 0.000000 0.040936 0.000000
# 6 0.000000 0.000000 0.000000 0.014045 0.000000 0.255333
#
#
# Mechanical properties :
#
#
# Convention : Reuss Voigt Hill
#
# Bulk Modulus (GPa) = 18.72206 57.45339 38.08773
# Shear Modulus (GPa) = 11.74704 29.80119 20.77412
#
# Velocity S-wave (km/s) = 2.28488 3.63929 3.03851
# Velocity P-wave (km/s) = 3.90915 6.57213 5.40714
#
# Compressibility (1/GPa) = 0.05341293
#
# Stress axis : x y z
#
# Youngs Moduli (GPa) = 20.78654 89.78324 87.41898
#
# Poissons Ratio (x) = -0.58537 0.71409
# Poissons Ratio (y) = -0.13553 0.61083
# Poissons Ratio (z) = 0.16980 0.62734
#
# Static dielectric constant tensor:
#      x y z
#    x 0.452300 0.000000 -0.093440 
#    y 0.000000 4.100750 0.000000 
#    z -0.093440 0.000000 4.090580 
# 
# 
# High freq. dielectric constant tensor:
#      x y z
#    x 1.859490 0.000000 0.001390 
#    y 0.000000 1.893830 0.000000 
#    z 0.001390 0.000000 1.887880 
# 
# From -- ./inp_files/272865.got.cif
#   From: 2010.06.25/outbox.cif.g09.slc.cpg/sg12_137_cif.got.tgz:272865.got - 2010.06.28 00:19:55.
