data_PCOD8094316
_publ_section_title
;
Structure prediction by ZEFSAII (Michael W. Deem and Ramdas Pophale) SiO2 
 PCOD8094316
Probable space group: C 2/M
;
_chemical_formula_sum "Si O2"
_cell_formula_units_Z 64
_cell_length_a 24.068379
_cell_length_b 8.803956
_cell_length_c 28.532799
_cell_angle_alpha 90.000000
_cell_angle_beta 145.497814
_cell_angle_gamma 90.000000
_cell_volume 3424.689615
_symmetry_space_group_name_H-M "C 2/M"
_symmetry_group_IT_number 12
_symmetry_cell_setting 'monoclinic'
loop_
_space_group_symop_operation_xyz
x,y,z
-x,y,-z
-x,-y,-z
x,-y,z
1/2+x,1/2+y,z
1/2-x,1/2+y,-z
1/2-x,1/2-y,-z
1/2+x,1/2-y,z
loop_
_atom_site_type_symbol
_atom_site_label
_atom_site_fract_x
_atom_site_fract_y
_atom_site_fract_z
Si Si1 0.214884 0.322787 0.790314
Si Si2 0.748707 0.176298 0.382166
Si Si3 0.457651 0.326318 0.755658
Si Si4 0.335403 0.178473 0.528288
Si Si5 0.506068 0.825350 0.127729
Si Si6 0.772798 0.675366 0.738280
Si Si7 0.904453 0.324383 0.962678
Si Si8 0.473841 0.325268 0.298030
O O1 0.193651 0.500000 0.780492
O O2 0.217052 0.278885 0.737043
O O3 0.316534 0.282481 0.886029
O O4 0.130545 0.229646 0.757042
O O5 0.637860 0.223036 0.316850
O O6 0.824121 0.269908 0.466498
O O7 0.773152 0.208724 0.344743
O O8 0.759669 0.000000 0.401870
O O9 0.423671 0.500000 0.737730
O O10 0.519118 0.275205 0.844185
O O11 0.525839 0.304562 0.757840
O O12 0.250000 0.250000 0.500000
O O13 0.441547 0.226918 0.619531
O O14 0.324600 0.000000 0.524230
O O15 0.612512 0.780676 0.181334
O O16 0.508603 0.000000 0.145470
O O17 0.424317 0.796270 0.031510
O O18 0.759257 0.500000 0.743023
O O19 0.877597 0.500000 0.933946
O O20 0.000000 0.277638 0.000000
O O21 0.490367 0.500000 0.323531
#
# Coordination Sequence:
#
# PCOD8094316 Si02
#       8
#     8   8   8   8   8   8   8   8
#     4  12  25  38  57  87 120 154 192 244 297 344
#     4  10  20  35  59  87 117 152 192 239 286 340
#     4  10  20  34  56  85 116 149 189 240 293 344
#     4  12  23  37  60  90 121 152 193 243 289 339
#     4   9  18  33  58  86 113 149 191 237 288 342
#     4   9  18  36  58  83 115 155 194 231 285 350
#     4  10  19  37  61  84 114 154 198 238 283 349
#     4  11  24  42  61  82 115 160 199 236 290 353
#
# _framework density 18.687825
#
# number of rings (size 3 to 8) (size 9 to 14) (size 15 to 20)
#    0.000    1.625    2.500    4.125    0.000    4.750 
#    0.000    1.250    0.000    3.750    0.000    0.000 
#    0.000    0.000    0.000    0.000    0.000    0.000 
#
# Total GULP energy -396910.865523 kJ/mol
# GULP energy per Si atom -12403.464548 kJ/mol
# Density = 1.864529 g / cm^3
# Si number density = 18.687825 Si / 1000 Ang^3
#
#
#
# Elastic Constant Matrix: (Units=GPa)
#
#
# Indices 1 2 3 4 5 6 
#
# 1 108.6597 50.2584 47.1525 -0.0002 -11.3065 -0.0003
# 2 50.2584 106.1189 34.7143 -0.0003 -9.6831 -0.0012
# 3 47.1525 34.7143 79.6112 -0.0001 -13.5504 -0.0001
# 4 -0.0002 -0.0003 -0.0001 32.8456 0.0000 -3.4159
# 5 -11.3065 -9.6831 -13.5504 0.0000 27.1026 0.0000
# 6 -0.0003 -0.0012 -0.0001 -3.4159 0.0000 31.1422
#
#
#
# Elastic Compliance Matrix: (Units=1/GPa)
#
#
# Indices 1 2 3 4 5 6 
#
# 1 0.014111 -0.004557 -0.006171 0.000000 0.001173 0.000000
# 2 -0.004557 0.012533 -0.002544 0.000000 0.001305 0.000000
# 3 -0.006171 -0.002544 0.018288 0.000000 0.005661 0.000000
# 4 0.000000 0.000000 0.000000 0.030797 0.000000 0.003378
# 5 0.001173 0.001305 0.005661 0.000000 0.040683 0.000000
# 6 0.000000 0.000000 0.000000 0.003378 0.000000 0.032481
#
#
# Mechanical properties :
#
#
# Convention : Reuss Voigt Hill
#
# Bulk Modulus (GPa) = 54.38068 62.07113 58.22591
# Shear Modulus (GPa) = 27.53826 29.03572 28.28699
#
# Velocity S-wave (km/s) = 3.84291 3.94601 3.89480
# Velocity P-wave (km/s) = 6.98951 7.35174 7.17291
#
# Compressibility (1/GPa) = 0.01838888
#
# Stress axis : x y z
#
# Youngs Moduli (GPa) = 70.86790 79.79010 54.67924
#
# Poissons Ratio (x) = 0.36362 0.33741
# Poissons Ratio (y) = 0.32296 0.13909
# Poissons Ratio (z) = 0.43730 0.20296
#
# Static dielectric constant tensor:
#      x y z
#    x 3.489990 0.000000 -0.301530 
#    y 0.000000 3.466660 0.000000 
#    z -0.301530 0.000000 3.520680 
# 
# 
# High freq. dielectric constant tensor:
#      x y z
#    x 1.720980 0.000000 -0.025830 
#    y 0.000000 1.730470 0.000000 
#    z -0.025830 0.000000 1.714760 
# 
# From -- ./inp_files/382497.got.cif
#   From: 2010.06.25/outbox.cif.g09.slc.cpg/sg12_192_cif.got.tgz:382497.got - 2010.06.28 00:19:55.
