data_PCOD8094995
_publ_section_title
;
Structure prediction by ZEFSAII (Michael W. Deem and Ramdas Pophale) SiO2 
 PCOD8094995
Probable space group: C 2/M
;
_chemical_formula_sum "Si O2"
_cell_formula_units_Z 64
_cell_length_a 26.444297
_cell_length_b 9.787242
_cell_length_c 14.313958
_cell_angle_alpha 90.000000
_cell_angle_beta 106.304145
_cell_angle_gamma 90.000000
_cell_volume 3555.707625
_symmetry_space_group_name_H-M "C 2/M"
_symmetry_group_IT_number 12
_symmetry_cell_setting 'monoclinic'
loop_
_space_group_symop_operation_xyz
x,y,z
-x,y,-z
-x,-y,-z
x,-y,z
1/2+x,1/2+y,z
1/2-x,1/2+y,-z
1/2-x,1/2-y,-z
1/2+x,1/2-y,z
loop_
_atom_site_type_symbol
_atom_site_label
_atom_site_fract_x
_atom_site_fract_y
_atom_site_fract_z
Si Si1 0.701037 0.154930 0.571382
Si Si2 0.332165 0.250471 0.978437
Si Si3 0.923521 0.344612 0.153615
Si Si4 0.698653 0.839976 0.360288
Si Si5 0.154763 0.344696 0.734733
Si Si6 0.870746 0.846814 0.805226
Si Si7 0.992074 0.842509 0.890330
Si Si8 0.224173 0.145760 0.876276
O O1 0.677871 0.177637 0.455905
O O2 0.745246 0.265890 0.619077
O O3 0.653222 0.173501 0.621397
O O4 0.724341 0.000000 0.591599
O O5 0.355777 0.337871 0.906139
O O6 0.287333 0.148637 0.917736
O O7 0.378950 0.165911 0.050987
O O8 0.304114 0.350030 0.037808
O O9 0.944265 0.500000 0.167632
O O10 0.899025 0.298271 0.241774
O O11 0.972045 0.245250 0.160393
O O12 0.657576 0.768010 0.270699
O O13 0.704331 0.000000 0.336398
O O14 0.165443 0.500000 0.769726
O O15 0.205545 0.264689 0.798458
O O16 0.932669 0.821014 0.826436
O O17 0.856296 0.000000 0.763063
O O18 0.009928 0.000000 0.892667
O O19 0.000000 0.789283 0.000000
O O20 0.209554 0.000000 0.823326
#
# Coordination Sequence:
#
# PCOD8094995 Si02
#       8
#     8   8   8   8   8   8   8   8
#     4   9  18  36  57  77 107 144 172 202 253 313
#     4  10  20  32  47  69 102 138 171 204 248 304
#     4  10  20  34  52  76 101 129 169 218 263 300
#     4  10  21  34  53  82 110 134 171 218 256 299
#     4   9  19  34  52  73 101 135 170 204 250 312
#     4  11  22  36  54  73  99 139 176 210 256 311
#     4  10  21  38  55  73  99 135 179 217 256 312
#     4  10  20  31  46  71 102 135 171 208 243 290
#
# _framework density 17.999229
#
# number of rings (size 3 to 8) (size 9 to 14) (size 15 to 20)
#    0.000    2.125    1.250    1.875    0.000   10.250 
#    0.000    0.000    0.000    0.750    0.000    5.250 
#    0.000    0.000    0.000    0.000    0.000    0.000 
#
# Total GULP energy -396681.912262 kJ/mol
# GULP energy per Si atom -12396.309758 kJ/mol
# Density = 1.795826 g / cm^3
# Si number density = 17.999229 Si / 1000 Ang^3
#
#
#
# Elastic Constant Matrix: (Units=GPa)
#
#
# Indices 1 2 3 4 5 6 
#
# 1 88.5463 40.2883 37.7229 0.0000 -21.0762 0.0000
# 2 40.2883 96.1547 32.9672 0.0000 -10.0748 0.0000
# 3 37.7229 32.9672 81.6764 0.0000 -23.2227 0.0000
# 4 0.0000 0.0000 0.0000 17.4076 0.0000 2.9549
# 5 -21.0762 -10.0748 -23.2227 0.0000 25.8042 0.0000
# 6 0.0000 0.0000 0.0000 2.9549 0.0000 21.6084
#
#
#
# Elastic Compliance Matrix: (Units=1/GPa)
#
#
# Indices 1 2 3 4 5 6 
#
# 1 0.017186 -0.005122 -0.003289 0.000000 0.009077 0.000000
# 2 -0.005122 0.013601 -0.003768 0.000000 -0.002264 0.000000
# 3 -0.003289 -0.003768 0.018950 0.000000 0.012897 0.000000
# 4 0.000000 0.000000 0.000000 0.058811 0.000000 -0.008042
# 5 0.009077 -0.002264 0.012897 0.000000 0.056890 0.000000
# 6 0.000000 0.000000 0.000000 -0.008042 0.000000 0.047378
#
#
# Mechanical properties :
#
#
# Convention : Reuss Voigt Hill
#
# Bulk Modulus (GPa) = 39.40299 54.25937 46.83118
# Shear Modulus (GPa) = 20.35553 23.32397 21.83975
#
# Velocity S-wave (km/s) = 3.36655 3.60367 3.48713
# Velocity P-wave (km/s) = 6.08692 6.89392 6.50295
#
# Compressibility (1/GPa) = 0.02537878
#
# Stress axis : x y z
#
# Youngs Moduli (GPa) = 58.18737 73.52635 52.76951
#
# Poissons Ratio (x) = 0.37660 0.17357
# Poissons Ratio (y) = 0.29804 0.19882
# Poissons Ratio (z) = 0.19139 0.27703
#
# Static dielectric constant tensor:
#      x y z
#    x 3.251070 0.000000 -0.287310 
#    y 0.000000 3.353000 0.000000 
#    z -0.287310 0.000000 3.342460 
# 
# 
# High freq. dielectric constant tensor:
#      x y z
#    x 1.681630 0.000000 -0.024420 
#    y 0.000000 1.704460 0.000000 
#    z -0.024420 0.000000 1.681450 
# 
# From -- ./inp_files/244014.got.cif
#   From: 2010.06.25/outbox.cif.g09.slc.cpg/sg12_123_cif.got.tgz:244014.got - 2010.06.28 00:19:55.
