data_PCOD8094620
_publ_section_title
;
Structure prediction by ZEFSAII (Michael W. Deem and Ramdas Pophale) SiO2 
 PCOD8094620
Probable space group: C 2/M
;
_chemical_formula_sum "Si O2"
_cell_formula_units_Z 36
_cell_length_a 15.975476
_cell_length_b 17.730456
_cell_length_c 7.512019
_cell_angle_alpha 90.000000
_cell_angle_beta 54.750831
_cell_angle_gamma 90.000000
_cell_volume 1737.666053
_symmetry_space_group_name_H-M "C 2/M"
_symmetry_group_IT_number 12
_symmetry_cell_setting 'monoclinic'
loop_
_space_group_symop_operation_xyz
x,y,z
-x,y,-z
-x,-y,-z
x,-y,z
1/2+x,1/2+y,z
1/2-x,1/2+y,-z
1/2-x,1/2-y,-z
1/2+x,1/2-y,z
loop_
_atom_site_type_symbol
_atom_site_label
_atom_site_fract_x
_atom_site_fract_y
_atom_site_fract_z
Si Si1 0.392064 0.133106 0.174152
Si Si2 0.814928 0.673444 0.909174
Si Si3 0.000000 0.741325 0.500000
Si Si4 0.759309 0.913667 0.336753
Si Si5 0.134950 0.216922 0.641179
O O1 0.336747 0.094892 0.410699
O O2 0.424438 0.220524 0.171961
O O3 0.500000 0.090785 0.000000
O O4 0.315432 0.130884 0.098685
O O5 0.933188 0.689824 0.714015
O O6 0.768664 0.616222 0.823402
O O7 0.750000 0.750000 0.000000
O O8 0.919216 0.791449 0.485434
O O9 0.858745 0.866274 0.281351
O O10 0.792796 0.000000 0.282368
O O11 0.250000 0.250000 0.500000
#
# Coordination Sequence:
#
# PCOD8094620 Si02
#       5
#     8   8   4   8   8
#     4  11  20  36  64  92 120 167 224 261 317 383
#     4  12  21  37  68  95 122 171 226 263 315 384
#     4  12  20  38  70 100 122 160 234 278 304 368
#     4  11  24  42  59  93 141 167 201 271 334 384
#     4  10  19  38  62  92 121 167 215 265 306 371
#
# _framework density 20.717445999999999
#
# number of rings (size 3 to 8) (size 9 to 14) (size 15 to 20)
#    0.000    0.889    8.889    1.333    0.000    1.333 
#    0.000    4.444    0.000    6.000    0.000    0.000 
#    0.000    0.000    0.000    0.000    0.000    0.000 
#
# Total GULP energy -223051.741875 kJ/mol
# GULP energy per Si atom -12391.763438 kJ/mol
# Density = 2.067029 g / cm^3
# Si number density = 20.717446 Si / 1000 Ang^3
#
#
#
# Elastic Constant Matrix: (Units=GPa)
#
#
# Indices 1 2 3 4 5 6 
#
# 1 167.5403 44.4810 11.8603 0.0000 30.6701 0.0000
# 2 44.4810 125.9290 9.1022 0.0000 16.0265 0.0000
# 3 11.8603 9.1022 54.1789 0.0000 13.1900 0.0000
# 4 0.0000 0.0000 0.0000 10.2539 0.0000 7.3148
# 5 30.6701 16.0265 13.1900 0.0000 42.4124 0.0000
# 6 0.0000 0.0000 0.0000 7.3148 0.0000 21.9987
#
#
#
# Elastic Compliance Matrix: (Units=1/GPa)
#
#
# Indices 1 2 3 4 5 6 
#
# 1 0.007336 -0.002007 -0.000175 0.000000 -0.004492 0.000000
# 2 -0.002007 0.008915 -0.000640 0.000000 -0.001718 0.000000
# 3 -0.000175 -0.000640 0.020030 0.000000 -0.005861 0.000000
# 4 0.000000 0.000000 0.000000 0.127850 0.000000 -0.042512
# 5 -0.004492 -0.001718 -0.005861 0.000000 0.029299 0.000000
# 6 0.000000 0.000000 0.000000 -0.042512 0.000000 0.059593
#
#
# Mechanical properties :
#
#
# Convention : Reuss Voigt Hill
#
# Bulk Modulus (GPa) = 32.64042 53.17059 42.90550
# Shear Modulus (GPa) = 18.59570 33.74665 26.17117
#
# Velocity S-wave (km/s) = 2.99923 4.04034 3.55807
# Velocity P-wave (km/s) = 5.27096 6.89102 6.13471
#
# Compressibility (1/GPa) = 0.03063686
#
# Stress axis : x y z
#
# Youngs Moduli (GPa) = 136.30807 112.17252 49.92501
#
# Poissons Ratio (x) = 0.22513 0.00874
# Poissons Ratio (y) = 0.27357 0.03195
# Poissons Ratio (z) = 0.02387 0.07180
#
# Static dielectric constant tensor:
#      x y z
#    x 3.992500 0.000000 0.102460 
#    y 0.000000 3.703820 0.000000 
#    z 0.102460 0.000000 3.890120 
# 
# 
# High freq. dielectric constant tensor:
#      x y z
#    x 1.826820 0.000000 0.013900 
#    y 0.000000 1.762060 0.000000 
#    z 0.013900 0.000000 1.814420 
# 
# From -- ./inp_files/60720.got.cif
#   From: 2010.06.25/outbox.cif.g09.slc.cpg/sg12_31_cif.got.tgz:60720.got - 2010.06.28 00:19:55.
