data_PCOD8094410
_publ_section_title
;
Structure prediction by ZEFSAII (Michael W. Deem and Ramdas Pophale) SiO2 
 PCOD8094410
Probable space group: C 2/M
;
_chemical_formula_sum "Si O2"
_cell_formula_units_Z 56
_cell_length_a 19.940134
_cell_length_b 8.926646
_cell_length_c 16.476254
_cell_angle_alpha 90.000000
_cell_angle_beta 91.248910
_cell_angle_gamma 90.000000
_cell_volume 2932.052086
_symmetry_space_group_name_H-M "C 2/M"
_symmetry_group_IT_number 12
_symmetry_cell_setting 'monoclinic'
loop_
_space_group_symop_operation_xyz
x,y,z
-x,y,-z
-x,-y,-z
x,-y,z
1/2+x,1/2+y,z
1/2-x,1/2+y,-z
1/2-x,1/2-y,-z
1/2+x,1/2-y,z
loop_
_atom_site_type_symbol
_atom_site_label
_atom_site_fract_x
_atom_site_fract_y
_atom_site_fract_z
Si Si1 0.123509 0.674783 0.679416
Si Si2 0.576321 0.322799 0.514392
Si Si3 0.753133 0.325794 0.751923
Si Si4 0.947770 0.321256 0.933240
Si Si5 0.489683 0.175200 0.761912
Si Si6 0.203718 0.676608 0.066219
Si Si7 0.378067 0.825148 0.640072
O O1 0.126203 0.500000 0.658034
O O2 0.108015 0.764396 0.597901
O O3 0.191841 0.725278 0.722136
O O4 0.066470 0.710482 0.744117
O O5 0.500000 0.263518 0.500000
O O6 0.578245 0.500000 0.515622
O O7 0.624587 0.263544 0.444360
O O8 0.733081 0.500000 0.749838
O O9 0.774195 0.275356 0.842798
O O10 0.812659 0.292356 0.691152
O O11 0.950841 0.500000 0.931601
O O12 0.970655 0.252591 0.847636
O O13 0.872390 0.267869 0.951085
O O14 0.000000 0.256152 0.000000
O O15 0.441969 0.240505 0.690506
O O16 0.474199 0.000000 0.766484
O O17 0.208744 0.500000 0.056493
O O18 0.250000 0.750000 0.000000
O O19 0.385719 0.000000 0.620484
#
# Coordination Sequence:
#
# PCOD8094410 Si02
#       7
#     8   8   8   8   8   8   8
#     4  11  23  37  60  89 116 148 193 244 286 337
#     4  11  23  38  58  87 121 151 185 233 294 350
#     4  10  22  40  59  82 118 158 192 234 292 347
#     4   9  17  31  55  86 115 144 188 239 282 328
#     4   9  17  32  55  84 111 144 192 239 281 327
#     4  10  21  37  58  84 117 155 189 232 289 343
#     4  10  19  37  63  83 109 152 199 240 281 336
#
# _framework density 19.099252
#
# number of rings (size 3 to 8) (size 9 to 14) (size 15 to 20)
#    0.000    2.000    2.857    0.857    2.000    2.286 
#    0.000    0.000    0.000    2.143    0.000    0.000 
#    0.000    0.000    0.000    0.000    0.000    0.000 
#
# Total GULP energy -347226.793406 kJ/mol
# GULP energy per Si atom -12400.956907 kJ/mol
# Density = 1.905578 g / cm^3
# Si number density = 19.099252 Si / 1000 Ang^3
#
#
#
# Elastic Constant Matrix: (Units=GPa)
#
#
# Indices 1 2 3 4 5 6 
#
# 1 134.3677 43.0954 69.1584 0.0000 4.8123 0.0000
# 2 43.0954 43.6443 38.7903 0.0000 -5.4799 0.0000
# 3 69.1584 38.7903 146.1306 0.0000 -8.1387 0.0000
# 4 0.0000 0.0000 0.0000 21.2486 0.0000 -2.8193
# 5 4.8123 -5.4799 -8.1387 0.0000 36.3842 0.0000
# 6 0.0000 0.0000 0.0000 -2.8193 0.0000 28.7557
#
#
#
# Elastic Compliance Matrix: (Units=1/GPa)
#
#
# Indices 1 2 3 4 5 6 
#
# 1 0.012530 -0.009685 -0.003577 0.000000 -0.003916 0.000000
# 2 -0.009685 0.037751 -0.005113 0.000000 0.005823 0.000000
# 3 -0.003577 -0.005113 0.010002 0.000000 0.001940 0.000000
# 4 0.000000 0.000000 0.000000 0.047682 0.000000 0.004675
# 5 -0.003916 0.005823 0.001940 0.000000 0.029313 0.000000
# 6 0.000000 0.000000 0.000000 0.004675 0.000000 0.035234
#
#
# Mechanical properties :
#
#
# Convention : Reuss Voigt Hill
#
# Bulk Modulus (GPa) = 42.49504 69.58120 56.03812
# Shear Modulus (GPa) = 23.03018 28.81759 25.92389
#
# Velocity S-wave (km/s) = 3.47625 3.88858 3.68819
# Velocity P-wave (km/s) = 6.19761 7.52808 6.89501
#
# Compressibility (1/GPa) = 0.02353216
#
# Stress axis : x y z
#
# Youngs Moduli (GPa) = 79.80972 26.48935 99.98421
#
# Poissons Ratio (x) = 0.25654 0.35767
# Poissons Ratio (y) = 0.77292 0.51125
# Poissons Ratio (z) = 0.28550 0.13545
#
# Static dielectric constant tensor:
#      x y z
#    x 3.592140 0.000000 -0.000790 
#    y 0.000000 3.146080 0.000000 
#    z -0.000790 0.000000 3.672350 
# 
# 
# High freq. dielectric constant tensor:
#      x y z
#    x 1.751780 0.000000 -0.003160 
#    y 0.000000 1.707650 0.000000 
#    z -0.003160 0.000000 1.758170 
# 
# From -- ./inp_files/230982.got.cif
#   From: 2010.06.25/outbox.cif.g09.slc.cpg/sg12_116_cif.got.tgz:230982.got - 2010.06.28 00:19:55.
