data_PCOD8094159
_publ_section_title
;
Structure prediction by ZEFSAII (Michael W. Deem and Ramdas Pophale) SiO2 
 PCOD8094159
Probable space group: C 2/M
;
_chemical_formula_sum "Si O2"
_cell_formula_units_Z 44
_cell_length_a 10.825827
_cell_length_b 30.033330
_cell_length_c 15.948599
_cell_angle_alpha 90.000000
_cell_angle_beta 157.275466
_cell_angle_gamma 90.000000
_cell_volume 2003.147748
_symmetry_space_group_name_H-M "C 2/M"
_symmetry_group_IT_number 12
_symmetry_cell_setting 'monoclinic'
loop_
_space_group_symop_operation_xyz
x,y,z
-x,y,-z
-x,-y,-z
x,-y,z
1/2+x,1/2+y,z
1/2-x,1/2+y,-z
1/2-x,1/2-y,-z
1/2+x,1/2-y,z
loop_
_atom_site_type_symbol
_atom_site_label
_atom_site_fract_x
_atom_site_fract_y
_atom_site_fract_z
Si Si1 0.849734 0.548713 0.749990
Si Si2 0.164468 0.315909 0.490541
Si Si3 0.172644 0.618495 0.832570
Si Si4 0.287069 0.325663 0.061391
Si Si5 0.500000 0.896250 0.000000
Si Si6 0.832970 0.771703 0.307567
O O1 0.500000 0.540424 0.500000
O O2 0.018721 0.500000 0.864791
O O3 0.024022 0.577523 0.788471
O O4 0.817953 0.572638 0.819787
O O5 0.327107 0.315241 0.686891
O O6 0.490457 0.304993 0.644281
O O7 0.040312 0.363228 0.378534
O O8 0.887747 0.278753 0.309591
O O9 0.500000 0.600184 0.000000
O O10 0.225928 0.660218 0.927908
O O11 0.240861 0.366450 0.096681
O O12 0.046455 0.283893 0.929287
O O13 0.000000 0.780766 0.500000
#
# Coordination Sequence:
#
# PCOD8094159 Si02
#       6
#     8   8   8   8   4   8
#     4  10  22  41  71 102 127 159 206 261 318 391
#     4  11  24  40  60  87 128 165 217 271 319 374
#     4  11  26  42  64  95 130 170 213 261 324 387
#     4  11  22  41  64  88 126 175 215 270 319 368
#     4  10  19  36  68  94 126 156 208 258 313 372
#     4  11  23  39  60  90 122 171 225 273 311 367
#
# _framework density 21.965429
#
# number of rings (size 3 to 8) (size 9 to 14) (size 15 to 20)
#    0.000    1.273    3.636    1.364    5.091    4.000 
#    0.000    0.000    0.000    0.000    0.000   10.182 
#    0.000    0.000    0.000    0.000    0.000    0.000 
#
# Total GULP energy -272686.706391 kJ/mol
# GULP energy per Si atom -12394.850290 kJ/mol
# Density = 2.191543 g / cm^3
# Si number density = 21.965429 Si / 1000 Ang^3
#
#
#
# Elastic Constant Matrix: (Units=GPa)
#
#
# Indices 1 2 3 4 5 6 
#
# 1 62.8148 28.3728 21.6622 0.0000 -3.4818 0.0006
# 2 28.3728 96.7845 50.3635 -0.0001 5.6074 0.0003
# 3 21.6622 50.3635 122.4507 -0.0001 -7.6176 -0.0006
# 4 0.0000 -0.0001 -0.0001 27.7355 0.0001 -5.3265
# 5 -3.4818 5.6074 -7.6176 0.0001 34.1848 0.0007
# 6 0.0006 0.0003 -0.0006 -5.3265 0.0007 30.2908
#
#
#
# Elastic Compliance Matrix: (Units=1/GPa)
#
#
# Indices 1 2 3 4 5 6 
#
# 1 0.018720 -0.005077 -0.001068 0.000000 0.002502 0.000000
# 2 -0.005077 0.014926 -0.005502 0.000000 -0.004192 0.000000
# 3 -0.001068 -0.005502 0.010818 0.000000 0.003204 0.000000
# 4 0.000000 0.000000 0.000000 0.037315 0.000000 0.006562
# 5 0.002502 -0.004192 0.003204 0.000000 0.030909 -0.000001
# 6 0.000000 0.000000 0.000000 0.006562 -0.000001 0.034167
#
#
# Mechanical properties :
#
#
# Convention : Reuss Voigt Hill
#
# Bulk Modulus (GPa) = 47.23528 53.64967 50.44248
# Shear Modulus (GPa) = 28.21579 30.55231 29.38405
#
# Velocity S-wave (km/s) = 3.58796 3.73356 3.66148
# Velocity P-wave (km/s) = 6.22219 6.56228 6.39450
#
# Compressibility (1/GPa) = 0.02117061
#
# Stress axis : x y z
#
# Youngs Moduli (GPa) = 53.41872 66.99548 92.44161
#
# Poissons Ratio (x) = 0.34014 0.09871
# Poissons Ratio (y) = 0.27121 0.50859
# Poissons Ratio (z) = 0.05704 0.36859
#
# Static dielectric constant tensor:
#      x y z
#    x 4.365880 0.000000 -0.220380 
#    y 0.000000 3.896650 0.000000 
#    z -0.220380 0.000000 4.107030 
# 
# 
# High freq. dielectric constant tensor:
#      x y z
#    x 1.881250 0.000000 -0.010790 
#    y 0.000000 1.842500 0.000000 
#    z -0.010790 0.000000 1.868020 
# 
# From -- ./inp_files/266342.got.cif
#   From: 2010.06.25/outbox.cif.g09.slc.cpg/sg12_134_cif.got.tgz:266342.got - 2010.06.28 00:19:55.
