data_PCOD8094529
_publ_section_title
;
Structure prediction by ZEFSAII (Michael W. Deem and Ramdas Pophale) SiO2 
 PCOD8094529
Probable space group: C 2/M
;
_chemical_formula_sum "Si O2"
_cell_formula_units_Z 52
_cell_length_a 8.609517
_cell_length_b 30.196957
_cell_length_c 18.742232
_cell_angle_alpha 90.000000
_cell_angle_beta 34.496038
_cell_angle_gamma 90.000000
_cell_volume 2759.609336
_symmetry_space_group_name_H-M "C 2/M"
_symmetry_group_IT_number 12
_symmetry_cell_setting 'monoclinic'
loop_
_space_group_symop_operation_xyz
x,y,z
-x,y,-z
-x,-y,-z
x,-y,z
1/2+x,1/2+y,z
1/2-x,1/2+y,-z
1/2-x,1/2-y,-z
1/2+x,1/2-y,z
loop_
_atom_site_type_symbol
_atom_site_label
_atom_site_fract_x
_atom_site_fract_y
_atom_site_fract_z
Si Si1 0.015144 0.703680 0.375741
Si Si2 0.260086 0.118385 0.765683
Si Si3 0.800327 0.550322 0.371695
Si Si4 0.969290 0.450795 0.147121
Si Si5 0.000000 0.913213 0.000000
Si Si6 0.558735 0.294796 0.658532
Si Si7 0.749405 0.368549 0.144022
O O1 0.061219 0.662289 0.307501
O O2 0.232148 0.706590 0.356210
O O3 0.713399 0.696354 0.524548
O O4 0.062441 0.745807 0.306330
O O5 0.462628 0.076823 0.675791
O O6 0.154877 0.118550 0.886439
O O7 0.014496 0.118435 0.802229
O O8 0.500000 0.570329 0.500000
O O9 0.822285 0.500000 0.391075
O O10 0.830864 0.553687 0.275844
O O11 0.918903 0.500000 0.134153
O O12 0.843471 0.414269 0.143283
O O13 0.295515 0.444163 0.032316
O O14 0.327270 0.331607 0.766480
O O15 0.000000 0.350145 0.000000
#
# Coordination Sequence:
#
# PCOD8094529 Si02
#       7
#     8   8   8   8   4   8   8
#     4   9  19  38  59  85 107 147 187 232 286 344
#     4  10  21  37  58  84 115 149 190 235 288 341
#     4   9  20  38  58  85 116 149 192 241 288 338
#     4  10  21  36  58  83 112 154 199 234 278 337
#     4  10  19  38  54  80 116 148 194 238 279 334
#     4   9  20  38  59  81 115 142 188 235 283 341
#     4  11  22  39  56  85 120 153 189 239 290 335
#
# _framework density 18.843247999999999
#
# number of rings (size 3 to 8) (size 9 to 14) (size 15 to 20)
#    0.000    2.308    1.538    0.231    2.154    4.000 
#    4.154    1.538    0.000    2.769    0.000    0.000 
#    0.000    0.000    0.000    0.000    0.000    0.000 
#
# Total GULP energy -322269.969068 kJ/mol
# GULP energy per Si atom -12394.998810 kJ/mol
# Density = 1.880036 g / cm^3
# Si number density = 18.843248 Si / 1000 Ang^3
#
#
#
# Elastic Constant Matrix: (Units=GPa)
#
#
# Indices 1 2 3 4 5 6 
#
# 1 47.6377 47.9967 33.5664 0.0000 -5.7307 0.0000
# 2 47.9967 148.8816 73.4229 0.0000 4.9191 0.0000
# 3 33.5664 73.4229 119.1128 0.0002 -5.5700 -0.0002
# 4 0.0000 0.0000 0.0002 27.0591 0.0000 3.1981
# 5 -5.7307 4.9191 -5.5700 0.0000 24.5308 0.0000
# 6 0.0000 0.0000 -0.0002 3.1981 0.0000 30.5500
#
#
#
# Elastic Compliance Matrix: (Units=1/GPa)
#
#
# Indices 1 2 3 4 5 6 
#
# 1 0.034167 -0.009746 -0.003190 0.000000 0.009212 0.000000
# 2 -0.009746 0.012706 -0.005368 0.000000 -0.006044 0.000000
# 3 -0.003190 -0.005368 0.012754 0.000000 0.003227 0.000000
# 4 0.000000 0.000000 0.000000 0.037419 0.000000 -0.003917
# 5 0.009212 -0.006044 0.003227 0.000000 0.044862 0.000000
# 6 0.000000 0.000000 0.000000 -0.003917 0.000000 0.033143
#
#
# Mechanical properties :
#
#
# Convention : Reuss Voigt Hill
#
# Bulk Modulus (GPa) = 43.44286 69.51157 56.47721
# Shear Modulus (GPa) = 22.79641 27.13771 24.96706
#
# Velocity S-wave (km/s) = 3.48198 3.79909 3.64399
# Velocity P-wave (km/s) = 6.26662 7.49757 6.90956
#
# Compressibility (1/GPa) = 0.02301874
#
# Stress axis : x y z
#
# Youngs Moduli (GPa) = 29.26783 78.70460 78.40487
#
# Poissons Ratio (x) = 0.76706 0.25012
# Poissons Ratio (y) = 0.28524 0.42089
# Poissons Ratio (z) = 0.09337 0.42250
#
# Static dielectric constant tensor:
#      x y z
#    x 3.265360 0.000000 0.004540 
#    y 0.000000 3.613380 0.000000 
#    z 0.004540 0.000000 3.862570 
# 
# 
# High freq. dielectric constant tensor:
#      x y z
#    x 1.720690 0.000000 -0.001140 
#    y 0.000000 1.732440 0.000000 
#    z -0.001140 0.000000 1.740800 
# 
# From -- ./inp_files/302923.got.cif
#   From: 2010.06.25/outbox.cif.g09.slc.cpg/sg12_152_cif.got.tgz:302923.got - 2010.06.28 00:19:55.
