data_PCOD8094120
_publ_section_title
;
Structure prediction by ZEFSAII (Michael W. Deem and Ramdas Pophale) SiO2 
 PCOD8094120
Probable space group: C 2/M
;
_chemical_formula_sum "Si O2"
_cell_formula_units_Z 64
_cell_length_a 15.449256
_cell_length_b 17.246716
_cell_length_c 14.891277
_cell_angle_alpha 90.000000
_cell_angle_beta 131.152058
_cell_angle_gamma 90.000000
_cell_volume 2987.591225
_symmetry_space_group_name_H-M "C 2/M"
_symmetry_group_IT_number 12
_symmetry_cell_setting 'monoclinic'
loop_
_space_group_symop_operation_xyz
x,y,z
-x,y,-z
-x,-y,-z
x,-y,z
1/2+x,1/2+y,z
1/2-x,1/2+y,-z
1/2-x,1/2-y,-z
1/2+x,1/2-y,z
loop_
_atom_site_type_symbol
_atom_site_label
_atom_site_fract_x
_atom_site_fract_y
_atom_site_fract_z
Si Si1 0.997690 0.583123 0.764864
Si Si2 0.294441 0.666217 0.553175
Si Si3 0.697693 0.693116 0.794513
Si Si4 0.388152 0.694775 0.977210
Si Si5 0.135501 0.089638 0.584998
Si Si6 0.997688 0.248377 0.768679
Si Si7 0.077282 0.585054 0.478898
Si Si8 0.254594 0.413215 0.004029
O O1 0.940030 0.500000 0.759980
O O2 0.933835 0.666466 0.735769
O O3 0.119757 0.590525 0.894684
O O4 0.004334 0.577139 0.662848
O O5 0.250000 0.750000 0.500000
O O6 0.322929 0.614778 0.485514
O O7 0.406433 0.679028 0.692791
O O8 0.197959 0.626425 0.546739
O O9 0.690840 0.646208 0.696853
O O10 0.584073 0.744520 0.740946
O O11 0.808598 0.748976 0.862606
O O12 0.713273 0.632174 0.884849
O O13 0.425441 0.740615 0.091198
O O14 0.500000 0.667699 0.000000
O O15 0.317613 0.619536 0.958906
O O16 0.000000 0.098185 0.500000
O O17 0.172851 0.000000 0.626081
O O18 0.109281 0.500000 0.538097
O O19 0.000000 0.630289 0.500000
O O20 0.298191 0.500000 0.048378
#
# Coordination Sequence:
#
# PCOD8094120 Si02
#       8
#     8   8   8   8   8   8   8   8
#     4  10  19  36  64  90 124 169 217 273 329 393
#     4  12  25  39  65  96 128 172 220 269 326 396
#     4  11  21  42  68  92 130 174 214 275 333 396
#     4  11  24  38  61  94 132 169 219 280 326 390
#     4  11  25  45  68 100 136 172 218 275 336 401
#     4  11  21  42  61  95 126 169 227 271 327 391
#     4  10  23  42  62  90 130 173 216 270 329 393
#     4  10  20  39  66  91 121 172 222 268 331 399
#
# _framework density 21.421939999999999
#
# number of rings (size 3 to 8) (size 9 to 14) (size 15 to 20)
#    0.000    1.250    5.000    1.500    1.750    2.750 
#    0.000    0.625    0.000    1.125    0.000    0.000 
#    0.000    0.000    0.000    0.000    0.000    0.000 
#
# Total GULP energy -396487.129919 kJ/mol
# GULP energy per Si atom -12390.222810 kJ/mol
# Density = 2.137318 g / cm^3
# Si number density = 21.421940 Si / 1000 Ang^3
#
#
#
# Elastic Constant Matrix: (Units=GPa)
#
#
# Indices 1 2 3 4 5 6 
#
# 1 111.2077 29.8127 20.8390 0.0000 10.3522 0.0000
# 2 29.8127 108.9653 25.0771 0.0000 2.6111 0.0000
# 3 20.8390 25.0771 84.2695 0.0000 7.2358 0.0000
# 4 0.0000 0.0000 0.0000 32.4171 0.0000 -5.1519
# 5 10.3522 2.6111 7.2358 0.0000 20.2232 0.0000
# 6 0.0000 0.0000 0.0000 -5.1519 0.0000 18.2232
#
#
#
# Elastic Compliance Matrix: (Units=1/GPa)
#
#
# Indices 1 2 3 4 5 6 
#
# 1 0.010318 -0.002380 -0.001461 0.000000 -0.004452 0.000000
# 2 -0.002380 0.010402 -0.002575 0.000000 0.000797 0.000000
# 3 -0.001461 -0.002575 0.013311 0.000000 -0.003682 0.000000
# 4 0.000000 0.000000 0.000000 0.032299 0.000000 0.009131
# 5 -0.004452 0.000797 -0.003682 0.000000 0.052942 0.000000
# 6 0.000000 0.000000 0.000000 0.009131 0.000000 0.057457
#
#
# Mechanical properties :
#
#
# Convention : Reuss Voigt Hill
#
# Bulk Modulus (GPa) = 47.17447 50.65557 48.91502
# Shear Modulus (GPa) = 25.42881 29.42029 27.42455
#
# Velocity S-wave (km/s) = 3.44909 3.70992 3.58188
# Velocity P-wave (km/s) = 6.15881 6.48454 6.32378
#
# Compressibility (1/GPa) = 0.02119791
#
# Stress axis : x y z
#
# Youngs Moduli (GPa) = 96.91355 96.13511 75.12856
#
# Poissons Ratio (x) = 0.22882 0.10977
# Poissons Ratio (y) = 0.23067 0.19348
# Poissons Ratio (z) = 0.14160 0.24757
#
# Static dielectric constant tensor:
#      x y z
#    x 2.724930 0.000000 -0.370480 
#    y 0.000000 4.324900 0.000000 
#    z -0.370480 0.000000 3.734710 
# 
# 
# High freq. dielectric constant tensor:
#      x y z
#    x 1.824420 0.000000 0.008600 
#    y 0.000000 1.853490 0.000000 
#    z 0.008600 0.000000 1.845850 
# 
# From -- ./inp_files/216861.got.cif
#   From: 2010.06.25/outbox.cif.g09.slc.cpg/sg12_109_cif.got.tgz:216861.got - 2010.06.28 00:19:55.
