data_PCOD8094310
_publ_section_title
;
Structure prediction by ZEFSAII (Michael W. Deem and Ramdas Pophale) SiO2 
 PCOD8094310
Probable space group: C 2/M
;
_chemical_formula_sum "Si O2"
_cell_formula_units_Z 56
_cell_length_a 22.886302
_cell_length_b 8.259945
_cell_length_c 16.564469
_cell_angle_alpha 90.000000
_cell_angle_beta 125.047343
_cell_angle_gamma 90.000000
_cell_volume 2563.559045
_symmetry_space_group_name_H-M "C 2/M"
_symmetry_group_IT_number 12
_symmetry_cell_setting 'monoclinic'
loop_
_space_group_symop_operation_xyz
x,y,z
-x,y,-z
-x,-y,-z
x,-y,z
1/2+x,1/2+y,z
1/2-x,1/2+y,-z
1/2-x,1/2-y,-z
1/2+x,1/2-y,z
loop_
_atom_site_type_symbol
_atom_site_label
_atom_site_fract_x
_atom_site_fract_y
_atom_site_fract_z
Si Si1 0.864779 0.682842 0.256176
Si Si2 0.421511 0.315801 0.457468
Si Si3 0.176335 0.813825 0.222151
Si Si4 0.215695 0.192576 0.557827
Si Si5 0.027990 0.309407 0.110482
Si Si6 0.598175 0.809893 0.884860
Si Si7 0.780500 0.685852 0.905955
O O1 0.878905 0.500000 0.297339
O O2 0.877034 0.804471 0.339234
O O3 0.914115 0.729731 0.219153
O O4 0.786001 0.695706 0.157455
O O5 0.500000 0.230751 0.500000
O O6 0.437924 0.500000 0.492313
O O7 0.367502 0.249327 0.486458
O O8 0.235551 0.761488 0.332984
O O9 0.097593 0.787935 0.194620
O O10 0.175732 0.699795 0.142715
O O11 0.190617 0.000000 0.211119
O O12 0.250000 0.250000 0.500000
O O13 0.217087 0.000000 0.560492
O O14 0.041378 0.500000 0.131731
O O15 0.969297 0.235975 0.124046
O O16 0.000000 0.265299 0.000000
O O17 0.600931 0.000000 0.904571
O O18 0.672317 0.743625 0.982245
O O19 0.756816 0.500000 0.900269
#
# Coordination Sequence:
#
# PCOD8094310 Si02
#       7
#     8   8   8   8   8   8   8
#     4  11  22  37  59  91 125 157 201 257 309 363
#     4  10  23  44  68  92 122 163 209 256 314 380
#     4  12  24  38  60  92 125 158 204 255 305 365
#     4  11  24  44  70  96 126 161 205 260 320 383
#     4  10  19  37  61  83 118 168 212 251 303 366
#     4   9  20  36  57  88 124 163 207 252 303 365
#     4  11  20  37  61  85 118 164 208 245 299 365
#
# _framework density 21.844631
#
# number of rings (size 3 to 8) (size 9 to 14) (size 15 to 20)
#    0.000    1.429    2.857    3.000    0.000    2.286 
#    0.000    6.429    0.000    0.000    0.000    0.000 
#    0.000    0.000    0.000    0.000    0.000    0.000 
#
# Total GULP energy -346902.008529 kJ/mol
# GULP energy per Si atom -12389.357447 kJ/mol
# Density = 2.179491 g / cm^3
# Si number density = 21.844631 Si / 1000 Ang^3
#
#
#
# Elastic Constant Matrix: (Units=GPa)
#
#
# Indices 1 2 3 4 5 6 
#
# 1 158.2272 13.9355 33.8492 0.0000 10.7180 0.0000
# 2 13.9355 49.6413 12.4598 0.0000 0.0617 0.0000
# 3 33.8492 12.4598 61.4139 0.0000 5.6852 0.0000
# 4 0.0000 0.0000 0.0000 21.8283 0.0000 -0.1629
# 5 10.7180 0.0617 5.6852 0.0000 38.2111 0.0000
# 6 0.0000 0.0000 0.0000 -0.1629 0.0000 22.4949
#
#
#
# Elastic Compliance Matrix: (Units=1/GPa)
#
#
# Indices 1 2 3 4 5 6 
#
# 1 0.007304 -0.001131 -0.003657 0.000000 -0.001503 0.000000
# 2 -0.001131 0.021415 -0.003800 0.000000 0.000848 0.000000
# 3 -0.003657 -0.003800 0.019239 0.000000 -0.001831 0.000000
# 4 0.000000 0.000000 0.000000 0.045815 0.000000 0.000332
# 5 -0.001503 0.000848 -0.001831 0.000000 0.026863 0.000000
# 6 0.000000 0.000000 0.000000 0.000332 0.000000 0.044457
#
#
# Mechanical properties :
#
#
# Convention : Reuss Voigt Hill
#
# Bulk Modulus (GPa) = 32.48642 43.30791 37.89717
# Shear Modulus (GPa) = 25.97027 30.44272 28.20650
#
# Velocity S-wave (km/s) = 3.45173 3.73715 3.59727
# Velocity P-wave (km/s) = 5.54885 6.20404 5.88557
#
# Compressibility (1/GPa) = 0.03078209
#
# Stress axis : x y z
#
# Youngs Moduli (GPa) = 136.91619 46.69707 51.97767
#
# Poissons Ratio (x) = 0.05279 0.19009
# Poissons Ratio (y) = 0.15479 0.19752
# Poissons Ratio (z) = 0.50071 0.17745
#
# Static dielectric constant tensor:
#      x y z
#    x 4.337820 0.000000 -0.132270 
#    y 0.000000 3.557100 0.000000 
#    z -0.132270 0.000000 3.702480 
# 
# 
# High freq. dielectric constant tensor:
#      x y z
#    x 1.884490 0.000000 0.003090 
#    y 0.000000 1.831850 0.000000 
#    z 0.003090 0.000000 1.844010 
# 
# From -- ./inp_files/288427.got.cif
#   From: 2010.06.25/outbox.cif.g09.slc.cpg/sg12_145_cif.got.tgz:288427.got - 2010.06.28 00:19:55.
