data_PCOD8094985
_publ_section_title
;
Structure prediction by ZEFSAII (Michael W. Deem and Ramdas Pophale) SiO2 
 PCOD8094985
Probable space group: C 2/M
;
_chemical_formula_sum "Si O2"
_cell_formula_units_Z 56
_cell_length_a 18.726384
_cell_length_b 8.853323
_cell_length_c 29.427903
_cell_angle_alpha 90.000000
_cell_angle_beta 142.334889
_cell_angle_gamma 90.000000
_cell_volume 2981.211830
_symmetry_space_group_name_H-M "C 2/M"
_symmetry_group_IT_number 12
_symmetry_cell_setting 'monoclinic'
loop_
_space_group_symop_operation_xyz
x,y,z
-x,y,-z
-x,-y,-z
x,-y,z
1/2+x,1/2+y,z
1/2-x,1/2+y,-z
1/2-x,1/2-y,-z
1/2+x,1/2-y,z
loop_
_atom_site_type_symbol
_atom_site_label
_atom_site_fract_x
_atom_site_fract_y
_atom_site_fract_z
Si Si1 0.460676 0.679797 0.703909
Si Si2 0.576378 0.179113 0.997055
Si Si3 0.622899 0.679054 0.435276
Si Si4 0.036241 0.675480 0.569892
Si Si5 0.163268 0.820851 0.867992
Si Si6 0.796522 0.822503 0.699692
Si Si7 0.001474 0.176372 0.868108
O O1 0.458374 0.500000 0.705452
O O2 0.442286 0.736494 0.643347
O O3 0.586052 0.738190 0.786286
O O4 0.357451 0.743535 0.684702
O O5 0.514062 0.228997 0.919820
O O6 0.582207 0.000000 0.000787
O O7 0.500000 0.242626 0.000000
O O8 0.706743 0.248831 0.067672
O O9 0.635349 0.500000 0.441759
O O10 0.750000 0.750000 0.500000
O O11 0.550090 0.731045 0.441910
O O12 0.028288 0.500000 0.579721
O O13 0.166879 0.743644 0.641713
O O14 0.000000 0.700470 0.500000
O O15 0.102051 0.770895 0.883972
O O16 0.169107 0.000000 0.868915
O O17 0.875102 0.784875 0.783158
O O18 0.783961 0.000000 0.686354
O O19 0.012567 0.000000 0.884708
#
# Coordination Sequence:
#
# PCOD8094985 Si02
#       7
#     8   8   8   8   8   8   8
#     4   8  15  30  52  74  95 126 168 206 244 298
#     4  10  20  31  45  69 101 132 160 199 251 299
#     4  11  22  35  54  79 106 136 170 208 250 299
#     4  10  20  35  55  76 101 135 172 211 257 306
#     4   8  15  30  51  72  94 125 167 207 243 292
#     4   8  15  30  52  75  96 123 164 208 249 296
#     4   9  17  31  52  72  92 125 167 207 243 289
#
# _framework density 18.784306000000001
#
# number of rings (size 3 to 8) (size 9 to 14) (size 15 to 20)
#    0.000    2.857    0.000    3.429    0.000    4.000 
#    0.000    2.143    0.000   10.286    0.000    0.000 
#    0.000    0.000    0.000    0.000    0.000    0.000 
#
# Total GULP energy -347097.809110 kJ/mol
# GULP energy per Si atom -12396.350325 kJ/mol
# Density = 1.874155 g / cm^3
# Si number density = 18.784306 Si / 1000 Ang^3
#
#
#
# Elastic Constant Matrix: (Units=GPa)
#
#
# Indices 1 2 3 4 5 6 
#
# 1 131.5693 26.2761 79.9967 0.0000 7.9458 0.0000
# 2 26.2761 23.1601 25.0247 0.0001 -1.3258 -0.0003
# 3 79.9967 25.0247 135.3706 0.0000 6.8025 0.0000
# 4 0.0000 0.0001 0.0000 23.0725 0.0000 -1.2068
# 5 7.9458 -1.3258 6.8025 0.0000 39.3899 0.0000
# 6 0.0000 -0.0003 0.0000 -1.2068 0.0000 16.3208
#
#
#
# Elastic Compliance Matrix: (Units=1/GPa)
#
#
# Indices 1 2 3 4 5 6 
#
# 1 0.013092 -0.008375 -0.006094 0.000000 -0.001870 0.000000
# 2 -0.008375 0.059815 -0.006349 0.000000 0.004799 0.000001
# 3 -0.006094 -0.006349 0.012217 0.000000 -0.001094 0.000000
# 4 0.000000 0.000000 0.000000 0.043510 0.000000 0.003217
# 5 -0.001870 0.004799 -0.001094 0.000000 0.026115 0.000000
# 6 0.000000 0.000001 0.000000 0.003217 0.000000 0.061509
#
#
# Mechanical properties :
#
#
# Convention : Reuss Voigt Hill
#
# Bulk Modulus (GPa) = 22.99568 61.41055 42.20311
# Shear Modulus (GPa) = 18.35598 26.34347 22.34973
#
# Velocity S-wave (km/s) = 3.12941 3.74895 3.45310
# Velocity P-wave (km/s) = 5.03251 7.17656 6.19795
#
# Compressibility (1/GPa) = 0.04348643
#
# Stress axis : x y z
#
# Youngs Moduli (GPa) = 76.38541 16.71818 81.85200
#
# Poissons Ratio (x) = 0.14002 0.49882
# Poissons Ratio (y) = 0.63974 0.51971
# Poissons Ratio (z) = 0.46550 0.10615
#
# Static dielectric constant tensor:
#      x y z
#    x 3.652770 0.000000 0.206610 
#    y 0.000000 2.947900 0.000000 
#    z 0.206610 0.000000 3.864880 
# 
# 
# High freq. dielectric constant tensor:
#      x y z
#    x 1.731780 0.000000 0.003890 
#    y 0.000000 1.678850 0.000000 
#    z 0.003890 0.000000 1.747730 
# 
# From -- ./inp_files/363251.got.cif
#   From: 2010.06.25/outbox.cif.g09.slc.cpg/sg12_182_cif.got.tgz:363251.got - 2010.06.28 00:19:55.
