data_PCOD8094110
_publ_section_title
;
Structure prediction by ZEFSAII (Michael W. Deem and Ramdas Pophale) SiO2 
 PCOD8094110
Probable space group: C 2/M
;
_chemical_formula_sum "Si O2"
_cell_formula_units_Z 64
_cell_length_a 10.001472
_cell_length_b 17.903047
_cell_length_c 30.771155
_cell_angle_alpha 90.000000
_cell_angle_beta 38.401844
_cell_angle_gamma 90.000000
_cell_volume 3422.529854
_symmetry_space_group_name_H-M "C 2/M"
_symmetry_group_IT_number 12
_symmetry_cell_setting 'monoclinic'
loop_
_space_group_symop_operation_xyz
x,y,z
-x,y,-z
-x,-y,-z
x,-y,z
1/2+x,1/2+y,z
1/2-x,1/2+y,-z
1/2-x,1/2-y,-z
1/2+x,1/2-y,z
loop_
_atom_site_type_symbol
_atom_site_label
_atom_site_fract_x
_atom_site_fract_y
_atom_site_fract_z
Si Si1 0.290197 0.085212 0.642977
Si Si2 0.978147 0.084059 0.374749
Si Si3 0.477593 0.411486 0.796445
Si Si4 0.468356 0.088920 0.128250
Si Si5 0.428001 0.913310 0.235099
Si Si6 0.136660 0.320052 0.507823
Si Si7 0.394821 0.587152 0.141210
Si Si8 0.139703 0.821403 0.006662
O O1 0.172586 0.117111 0.716143
O O2 0.489637 0.138643 0.580951
O O3 0.113873 0.087292 0.650224
O O4 0.373767 0.000000 0.627963
O O5 0.217483 0.121373 0.312332
O O6 0.829723 0.125669 0.446486
O O7 0.988682 0.000000 0.389542
O O8 0.477480 0.500000 0.792894
O O9 0.246790 0.380343 0.840205
O O10 0.509059 0.384878 0.837750
O O11 0.466226 0.121071 0.177678
O O12 0.484711 0.000000 0.122255
O O13 0.675914 0.119899 0.051385
O O14 0.638298 0.900636 0.210602
O O15 0.374038 0.000000 0.241702
O O16 0.250000 0.250000 0.500000
O O17 0.000000 0.297365 0.500000
O O18 0.447185 0.500000 0.118400
O O19 0.484772 0.638205 0.080267
O O20 0.250000 0.750000 0.000000
O O21 0.000000 0.798528 0.000000
#
# Coordination Sequence:
#
# PCOD8094110 Si02
#       8
#     8   8   8   8   8   8   8   8
#     4   9  16  32  59  85 108 140 182 229 274 317
#     4   9  16  31  59  87 106 136 186 234 270 316
#     4   9  18  33  58  91 116 136 176 233 283 326
#     4  10  19  36  64  86 106 143 185 228 275 326
#     4   9  16  31  58  88 109 131 179 236 278 319
#     4  10  21  37  54  77 112 150 187 224 266 323
#     4  10  21  38  61  86 111 143 183 228 278 329
#     4  12  27  42  56  79 114 150 185 228 276 329
#
# _framework density 18.699617
#
# number of rings (size 3 to 8) (size 9 to 14) (size 15 to 20)
#    0.000    2.250    2.500    0.750    1.750    2.000 
#    2.250    4.375    0.000    0.750    0.000    0.000 
#    0.000    0.000    0.000    0.000    0.000    0.000 
#
# Total GULP energy -396728.913240 kJ/mol
# GULP energy per Si atom -12397.778539 kJ/mol
# Density = 1.865706 g / cm^3
# Si number density = 18.699617 Si / 1000 Ang^3
#
#
#
# Elastic Constant Matrix: (Units=GPa)
#
#
# Indices 1 2 3 4 5 6 
#
# 1 107.7075 35.9574 46.0501 0.0103 -4.5199 -0.0099
# 2 35.9574 61.9295 40.0195 -0.0069 -6.0080 -0.0049
# 3 46.0501 40.0195 130.6449 -0.0190 -12.3453 -0.0104
# 4 0.0103 -0.0069 -0.0190 4.6906 -0.0105 -3.6134
# 5 -4.5199 -6.0080 -12.3453 -0.0105 29.5156 0.0058
# 6 -0.0099 -0.0049 -0.0104 -3.6134 0.0058 24.2032
#
#
#
# Elastic Compliance Matrix: (Units=1/GPa)
#
#
# Indices 1 2 3 4 5 6 
#
# 1 0.012219 -0.005391 -0.002689 -0.000050 -0.000351 -0.000005
# 2 -0.005391 0.022582 -0.004853 0.000033 0.001741 0.000005
# 3 -0.002689 -0.004853 0.010366 0.000055 0.002936 0.000010
# 4 -0.000050 0.000033 0.000055 0.240898 0.000100 0.035964
# 5 -0.000351 0.001741 0.002936 0.000100 0.035409 0.000008
# 6 -0.000005 0.000005 0.000010 0.035964 0.000008 0.046686
#
#
# Mechanical properties :
#
#
# Convention : Reuss Voigt Hill
#
# Bulk Modulus (GPa) = 51.80709 60.48178 56.14443
# Shear Modulus (GPa) = 12.48563 23.56554 18.02559
#
# Velocity S-wave (km/s) = 2.58678 3.55380 3.10813
# Velocity P-wave (km/s) = 6.05698 7.01808 6.55517
#
# Compressibility (1/GPa) = 0.01930238
#
# Stress axis : x y z
#
# Youngs Moduli (GPa) = 81.83940 44.28229 96.46917
#
# Poissons Ratio (x) = 0.23873 0.25938
# Poissons Ratio (y) = 0.44121 0.46813
# Poissons Ratio (z) = 0.22004 0.21489
#
# Static dielectric constant tensor:
#      x y z
#    x 3.486970 0.000030 -0.055970 
#    y 0.000030 3.772080 0.000170 
#    z -0.055970 0.000170 3.667340 
# 
# 
# High freq. dielectric constant tensor:
#      x y z
#    x 1.722090 0.000000 -0.007930 
#    y 0.000000 1.689940 0.000000 
#    z -0.007930 0.000000 1.743640 
# 
# From -- ./inp_files/372905.got.cif
#   From: 2010.06.25/outbox.cif.g09.slc.cpg/sg12_187_cif.got.tgz:372905.got - 2010.06.28 00:19:55.
