data_PCOD8094440
_publ_section_title
;
Structure prediction by ZEFSAII (Michael W. Deem and Ramdas Pophale) SiO2 
 PCOD8094440
Probable space group: C 2/M
;
_chemical_formula_sum "Si O2"
_cell_formula_units_Z 64
_cell_length_a 18.799970
_cell_length_b 8.971921
_cell_length_c 32.465915
_cell_angle_alpha 90.000000
_cell_angle_beta 37.804197
_cell_angle_gamma 90.000000
_cell_volume 3356.648562
_symmetry_space_group_name_H-M "C 2/M"
_symmetry_group_IT_number 12
_symmetry_cell_setting 'monoclinic'
loop_
_space_group_symop_operation_xyz
x,y,z
-x,y,-z
-x,-y,-z
x,-y,z
1/2+x,1/2+y,z
1/2-x,1/2+y,-z
1/2-x,1/2-y,-z
1/2+x,1/2-y,z
loop_
_atom_site_type_symbol
_atom_site_label
_atom_site_fract_x
_atom_site_fract_y
_atom_site_fract_z
Si Si1 0.185377 0.322874 0.309151
Si Si2 0.770854 0.675579 0.427821
Si Si3 0.922318 0.324469 0.435444
Si Si4 0.654454 0.825239 0.696376
Si Si5 0.614720 0.175507 0.174277
Si Si6 0.507909 0.334674 0.044552
Si Si7 0.257817 0.323342 0.186834
Si Si8 0.233807 0.675282 0.963943
O O1 0.194481 0.500000 0.305663
O O2 0.270700 0.258713 0.304075
O O3 0.220595 0.259202 0.248184
O O4 0.054522 0.269313 0.377931
O O5 0.754261 0.500000 0.435919
O O6 0.869285 0.724458 0.415593
O O7 0.648031 0.749072 0.495260
O O8 0.808860 0.732107 0.365564
O O9 0.913431 0.500000 0.445120
O O10 0.520452 0.785487 0.764107
O O11 0.676744 0.000000 0.690655
O O12 0.670610 0.235112 0.191350
O O13 0.671432 0.260505 0.110441
O O14 0.638004 0.000000 0.158261
O O15 0.536378 0.500000 0.050242
O O16 0.388296 0.270508 0.117659
O O17 0.500000 0.354466 0.000000
O O18 0.604337 0.212634 0.009274
O O19 0.250850 0.500000 0.190410
O O20 0.250553 0.500000 0.959444
O O21 0.250000 0.750000 0.000000
#
# Coordination Sequence:
#
# PCOD8094440 Si02
#       8
#     8   8   8   8   8   8   8   8
#     4  10  21  36  55  82 114 149 188 229 276 334
#     4   9  18  35  58  83 110 144 185 228 276 329
#     4   9  18  34  57  83 109 143 189 232 271 323
#     4  10  22  37  56  82 114 148 185 231 281 334
#     4  10  20  40  63  83 109 148 193 233 281 339
#     4  10  19  37  63  89 114 146 190 235 286 345
#     4   9  18  35  61  84 108 146 188 230 278 337
#     4  12  26  41  59  85 118 153 191 236 287 340
#
# _framework density 19.066637
#
# number of rings (size 3 to 8) (size 9 to 14) (size 15 to 20)
#    0.000    2.125    1.250    1.875    1.750    5.250 
#    0.000    3.125    0.000    3.000    0.000    0.000 
#    0.000    0.000    0.000    0.000    0.000    0.000 
#
# Total GULP energy -396830.298577 kJ/mol
# GULP energy per Si atom -12400.946831 kJ/mol
# Density = 1.902324 g / cm^3
# Si number density = 19.066637 Si / 1000 Ang^3
#
#
#
# Elastic Constant Matrix: (Units=GPa)
#
#
# Indices 1 2 3 4 5 6 
#
# 1 121.3568 45.4293 100.4803 0.0035 8.0852 0.0107
# 2 45.4293 53.0744 57.3506 0.0199 1.3834 -0.0063
# 3 100.4803 57.3506 175.5843 0.0006 -7.6011 -0.0007
# 4 0.0035 0.0199 0.0006 29.5442 0.0007 -3.5636
# 5 8.0852 1.3834 -7.6011 0.0007 32.0399 -0.0001
# 6 0.0107 -0.0063 -0.0007 -3.5636 -0.0001 37.6413
#
#
#
# Elastic Compliance Matrix: (Units=1/GPa)
#
#
# Indices 1 2 3 4 5 6 
#
# 1 0.018068 -0.005918 -0.008682 0.000001 -0.006364 -0.000006
# 2 -0.005918 0.031462 -0.006955 -0.000020 -0.001515 0.000005
# 3 -0.008682 -0.006955 0.013179 0.000006 0.005618 0.000002
# 4 0.000001 -0.000020 0.000006 0.034239 0.000001 0.003241
# 5 -0.006364 -0.001515 0.005618 0.000001 0.034215 0.000002
# 6 -0.000006 0.000005 0.000002 0.003241 0.000002 0.026873
#
#
# Mechanical properties :
#
#
# Convention : Reuss Voigt Hill
#
# Bulk Modulus (GPa) = 51.02544 84.05955 67.54249
# Shear Modulus (GPa) = 24.07548 29.62878 26.85213
#
# Velocity S-wave (km/s) = 3.55731 3.94631 3.75684
# Velocity P-wave (km/s) = 6.61002 8.05899 7.37020
#
# Compressibility (1/GPa) = 0.01959807
#
# Stress axis : x y z
#
# Youngs Moduli (GPa) = 55.34592 31.78413 75.87920
#
# Poissons Ratio (x) = 0.18809 0.65880
# Poissons Ratio (y) = 0.32753 0.52777
# Poissons Ratio (z) = 0.48053 0.22107
#
# Static dielectric constant tensor:
#      x y z
#    x 3.480900 -0.000220 0.023000 
#    y -0.000220 2.649220 0.000030 
#    z 0.023000 0.000030 3.751640 
# 
# 
# High freq. dielectric constant tensor:
#      x y z
#    x 1.746770 0.000000 -0.001080 
#    y 0.000000 1.714830 0.000000 
#    z -0.001080 0.000000 1.758740 
# 
# From -- ./inp_files/378077.got.cif
#   From: 2010.06.25/outbox.cif.g09.slc.cpg/sg12_190_cif.got.tgz:378077.got - 2010.06.28 00:19:55.
