data_PCOD8094118
_publ_section_title
;
Structure prediction by ZEFSAII (Michael W. Deem and Ramdas Pophale) SiO2 
 PCOD8094118
Probable space group: C 2/M
;
_chemical_formula_sum "Si O2"
_cell_formula_units_Z 64
_cell_length_a 11.339409
_cell_length_b 30.224602
_cell_length_c 16.602398
_cell_angle_alpha 90.000000
_cell_angle_beta 144.388838
_cell_angle_gamma 90.000000
_cell_volume 3313.253924
_symmetry_space_group_name_H-M "C 2/M"
_symmetry_group_IT_number 12
_symmetry_cell_setting 'monoclinic'
loop_
_space_group_symop_operation_xyz
x,y,z
-x,y,-z
-x,-y,-z
x,-y,z
1/2+x,1/2+y,z
1/2-x,1/2+y,-z
1/2-x,1/2-y,-z
1/2+x,1/2-y,z
loop_
_atom_site_type_symbol
_atom_site_label
_atom_site_fract_x
_atom_site_fract_y
_atom_site_fract_z
Si Si1 0.930426 0.204139 0.677014
Si Si2 0.333059 0.156440 0.346808
Si Si3 0.632066 0.580319 0.148013
Si Si4 0.268309 0.623974 0.351161
Si Si5 0.207724 0.048862 0.937113
Si Si6 0.601408 0.802987 0.361559
Si Si7 0.991939 0.450236 0.243099
Si Si8 0.771216 0.630533 0.855211
O O1 0.782708 0.194921 0.669739
O O2 0.813814 0.198238 0.527653
O O3 0.985824 0.255731 0.715106
O O4 0.126252 0.172643 0.790162
O O5 0.500000 0.135667 0.500000
O O6 0.174577 0.119584 0.233485
O O7 0.427616 0.175602 0.318552
O O8 0.499608 0.546091 0.126418
O O9 0.837485 0.557811 0.231044
O O10 0.500000 0.598668 0.000000
O O11 0.500000 0.630887 0.500000
O O12 0.140136 0.667571 0.303932
O O13 0.244067 0.614437 0.244198
O O14 0.181951 0.582779 0.355208
O O15 0.206344 0.087695 0.870877
O O16 0.235110 0.000000 0.912137
O O17 0.388779 0.058375 0.099679
O O18 0.074175 0.500000 0.296102
O O19 0.000000 0.645708 0.000000
#
# Coordination Sequence:
#
# PCOD8094118 Si02
#       8
#     8   8   8   8   8   8   8   8
#     4  10  22  40  65  91 120 158 207 248 296 367
#     4  10  20  36  64  89 116 154 200 247 302 356
#     4  10  19  36  64  90 116 151 202 252 303 353
#     4  12  24  39  64  89 124 165 204 249 304 363
#     4  10  21  39  64  91 119 162 209 250 300 366
#     4  10  22  40  65  91 118 160 204 250 299 364
#     4  10  21  39  63  91 122 161 205 252 305 362
#     4  12  24  40  62  91 125 165 201 250 305 359
#
# _framework density 19.316358999999999
#
# number of rings (size 3 to 8) (size 9 to 14) (size 15 to 20)
#    0.000    1.500    5.000    0.375    1.750    3.000 
#    0.000    1.250    0.000    0.750    0.000    0.000 
#    0.000    0.000    0.000    0.000    0.000    0.000 
#
# Total GULP energy -396776.652777 kJ/mol
# GULP energy per Si atom -12399.270399 kJ/mol
# Density = 1.927239 g / cm^3
# Si number density = 19.316359 Si / 1000 Ang^3
#
#
#
# Elastic Constant Matrix: (Units=GPa)
#
#
# Indices 1 2 3 4 5 6 
#
# 1 102.1984 42.6945 28.7340 0.0000 4.9454 0.0000
# 2 42.6945 136.9165 31.7377 0.0000 3.6372 0.0000
# 3 28.7340 31.7377 57.3273 0.0000 7.4777 0.0000
# 4 0.0000 0.0000 0.0000 28.9601 0.0000 -0.8090
# 5 4.9454 3.6372 7.4777 0.0000 30.9790 0.0000
# 6 0.0000 0.0000 0.0000 -0.8090 0.0000 27.2438
#
#
#
# Elastic Compliance Matrix: (Units=1/GPa)
#
#
# Indices 1 2 3 4 5 6 
#
# 1 0.012236 -0.002749 -0.004542 0.000000 -0.000534 0.000000
# 2 -0.002749 0.008997 -0.003637 0.000000 0.000260 0.000000
# 3 -0.004542 -0.003637 0.022285 0.000000 -0.004227 0.000000
# 4 0.000000 0.000000 0.000000 0.034559 0.000000 0.001026
# 5 -0.000534 0.000260 -0.004227 0.000000 0.033355 0.000000
# 6 0.000000 0.000000 0.000000 0.001026 0.000000 0.036736
#
#
# Mechanical properties :
#
#
# Convention : Reuss Voigt Hill
#
# Bulk Modulus (GPa) = 46.16126 55.86383 51.01255
# Shear Modulus (GPa) = 28.20973 30.32166 29.26569
#
# Velocity S-wave (km/s) = 3.82567 3.96629 3.89662
# Velocity P-wave (km/s) = 6.59270 7.06814 6.83456
#
# Compressibility (1/GPa) = 0.02166319
#
# Stress axis : x y z
#
# Youngs Moduli (GPa) = 81.72679 111.14802 44.87302
#
# Poissons Ratio (x) = 0.30550 0.20380
# Poissons Ratio (y) = 0.22463 0.16322
# Poissons Ratio (z) = 0.37117 0.40428
#
# Static dielectric constant tensor:
#      x y z
#    x 3.614400 0.000000 0.118290 
#    y 0.000000 3.487850 0.000000 
#    z 0.118290 0.000000 3.099130 
# 
# 
# High freq. dielectric constant tensor:
#      x y z
#    x 1.768160 0.000000 0.008780 
#    y 0.000000 1.750830 0.000000 
#    z 0.008780 0.000000 1.730510 
# 
# From -- ./inp_files/266294.got.cif
#   From: 2010.06.25/outbox.cif.g09.slc.cpg/sg12_134_cif.got.tgz:266294.got - 2010.06.28 00:19:55.
