data_PCOD8094262
_publ_section_title
;
Structure prediction by ZEFSAII (Michael W. Deem and Ramdas Pophale) SiO2 
 PCOD8094262
Probable space group: C 2/M
;
_chemical_formula_sum "Si O2"
_cell_formula_units_Z 64
_cell_length_a 30.826004
_cell_length_b 9.115784
_cell_length_c 26.128421
_cell_angle_alpha 90.000000
_cell_angle_beta 152.784911
_cell_angle_gamma 90.000000
_cell_volume 3357.810217
_symmetry_space_group_name_H-M "C 2/M"
_symmetry_group_IT_number 12
_symmetry_cell_setting 'monoclinic'
loop_
_space_group_symop_operation_xyz
x,y,z
-x,y,-z
-x,-y,-z
x,-y,z
1/2+x,1/2+y,z
1/2-x,1/2+y,-z
1/2-x,1/2-y,-z
1/2+x,1/2-y,z
loop_
_atom_site_type_symbol
_atom_site_label
_atom_site_fract_x
_atom_site_fract_y
_atom_site_fract_z
Si Si1 0.671232 0.830607 0.001837
Si Si2 0.209525 0.331110 0.214191
Si Si3 0.162827 0.672075 0.382426
Si Si4 0.906227 0.174471 0.374490
Si Si5 0.029027 0.671250 0.764725
Si Si6 0.115044 0.668038 0.218907
Si Si7 0.579333 0.325950 0.999969
Si Si8 0.611767 0.330085 0.759579
O O1 0.617402 0.786991 0.893574
O O2 0.635646 0.728269 0.009695
O O3 0.651162 0.000000 0.995664
O O4 0.781883 0.801688 0.109315
O O5 0.197671 0.500000 0.184005
O O6 0.313653 0.271683 0.308428
O O7 0.196605 0.315683 0.261655
O O8 0.129188 0.235332 0.102891
O O9 0.176231 0.500000 0.403070
O O10 0.250000 0.750000 0.500000
O O11 0.159615 0.717402 0.319526
O O12 0.066468 0.726490 0.308200
O O13 0.900848 0.233920 0.310829
O O14 0.000000 0.239547 0.500000
O O15 0.909505 0.000000 0.377906
O O16 0.025400 0.500000 0.750127
O O17 0.038972 0.750145 0.720802
O O18 0.078375 0.500000 0.184081
O O19 0.027959 0.771014 0.113287
O O20 0.580131 0.500000 0.002444
O O21 0.585484 0.500000 0.732735
#
# Coordination Sequence:
#
# PCOD8094262 Si02
#       8
#     8   8   8   8   8   8   8   8
#     4  10  19  37  60  82 113 151 188 229 280 342
#     4  10  20  37  61  84 112 152 192 231 281 342
#     4  10  22  40  60  84 114 151 194 239 284 329
#     4   9  18  34  57  85 112 142 189 241 277 314
#     4  10  21  37  58  82 116 151 183 230 283 339
#     4  10  21  39  62  84 111 153 195 230 279 345
#     4  12  23  34  56  88 120 149 182 235 291 342
#     4  10  20  34  58  87 115 146 184 233 280 332
#
# _framework density 19.060040999999998
#
# number of rings (size 3 to 8) (size 9 to 14) (size 15 to 20)
#    0.000    1.875    2.500    1.875    0.000    5.000 
#    0.000    2.500    0.000    1.500    0.000    0.000 
#    0.000    0.000    0.000    0.000    0.000    0.000 
#
# Total GULP energy -396900.038215 kJ/mol
# GULP energy per Si atom -12403.126194 kJ/mol
# Density = 1.901666 g / cm^3
# Si number density = 19.060041 Si / 1000 Ang^3
#
#
#
# Elastic Constant Matrix: (Units=GPa)
#
#
# Indices 1 2 3 4 5 6 
#
# 1 160.3455 47.3732 70.9702 0.0000 -14.8465 0.0000
# 2 47.3732 61.3685 43.2414 0.0000 -0.5864 0.0000
# 3 70.9702 43.2414 149.6498 0.0000 -6.2546 0.0000
# 4 0.0000 0.0000 0.0000 23.6203 0.0000 -1.1942
# 5 -14.8465 -0.5864 -6.2546 0.0000 15.8728 0.0000
# 6 0.0000 0.0000 0.0000 -1.1942 0.0000 29.4481
#
#
#
# Elastic Compliance Matrix: (Units=1/GPa)
#
#
# Indices 1 2 3 4 5 6 
#
# 1 0.009822 -0.005597 -0.002710 0.000000 0.007913 0.000000
# 2 -0.005597 0.023690 -0.004446 0.000000 -0.006112 0.000000
# 3 -0.002710 -0.004446 0.009293 0.000000 0.000962 0.000000
# 4 0.000000 0.000000 0.000000 0.042423 0.000000 0.001720
# 5 0.007913 -0.006112 0.000962 0.000000 0.070555 0.000000
# 6 0.000000 0.000000 0.000000 0.001720 0.000000 0.034028
#
#
# Mechanical properties :
#
#
# Convention : Reuss Voigt Hill
#
# Bulk Modulus (GPa) = 57.81062 77.17037 67.49050
# Shear Modulus (GPa) = 22.61572 27.77350 25.19461
#
# Velocity S-wave (km/s) = 3.44837 3.82142 3.63968
# Velocity P-wave (km/s) = 6.80086 7.74899 7.29036
#
# Compressibility (1/GPa) = 0.01729786
#
# Stress axis : x y z
#
# Youngs Moduli (GPa) = 101.80883 42.21146 107.61292
#
# Poissons Ratio (x) = 0.23626 0.29165
# Poissons Ratio (y) = 0.56983 0.47849
# Poissons Ratio (z) = 0.27592 0.18769
#
# Static dielectric constant tensor:
#      x y z
#    x 3.639490 0.000000 -0.037670 
#    y 0.000000 3.225060 0.000000 
#    z -0.037670 0.000000 3.553980 
# 
# 
# High freq. dielectric constant tensor:
#      x y z
#    x 1.755610 0.000000 -0.002590 
#    y 0.000000 1.712710 0.000000 
#    z -0.002590 0.000000 1.739220 
# 
# From -- ./inp_files/353504.got.cif
#   From: 2010.06.25/outbox.cif.g09.slc.cpg/sg12_177_cif.got.tgz:353504.got - 2010.06.28 00:19:55.
