data_PCOD8094039
_publ_section_title
;
Structure prediction by ZEFSAII (Michael W. Deem and Ramdas Pophale) SiO2 
 PCOD8094039
Probable space group: C 2/M
;
_chemical_formula_sum "Si O2"
_cell_formula_units_Z 56
_cell_length_a 19.027784
_cell_length_b 8.633172
_cell_length_c 17.778793
_cell_angle_alpha 90.000000
_cell_angle_beta 94.434599
_cell_angle_gamma 90.000000
_cell_volume 2911.781331
_symmetry_space_group_name_H-M "C 2/M"
_symmetry_group_IT_number 12
_symmetry_cell_setting 'monoclinic'
loop_
_space_group_symop_operation_xyz
x,y,z
-x,y,-z
-x,-y,-z
x,-y,z
1/2+x,1/2+y,z
1/2-x,1/2+y,-z
1/2-x,1/2-y,-z
1/2+x,1/2-y,z
loop_
_atom_site_type_symbol
_atom_site_label
_atom_site_fract_x
_atom_site_fract_y
_atom_site_fract_z
Si Si1 0.447367 0.669628 0.428800
Si Si2 0.711269 0.318502 0.569242
Si Si3 0.000018 0.323227 0.296907
Si Si4 0.108595 0.821133 0.817616
Si Si5 0.607350 0.682894 0.209993
Si Si6 0.996954 0.317902 0.085522
Si Si7 0.252988 0.684327 0.258637
O O1 0.500000 0.645565 0.500000
O O2 0.438613 0.500000 0.387882
O O3 0.370473 0.728537 0.446957
O O4 0.484783 0.801789 0.382865
O O5 0.723026 0.500000 0.566909
O O6 0.750000 0.250000 0.500000
O O7 0.738232 0.257330 0.653650
O O8 0.987464 0.500000 0.270775
O O9 0.949001 0.204000 0.251147
O O10 0.078832 0.269328 0.282694
O O11 0.080574 0.726964 0.888282
O O12 0.181814 0.761240 0.788435
O O13 0.113472 0.000000 0.840580
O O14 0.602899 0.500000 0.218623
O O15 0.560861 0.734506 0.134568
O O16 0.687870 0.736065 0.210892
O O17 0.008567 0.500000 0.094093
O O18 0.000000 0.262255 0.000000
O O19 0.245795 0.500000 0.256828
#
# Coordination Sequence:
#
# PCOD8094039 Si02
#       7
#     8   8   8   8   8   8   8
#     4  10  21  38  57  78 108 146 192 242 292 345
#     4  10  22  39  56  80 115 153 193 241 297 347
#     4  11  21  35  56  81 111 146 190 239 286 342
#     4  10  19  36  62  86 113 151 192 232 282 339
#     4  11  23  37  59  87 116 151 195 237 281 340
#     4  10  21  39  63  91 123 153 185 231 285 340
#     4  10  21  39  59  82 118 155 192 242 293 342
#
# _framework density 19.232213999999999
#
# number of rings (size 3 to 8) (size 9 to 14) (size 15 to 20)
#    0.000    1.714    1.429    5.143    2.000    3.714 
#    0.000    0.714    0.000    0.000    0.000    0.000 
#    0.000    0.000    0.000    0.000    0.000    0.000 
#
# Total GULP energy -347021.602632 kJ/mol
# GULP energy per Si atom -12393.628665 kJ/mol
# Density = 1.918844 g / cm^3
# Si number density = 19.232214 Si / 1000 Ang^3
#
#
#
# Elastic Constant Matrix: (Units=GPa)
#
#
# Indices 1 2 3 4 5 6 
#
# 1 135.5952 36.5959 64.7577 0.0000 -11.5681 0.0000
# 2 36.5959 61.4171 36.4364 0.0000 -7.6017 0.0000
# 3 64.7577 36.4364 117.8782 0.0000 -22.2199 0.0000
# 4 0.0000 0.0000 0.0000 46.9326 0.0000 -1.9754
# 5 -11.5681 -7.6017 -22.2199 0.0000 28.6851 0.0000
# 6 0.0000 0.0000 0.0000 -1.9754 0.0000 30.5279
#
#
#
# Elastic Compliance Matrix: (Units=1/GPa)
#
#
# Indices 1 2 3 4 5 6 
#
# 1 0.010581 -0.003503 -0.004802 0.000000 -0.000381 0.000000
# 2 -0.003503 0.021107 -0.004463 0.000000 0.000723 0.000000
# 3 -0.004802 -0.004463 0.013950 0.000000 0.007686 0.000000
# 4 0.000000 0.000000 0.000000 0.021365 0.000000 0.001382
# 5 -0.000381 0.000723 0.007686 0.000000 0.040853 0.000000
# 6 0.000000 0.000000 0.000000 0.001382 0.000000 0.032846
#
#
# Mechanical properties :
#
#
# Convention : Reuss Voigt Hill
#
# Bulk Modulus (GPa) = 49.74837 65.60783 57.67810
# Shear Modulus (GPa) = 28.91173 33.03582 30.97377
#
# Velocity S-wave (km/s) = 3.88144 4.14905 4.01748
# Velocity P-wave (km/s) = 6.78313 7.55913 7.18162
#
# Compressibility (1/GPa) = 0.02010116
#
# Stress axis : x y z
#
# Youngs Moduli (GPa) = 94.50769 47.37764 71.68595
#
# Poissons Ratio (x) = 0.16598 0.34422
# Poissons Ratio (y) = 0.33109 0.31996
# Poissons Ratio (z) = 0.45380 0.21146
#
# Static dielectric constant tensor:
#      x y z
#    x 2.927700 0.000000 0.695060 
#    y 0.000000 3.461050 0.000000 
#    z 0.695060 0.000000 2.470680 
# 
# 
# High freq. dielectric constant tensor:
#      x y z
#    x 1.754900 0.000000 -0.012500 
#    y 0.000000 1.748340 0.000000 
#    z -0.012500 0.000000 1.734510 
# 
# From -- ./inp_files/280441.got.cif
#   From: 2010.06.25/outbox.cif.g09.slc.cpg/sg12_141_cif.got.tgz:280441.got - 2010.06.28 00:19:55.
