data_PCOD8094871
_publ_section_title
;
Structure prediction by ZEFSAII (Michael W. Deem and Ramdas Pophale) SiO2 
 PCOD8094871
Probable space group: C 2/M
;
_chemical_formula_sum "Si O2"
_cell_formula_units_Z 60
_cell_length_a 11.694185
_cell_length_b 21.446668
_cell_length_c 22.137587
_cell_angle_alpha 90.000000
_cell_angle_beta 148.867008
_cell_angle_gamma 90.000000
_cell_volume 2870.600152
_symmetry_space_group_name_H-M "C 2/M"
_symmetry_group_IT_number 12
_symmetry_cell_setting 'monoclinic'
loop_
_space_group_symop_operation_xyz
x,y,z
-x,y,-z
-x,-y,-z
x,-y,z
1/2+x,1/2+y,z
1/2-x,1/2+y,-z
1/2-x,1/2-y,-z
1/2+x,1/2-y,z
loop_
_atom_site_type_symbol
_atom_site_label
_atom_site_fract_x
_atom_site_fract_y
_atom_site_fract_z
Si Si1 0.129239 0.717468 0.751140
Si Si2 0.756030 0.369800 0.623703
Si Si3 0.843141 0.569281 0.543179
Si Si4 0.658803 0.929344 0.208627
Si Si5 0.841814 0.070721 0.024864
Si Si6 0.000000 0.832832 0.000000
Si Si7 0.204952 0.876372 0.272339
Si Si8 0.519410 0.354600 0.317727
O O1 0.323289 0.712516 0.888610
O O2 0.213492 0.682209 0.729777
O O3 0.902588 0.690668 0.675679
O O4 0.081292 0.787888 0.710253
O O5 0.500000 0.352068 0.500000
O O6 0.829365 0.423589 0.609565
O O7 0.806594 0.391772 0.713927
O O8 0.758881 0.500000 0.487694
O O9 0.696223 0.623619 0.447494
O O10 0.094047 0.574854 0.632960
O O11 0.816461 0.903012 0.227289
O O12 0.725177 0.000000 0.252631
O O13 0.412794 0.924088 0.070897
O O14 0.995159 0.087866 0.150395
O O15 0.895234 0.000000 0.026964
O O16 0.873739 0.120791 0.987157
O O17 0.137634 0.851385 0.306999
#
# Coordination Sequence:
#
# PCOD8094871 Si02
#       8
#     8   8   8   8   8   4   8   8
#     4  10  25  42  67  96 128 169 225 272 320 384
#     4  11  22  41  68  98 129 167 216 278 324 380
#     4  11  24  42  66  95 130 173 218 268 325 387
#     4  11  24  41  65  99 132 170 217 270 333 386
#     4  10  21  39  67  98 132 166 214 271 325 386
#     4  10  19  42  66  96 129 168 218 270 328 374
#     4  10  25  43  63  97 130 171 219 265 324 389
#     4  12  26  42  65  92 132 181 215 266 322 395
#
# _framework density 20.901553
#
# number of rings (size 3 to 8) (size 9 to 14) (size 15 to 20)
#    0.000    1.333    2.667    1.800    1.867    8.000 
#    0.000    4.000    0.000    0.000    0.000    0.000 
#    0.000    0.000    0.000    0.000    0.000    0.000 
#
# Total GULP energy -372043.468346 kJ/mol
# GULP energy per Si atom -12401.448945 kJ/mol
# Density = 2.085398 g / cm^3
# Si number density = 20.901553 Si / 1000 Ang^3
#
#
#
# Elastic Constant Matrix: (Units=GPa)
#
#
# Indices 1 2 3 4 5 6 
#
# 1 100.4403 31.0581 31.9577 0.0018 14.3962 0.0015
# 2 31.0581 89.6192 58.7591 0.0016 -1.7255 -0.0037
# 3 31.9577 58.7591 125.1151 0.0112 20.4549 0.0014
# 4 0.0018 0.0016 0.0112 30.4583 0.0031 7.2480
# 5 14.3962 -1.7255 20.4549 0.0031 31.6319 0.0000
# 6 0.0015 -0.0037 0.0014 7.2480 0.0000 10.5608
#
#
#
# Elastic Compliance Matrix: (Units=1/GPa)
#
#
# Indices 1 2 3 4 5 6 
#
# 1 0.012116 -0.004157 -0.000228 0.000001 -0.005594 -0.000004
# 2 -0.004157 0.018823 -0.009231 0.000000 0.008888 0.000009
# 3 -0.000228 -0.009231 0.013924 -0.000003 -0.009404 -0.000003
# 4 0.000001 0.000000 -0.000003 0.039240 -0.000002 -0.026931
# 5 -0.005594 0.008888 -0.009404 -0.000002 0.040725 0.000007
# 6 -0.000004 0.000009 -0.000003 -0.026931 0.000007 0.113173
#
#
# Mechanical properties :
#
#
# Convention : Reuss Voigt Hill
#
# Bulk Modulus (GPa) = 56.72232 62.08050 59.40141
# Shear Modulus (GPa) = 18.44275 27.42350 22.93313
#
# Velocity S-wave (km/s) = 2.97368 3.62613 3.31599
# Velocity P-wave (km/s) = 6.24397 6.87732 6.56828
#
# Compressibility (1/GPa) = 0.01762975
#
# Stress axis : x y z
#
# Youngs Moduli (GPa) = 82.53641 53.12785 71.82096
#
# Poissons Ratio (x) = 0.22086 0.01637
# Poissons Ratio (y) = 0.34311 0.66298
# Poissons Ratio (z) = 0.01881 0.49043
#
# Static dielectric constant tensor:
#      x y z
#    x 3.761980 0.000000 0.182880 
#    y 0.000000 3.636090 -0.000010 
#    z 0.182880 -0.000010 3.981580 
# 
# 
# High freq. dielectric constant tensor:
#      x y z
#    x 1.818150 0.000000 0.013460 
#    y 0.000000 1.813740 0.000000 
#    z 0.013460 0.000000 1.832420 
# 
# From -- ./inp_files/336895.got.cif
#   From: 2010.06.25/outbox.cif.g09.slc.cpg/sg12_169_cif.got.tgz:336895.got - 2010.06.28 00:19:55.
