data_PCOD8094471
_publ_section_title
;
Structure prediction by ZEFSAII (Michael W. Deem and Ramdas Pophale) SiO2 
 PCOD8094471
Probable space group: C 2/M
;
_chemical_formula_sum "Si O2"
_cell_formula_units_Z 56
_cell_length_a 18.464903
_cell_length_b 15.792378
_cell_length_c 20.772251
_cell_angle_alpha 90.000000
_cell_angle_beta 27.795203
_cell_angle_gamma 90.000000
_cell_volume 2824.588934
_symmetry_space_group_name_H-M "C 2/M"
_symmetry_group_IT_number 12
_symmetry_cell_setting 'monoclinic'
loop_
_space_group_symop_operation_xyz
x,y,z
-x,y,-z
-x,-y,-z
x,-y,z
1/2+x,1/2+y,z
1/2-x,1/2+y,-z
1/2-x,1/2-y,-z
1/2+x,1/2-y,z
loop_
_atom_site_type_symbol
_atom_site_label
_atom_site_fract_x
_atom_site_fract_y
_atom_site_fract_z
Si Si1 0.952789 0.000000 0.611849
Si Si2 0.515158 0.660927 0.648141
Si Si3 0.063667 0.669323 0.812660
Si Si4 0.756819 0.246792 0.070781
Si Si5 0.233569 0.405846 0.455200
Si Si6 0.445381 0.095940 0.773806
Si Si7 0.605080 0.000000 0.857114
Si Si8 0.864000 0.272734 0.555888
O O1 0.000000 0.000000 0.500000
O O2 0.016963 0.918390 0.598309
O O3 0.771247 0.000000 0.758508
O O4 0.350476 0.681461 0.811073
O O5 0.638598 0.647560 0.607283
O O6 0.567324 0.740941 0.565722
O O7 0.072433 0.580760 0.840392
O O8 0.231516 0.711907 0.688108
O O9 0.022557 0.648796 0.771205
O O10 0.935160 0.729914 0.948167
O O11 0.703395 0.151574 0.133645
O O12 0.750000 0.250000 0.000000
O O13 0.298779 0.500000 0.392768
O O14 0.210121 0.363658 0.403377
O O15 0.070195 0.409649 0.619777
O O16 0.392914 0.000000 0.834448
O O17 0.500000 0.000000 0.000000
O O18 0.000000 0.282337 0.500000
#
# Coordination Sequence:
#
# PCOD8094471 Si02
#       8
#     4   8   8   8   8   8   4   8
#     4  12  26  38  62 102 137 168 206 260 331 413
#     4  12  21  42  63  94 132 165 216 263 325 391
#     4  11  22  40  60  89 129 170 211 257 318 380
#     4  10  22  37  60  92 127 166 215 272 314 375
#     4  11  22  39  68  95 122 164 216 272 319 377
#     4  10  19  37  64  91 120 160 215 267 313 375
#     4  12  24  40  58  90 136 180 204 241 320 403
#     4  12  25  41  65  94 128 170 214 268 325 389
#
# _framework density 19.825893000000001
#
# number of rings (size 3 to 8) (size 9 to 14) (size 15 to 20)
#    0.000    0.857    4.286    5.143    0.000    0.286 
#    1.286    0.714    0.000    0.000    0.000    2.000 
#    0.000    0.000    0.000    0.000    0.000    0.000 
#
# Total GULP energy -347148.961773 kJ/mol
# GULP energy per Si atom -12398.177206 kJ/mol
# Density = 1.978077 g / cm^3
# Si number density = 19.825893 Si / 1000 Ang^3
#
#
#
# Elastic Constant Matrix: (Units=GPa)
#
#
# Indices 1 2 3 4 5 6 
#
# 1 103.2690 53.8541 38.5064 0.0017 -17.2275 0.0098
# 2 53.8541 92.6693 19.6949 0.0325 1.0693 0.0465
# 3 38.5064 19.6949 101.9512 0.0268 -0.4894 0.0691
# 4 0.0017 0.0325 0.0268 33.8356 0.0014 -9.0325
# 5 -17.2275 1.0693 -0.4894 0.0014 30.8540 -0.0102
# 6 0.0098 0.0465 0.0691 -9.0325 -0.0102 -15.0838
#
#
#
# Elastic Compliance Matrix: (Units=1/GPa)
#
#
# Indices 1 2 3 4 5 6 
#
# 1 0.018390 -0.009743 -0.005013 -0.000001 0.010526 -0.000048
# 2 -0.009743 0.016421 0.000479 -0.000002 -0.006002 0.000051
# 3 -0.005013 0.000479 0.011597 0.000004 -0.002632 0.000051
# 4 -0.000001 -0.000002 0.000004 0.025481 -0.000006 -0.015259
# 5 0.010526 -0.006002 -0.002632 -0.000006 0.038454 -0.000046
# 6 -0.000048 0.000051 0.000051 -0.015259 -0.000046 -0.057159
#
#
# Mechanical properties :
#
#
# Convention : Reuss Voigt Hill
#
# Bulk Modulus (GPa) = 56.01334 58.00004 57.00669
# Shear Modulus (GPa) = 57.01996 22.31011 39.66504
#
# Velocity S-wave (km/s) = 5.36869 3.35819 4.47774
# Velocity P-wave (km/s) = 8.16972 6.65994 7.45316
#
# Compressibility (1/GPa) = 0.01785289
#
# Stress axis : x y z
#
# Youngs Moduli (GPa) = 54.37883 60.89922 86.23081
#
# Poissons Ratio (x) = 0.59334 0.43227
# Poissons Ratio (y) = 0.52981 -0.04130
# Poissons Ratio (z) = 0.27260 -0.02917
#
# Static dielectric constant tensor:
#      x y z
#    x 3.501590 0.000000 -0.114660 
#    y 0.000000 4.031350 0.000030 
#    z -0.114660 0.000030 3.892400 
# 
# 
# High freq. dielectric constant tensor:
#      x y z
#    x 1.753840 0.000000 -0.002190 
#    y 0.000000 1.784060 0.000000 
#    z -0.002190 0.000000 1.778810 
# 
# From -- ./inp_files/316736.got.cif
#   From: 2010.06.25/outbox.cif.g09.slc.cpg/sg12_159_cif.got.tgz:316736.got - 2010.06.28 00:19:55.
