data_PCOD8094325
_publ_section_title
;
Structure prediction by ZEFSAII (Michael W. Deem and Ramdas Pophale) SiO2 
 PCOD8094325
Probable space group: C 2/M
;
_chemical_formula_sum "Si O2"
_cell_formula_units_Z 48
_cell_length_a 24.800329
_cell_length_b 9.023225
_cell_length_c 12.300160
_cell_angle_alpha 90.000000
_cell_angle_beta 109.598689
_cell_angle_gamma 90.000000
_cell_volume 2593.050160
_symmetry_space_group_name_H-M "C 2/M"
_symmetry_group_IT_number 12
_symmetry_cell_setting 'monoclinic'
loop_
_space_group_symop_operation_xyz
x,y,z
-x,y,-z
-x,-y,-z
x,-y,z
1/2+x,1/2+y,z
1/2-x,1/2+y,-z
1/2-x,1/2-y,-z
1/2+x,1/2-y,z
loop_
_atom_site_type_symbol
_atom_site_label
_atom_site_fract_x
_atom_site_fract_y
_atom_site_fract_z
Si Si1 0.246460 0.173130 0.881846
Si Si2 0.943710 0.326861 0.127599
Si Si3 0.440241 0.324914 0.745912
Si Si4 0.057196 0.670299 0.478597
Si Si5 0.636963 0.830376 0.731093
Si Si6 0.868151 0.672064 0.869719
O O1 0.192747 0.229473 0.776458
O O2 0.302517 0.210114 0.850026
O O3 0.240612 0.000000 0.899538
O O4 0.250000 0.250000 0.000000
O O5 0.958747 0.500000 0.139535
O O6 0.910191 0.279014 0.213417
O O7 0.002401 0.237645 0.160634
O O8 0.905691 0.282877 0.999136
O O9 0.442470 0.500000 0.748585
O O10 0.431790 0.270723 0.617724
O O11 0.386318 0.269266 0.779098
O O12 0.048973 0.500000 0.435992
O O13 0.111426 0.688488 0.593927
O O14 0.000000 0.725535 0.500000
O O15 0.654266 0.000000 0.767215
O O16 0.876594 0.500000 0.847180
#
# Coordination Sequence:
#
# PCOD8094325 Si02
#       6
#     8   8   8   8   8   8
#     4  11  22  38  61  88 119 154 194 240 288 343
#     4  10  19  37  61  85 117 155 195 233 284 357
#     4  12  25  37  55  88 124 152 191 246 297 338
#     4  10  20  39  64  84 112 156 199 234 281 354
#     4  10  20  37  62  91 116 147 196 241 286 343
#     4  10  22  40  60  82 115 161 200 230 281 355
#
# _framework density 18.511019999999998
#
# number of rings (size 3 to 8) (size 9 to 14) (size 15 to 20)
#    0.000    1.500    3.333    2.500    0.000    5.667 
#    0.000    0.833    0.000    0.000    0.000    0.000 
#    0.000    0.000    0.000    0.000    0.000    0.000 
#
# Total GULP energy -297743.075809 kJ/mol
# GULP energy per Si atom -12405.961492 kJ/mol
# Density = 1.846889 g / cm^3
# Si number density = 18.511020 Si / 1000 Ang^3
#
#
#
# Elastic Constant Matrix: (Units=GPa)
#
#
# Indices 1 2 3 4 5 6 
#
# 1 114.8215 68.1674 38.3940 0.0000 1.5055 0.0000
# 2 68.1674 98.3504 44.3102 0.0000 -5.9709 0.0000
# 3 38.3940 44.3102 74.4593 0.0000 -1.6911 0.0000
# 4 0.0000 0.0000 0.0000 27.0866 0.0000 5.6274
# 5 1.5055 -5.9709 -1.6911 0.0000 29.8104 0.0000
# 6 0.0000 0.0000 0.0000 5.6274 0.0000 30.1152
#
#
#
# Elastic Compliance Matrix: (Units=1/GPa)
#
#
# Indices 1 2 3 4 5 6 
#
# 1 0.015276 -0.009815 -0.002101 0.000000 -0.002857 0.000000
# 2 -0.009815 0.020360 -0.006960 0.000000 0.004179 0.000000
# 3 -0.002101 -0.006960 0.018650 0.000000 -0.000230 0.000000
# 4 0.000000 0.000000 0.000000 0.038410 0.000000 -0.007177
# 5 -0.002857 0.004179 -0.000230 0.000000 0.034514 0.000000
# 6 0.000000 0.000000 0.000000 -0.007177 0.000000 0.034547
#
#
# Mechanical properties :
#
#
# Convention : Reuss Voigt Hill
#
# Bulk Modulus (GPa) = 60.48116 65.48604 62.98360
# Shear Modulus (GPa) = 24.38783 26.51974 25.45379
#
# Velocity S-wave (km/s) = 3.63364 3.78914 3.71220
# Velocity P-wave (km/s) = 7.09567 7.38898 7.24381
#
# Compressibility (1/GPa) = 0.01653407
#
# Stress axis : x y z
#
# Youngs Moduli (GPa) = 65.46209 49.11603 53.61826
#
# Poissons Ratio (x) = 0.48206 0.11266
# Poissons Ratio (y) = 0.64249 0.37320
# Poissons Ratio (z) = 0.13754 0.34186
#
# Static dielectric constant tensor:
#      x y z
#    x 3.473860 0.000000 0.011620 
#    y 0.000000 3.336410 0.000000 
#    z 0.011620 0.000000 3.397830 
# 
# 
# High freq. dielectric constant tensor:
#      x y z
#    x 1.720560 0.000000 0.000400 
#    y 0.000000 1.710300 0.000000 
#    z 0.000400 0.000000 1.720700 
# 
# From -- ./inp_files/172061.got.cif
#   From: 2010.06.25/outbox.cif.g09.slc.cpg/sg12_87_cif.got.tgz:172061.got - 2010.06.28 00:19:55.
