data_PCOD8094123
_publ_section_title
;
Structure prediction by ZEFSAII (Michael W. Deem and Ramdas Pophale) SiO2 
 PCOD8094123
Probable space group: C 2/M
;
_chemical_formula_sum "Si O2"
_cell_formula_units_Z 64
_cell_length_a 12.028937
_cell_length_b 14.685484
_cell_length_c 28.249041
_cell_angle_alpha 90.000000
_cell_angle_beta 140.937686
_cell_angle_gamma 90.000000
_cell_volume 3144.659743
_symmetry_space_group_name_H-M "C 2/M"
_symmetry_group_IT_number 12
_symmetry_cell_setting 'monoclinic'
loop_
_space_group_symop_operation_xyz
x,y,z
-x,y,-z
-x,-y,-z
x,-y,z
1/2+x,1/2+y,z
1/2-x,1/2+y,-z
1/2-x,1/2-y,-z
1/2+x,1/2-y,z
loop_
_atom_site_type_symbol
_atom_site_label
_atom_site_fract_x
_atom_site_fract_y
_atom_site_fract_z
Si Si1 0.026594 0.658018 0.146576
Si Si2 0.808499 0.841688 0.813580
Si Si3 0.368955 0.601890 0.315757
Si Si4 0.679294 0.601918 0.079158
Si Si5 0.945745 0.241788 0.683801
Si Si6 0.672686 0.602073 0.587822
Si Si7 0.522506 0.395514 0.224214
Si Si8 0.373780 0.898531 0.919281
O O1 0.053319 0.759905 0.137265
O O2 0.175350 0.628120 0.233098
O O3 0.032791 0.597611 0.101196
O O4 0.842445 0.657873 0.112779
O O5 0.828265 0.902603 0.866592
O O6 0.611566 0.804903 0.748682
O O7 0.856557 0.898649 0.782565
O O8 0.413733 0.500000 0.313031
O O9 0.515985 0.671097 0.345575
O O10 0.377023 0.608060 0.374174
O O11 0.699433 0.500000 0.066197
O O12 0.500000 0.646609 0.000000
O O13 0.798108 0.312726 0.617773
O O14 0.892972 0.178114 0.711438
O O15 0.500000 0.616615 0.500000
O O16 0.753586 0.500000 0.604233
O O17 0.516336 0.500000 0.242190
O O18 0.323386 0.356355 0.149529
O O19 0.343769 0.000000 0.928412
O O20 0.500000 0.848217 0.000000
#
# Coordination Sequence:
#
# PCOD8094123 Si02
#       8
#     8   8   8   8   8   8   8   8
#     4  11  22  38  62  84 117 157 215 255 305 369
#     4  11  23  38  57  86 117 153 198 253 310 362
#     4  10  19  36  64  91 119 157 202 250 297 361
#     4  11  25  40  54  76 111 156 203 255 315 369
#     4  11  21  39  64  92 119 156 203 245 299 363
#     4  10  23  42  65  94 126 160 198 243 298 362
#     4  11  22  39  61  90 125 160 208 260 311 370
#     4  10  21  36  59  87 118 162 213 267 316 362
#
# _framework density 20.351963999999999
#
# number of rings (size 3 to 8) (size 9 to 14) (size 15 to 20)
#    0.000    1.375    2.500    4.875    1.750    3.500 
#    0.000    0.000    0.000    1.500    0.000    0.000 
#    0.000    0.000    0.000    0.000    0.000    0.000 
#
# Total GULP energy -396645.837853 kJ/mol
# GULP energy per Si atom -12395.182433 kJ/mol
# Density = 2.030564 g / cm^3
# Si number density = 20.351964 Si / 1000 Ang^3
#
#
#
# Elastic Constant Matrix: (Units=GPa)
#
#
# Indices 1 2 3 4 5 6 
#
# 1 112.6965 30.4384 50.3341 0.0000 0.9925 0.0000
# 2 30.4384 110.5754 45.2765 0.0000 18.7529 0.0000
# 3 50.3341 45.2765 110.3563 0.0000 -6.2195 0.0000
# 4 0.0000 0.0000 0.0000 26.3307 0.0000 -1.2653
# 5 0.9925 18.7529 -6.2195 0.0000 23.8124 0.0000
# 6 0.0000 0.0000 0.0000 -1.2653 0.0000 29.9318
#
#
#
# Elastic Compliance Matrix: (Units=1/GPa)
#
#
# Indices 1 2 3 4 5 6 
#
# 1 0.011291 -0.000981 -0.004801 0.000000 -0.000952 0.000000
# 2 -0.000981 0.013849 -0.005934 0.000000 -0.012416 0.000000
# 3 -0.004801 -0.005934 0.014169 0.000000 0.008574 0.000000
# 4 0.000000 0.000000 0.000000 0.038056 0.000000 0.001609
# 5 -0.000952 -0.012416 0.008574 0.000000 0.054052 0.000000
# 6 0.000000 0.000000 0.000000 0.001609 0.000000 0.033477
#
#
# Mechanical properties :
#
#
# Convention : Reuss Voigt Hill
#
# Bulk Modulus (GPa) = 62.98437 65.08066 64.03251
# Shear Modulus (GPa) = 25.82391 29.85361 27.83876
#
# Velocity S-wave (km/s) = 3.56598 3.83412 3.70248
# Velocity P-wave (km/s) = 6.92602 7.18663 7.05753
#
# Compressibility (1/GPa) = 0.01587696
#
# Stress axis : x y z
#
# Youngs Moduli (GPa) = 88.56576 72.20705 70.57473
#
# Poissons Ratio (x) = 0.07081 0.33884
# Poissons Ratio (y) = 0.08686 0.41882
# Poissons Ratio (z) = 0.42522 0.42850
#
# Static dielectric constant tensor:
#      x y z
#    x 3.679850 0.000000 -0.072910 
#    y 0.000000 3.891560 0.000000 
#    z -0.072910 0.000000 3.556030 
# 
# 
# High freq. dielectric constant tensor:
#      x y z
#    x 1.795330 0.000000 -0.013210 
#    y 0.000000 1.810310 0.000000 
#    z -0.013210 0.000000 1.768880 
# 
# From -- ./inp_files/358475.got.cif
#   From: 2010.06.25/outbox.cif.g09.slc.cpg/sg12_180_cif.got.tgz:358475.got - 2010.06.28 00:19:55.
