data_PCOD8094067
_publ_section_title
;
Structure prediction by ZEFSAII (Michael W. Deem and Ramdas Pophale) SiO2 
 PCOD8094067
Probable space group: C 2/M
;
_chemical_formula_sum "Si O2"
_cell_formula_units_Z 40
_cell_length_a 9.361535
_cell_length_b 17.049641
_cell_length_c 12.226157
_cell_angle_alpha 90.000000
_cell_angle_beta 102.869518
_cell_angle_gamma 90.000000
_cell_volume 1902.406656
_symmetry_space_group_name_H-M "C 2/M"
_symmetry_group_IT_number 12
_symmetry_cell_setting 'monoclinic'
loop_
_space_group_symop_operation_xyz
x,y,z
-x,y,-z
-x,-y,-z
x,-y,z
1/2+x,1/2+y,z
1/2-x,1/2+y,-z
1/2-x,1/2-y,-z
1/2+x,1/2-y,z
loop_
_atom_site_type_symbol
_atom_site_label
_atom_site_fract_x
_atom_site_fract_y
_atom_site_fract_z
Si Si1 0.650706 0.406880 0.475499
Si Si2 0.766451 0.591794 0.265128
Si Si3 0.634430 0.091103 0.091974
Si Si4 0.171567 0.172084 0.028142
Si Si5 0.899347 0.591988 0.674174
O O1 0.500000 0.372634 0.500000
O O2 0.652560 0.500000 0.485660
O O3 0.664486 0.383966 0.350176
O O4 0.787962 0.370792 0.566654
O O5 0.747410 0.500000 0.229925
O O6 0.725217 0.646205 0.156640
O O7 0.933326 0.608907 0.330008
O O8 0.636133 0.129697 0.212767
O O9 0.604896 0.000000 0.101379
O O10 0.500000 0.128681 0.000000
O O11 0.786092 0.105640 0.053680
O O12 0.250000 0.250000 0.000000
O O13 0.000000 0.184456 0.000000
O O14 0.869169 0.500000 0.673488
#
# Coordination Sequence:
#
# PCOD8094067 Si02
#       5
#     8   8   8   8   8
#     4   9  18  31  52  90 129 155 190 245 300 349
#     4  10  20  37  62  91 121 157 201 245 298 361
#     4  10  19  36  62  92 121 153 197 249 303 364
#     4  12  27  42  59  85 118 163 203 254 306 365
#     4   9  17  31  57  88 122 157 188 235 294 356
#
# _framework density 21.025997
#
# number of rings (size 3 to 8) (size 9 to 14) (size 15 to 20)
#    0.000    2.000    2.000    1.800    2.800    4.000 
#    0.000    0.000    0.000    1.200    0.000    0.000 
#    0.000    0.000    0.000    0.000    0.000    0.000 
#
# Total GULP energy -247928.446454 kJ/mol
# GULP energy per Si atom -12396.422323 kJ/mol
# Density = 2.097814 g / cm^3
# Si number density = 21.025997 Si / 1000 Ang^3
#
#
#
# Elastic Constant Matrix: (Units=GPa)
#
#
# Indices 1 2 3 4 5 6 
#
# 1 157.2730 29.6949 72.0230 0.0000 -14.3023 0.0000
# 2 29.6949 31.8147 42.9031 0.0000 3.9811 0.0000
# 3 72.0230 42.9031 154.4705 0.0000 -15.2905 0.0000
# 4 0.0000 0.0000 0.0000 14.7817 0.0000 -3.8177
# 5 -14.3023 3.9811 -15.2905 0.0000 43.0498 0.0000
# 6 0.0000 0.0000 0.0000 -3.8177 0.0000 20.5149
#
#
#
# Elastic Compliance Matrix: (Units=1/GPa)
#
#
# Indices 1 2 3 4 5 6 
#
# 1 0.008643 -0.005257 -0.002319 0.000000 0.002534 0.000000
# 2 -0.005257 0.057936 -0.014866 0.000000 -0.012385 0.000000
# 3 -0.002319 -0.014866 0.012172 0.000000 0.004927 0.000000
# 4 0.000000 0.000000 0.000000 0.071067 0.000000 0.013225
# 5 0.002534 -0.012385 0.004927 0.000000 0.026966 0.000000
# 6 0.000000 0.000000 0.000000 0.013225 0.000000 0.051206
#
#
# Mechanical properties :
#
#
# Convention : Reuss Voigt Hill
#
# Bulk Modulus (GPa) = 29.52771 70.31115 49.91943
# Shear Modulus (GPa) = 17.59546 28.93177 23.26362
#
# Velocity S-wave (km/s) = 2.89596 3.71347 3.32990
# Velocity P-wave (km/s) = 5.02554 7.20411 6.21109
#
# Compressibility (1/GPa) = 0.03386650
#
# Stress axis : x y z
#
# Youngs Moduli (GPa) = 115.69422 17.26038 82.15803
#
# Poissons Ratio (x) = 0.09074 0.19053
# Poissons Ratio (y) = 0.60825 1.22136
# Poissons Ratio (z) = 0.26830 0.25659
#
# Static dielectric constant tensor:
#      x y z
#    x 4.397690 0.000000 -0.590050 
#    y 0.000000 3.288410 0.000000 
#    z -0.590050 0.000000 4.928860 
# 
# 
# High freq. dielectric constant tensor:
#      x y z
#    x 1.832120 0.000000 -0.010890 
#    y 0.000000 1.765960 0.000000 
#    z -0.010890 0.000000 1.839140 
# 
# From -- ./inp_files/119065.got.cif
#   From: 2010.06.25/outbox.cif.g09.slc.cpg/sg12_60_cif.got.tgz:119065.got - 2010.06.28 00:19:55.
