data_PCOD8094137
_publ_section_title
;
Structure prediction by ZEFSAII (Michael W. Deem and Ramdas Pophale) SiO2 
 PCOD8094137
Probable space group: C 2/M
;
_chemical_formula_sum "Si O2"
_cell_formula_units_Z 56
_cell_length_a 12.881653
_cell_length_b 26.666646
_cell_length_c 8.412435
_cell_angle_alpha 90.000000
_cell_angle_beta 61.809453
_cell_angle_gamma 90.000000
_cell_volume 2546.980364
_symmetry_space_group_name_H-M "C 2/M"
_symmetry_group_IT_number 12
_symmetry_cell_setting 'monoclinic'
loop_
_space_group_symop_operation_xyz
x,y,z
-x,y,-z
-x,-y,-z
x,-y,z
1/2+x,1/2+y,z
1/2-x,1/2+y,-z
1/2-x,1/2-y,-z
1/2+x,1/2-y,z
loop_
_atom_site_type_symbol
_atom_site_label
_atom_site_fract_x
_atom_site_fract_y
_atom_site_fract_z
Si Si1 0.969236 0.943498 0.839733
Si Si2 0.285854 0.345149 0.305334
Si Si3 0.222273 0.943880 0.528825
Si Si4 0.706377 0.355357 0.062589
Si Si5 0.887371 0.605808 0.165776
Si Si6 0.499032 0.296630 0.686224
Si Si7 0.567612 0.186367 0.610430
O O1 0.867109 0.906467 0.858600
O O2 0.078909 0.940478 0.635272
O O3 0.918360 0.000000 0.874832
O O4 0.000000 0.928478 0.000000
O O5 0.239251 0.401742 0.374027
O O6 0.418668 0.334667 0.270245
O O7 0.204727 0.306693 0.462304
O O8 0.262868 0.340092 0.137578
O O9 0.289715 0.931796 0.313406
O O10 0.259786 0.000000 0.555477
O O11 0.824092 0.360109 0.079326
O O12 0.634553 0.307136 0.171340
O O13 0.946471 0.643023 0.250178
O O14 0.000000 0.577854 0.000000
O O15 0.500000 0.308309 0.500000
O O16 0.525996 0.239366 0.710745
O O17 0.500000 0.170150 0.500000
#
# Coordination Sequence:
#
# PCOD8094137 Si02
#       7
#     8   8   8   8   8   8   8
#     4  10  19  36  65 102 136 165 208 264 328 393
#     4  11  21  39  63  94 132 170 207 259 319 389
#     4  10  21  40  66  93 128 172 214 260 316 379
#     4  12  23  38  66  98 134 170 210 267 330 391
#     4  11  26  45  64  93 131 172 221 270 318 386
#     4  11  22  39  63  96 126 162 210 267 328 384
#     4  10  23  44  65  85 123 172 220 263 319 380
#
# _framework density 21.986820000000002
#
# number of rings (size 3 to 8) (size 9 to 14) (size 15 to 20)
#    0.000    1.286    2.857    3.429    0.000    3.143 
#    0.000    5.714    0.000   14.571    0.000    0.000 
#    0.000    0.000    0.000    0.000    0.000    0.000 
#
# Total GULP energy -346971.687668 kJ/mol
# GULP energy per Si atom -12391.845988 kJ/mol
# Density = 2.193678 g / cm^3
# Si number density = 21.986820 Si / 1000 Ang^3
#
#
#
# Elastic Constant Matrix: (Units=GPa)
#
#
# Indices 1 2 3 4 5 6 
#
# 1 75.8837 14.4825 13.6257 0.0000 8.0026 0.0000
# 2 14.4825 102.7141 20.8005 0.0000 3.8304 0.0000
# 3 13.6257 20.8005 114.5824 0.0000 -10.0357 0.0000
# 4 0.0000 0.0000 0.0000 21.2424 0.0000 0.3885
# 5 8.0026 3.8304 -10.0357 0.0000 41.9117 0.0000
# 6 0.0000 0.0000 0.0000 0.3885 0.0000 12.6775
#
#
#
# Elastic Compliance Matrix: (Units=1/GPa)
#
#
# Indices 1 2 3 4 5 6 
#
# 1 0.014079 -0.001541 -0.001652 0.000000 -0.002943 0.000000
# 2 -0.001541 0.010356 -0.001791 0.000000 -0.001081 0.000000
# 3 -0.001652 -0.001791 0.009490 0.000000 0.002752 0.000000
# 4 0.000000 0.000000 0.000000 0.047102 0.000000 -0.001444
# 5 -0.002943 -0.001081 0.002752 0.000000 0.025179 0.000000
# 6 0.000000 0.000000 0.000000 -0.001444 0.000000 0.078924
#
#
# Mechanical properties :
#
#
# Convention : Reuss Voigt Hill
#
# Bulk Modulus (GPa) = 41.74276 43.44417 42.59347
# Shear Modulus (GPa) = 24.62019 31.45110 28.03564
#
# Velocity S-wave (km/s) = 3.34993 3.78624 3.57474
# Velocity P-wave (km/s) = 5.83003 6.23828 6.03761
#
# Compressibility (1/GPa) = 0.02395625
#
# Stress axis : x y z
#
# Youngs Moduli (GPa) = 71.02687 96.56135 105.37367
#
# Poissons Ratio (x) = 0.14878 0.17411
# Poissons Ratio (y) = 0.10944 0.18877
# Poissons Ratio (z) = 0.11736 0.17299
#
# Static dielectric constant tensor:
#      x y z
#    x 3.815190 0.000000 -0.214390 
#    y 0.000000 3.919000 0.000000 
#    z -0.214390 0.000000 4.268320 
# 
# 
# High freq. dielectric constant tensor:
#      x y z
#    x 1.846360 0.000000 -0.007080 
#    y 0.000000 1.858190 0.000000 
#    z -0.007080 0.000000 1.880190 
# 
# From -- ./inp_files/54569.got.cif
#   From: 2010.06.25/outbox.cif.g09.slc.cpg/sg12_28_cif.got.tgz:54569.got - 2010.06.28 00:19:55.
