data_PCOD8094016
_publ_section_title
;
Structure prediction by ZEFSAII (Michael W. Deem and Ramdas Pophale) SiO2 
 PCOD8094016
Probable space group: C 2/M
;
_chemical_formula_sum "Si O2"
_cell_formula_units_Z 56
_cell_length_a 22.204750
_cell_length_b 13.529818
_cell_length_c 17.810876
_cell_angle_alpha 90.000000
_cell_angle_beta 150.507458
_cell_angle_gamma 90.000000
_cell_volume 2634.280478
_symmetry_space_group_name_H-M "C 2/M"
_symmetry_group_IT_number 12
_symmetry_cell_setting 'monoclinic'
loop_
_space_group_symop_operation_xyz
x,y,z
-x,y,-z
-x,-y,-z
x,-y,z
1/2+x,1/2+y,z
1/2-x,1/2+y,-z
1/2-x,1/2-y,-z
1/2+x,1/2-y,z
loop_
_atom_site_type_symbol
_atom_site_label
_atom_site_fract_x
_atom_site_fract_y
_atom_site_fract_z
Si Si1 0.863696 0.111229 0.208551
Si Si2 0.137555 0.888815 0.630144
Si Si3 0.736717 0.385548 0.162551
Si Si4 0.448556 0.260060 0.656955
Si Si5 0.539114 0.619438 0.180811
Si Si6 0.746715 0.782751 0.668331
Si Si7 0.346373 0.115956 0.125764
O O1 0.797423 0.116240 0.217434
O O2 0.988660 0.174421 0.340482
O O3 0.900288 0.000000 0.226645
O O4 0.772558 0.154845 0.047489
O O5 0.226189 0.832084 0.667898
O O6 0.000000 0.849654 0.500000
O O7 0.128139 0.000000 0.588462
O O8 0.735304 0.500000 0.177395
O O9 0.794207 0.337394 0.299548
O O10 0.827816 0.358366 0.193398
O O11 0.599629 0.353116 0.990751
O O12 0.420089 0.332702 0.695576
O O13 0.333492 0.203380 0.494392
O O14 0.536175 0.171644 0.779207
O O15 0.561224 0.500000 0.205412
O O16 0.618998 0.675350 0.203985
O O17 0.364192 0.000000 0.130921
#
# Coordination Sequence:
#
# PCOD8094016 Si02
#       7
#     8   8   8   8   8   8   8
#     4  10  19  36  61  91 122 157 210 261 305 366
#     4  10  21  37  61  92 125 162 202 254 313 372
#     4  10  22  42  68  94 124 167 214 262 312 371
#     4  12  23  38  63  95 126 163 204 263 323 374
#     4  11  25  46  68  89 120 171 224 258 299 372
#     4  12  25  39  62  97 129 164 206 260 318 374
#     4  10  22  38  62  95 125 161 207 262 321 371
#
# _framework density 21.258178000000001
#
# number of rings (size 3 to 8) (size 9 to 14) (size 15 to 20)
#    0.000    1.286    2.857    3.000    2.000    2.857 
#    0.000    2.143    0.000    1.714    0.000    0.000 
#    0.000    0.000    0.000    0.000    0.000    0.000 
#
# Total GULP energy -346977.128141 kJ/mol
# GULP energy per Si atom -12392.040291 kJ/mol
# Density = 2.120979 g / cm^3
# Si number density = 21.258178 Si / 1000 Ang^3
#
#
#
# Elastic Constant Matrix: (Units=GPa)
#
#
# Indices 1 2 3 4 5 6 
#
# 1 74.1672 44.0766 16.1740 0.0000 -7.3131 0.0000
# 2 44.0766 73.2342 39.8019 0.0000 10.3253 0.0000
# 3 16.1740 39.8019 60.5202 0.0000 -14.7118 0.0000
# 4 0.0000 0.0000 0.0000 28.2352 0.0000 -1.7629
# 5 -7.3131 10.3253 -14.7118 0.0000 33.6581 0.0000
# 6 0.0000 0.0000 0.0000 -1.7629 0.0000 43.9320
#
#
#
# Elastic Compliance Matrix: (Units=1/GPa)
#
#
# Indices 1 2 3 4 5 6 
#
# 1 0.031507 -0.033306 0.019728 0.000000 0.025686 0.000000
# 2 -0.033306 0.064829 -0.045123 0.000000 -0.046847 0.000000
# 3 0.019728 -0.045123 0.050723 0.000000 0.040299 0.000000
# 4 0.000000 0.000000 0.000000 0.035506 0.000000 0.001425
# 5 0.025686 -0.046847 0.040299 0.000000 0.067277 0.000000
# 6 0.000000 0.000000 0.000000 0.001425 0.000000 0.022820
#
#
# Mechanical properties :
#
#
# Convention : Reuss Voigt Hill
#
# Bulk Modulus (GPa) = 33.71838 45.33629 39.52734
# Shear Modulus (GPa) = 12.50160 28.35633 20.42896
#
# Velocity S-wave (km/s) = 2.42768 3.65622 3.10335
# Velocity P-wave (km/s) = 4.87380 6.26073 5.61029
#
# Compressibility (1/GPa) = 0.02965741
#
# Stress axis : x y z
#
# Youngs Moduli (GPa) = 31.73895 15.42521 19.71498
#
# Poissons Ratio (x) = 0.51375 -0.38894
# Poissons Ratio (y) = 1.05710 0.88959
# Poissons Ratio (z) = -0.62615 0.69602
#
# Static dielectric constant tensor:
#      x y z
#    x 3.831030 0.000000 -0.224590 
#    y 0.000000 3.939730 0.000000 
#    z -0.224590 0.000000 3.817060 
# 
# 
# High freq. dielectric constant tensor:
#      x y z
#    x 1.825440 0.000000 -0.028500 
#    y 0.000000 1.841340 0.000000 
#    z -0.028500 0.000000 1.823760 
# 
# From -- ./inp_files/284483.got.cif
#   From: 2010.06.25/outbox.cif.g09.slc.cpg/sg12_143_cif.got.tgz:284483.got - 2010.06.28 00:19:55.
