data_PCOD8094133
_publ_section_title
;
Structure prediction by ZEFSAII (Michael W. Deem and Ramdas Pophale) SiO2 
 PCOD8094133
Probable space group: C 2/M
;
_chemical_formula_sum "Si O2"
_cell_formula_units_Z 56
_cell_length_a 14.635778
_cell_length_b 24.185659
_cell_length_c 14.055724
_cell_angle_alpha 90.000000
_cell_angle_beta 31.373422
_cell_angle_gamma 90.000000
_cell_volume 2590.254868
_symmetry_space_group_name_H-M "C 2/M"
_symmetry_group_IT_number 12
_symmetry_cell_setting 'monoclinic'
loop_
_space_group_symop_operation_xyz
x,y,z
-x,y,-z
-x,-y,-z
x,-y,z
1/2+x,1/2+y,z
1/2-x,1/2+y,-z
1/2-x,1/2-y,-z
1/2+x,1/2-y,z
loop_
_atom_site_type_symbol
_atom_site_label
_atom_site_fract_x
_atom_site_fract_y
_atom_site_fract_z
Si Si1 0.569340 0.438815 0.215418
Si Si2 0.570560 0.832241 0.737759
Si Si3 0.044311 0.843091 0.568270
Si Si4 0.104878 0.667046 0.309794
Si Si5 0.664816 0.563554 0.921062
Si Si6 0.540164 0.938191 0.069632
Si Si7 0.772239 0.732637 0.086567
O O1 0.486176 0.500000 0.287723
O O2 0.435702 0.399067 0.388375
O O3 0.600130 0.417203 0.081555
O O4 0.751600 0.437662 0.108268
O O5 0.769349 0.812395 0.582317
O O6 0.517710 0.822475 0.674304
O O7 0.550438 0.897769 0.774097
O O8 0.456747 0.800219 0.920605
O O9 0.000000 0.858422 0.500000
O O10 0.888189 0.806796 0.746541
O O11 0.180484 0.604882 0.248189
O O12 0.262597 0.712826 0.162973
O O13 0.000000 0.678747 0.500000
O O14 0.736340 0.500000 0.858776
O O15 0.500000 0.569367 0.000000
O O16 0.466294 0.000000 0.153834
O O17 0.500000 0.917124 0.000000
O O18 0.750000 0.750000 0.000000
#
# Coordination Sequence:
#
# PCOD8094133 Si02
#       7
#     8   8   8   8   8   8   8
#     4  10  20  39  64  92 133 173 214 269 321 388
#     4  11  24  42  70  92 132 180 212 268 333 382
#     4  12  25  41  65  99 135 172 222 267 326 393
#     4  11  24  44  65 100 128 163 223 276 323 387
#     4  10  22  43  69  95 129 174 213 264 338 393
#     4  10  19  36  64  94 124 166 216 259 315 382
#     4  10  23  47  65  92 132 170 220 271 327 387
#
# _framework density 21.619495000000001
#
# number of rings (size 3 to 8) (size 9 to 14) (size 15 to 20)
#    0.000    1.429    2.857    2.143    2.000    3.429 
#    5.143    0.000    0.000    0.000    0.000    0.000 
#    0.000    0.000    0.000    0.000    0.000    0.000 
#
# Total GULP energy -347119.063674 kJ/mol
# GULP energy per Si atom -12397.109417 kJ/mol
# Density = 2.157029 g / cm^3
# Si number density = 21.619495 Si / 1000 Ang^3
#
#
#
# Elastic Constant Matrix: (Units=GPa)
#
#
# Indices 1 2 3 4 5 6 
#
# 1 103.9981 27.6367 48.0300 -0.0871 11.6436 0.0614
# 2 27.6367 98.6345 52.7637 -0.0097 23.8316 -0.0177
# 3 48.0300 52.7637 134.9155 0.1397 13.6996 -0.0607
# 4 -0.0871 -0.0097 0.1397 23.2315 -0.0091 5.5579
# 5 11.6436 23.8316 13.6996 -0.0091 37.5771 -0.0208
# 6 0.0614 -0.0177 -0.0607 5.5579 -0.0208 19.8066
#
#
#
# Elastic Compliance Matrix: (Units=1/GPa)
#
#
# Indices 1 2 3 4 5 6 
#
# 1 0.011736 -0.000924 -0.003642 0.000082 -0.001723 -0.000073
# 2 -0.000924 0.014657 -0.004661 0.000031 -0.007310 -0.000015
# 3 -0.003642 -0.004661 0.010506 -0.000094 0.000254 0.000066
# 4 0.000082 0.000031 -0.000094 0.046144 -0.000007 -0.012949
# 5 -0.001723 -0.007310 0.000254 -0.000007 0.031689 0.000035
# 6 -0.000073 -0.000015 0.000066 -0.012949 0.000035 0.054122
#
#
# Mechanical properties :
#
#
# Convention : Reuss Voigt Hill
#
# Bulk Modulus (GPa) = 54.21504 66.04545 60.13024
# Shear Modulus (GPa) = 25.84575 30.06421 27.95498
#
# Velocity S-wave (km/s) = 3.46133 3.73313 3.59979
# Velocity P-wave (km/s) = 6.41138 7.01406 6.71948
#
# Compressibility (1/GPa) = 0.01844507
#
# Stress axis : x y z
#
# Youngs Moduli (GPa) = 85.20760 68.22753 95.18637
#
# Poissons Ratio (x) = 0.06304 0.34666
# Poissons Ratio (y) = 0.07872 0.44366
# Poissons Ratio (z) = 0.31032 0.31801
#
# Static dielectric constant tensor:
#      x y z
#    x 3.891590 -0.000070 0.031600 
#    y -0.000070 4.441170 0.000010 
#    z 0.031600 0.000010 3.950870 
# 
# 
# High freq. dielectric constant tensor:
#      x y z
#    x 1.849650 0.000000 0.010570 
#    y 0.000000 1.862860 0.000010 
#    z 0.010570 0.000010 1.836040 
# 
# From -- ./inp_files/218668.got.cif
#   From: 2010.06.25/outbox.cif.g09.slc.cpg/sg12_110_cif.got.tgz:218668.got - 2010.06.28 00:19:55.
