data_PCOD8094025
_publ_section_title
;
Structure prediction by ZEFSAII (Michael W. Deem and Ramdas Pophale) SiO2 
 PCOD8094025
Probable space group: C 2/M
;
_chemical_formula_sum "Si O2"
_cell_formula_units_Z 32
_cell_length_a 26.660778
_cell_length_b 7.968817
_cell_length_c 20.124701
_cell_angle_alpha 90.000000
_cell_angle_beta 157.896788
_cell_angle_gamma 90.000000
_cell_volume 1608.802982
_symmetry_space_group_name_H-M "C 2/M"
_symmetry_group_IT_number 12
_symmetry_cell_setting 'monoclinic'
loop_
_space_group_symop_operation_xyz
x,y,z
-x,y,-z
-x,-y,-z
x,-y,z
1/2+x,1/2+y,z
1/2-x,1/2+y,-z
1/2-x,1/2-y,-z
1/2+x,1/2-y,z
loop_
_atom_site_type_symbol
_atom_site_label
_atom_site_fract_x
_atom_site_fract_y
_atom_site_fract_z
Si Si1 0.153765 0.500000 0.210421
Si Si2 0.702234 0.315999 0.511146
Si Si3 0.726855 0.191270 0.860511
Si Si4 0.661432 0.500000 0.691143
Si Si5 0.068681 0.312014 0.792980
O O1 0.178378 0.334847 0.287662
O O2 0.270361 0.500000 0.297851
O O3 0.000000 0.500000 0.000000
O O4 0.637248 0.500000 0.420677
O O5 0.750000 0.250000 0.500000
O O6 0.590440 0.192494 0.401966
O O7 0.717472 0.327320 0.790836
O O8 0.615834 0.246242 0.778158
O O9 0.705181 0.000000 0.807155
O O10 0.870171 0.198972 0.073042
O O11 0.500000 0.500000 0.500000
O O12 0.120050 0.500000 0.868520
#
# Coordination Sequence:
#
# PCOD8094025 Si02
#       5
#     4   8   8   4   8
#     4  10  26  44  64  96 143 177 217 274 358 407
#     4  10  22  38  65  92 122 172 228 273 320 403
#     4  10  22  36  62  97 131 172 221 281 333 403
#     4  12  24  42  68  92 138 185 217 271 359 408
#     4  10  19  36  61  96 130 163 225 283 333 385
#
# _framework density 19.890564999999999
#
# number of rings (size 3 to 8) (size 9 to 14) (size 15 to 20)
#    0.750    1.000    1.250    3.000    7.000    0.500 
#    0.000    2.500    0.000    3.750    0.000    0.000 
#    0.000    0.000    0.000    0.000    0.000    0.000 
#
# Total GULP energy -198215.698187 kJ/mol
# GULP energy per Si atom -12388.481137 kJ/mol
# Density = 1.984529 g / cm^3
# Si number density = 19.890565 Si / 1000 Ang^3
#
#
#
# Elastic Constant Matrix: (Units=GPa)
#
#
# Indices 1 2 3 4 5 6 
#
# 1 119.2873 33.3217 55.9950 0.0000 -7.8580 0.0000
# 2 33.3217 92.8123 19.0662 0.0000 -15.2894 0.0000
# 3 55.9950 19.0662 125.0841 0.0000 7.3624 0.0000
# 4 0.0000 0.0000 0.0000 33.2672 0.0000 -5.6726
# 5 -7.8580 -15.2894 7.3624 0.0000 28.0570 0.0000
# 6 0.0000 0.0000 0.0000 -5.6726 0.0000 34.5357
#
#
#
# Elastic Compliance Matrix: (Units=1/GPa)
#
#
# Indices 1 2 3 4 5 6 
#
# 1 0.011682 -0.002647 -0.005011 0.000000 0.003145 0.000000
# 2 -0.002647 0.013075 -0.001203 0.000000 0.006700 0.000000
# 3 -0.005011 -0.001203 0.010708 0.000000 -0.004869 0.000000
# 4 0.000000 0.000000 0.000000 0.030926 0.000000 0.005080
# 5 0.003145 0.006700 -0.004869 0.000000 0.041451 0.000000
# 6 0.000000 0.000000 0.000000 0.005080 0.000000 0.029790
#
#
# Mechanical properties :
#
#
# Convention : Reuss Voigt Hill
#
# Bulk Modulus (GPa) = 56.35627 61.54996 58.95312
# Shear Modulus (GPa) = 31.00445 34.42536 32.71491
#
# Velocity S-wave (km/s) = 3.95239 4.16473 4.05995
# Velocity P-wave (km/s) = 7.01592 7.35786 7.18892
#
# Compressibility (1/GPa) = 0.01774425
#
# Stress axis : x y z
#
# Youngs Moduli (GPa) = 85.60268 76.47992 93.38997
#
# Poissons Ratio (x) = 0.20241 0.46799
# Poissons Ratio (y) = 0.22656 0.11231
# Poissons Ratio (z) = 0.42897 0.09197
#
# Static dielectric constant tensor:
#      x y z
#    x 3.670560 0.000000 0.097570 
#    y 0.000000 3.661860 0.000000 
#    z 0.097570 0.000000 3.518150 
# 
# 
# High freq. dielectric constant tensor:
#      x y z
#    x 1.770890 0.000000 0.005180 
#    y 0.000000 1.776240 0.000000 
#    z 0.005180 0.000000 1.762850 
# 
# From -- ./inp_files/327401.got.cif
#   From: 2010.06.25/outbox.cif.g09.slc.cpg/sg12_164_cif.got.tgz:327401.got - 2010.06.28 00:19:55.
