data_PCOD8094571
_publ_section_title
;
Structure prediction by ZEFSAII (Michael W. Deem and Ramdas Pophale) SiO2 
 PCOD8094571
Probable space group: C 2/M
;
_chemical_formula_sum "Si O2"
_cell_formula_units_Z 64
_cell_length_a 25.439914
_cell_length_b 19.561171
_cell_length_c 15.081762
_cell_angle_alpha 90.000000
_cell_angle_beta 153.512377
_cell_angle_gamma 90.000000
_cell_volume 3347.355144
_symmetry_space_group_name_H-M "C 2/M"
_symmetry_group_IT_number 12
_symmetry_cell_setting 'monoclinic'
loop_
_space_group_symop_operation_xyz
x,y,z
-x,y,-z
-x,-y,-z
x,-y,z
1/2+x,1/2+y,z
1/2-x,1/2+y,-z
1/2-x,1/2-y,-z
1/2+x,1/2-y,z
loop_
_atom_site_type_symbol
_atom_site_label
_atom_site_fract_x
_atom_site_fract_y
_atom_site_fract_z
Si Si1 0.301943 0.577911 0.124712
Si Si2 0.369128 0.920623 0.284699
Si Si3 0.210040 0.182068 0.135606
Si Si4 0.826198 0.922443 0.578477
Si Si5 0.704134 0.676588 0.719315
Si Si6 0.363926 0.843392 0.801692
Si Si7 0.364000 0.691667 0.780064
Si Si8 0.505601 0.366842 0.716031
O O1 0.306649 0.500000 0.163263
O O2 0.311176 0.622053 0.226624
O O3 0.412713 0.590714 0.227525
O O4 0.178499 0.593429 0.887230
O O5 0.500000 0.891569 0.500000
O O6 0.280739 0.885546 0.218738
O O7 0.364470 0.000000 0.300646
O O8 0.283634 0.249044 0.217225
O O9 0.201968 0.178113 0.228365
O O10 0.084441 0.184232 0.894948
O O11 0.706490 0.906961 0.345053
O O12 0.824649 0.865455 0.651905
O O13 0.938018 0.917246 0.681603
O O14 0.822847 0.000000 0.611269
O O15 0.823748 0.663380 0.843836
O O16 0.590151 0.676666 0.483311
O O17 0.338723 0.770709 0.712972
O O18 0.500000 0.862786 0.000000
O O19 0.500000 0.681449 0.000000
#
# Coordination Sequence:
#
# PCOD8094571 Si02
#       8
#     8   8   8   8   8   8   8   8
#     4  10  21  38  59  83 116 153 188 233 290 349
#     4   9  20  38  57  78 113 157 189 225 289 349
#     4  10  21  38  58  84 114 149 190 239 289 334
#     4  11  22  36  59  91 118 149 194 243 288 341
#     4  10  22  36  59  90 109 146 196 242 277 337
#     4   9  21  41  60  79 116 160 192 231 294 350
#     4  10  19  38  60  85 113 152 196 237 287 346
#     4  10  21  38  58  85 119 150 186 233 300 346
#
# _framework density 19.119572999999999
#
# number of rings (size 3 to 8) (size 9 to 14) (size 15 to 20)
#    0.000    2.125    1.250    1.125    0.000    8.500 
#    2.250    0.000    0.000    0.000    0.000    0.000 
#    0.000    0.000    0.000    0.000    0.000    0.000 
#
# Total GULP energy -396680.803917 kJ/mol
# GULP energy per Si atom -12396.275122 kJ/mol
# Density = 1.907606 g / cm^3
# Si number density = 19.119573 Si / 1000 Ang^3
#
#
#
# Elastic Constant Matrix: (Units=GPa)
#
#
# Indices 1 2 3 4 5 6 
#
# 1 88.4219 37.1478 38.3657 0.0000 2.1785 0.0000
# 2 37.1478 90.3284 39.0092 0.0000 -3.4461 0.0000
# 3 38.3657 39.0092 112.3968 0.0000 9.3606 0.0000
# 4 0.0000 0.0000 0.0000 24.0337 0.0000 -3.7282
# 5 2.1785 -3.4461 9.3606 0.0000 23.6140 0.0000
# 6 0.0000 0.0000 0.0000 -3.7282 0.0000 27.1813
#
#
#
# Elastic Compliance Matrix: (Units=1/GPa)
#
#
# Indices 1 2 3 4 5 6 
#
# 1 0.014732 -0.004634 -0.003362 0.000000 -0.000703 0.000000
# 2 -0.004634 0.014822 -0.003907 0.000000 0.004139 0.000000
# 3 -0.003362 -0.003907 0.011812 0.000000 -0.004942 0.000000
# 4 0.000000 0.000000 0.000000 0.042513 0.000000 0.005831
# 5 -0.000703 0.004139 -0.004942 0.000000 0.044976 0.000000
# 6 0.000000 0.000000 0.000000 0.005831 0.000000 0.037590
#
#
# Mechanical properties :
#
#
# Convention : Reuss Voigt Hill
#
# Bulk Modulus (GPa) = 56.94588 57.79917 57.37253
# Shear Modulus (GPa) = 25.49678 26.74077 26.11877
#
# Velocity S-wave (km/s) = 3.65573 3.74385 3.70005
# Velocity P-wave (km/s) = 6.90420 6.99890 6.95171
#
# Compressibility (1/GPa) = 0.01756053
#
# Stress axis : x y z
#
# Youngs Moduli (GPa) = 67.87884 67.46950 84.65736
#
# Poissons Ratio (x) = 0.31262 0.28462
# Poissons Ratio (y) = 0.31452 0.33077
# Poissons Ratio (z) = 0.22821 0.26361
#
# Static dielectric constant tensor:
#      x y z
#    x 3.350330 0.000000 0.095310 
#    y 0.000000 3.438960 0.000000 
#    z 0.095310 0.000000 3.649420 
# 
# 
# High freq. dielectric constant tensor:
#      x y z
#    x 1.738960 0.000000 0.003280 
#    y 0.000000 1.739270 0.000000 
#    z 0.003280 0.000000 1.749220 
# 
# From -- ./inp_files/241496.got.cif
#   From: 2010.06.25/outbox.cif.g09.slc.cpg/sg12_121_cif.got.tgz:241496.got - 2010.06.28 00:19:55.
