data_PCOD8094379
_publ_section_title
;
Structure prediction by ZEFSAII (Michael W. Deem and Ramdas Pophale) SiO2 
 PCOD8094379
Probable space group: C 2/M
;
_chemical_formula_sum "Si O2"
_cell_formula_units_Z 48
_cell_length_a 20.463387
_cell_length_b 8.776595
_cell_length_c 14.810593
_cell_angle_alpha 90.000000
_cell_angle_beta 71.252907
_cell_angle_gamma 90.000000
_cell_volume 2518.844966
_symmetry_space_group_name_H-M "C 2/M"
_symmetry_group_IT_number 12
_symmetry_cell_setting 'monoclinic'
loop_
_space_group_symop_operation_xyz
x,y,z
-x,y,-z
-x,-y,-z
x,-y,z
1/2+x,1/2+y,z
1/2-x,1/2+y,-z
1/2-x,1/2-y,-z
1/2+x,1/2-y,z
loop_
_atom_site_type_symbol
_atom_site_label
_atom_site_fract_x
_atom_site_fract_y
_atom_site_fract_z
Si Si1 0.950285 0.321275 0.250991
Si Si2 0.292805 0.320520 0.561794
Si Si3 0.454121 0.678966 0.934724
Si Si4 0.691434 0.180680 0.964318
Si Si5 0.695131 0.180320 0.760336
Si Si6 0.562888 0.823205 0.535657
O O1 0.959869 0.500000 0.226240
O O2 0.876097 0.259917 0.251181
O O3 0.958043 0.284392 0.352997
O O4 0.008365 0.225917 0.173948
O O5 0.286464 0.500000 0.555612
O O6 0.250000 0.250000 0.500000
O O7 0.259036 0.263266 0.670895
O O8 0.371847 0.272572 0.525379
O O9 0.439432 0.500000 0.941887
O O10 0.500000 0.729337 0.000000
O O11 0.382687 0.768017 0.967876
O O12 0.703510 0.244442 0.857633
O O13 0.695988 0.000000 0.965825
O O14 0.750000 0.250000 0.000000
O O15 0.692361 0.000000 0.763888
O O16 0.500000 0.775351 0.500000
O O17 0.582054 0.000000 0.517287
#
# Coordination Sequence:
#
# PCOD8094379 Si02
#       6
#     8   8   8   8   8   8
#     4  10  19  37  62  86 116 156 198 235 287 350
#     4  11  21  37  61  89 118 153 197 242 289 345
#     4  11  23  38  59  90 121 150 196 248 291 342
#     4  11  23  41  62  86 119 157 195 241 297 348
#     4   9  19  36  60  86 115 153 195 237 286 349
#     4  10  22  40  60  87 123 156 191 240 294 346
#
# _framework density 19.056353999999999
#
# number of rings (size 3 to 8) (size 9 to 14) (size 15 to 20)
#    0.000    1.667    3.333    1.500    0.000    3.000 
#    0.000    6.667    0.000    0.000    0.000    0.000 
#    0.000    0.000    0.000    0.000    0.000    0.000 
#
# Total GULP energy -297687.771006 kJ/mol
# GULP energy per Si atom -12403.657125 kJ/mol
# Density = 1.901298 g / cm^3
# Si number density = 19.056354 Si / 1000 Ang^3
#
#
#
# Elastic Constant Matrix: (Units=GPa)
#
#
# Indices 1 2 3 4 5 6 
#
# 1 145.9941 41.3846 81.1472 0.0000 9.0760 0.0000
# 2 41.3846 56.5807 39.4446 0.0000 -1.4610 0.0000
# 3 81.1472 39.4446 159.5768 0.0000 -0.3198 0.0000
# 4 0.0000 0.0000 0.0000 27.1436 0.0000 -3.1601
# 5 9.0760 -1.4610 -0.3198 0.0000 39.2807 0.0000
# 6 0.0000 0.0000 0.0000 -3.1601 0.0000 33.2596
#
#
#
# Elastic Compliance Matrix: (Units=1/GPa)
#
#
# Indices 1 2 3 4 5 6 
#
# 1 0.010807 -0.005001 -0.004264 0.000000 -0.002718 0.000000
# 2 -0.005001 0.023690 -0.003309 0.000000 0.002010 0.000000
# 3 -0.004264 -0.003309 0.009255 0.000000 0.000938 0.000000
# 4 0.000000 0.000000 0.000000 0.037253 0.000000 0.003539
# 5 -0.002718 0.002010 0.000938 0.000000 0.026168 0.000000
# 6 0.000000 0.000000 0.000000 0.003539 0.000000 0.030403
#
#
# Mechanical properties :
#
#
# Convention : Reuss Voigt Hill
#
# Bulk Modulus (GPa) = 53.75496 76.23382 64.99439
# Shear Modulus (GPa) = 29.59878 33.28181 31.44029
#
# Velocity S-wave (km/s) = 3.94537 4.18364 4.06625
# Velocity P-wave (km/s) = 7.00173 7.96419 7.49842
#
# Compressibility (1/GPa) = 0.01860293
#
# Stress axis : x y z
#
# Youngs Moduli (GPa) = 92.53595 42.21106 108.05186
#
# Poissons Ratio (x) = 0.21112 0.46079
# Poissons Ratio (y) = 0.46282 0.35749
# Poissons Ratio (z) = 0.39462 0.13966
#
# Static dielectric constant tensor:
#      x y z
#    x 3.342300 0.000000 0.118300 
#    y 0.000000 3.340840 0.000000 
#    z 0.118300 0.000000 3.684680 
# 
# 
# High freq. dielectric constant tensor:
#      x y z
#    x 1.743270 0.000000 -0.003770 
#    y 0.000000 1.728140 0.000000 
#    z -0.003770 0.000000 1.757310 
# 
# From -- ./inp_files/229922.got.cif
#   From: 2010.06.25/outbox.cif.g09.slc.cpg/sg12_115_cif.got.tgz:229922.got - 2010.06.28 00:19:55.
