data_PCOD8094501
_publ_section_title
;
Structure prediction by ZEFSAII (Michael W. Deem and Ramdas Pophale) SiO2 
 PCOD8094501
Probable space group: C 2/M
;
_chemical_formula_sum "Si O2"
_cell_formula_units_Z 64
_cell_length_a 14.118539
_cell_length_b 18.295892
_cell_length_c 14.094961
_cell_angle_alpha 90.000000
_cell_angle_beta 128.791356
_cell_angle_gamma 90.000000
_cell_volume 2837.825776
_symmetry_space_group_name_H-M "C 2/M"
_symmetry_group_IT_number 12
_symmetry_cell_setting 'monoclinic'
loop_
_space_group_symop_operation_xyz
x,y,z
-x,y,-z
-x,-y,-z
x,-y,z
1/2+x,1/2+y,z
1/2-x,1/2+y,-z
1/2-x,1/2-y,-z
1/2+x,1/2-y,z
loop_
_atom_site_type_symbol
_atom_site_label
_atom_site_fract_x
_atom_site_fract_y
_atom_site_fract_z
Si Si1 0.916264 0.638518 0.146204
Si Si2 0.849145 0.919343 0.570258
Si Si3 0.318945 0.871522 0.697550
Si Si4 0.355399 0.781284 0.282085
Si Si5 0.396727 0.620919 0.298126
Si Si6 0.723749 0.716415 0.380878
Si Si7 0.165149 0.919237 0.951763
Si Si8 0.614473 0.270606 0.011664
O O1 0.925621 0.656732 0.265605
O O2 0.874958 0.714024 0.068876
O O3 0.044034 0.600611 0.195395
O O4 0.810480 0.581040 0.059268
O O5 0.730644 0.900993 0.433592
O O6 0.855494 0.857854 0.658094
O O7 0.975513 0.916505 0.589867
O O8 0.832491 0.000000 0.604063
O O9 0.219742 0.899138 0.710698
O O10 0.341310 0.783474 0.714331
O O11 0.430970 0.706361 0.325549
O O12 0.337505 0.804035 0.382283
O O13 0.228087 0.763472 0.151825
O O14 0.363866 0.590557 0.175786
O O15 0.750000 0.750000 0.500000
O O16 0.099707 0.854568 0.968444
O O17 0.118496 0.000000 0.954473
O O18 0.500000 0.246044 0.000000
#
# Coordination Sequence:
#
# PCOD8094501 Si02
#       8
#     8   8   8   8   8   8   8   8
#     4  11  21  41  65  93 123 166 220 266 309 377
#     4  11  24  41  61  90 131 168 208 263 323 385
#     4  10  23  39  65  88 122 164 221 267 310 371
#     4  10  19  37  66  92 125 162 211 268 318 365
#     4  11  20  38  61  90 123 165 206 264 320 375
#     4   9  20  39  61  95 123 161 216 266 310 369
#     4  11  24  39  57  93 134 167 204 256 325 386
#     4  11  21  37  67  94 123 167 212 268 313 375
#
# _framework density 22.552477
#
# number of rings (size 3 to 8) (size 9 to 14) (size 15 to 20)
#    0.000    1.500    2.500    3.750    1.750    2.250 
#    0.000    9.375    0.000    0.750    0.000    0.000 
#    0.000    0.000    0.000    0.000    0.000    0.000 
#
# Total GULP energy -396469.483129 kJ/mol
# GULP energy per Si atom -12389.671348 kJ/mol
# Density = 2.250115 g / cm^3
# Si number density = 22.552477 Si / 1000 Ang^3
#
#
#
# Elastic Constant Matrix: (Units=GPa)
#
#
# Indices 1 2 3 4 5 6 
#
# 1 72.8705 27.1568 24.1966 0.0000 -3.3364 0.0000
# 2 27.1568 111.4554 5.3893 0.0000 -17.1025 0.0000
# 3 24.1966 5.3893 62.5118 0.0000 -1.8150 0.0000
# 4 0.0000 0.0000 0.0000 7.6864 0.0000 -7.2973
# 5 -3.3364 -17.1025 -1.8150 0.0000 37.4460 0.0000
# 6 0.0000 0.0000 0.0000 -7.2973 0.0000 8.7016
#
#
#
# Elastic Compliance Matrix: (Units=1/GPa)
#
#
# Indices 1 2 3 4 5 6 
#
# 1 0.017301 -0.003999 -0.006369 0.000000 -0.000593 0.000000
# 2 -0.003999 0.010604 0.000765 0.000000 0.004524 0.000000
# 3 -0.006369 0.000765 0.018416 0.000000 0.000674 0.000000
# 4 0.000000 0.000000 0.000000 0.638238 0.000000 0.535234
# 5 -0.000593 0.004524 0.000674 0.000000 0.028751 0.000000
# 6 0.000000 0.000000 0.000000 0.535234 0.000000 0.563775
#
#
# Mechanical properties :
#
#
# Convention : Reuss Voigt Hill
#
# Bulk Modulus (GPa) = 36.88025 40.03590 38.45807
# Shear Modulus (GPa) = 3.83045 23.43980 13.63513
#
# Velocity S-wave (km/s) = 1.30466 3.22738 2.46152
# Velocity P-wave (km/s) = 4.31950 5.62840 5.01682
#
# Compressibility (1/GPa) = 0.02711478
#
# Stress axis : x y z
#
# Youngs Moduli (GPa) = 57.80069 94.30726 54.30072
#
# Poissons Ratio (x) = 0.37709 0.34585
# Poissons Ratio (y) = 0.23112 -0.04153
# Poissons Ratio (z) = 0.36814 -0.07214
#
# Static dielectric constant tensor:
#      x y z
#    x 4.416420 0.000000 -0.127530 
#    y 0.000000 4.040740 0.000000 
#    z -0.127530 0.000000 3.986430 
# 
# 
# High freq. dielectric constant tensor:
#      x y z
#    x 1.887070 0.000000 0.001980 
#    y 0.000000 1.865540 0.000000 
#    z 0.001980 0.000000 1.881490 
# 
# From -- ./inp_files/216846.got.cif
#   From: 2010.06.25/outbox.cif.g09.slc.cpg/sg12_109_cif.got.tgz:216846.got - 2010.06.28 00:19:55.
