data_PCOD8094591
_publ_section_title
;
Structure prediction by ZEFSAII (Michael W. Deem and Ramdas Pophale) SiO2 
 PCOD8094591
Probable space group: C 2/M
;
_chemical_formula_sum "Si O2"
_cell_formula_units_Z 64
_cell_length_a 16.898536
_cell_length_b 17.187590
_cell_length_c 14.226217
_cell_angle_alpha 90.000000
_cell_angle_beta 133.578324
_cell_angle_gamma 90.000000
_cell_volume 2993.308948
_symmetry_space_group_name_H-M "C 2/M"
_symmetry_group_IT_number 12
_symmetry_cell_setting 'monoclinic'
loop_
_space_group_symop_operation_xyz
x,y,z
-x,y,-z
-x,-y,-z
x,-y,z
1/2+x,1/2+y,z
1/2-x,1/2+y,-z
1/2-x,1/2-y,-z
1/2+x,1/2-y,z
loop_
_atom_site_type_symbol
_atom_site_label
_atom_site_fract_x
_atom_site_fract_y
_atom_site_fract_z
Si Si1 0.245110 0.831044 0.610600
Si Si2 0.719402 0.409811 0.085720
Si Si3 0.030763 0.163549 0.811898
Si Si4 0.532604 0.588955 0.423917
Si Si5 0.937089 0.590261 0.855675
Si Si6 0.144823 0.323476 0.494772
Si Si7 0.824904 0.088921 0.735778
Si Si8 0.554511 0.162570 0.782469
O O1 0.162615 0.900796 0.517206
O O2 0.325359 0.858996 0.759633
O O3 0.173558 0.754325 0.578530
O O4 0.319396 0.810063 0.583184
O O5 0.748880 0.500000 0.095689
O O6 0.678509 0.393345 0.157140
O O7 0.823623 0.358135 0.147287
O O8 0.621146 0.386494 0.938050
O O9 0.054341 0.254827 0.836061
O O10 0.033270 0.139906 0.704843
O O11 0.912023 0.146334 0.759388
O O12 0.500000 0.618817 0.500000
O O13 0.500283 0.500000 0.381693
O O14 0.905078 0.500000 0.838383
O O15 0.010116 0.600394 0.821856
O O16 0.000000 0.619003 0.000000
O O17 0.204995 0.395985 0.592985
O O18 0.015174 0.338002 0.373279
O O19 0.858562 0.000000 0.742956
#
# Coordination Sequence:
#
# PCOD8094591 Si02
#       8
#     8   8   8   8   8   8   8   8
#     4  10  19  38  61  87 124 166 213 269 320 378
#     4  11  26  44  65  97 135 176 217 267 331 399
#     4  12  23  44  68  94 131 171 219 275 332 387
#     4  11  23  37  60  93 124 164 214 269 331 384
#     4  10  22  38  62  94 129 176 224 269 323 392
#     4  10  20  38  64  93 124 165 217 268 319 386
#     4  11  23  40  68  99 129 173 221 268 327 388
#     4  11  24  43  64  94 132 172 218 268 335 394
#
# _framework density 21.381019999999999
#
# number of rings (size 3 to 8) (size 9 to 14) (size 15 to 20)
#    0.000    1.250    2.500    4.125    0.000    8.000 
#    0.000    2.500    0.000    0.000    0.000    0.000 
#    0.000    0.000    0.000    0.000    0.000    0.000 
#
# Total GULP energy -396866.003343 kJ/mol
# GULP energy per Si atom -12402.062604 kJ/mol
# Density = 2.133236 g / cm^3
# Si number density = 21.381020 Si / 1000 Ang^3
#
#
#
# Elastic Constant Matrix: (Units=GPa)
#
#
# Indices 1 2 3 4 5 6 
#
# 1 60.2049 32.2179 31.1437 0.0000 -3.8335 0.0000
# 2 32.2179 86.8936 36.3613 0.0000 -11.1625 0.0000
# 3 31.1437 36.3613 159.8917 0.0000 -8.4463 0.0000
# 4 0.0000 0.0000 0.0000 36.0369 0.0000 -0.3583
# 5 -3.8335 -11.1625 -8.4463 0.0000 22.6941 0.0000
# 6 0.0000 0.0000 0.0000 -0.3583 0.0000 23.7693
#
#
#
# Elastic Compliance Matrix: (Units=1/GPa)
#
#
# Indices 1 2 3 4 5 6 
#
# 1 0.021704 -0.007031 -0.002670 0.000000 -0.000786 0.000000
# 2 -0.007031 0.015649 -0.001882 0.000000 0.005809 0.000000
# 3 -0.002670 -0.001882 0.007273 0.000000 0.001330 0.000000
# 4 0.000000 0.000000 0.000000 0.027754 0.000000 0.000418
# 5 -0.000786 0.005809 0.001330 0.000000 0.047284 0.000000
# 6 0.000000 0.000000 0.000000 0.000418 0.000000 0.042077
#
#
# Mechanical properties :
#
#
# Convention : Reuss Voigt Hill
#
# Bulk Modulus (GPa) = 46.60108 56.27066 51.43587
# Shear Modulus (GPa) = 26.03361 30.31788 28.17574
#
# Velocity S-wave (km/s) = 3.49320 3.76969 3.63408
# Velocity P-wave (km/s) = 6.17356 6.73221 6.45893
#
# Compressibility (1/GPa) = 0.02145873
#
# Stress axis : x y z
#
# Youngs Moduli (GPa) = 46.07549 63.90132 137.50153
#
# Poissons Ratio (x) = 0.44927 0.36713
# Poissons Ratio (y) = 0.32395 0.25884
# Poissons Ratio (z) = 0.12302 0.12029
#
# Static dielectric constant tensor:
#      x y z
#    x 3.660660 0.000000 0.049320 
#    y 0.000000 3.849370 0.000000 
#    z 0.049320 0.000000 4.079480 
# 
# 
# High freq. dielectric constant tensor:
#      x y z
#    x 1.818120 0.000000 0.003250 
#    y 0.000000 1.844300 0.000000 
#    z 0.003250 0.000000 1.852560 
# 
# From -- ./inp_files/216810.got.cif
#   From: 2010.06.25/outbox.cif.g09.slc.cpg/sg12_109_cif.got.tgz:216810.got - 2010.06.28 00:19:55.
