data_PCOD8094842
_publ_section_title
;
Structure prediction by ZEFSAII (Michael W. Deem and Ramdas Pophale) SiO2 
 PCOD8094842
Probable space group: C 2/M
;
_chemical_formula_sum "Si O2"
_cell_formula_units_Z 64
_cell_length_a 14.970279
_cell_length_b 25.850360
_cell_length_c 11.275819
_cell_angle_alpha 90.000000
_cell_angle_beta 43.558435
_cell_angle_gamma 90.000000
_cell_volume 3006.928238
_symmetry_space_group_name_H-M "C 2/M"
_symmetry_group_IT_number 12
_symmetry_cell_setting 'monoclinic'
loop_
_space_group_symop_operation_xyz
x,y,z
-x,y,-z
-x,-y,-z
x,-y,z
1/2+x,1/2+y,z
1/2-x,1/2+y,-z
1/2-x,1/2-y,-z
1/2+x,1/2-y,z
loop_
_atom_site_type_symbol
_atom_site_label
_atom_site_fract_x
_atom_site_fract_y
_atom_site_fract_z
Si Si1 0.489441 0.111595 0.266370
Si Si2 0.817843 0.377602 0.224910
Si Si3 0.909707 0.880788 0.388031
Si Si4 0.877624 0.186671 0.925357
Si Si5 0.266116 0.058836 0.609927
Si Si6 0.628444 0.800025 0.018079
Si Si7 0.864448 0.057661 0.759404
Si Si8 0.741919 0.414449 0.897008
O O1 0.430357 0.093929 0.194798
O O2 0.383297 0.099278 0.470121
O O3 0.615631 0.080345 0.183112
O O4 0.532019 0.172179 0.207253
O O5 0.708901 0.357968 0.421993
O O6 0.879887 0.327828 0.101439
O O7 0.759517 0.416230 0.183547
O O8 0.860810 0.921045 0.335371
O O9 0.985655 0.833309 0.256125
O O10 0.001306 0.912013 0.392526
O O11 0.778984 0.196209 0.911833
O O12 0.908378 0.240008 0.963703
O O13 0.809307 0.144287 0.076465
O O14 0.237722 0.056405 0.776950
O O15 0.299099 0.000000 0.536772
O O16 0.876816 0.000000 0.698637
O O17 0.849207 0.058838 0.917366
#
# Coordination Sequence:
#
# PCOD8094842 Si02
#       8
#     8   8   8   8   8   8   8   8
#     4  10  22  40  61  87 124 163 207 252 304 369
#     4  11  21  38  62  90 126 161 199 255 303 372
#     4  10  22  41  61  90 127 158 208 251 309 375
#     4   9  20  39  65  91 122 160 203 250 308 368
#     4  11  24  41  63  89 127 167 208 263 310 361
#     4  10  19  40  64  89 124 164 199 252 309 363
#     4  11  22  36  61  90 123 162 202 251 307 368
#     4  10  21  42  62  88 124 159 214 257 303 370
#
# _framework density 21.284179999999999
#
# number of rings (size 3 to 8) (size 9 to 14) (size 15 to 20)
#    0.000    1.750    3.750    1.875    0.000    6.500 
#    6.750    5.000    0.000    0.000    0.000    0.000 
#    0.000    0.000    0.000    0.000    0.000    0.000 
#
# Total GULP energy -396593.012049 kJ/mol
# GULP energy per Si atom -12393.531627 kJ/mol
# Density = 2.123574 g / cm^3
# Si number density = 21.284180 Si / 1000 Ang^3
#
#
#
# Elastic Constant Matrix: (Units=GPa)
#
#
# Indices 1 2 3 4 5 6 
#
# 1 91.8807 32.4200 37.5121 0.0000 1.3868 0.0000
# 2 32.4200 128.3630 42.6345 0.0000 -7.1730 0.0000
# 3 37.5121 42.6345 88.3905 0.0000 -0.5612 0.0000
# 4 0.0000 0.0000 0.0000 17.7176 0.0000 0.3158
# 5 1.3868 -7.1730 -0.5612 0.0000 32.9836 0.0000
# 6 0.0000 0.0000 0.0000 0.3158 0.0000 13.7554
#
#
#
# Elastic Compliance Matrix: (Units=1/GPa)
#
#
# Indices 1 2 3 4 5 6 
#
# 1 0.013539 -0.001867 -0.004852 0.000000 -0.001058 0.000000
# 2 -0.001867 0.009660 -0.003854 0.000000 0.002114 0.000000
# 3 -0.004852 -0.003854 0.015229 0.000000 -0.000375 0.000000
# 4 0.000000 0.000000 0.000000 0.056464 0.000000 -0.001296
# 5 -0.001058 0.002114 -0.000375 0.000000 0.030816 0.000000
# 6 0.000000 0.000000 0.000000 -0.001296 0.000000 0.072728
#
#
# Mechanical properties :
#
#
# Convention : Reuss Voigt Hill
#
# Bulk Modulus (GPa) = 57.86127 59.30749 58.58438
# Shear Modulus (GPa) = 22.18833 25.96250 24.07541
#
# Velocity S-wave (km/s) = 3.23225 3.49636 3.36689
# Velocity P-wave (km/s) = 6.41670 6.65014 6.53446
#
# Compressibility (1/GPa) = 0.01728272
#
# Stress axis : x y z
#
# Youngs Moduli (GPa) = 73.85834 103.51927 65.66412
#
# Poissons Ratio (x) = 0.19328 0.31861
# Poissons Ratio (y) = 0.13790 0.25305
# Poissons Ratio (z) = 0.35837 0.39893
#
# Static dielectric constant tensor:
#      x y z
#    x 3.932120 0.000000 -0.168130 
#    y 0.000000 3.754440 0.000000 
#    z -0.168130 0.000000 3.866610 
# 
# 
# High freq. dielectric constant tensor:
#      x y z
#    x 1.845590 0.000000 -0.013240 
#    y 0.000000 1.809010 0.000000 
#    z -0.013240 0.000000 1.834660 
# 
# From -- ./inp_files/149749.got.cif
#   From: 2010.06.25/outbox.cif.g09.slc.cpg/sg12_75_cif.got.tgz:149749.got - 2010.06.28 00:19:55.
