data_PCOD8094447
_publ_section_title
;
Structure prediction by ZEFSAII (Michael W. Deem and Ramdas Pophale) SiO2 
 PCOD8094447
Probable space group: C 2/M
;
_chemical_formula_sum "Si O2"
_cell_formula_units_Z 52
_cell_length_a 22.213498
_cell_length_b 11.223208
_cell_length_c 12.740162
_cell_angle_alpha 90.000000
_cell_angle_beta 124.324896
_cell_angle_gamma 90.000000
_cell_volume 2623.081911
_symmetry_space_group_name_H-M "C 2/M"
_symmetry_group_IT_number 12
_symmetry_cell_setting 'monoclinic'
loop_
_space_group_symop_operation_xyz
x,y,z
-x,y,-z
-x,-y,-z
x,-y,z
1/2+x,1/2+y,z
1/2-x,1/2+y,-z
1/2-x,1/2-y,-z
1/2+x,1/2-y,z
loop_
_atom_site_type_symbol
_atom_site_label
_atom_site_fract_x
_atom_site_fract_y
_atom_site_fract_z
Si Si1 0.515217 0.257601 0.638016
Si Si2 0.708792 0.742453 0.111979
Si Si3 0.605809 0.500000 0.267008
Si Si4 0.541145 0.500000 0.760063
Si Si5 0.629753 0.500000 0.061079
Si Si6 0.265784 0.864269 0.652115
Si Si7 0.847355 0.639935 0.144062
Si Si8 0.860208 0.233639 0.594093
O O1 0.500000 0.247058 0.500000
O O2 0.554500 0.383874 0.701761
O O3 0.571573 0.155471 0.729007
O O4 0.441207 0.241062 0.631705
O O5 0.678554 0.615919 0.117006
O O6 0.707918 0.833402 0.206475
O O7 0.790767 0.719580 0.154043
O O8 0.656408 0.807237 0.976708
O O9 0.540852 0.500000 0.284626
O O10 0.580876 0.500000 0.119833
O O11 0.649530 0.619848 0.337838
O O12 0.588784 0.500000 0.911166
O O13 0.194710 0.784306 0.556984
O O14 0.332235 0.844713 0.635489
O O15 0.241172 0.000000 0.623725
O O16 0.826875 0.500000 0.124959
#
# Coordination Sequence:
#
# PCOD8094447 Si02
#       8
#     8   8   4   4   4   8   8   8
#     4  11  23  42  62  89 123 162 205 254 307 365
#     4  11  23  40  63  92 122 161 206 253 306 362
#     4  10  19  37  63  90 126 157 202 259 301 362
#     4  10  22  38  62  92 124 161 205 253 307 360
#     4  12  19  39  65  94 119 163 200 257 306 359
#     4  11  22  40  64  91 124 160 202 253 310 363
#     4  11  24  42  62  88 126 163 206 251 302 370
#     4  10  22  39  61  92 123 160 205 253 304 363
#
# _framework density 19.824009
#
# number of rings (size 3 to 8) (size 9 to 14) (size 15 to 20)
#    0.000    1.231    4.615    1.846    0.000    0.923 
#    4.154    0.769    0.000    1.846    0.000    0.000 
#    0.000    0.000    0.000    0.000    0.000    0.000 
#
# Total GULP energy -322386.696053 kJ/mol
# GULP energy per Si atom -12399.488310 kJ/mol
# Density = 1.977889 g / cm^3
# Si number density = 19.824009 Si / 1000 Ang^3
#
#
#
# Elastic Constant Matrix: (Units=GPa)
#
#
# Indices 1 2 3 4 5 6 
#
# 1 352.5420 2.7268 46.8001 0.0000 25.3234 0.0000
# 2 2.7268 76.9531 26.9558 0.0000 -10.0867 0.0000
# 3 46.8001 26.9558 133.2149 0.0000 -15.2747 0.0000
# 4 0.0000 0.0000 0.0000 32.1531 0.0000 2.6470
# 5 25.3234 -10.0867 -15.2747 0.0000 34.1357 0.0000
# 6 0.0000 0.0000 0.0000 2.6470 0.0000 20.1917
#
#
#
# Elastic Compliance Matrix: (Units=1/GPa)
#
#
# Indices 1 2 3 4 5 6 
#
# 1 0.003257 0.000005 -0.001499 0.000000 -0.003086 0.000000
# 2 0.000005 0.014288 -0.002540 0.000000 0.003082 0.000000
# 3 -0.001499 -0.002540 0.009053 0.000000 0.004413 0.000000
# 4 0.000000 0.000000 0.000000 0.031441 0.000000 -0.004122
# 5 -0.003086 0.003082 0.004413 0.000000 0.034469 0.000000
# 6 0.000000 0.000000 0.000000 -0.004122 0.000000 0.050066
#
#
# Mechanical properties :
#
#
# Convention : Reuss Voigt Hill
#
# Bulk Modulus (GPa) = 53.96214 79.51948 66.74081
# Shear Modulus (GPa) = 31.88408 49.71126 40.79767
#
# Velocity S-wave (km/s) = 4.01478 5.01306 4.54143
# Velocity P-wave (km/s) = 6.98362 8.58530 7.82555
#
# Compressibility (1/GPa) = 0.01853151
#
# Stress axis : x y z
#
# Youngs Moduli (GPa) = 307.01690 69.98726 110.45803
#
# Poissons Ratio (x) = -0.00037 0.16559
# Poissons Ratio (y) = -0.00162 0.28053
# Poissons Ratio (z) = 0.46026 0.17775
#
# Static dielectric constant tensor:
#      x y z
#    x 3.475350 0.000000 -0.075100 
#    y 0.000000 3.674730 0.000000 
#    z -0.075100 0.000000 3.619690 
# 
# 
# High freq. dielectric constant tensor:
#      x y z
#    x 1.765790 0.000000 -0.006580 
#    y 0.000000 1.771370 0.000000 
#    z -0.006580 0.000000 1.784400 
# 
# From -- ./inp_files/165570.got.cif
#   From: 2010.06.25/outbox.cif.g09.slc.cpg/sg12_83_cif.got.tgz:165570.got - 2010.06.28 00:19:55.
