data_PCOD8094287
_publ_section_title
;
Structure prediction by ZEFSAII (Michael W. Deem and Ramdas Pophale) SiO2 
 PCOD8094287
Probable space group: C 2/M
;
_chemical_formula_sum "Si O2"
_cell_formula_units_Z 48
_cell_length_a 21.977733
_cell_length_b 9.144765
_cell_length_c 12.209582
_cell_angle_alpha 90.000000
_cell_angle_beta 101.741595
_cell_angle_gamma 90.000000
_cell_volume 2402.549523
_symmetry_space_group_name_H-M "C 2/M"
_symmetry_group_IT_number 12
_symmetry_cell_setting 'monoclinic'
loop_
_space_group_symop_operation_xyz
x,y,z
-x,y,-z
-x,-y,-z
x,-y,z
1/2+x,1/2+y,z
1/2-x,1/2+y,-z
1/2-x,1/2-y,-z
1/2+x,1/2-y,z
loop_
_atom_site_type_symbol
_atom_site_label
_atom_site_fract_x
_atom_site_fract_y
_atom_site_fract_z
Si Si1 0.186313 0.827354 0.495382
Si Si2 0.476330 0.663403 0.372718
Si Si3 0.140208 0.332448 0.688911
Si Si4 0.312801 0.831385 0.057109
Si Si5 0.404584 0.336639 0.728184
Si Si6 0.570798 0.173269 0.045462
O O1 0.250000 0.750000 0.500000
O O2 0.160328 0.775993 0.601221
O O3 0.142786 0.776981 0.379975
O O4 0.194220 0.000000 0.500618
O O5 0.500000 0.716040 0.500000
O O6 0.447049 0.500000 0.374703
O O7 0.429428 0.783610 0.307754
O O8 0.528707 0.659204 0.301571
O O9 0.141961 0.500000 0.649867
O O10 0.182589 0.310783 0.810874
O O11 0.304359 0.000000 0.021677
O O12 0.250000 0.750000 0.000000
O O13 0.377241 0.773313 0.024403
O O14 0.385850 0.500000 0.760651
O O15 0.403620 0.228240 0.829496
O O16 0.567405 0.000000 0.045330
O O17 0.500000 0.235073 0.000000
#
# Coordination Sequence:
#
# PCOD8094287 Si02
#       6
#     8   8   8   8   8   8
#     4  11  24  42  61  88 125 163 203 251 306 365
#     4  10  19  37  60  87 123 161 196 241 304 365
#     4  11  23  40  63  92 123 158 204 254 305 367
#     4  10  24  43  63  90 123 163 208 258 312 369
#     4  10  22  39  62  90 123 158 200 251 304 365
#     4  10  22  42  65  90 124 162 206 259 312 365
#
# _framework density 19.978774999999999
#
# number of rings (size 3 to 8) (size 9 to 14) (size 15 to 20)
#    0.000    1.667    1.667    2.000    2.333    6.000 
#    0.000    0.000    0.000    0.000    0.000    0.000 
#    0.000    0.000    0.000    0.000    0.000    0.000 
#
# Total GULP energy -297549.563179 kJ/mol
# GULP energy per Si atom -12397.898466 kJ/mol
# Density = 1.993330 g / cm^3
# Si number density = 19.978775 Si / 1000 Ang^3
#
#
#
# Elastic Constant Matrix: (Units=GPa)
#
#
# Indices 1 2 3 4 5 6 
#
# 1 122.9102 40.8467 47.5907 0.0000 16.2422 0.0000
# 2 40.8467 59.0013 46.3213 0.0000 11.6808 0.0000
# 3 47.5907 46.3213 115.0349 0.0000 7.0147 0.0000
# 4 0.0000 0.0000 0.0000 36.3046 0.0000 1.1758
# 5 16.2422 11.6808 7.0147 0.0000 29.5321 0.0000
# 6 0.0000 0.0000 0.0000 1.1758 0.0000 31.4422
#
#
#
# Elastic Compliance Matrix: (Units=1/GPa)
#
#
# Indices 1 2 3 4 5 6 
#
# 1 0.011254 -0.005267 -0.002318 0.000000 -0.003555 0.000000
# 2 -0.005267 0.029023 -0.009116 0.000000 -0.006417 0.000000
# 3 -0.002318 -0.009116 0.013217 0.000000 0.001741 0.000000
# 4 0.000000 0.000000 0.000000 0.027578 0.000000 -0.001031
# 5 -0.003555 -0.006417 0.001741 0.000000 0.037941 0.000000
# 6 0.000000 0.000000 0.000000 -0.001031 0.000000 0.031843
#
#
# Mechanical properties :
#
#
# Convention : Reuss Voigt Hill
#
# Bulk Modulus (GPa) = 49.77544 62.94043 56.35794
# Shear Modulus (GPa) = 26.18405 30.26828 28.22616
#
# Velocity S-wave (km/s) = 3.62414 3.89655 3.76281
# Velocity P-wave (km/s) = 6.51773 7.19835 6.86647
#
# Compressibility (1/GPa) = 0.02009023
#
# Stress axis : x y z
#
# Youngs Moduli (GPa) = 88.85816 34.45558 75.66218
#
# Poissons Ratio (x) = 0.18149 0.17538
# Poissons Ratio (y) = 0.46805 0.68975
# Poissons Ratio (z) = 0.20597 0.31411
#
# Static dielectric constant tensor:
#      x y z
#    x 3.734060 0.000000 0.127500 
#    y 0.000000 3.637460 0.000000 
#    z 0.127500 0.000000 3.664450 
# 
# 
# High freq. dielectric constant tensor:
#      x y z
#    x 1.789510 0.000000 -0.000480 
#    y 0.000000 1.773510 0.000000 
#    z -0.000480 0.000000 1.786350 
# 
# From -- ./inp_files/173075.got.cif
#   From: 2010.06.25/outbox.cif.g09.slc.cpg/sg12_87_cif.got.tgz:173075.got - 2010.06.28 00:19:55.
