data_PCOD8094389
_publ_section_title
;
Structure prediction by ZEFSAII (Michael W. Deem and Ramdas Pophale) SiO2 
 PCOD8094389
Probable space group: C 2/M
;
_chemical_formula_sum "Si O2"
_cell_formula_units_Z 64
_cell_length_a 29.193193
_cell_length_b 9.174742
_cell_length_c 12.294026
_cell_angle_alpha 90.000000
_cell_angle_beta 88.384900
_cell_angle_gamma 90.000000
_cell_volume 3291.523924
_symmetry_space_group_name_H-M "C 2/M"
_symmetry_group_IT_number 12
_symmetry_cell_setting 'monoclinic'
loop_
_space_group_symop_operation_xyz
x,y,z
-x,y,-z
-x,-y,-z
x,-y,z
1/2+x,1/2+y,z
1/2-x,1/2+y,-z
1/2-x,1/2-y,-z
1/2+x,1/2-y,z
loop_
_atom_site_type_symbol
_atom_site_label
_atom_site_fract_x
_atom_site_fract_y
_atom_site_fract_z
Si Si1 0.420351 0.832823 0.199695
Si Si2 0.724397 0.163845 0.909874
Si Si3 0.363079 0.333073 0.049710
Si Si4 0.483048 0.166317 0.881302
Si Si5 0.660286 0.829925 0.372205
Si Si6 0.394157 0.331825 0.812066
Si Si7 0.148930 0.330894 0.615219
Si Si8 0.751559 0.334319 0.330857
O O1 0.409502 0.734433 0.094717
O O2 0.475197 0.820804 0.208643
O O3 0.392672 0.770102 0.306833
O O4 0.406480 0.000000 0.176968
O O5 0.676307 0.240247 0.889731
O O6 0.754142 0.165355 0.798855
O O7 0.716043 0.000000 0.951496
O O8 0.750000 0.250000 0.000000
O O9 0.357935 0.500000 0.084900
O O10 0.361723 0.316487 0.919697
O O11 0.443766 0.268872 0.836885
O O12 0.464851 0.000000 0.888320
O O13 0.500000 0.215339 0.000000
O O14 0.629461 0.752001 0.284818
O O15 0.635914 0.803893 0.490363
O O16 0.711377 0.765933 0.380355
O O17 0.663870 0.000000 0.343105
O O18 0.399900 0.500000 0.778464
O O19 0.154075 0.500000 0.641643
O O20 0.199204 0.264464 0.639257
O O21 0.746042 0.500000 0.375698
#
# Coordination Sequence:
#
# PCOD8094389 Si02
#       8
#     8   8   8   8   8   8   8   8
#     4  10  19  37  62  87 116 147 182 233 291 340
#     4  11  22  35  53  78 114 155 189 233 286 344
#     4  11  22  35  54  82 114 150 190 230 279 342
#     4  10  20  35  62  94 117 144 190 238 283 345
#     4  11  23  38  59  85 114 150 200 246 281 334
#     4  11  24  40  58  82 120 159 190 232 292 348
#     4   9  19  38  61  85 114 153 194 237 288 341
#     4  10  20  37  59  82 114 153 192 234 292 346
#
# _framework density 19.44388
#
# number of rings (size 3 to 8) (size 9 to 14) (size 15 to 20)
#    0.000    1.625    2.500    2.625    0.000    6.250 
#    0.000    2.500    0.000    3.750    0.000    0.000 
#    0.000    0.000    0.000    0.000    0.000    0.000 
#
# Total GULP energy -396766.084524 kJ/mol
# GULP energy per Si atom -12398.940141 kJ/mol
# Density = 1.939962 g / cm^3
# Si number density = 19.443880 Si / 1000 Ang^3
#
#
#
# Elastic Constant Matrix: (Units=GPa)
#
#
# Indices 1 2 3 4 5 6 
#
# 1 87.0289 38.0295 32.7461 0.0000 -9.4148 0.0000
# 2 38.0295 108.3461 39.7496 0.0000 -1.8928 0.0000
# 3 32.7461 39.7496 88.1158 0.0000 -3.2463 0.0000
# 4 0.0000 0.0000 0.0000 22.5271 0.0000 1.5382
# 5 -9.4148 -1.8928 -3.2463 0.0000 23.6593 0.0000
# 6 0.0000 0.0000 0.0000 1.5382 0.0000 31.3946
#
#
#
# Elastic Compliance Matrix: (Units=1/GPa)
#
#
# Indices 1 2 3 4 5 6 
#
# 1 0.015131 -0.003867 -0.003687 0.000000 0.005206 0.000000
# 2 -0.003867 0.012050 -0.004040 0.000000 -0.001129 0.000000
# 3 -0.003687 -0.004040 0.014549 0.000000 0.000206 0.000000
# 4 0.000000 0.000000 0.000000 0.044540 0.000000 -0.002182
# 5 0.005206 -0.001129 0.000206 0.000000 0.044276 0.000000
# 6 0.000000 0.000000 0.000000 -0.002182 0.000000 0.031959
#
#
# Mechanical properties :
#
#
# Convention : Reuss Voigt Hill
#
# Bulk Modulus (GPa) = 53.93427 56.06015 54.99721
# Shear Modulus (GPa) = 26.05890 27.04725 26.55307
#
# Velocity S-wave (km/s) = 3.66486 3.73371 3.69945
# Velocity P-wave (km/s) = 6.76069 6.89071 6.82601
#
# Compressibility (1/GPa) = 0.01854109
#
# Stress axis : x y z
#
# Youngs Moduli (GPa) = 66.09084 82.99027 68.73427
#
# Poissons Ratio (x) = 0.32096 0.25339
# Poissons Ratio (y) = 0.25560 0.27769
# Poissons Ratio (z) = 0.24365 0.33528
#
# Static dielectric constant tensor:
#      x y z
#    x 3.537900 0.000000 -0.183330 
#    y 0.000000 3.482120 0.000000 
#    z -0.183330 0.000000 3.509740 
# 
# 
# High freq. dielectric constant tensor:
#      x y z
#    x 1.755090 0.000000 -0.006120 
#    y 0.000000 1.748730 0.000000 
#    z -0.006120 0.000000 1.752660 
# 
# From -- ./inp_files/187426.got.cif
#   From: 2010.06.25/outbox.cif.g09.slc.cpg/sg12_94_cif.got.tgz:187426.got - 2010.06.28 00:19:55.
