data_PCOD8094404
_publ_section_title
;
Structure prediction by ZEFSAII (Michael W. Deem and Ramdas Pophale) SiO2 
 PCOD8094404
Probable space group: C 2/M
;
_chemical_formula_sum "Si O2"
_cell_formula_units_Z 44
_cell_length_a 10.788863
_cell_length_b 28.668379
_cell_length_c 12.648548
_cell_angle_alpha 90.000000
_cell_angle_beta 146.321920
_cell_angle_gamma 90.000000
_cell_volume 2169.409220
_symmetry_space_group_name_H-M "C 2/M"
_symmetry_group_IT_number 12
_symmetry_cell_setting 'monoclinic'
loop_
_space_group_symop_operation_xyz
x,y,z
-x,y,-z
-x,-y,-z
x,-y,z
1/2+x,1/2+y,z
1/2-x,1/2+y,-z
1/2-x,1/2-y,-z
1/2+x,1/2-y,z
loop_
_atom_site_type_symbol
_atom_site_label
_atom_site_fract_x
_atom_site_fract_y
_atom_site_fract_z
Si Si1 0.895405 0.160108 0.536069
Si Si2 0.972957 0.000000 0.806615
Si Si3 0.131086 0.500000 0.755565
Si Si4 0.000000 0.648252 0.500000
Si Si5 0.283250 0.805222 0.920049
Si Si6 0.548598 0.206708 0.733782
Si Si7 0.765697 0.577181 0.472970
O O1 0.720000 0.201000 0.444079
O O2 0.787828 0.107974 0.460270
O O3 0.000000 0.174668 0.500000
O O4 0.103998 0.155255 0.764748
O O5 0.773065 0.000000 0.749625
O O6 0.942627 0.954543 0.711439
O O7 0.214497 0.000000 0.031154
O O8 0.982428 0.546322 0.652158
O O9 0.882576 0.679569 0.324962
O O10 0.191537 0.615477 0.587801
O O11 0.141452 0.758609 0.793636
O O12 0.500000 0.806516 0.000000
O O13 0.343741 0.815129 0.084044
#
# Coordination Sequence:
#
# PCOD8094404 Si02
#       7
#     8   4   4   4   8   8   8
#     4  11  23  41  64  87 122 170 206 253 310 364
#     4  10  19  37  64  88 124 157 187 245 323 367
#     4  10  19  37  62  90 123 160 186 247 313 380
#     4  10  20  37  62  94 124 158 200 261 306 362
#     4  11  23  42  61  89 121 165 218 262 308 362
#     4  10  24  40  63  88 125 164 210 265 307 367
#     4  10  20  38  60  91 126 150 204 247 304 375
#
# _framework density 20.282019999999999
#
# number of rings (size 3 to 8) (size 9 to 14) (size 15 to 20)
#    0.000    1.636    3.636    1.091    1.273    8.727 
#    0.000    1.818    0.000    1.091    0.000    0.000 
#    0.000    0.000    0.000    0.000    0.000    0.000 
#
# Total GULP energy -272631.967469 kJ/mol
# GULP energy per Si atom -12392.362158 kJ/mol
# Density = 2.023586 g / cm^3
# Si number density = 20.282020 Si / 1000 Ang^3
#
#
#
# Elastic Constant Matrix: (Units=GPa)
#
#
# Indices 1 2 3 4 5 6 
#
# 1 75.4936 32.9509 39.2766 0.0000 0.4255 0.0000
# 2 32.9509 87.1222 37.8082 0.0000 1.1344 0.0000
# 3 39.2766 37.8082 143.0463 0.0000 -3.4924 0.0000
# 4 0.0000 0.0000 0.0000 21.3634 0.0000 -1.7214
# 5 0.4255 1.1344 -3.4924 0.0000 35.9286 0.0000
# 6 0.0000 0.0000 0.0000 -1.7214 0.0000 19.9701
#
#
#
# Elastic Compliance Matrix: (Units=1/GPa)
#
#
# Indices 1 2 3 4 5 6 
#
# 1 0.017215 -0.005028 -0.003407 0.000000 -0.000376 0.000000
# 2 -0.005028 0.014453 -0.002455 0.000000 -0.000635 0.000000
# 3 -0.003407 -0.002455 0.008598 0.000000 0.000954 0.000000
# 4 0.000000 0.000000 0.000000 0.047136 0.000000 0.004063
# 5 -0.000376 -0.000635 0.000954 0.000000 0.027950 0.000000
# 6 0.000000 0.000000 0.000000 0.004063 0.000000 0.050425
#
#
# Mechanical properties :
#
#
# Convention : Reuss Voigt Hill
#
# Bulk Modulus (GPa) = 54.09151 58.41483 56.25317
# Shear Modulus (GPa) = 25.81026 28.49417 27.15222
#
# Velocity S-wave (km/s) = 3.57118 3.75226 3.66284
# Velocity P-wave (km/s) = 6.61302 6.90192 6.75901
#
# Compressibility (1/GPa) = 0.01848719
#
# Stress axis : x y z
#
# Youngs Moduli (GPa) = 58.08769 69.18791 116.29944
#
# Poissons Ratio (x) = 0.34785 0.39626
# Poissons Ratio (y) = 0.29204 0.28554
# Poissons Ratio (z) = 0.19792 0.16987
#
# Static dielectric constant tensor:
#      x y z
#    x 3.688950 0.000000 0.006390 
#    y 0.000000 3.692690 0.000000 
#    z 0.006390 0.000000 3.887740 
# 
# 
# High freq. dielectric constant tensor:
#      x y z
#    x 1.780120 0.000000 -0.003580 
#    y 0.000000 1.787670 0.000000 
#    z -0.003580 0.000000 1.798650 
# 
# From -- ./inp_files/209751.got.cif
#   From: 2010.06.25/outbox.cif.g09.slc.cpg/sg12_105_cif.got.tgz:209751.got - 2010.06.28 00:19:55.
