data_PCOD8094541
_publ_section_title
;
Structure prediction by ZEFSAII (Michael W. Deem and Ramdas Pophale) SiO2 
 PCOD8094541
Probable space group: C 2/M
;
_chemical_formula_sum "Si O2"
_cell_formula_units_Z 64
_cell_length_a 21.169263
_cell_length_b 24.346421
_cell_length_c 7.620900
_cell_angle_alpha 90.000000
_cell_angle_beta 126.509659
_cell_angle_gamma 90.000000
_cell_volume 3156.978808
_symmetry_space_group_name_H-M "C 2/M"
_symmetry_group_IT_number 12
_symmetry_cell_setting 'monoclinic'
loop_
_space_group_symop_operation_xyz
x,y,z
-x,y,-z
-x,-y,-z
x,-y,z
1/2+x,1/2+y,z
1/2-x,1/2+y,-z
1/2-x,1/2-y,-z
1/2+x,1/2-y,z
loop_
_atom_site_type_symbol
_atom_site_label
_atom_site_fract_x
_atom_site_fract_y
_atom_site_fract_z
Si Si1 0.149600 0.938503 0.990828
Si Si2 0.583754 0.721998 0.297493
Si Si3 0.752636 0.166120 0.369408
Si Si4 0.666932 0.561141 0.606040
Si Si5 0.738314 0.846000 0.737667
Si Si6 0.417910 0.804877 0.406146
Si Si7 0.856645 0.751120 0.976446
Si Si8 0.490958 0.618225 0.692557
O O1 0.160157 0.939227 0.802043
O O2 0.067305 0.909985 0.904142
O O3 0.150668 0.000000 0.070018
O O4 0.221904 0.905753 0.196757
O O5 0.665404 0.697603 0.502173
O O6 0.568837 0.776403 0.384497
O O7 0.585760 0.736476 0.093345
O O8 0.516329 0.676984 0.224534
O O9 0.763450 0.102566 0.332980
O O10 0.717398 0.171203 0.505542
O O11 0.692870 0.195774 0.140274
O O12 0.686759 0.500000 0.569004
O O13 0.583924 0.580060 0.386798
O O14 0.656322 0.846238 0.709384
O O15 0.798945 0.802203 0.920888
O O16 0.500000 0.836786 0.500000
O O17 0.405751 0.758736 0.234501
O O18 0.500000 0.626751 0.500000
#
# Coordination Sequence:
#
# PCOD8094541 Si02
#       8
#     8   8   8   8   8   8   8   8
#     4  10  21  36  58  87 116 160 208 247 294 350
#     4  10  20  37  53  88 119 154 205 236 288 353
#     4  10  19  38  58  79 115 158 201 250 291 350
#     4   9  18  32  55  84 117 157 201 245 293 351
#     4  11  22  39  57  83 117 150 204 252 297 352
#     4  12  25  37  58  86 118 154 194 243 301 367
#     4  11  22  39  61  82 118 163 195 249 295 350
#     4   9  18  32  56  80 123 163 201 240 290 349
#
# _framework density 20.272545999999998
#
# number of rings (size 3 to 8) (size 9 to 14) (size 15 to 20)
#    0.000    1.750    2.500    2.625    7.000    2.500 
#    2.250    1.875    0.000    7.875    0.000    0.000 
#    0.000    4.000    0.000    0.000    0.000    0.000 
#
# Total GULP energy -396845.863204 kJ/mol
# GULP energy per Si atom -12401.433225 kJ/mol
# Density = 2.022640 g / cm^3
# Si number density = 20.272546 Si / 1000 Ang^3
#
#
#
# Elastic Constant Matrix: (Units=GPa)
#
#
# Indices 1 2 3 4 5 6 
#
# 1 94.5511 36.8610 19.7568 0.0000 21.7150 0.0000
# 2 36.8610 103.1760 13.4527 0.0000 20.9430 0.0000
# 3 19.7568 13.4527 49.5213 0.0000 3.1175 0.0000
# 4 0.0000 0.0000 0.0000 24.6877 0.0000 4.4657
# 5 21.7150 20.9430 3.1175 0.0000 21.3572 0.0000
# 6 0.0000 0.0000 0.0000 4.4657 0.0000 28.7973
#
#
#
# Elastic Compliance Matrix: (Units=1/GPa)
#
#
# Indices 1 2 3 4 5 6 
#
# 1 0.015371 -0.002303 -0.004708 0.000000 -0.012682 0.000000
# 2 -0.002303 0.012777 -0.001929 0.000000 -0.009906 0.000000
# 3 -0.004708 -0.001929 0.022381 0.000000 0.003411 0.000000
# 4 0.000000 0.000000 0.000000 0.041675 0.000000 -0.006463
# 5 -0.012682 -0.009906 0.003411 0.000000 0.068934 0.000000
# 6 0.000000 0.000000 0.000000 -0.006463 0.000000 0.035728
#
#
# Mechanical properties :
#
#
# Convention : Reuss Voigt Hill
#
# Bulk Modulus (GPa) = 30.62876 43.04327 36.83602
# Shear Modulus (GPa) = 22.16038 26.78031 24.47034
#
# Velocity S-wave (km/s) = 3.30983 3.63852 3.47806
# Velocity P-wave (km/s) = 5.45416 6.23940 5.85995
#
# Compressibility (1/GPa) = 0.03264905
#
# Stress axis : x y z
#
# Youngs Moduli (GPa) = 65.05888 78.26406 44.68115
#
# Poissons Ratio (x) = 0.18026 0.21037
# Poissons Ratio (y) = 0.14984 0.08617
# Poissons Ratio (z) = 0.30631 0.15093
#
# Static dielectric constant tensor:
#      x y z
#    x 3.830590 0.000000 -0.005960 
#    y 0.000000 3.699600 0.000000 
#    z -0.005960 0.000000 3.529760 
# 
# 
# High freq. dielectric constant tensor:
#      x y z
#    x 1.795760 0.000000 -0.011370 
#    y 0.000000 1.761740 0.000000 
#    z -0.011370 0.000000 1.785950 
# 
# From -- ./inp_files/90698.got.cif
#   From: 2010.06.25/outbox.cif.g09.slc.cpg/sg12_46_cif.got.tgz:90698.got - 2010.06.28 00:19:55.
