data_PCOD8094425
_publ_section_title
;
Structure prediction by ZEFSAII (Michael W. Deem and Ramdas Pophale) SiO2 
 PCOD8094425
Probable space group: C 2/M
;
_chemical_formula_sum "Si O2"
_cell_formula_units_Z 56
_cell_length_a 18.711950
_cell_length_b 8.853665
_cell_length_c 26.266999
_cell_angle_alpha 90.000000
_cell_angle_beta 137.237105
_cell_angle_gamma 90.000000
_cell_volume 2954.613074
_symmetry_space_group_name_H-M "C 2/M"
_symmetry_group_IT_number 12
_symmetry_cell_setting 'monoclinic'
loop_
_space_group_symop_operation_xyz
x,y,z
-x,y,-z
-x,-y,-z
x,-y,z
1/2+x,1/2+y,z
1/2-x,1/2+y,-z
1/2-x,1/2-y,-z
1/2+x,1/2-y,z
loop_
_atom_site_type_symbol
_atom_site_label
_atom_site_fract_x
_atom_site_fract_y
_atom_site_fract_z
Si Si1 0.545837 0.837917 0.290322
Si Si2 0.679727 0.678396 0.919925
Si Si3 0.062907 0.173084 0.203347
Si Si4 0.737829 0.678379 0.737794
Si Si5 0.143371 0.665165 0.446940
Si Si6 0.539525 0.179514 0.577426
Si Si7 0.191044 0.673226 0.818736
O O1 0.579680 0.699731 0.272299
O O2 0.622293 0.844424 0.376859
O O3 0.432115 0.815574 0.254930
O O4 0.550133 0.000000 0.262773
O O5 0.695988 0.500000 0.925563
O O6 0.558670 0.718414 0.870826
O O7 0.718672 0.748524 0.886887
O O8 0.750000 0.750000 0.000000
O O9 0.143942 0.280787 0.217149
O O10 0.086401 0.000000 0.201715
O O11 0.721266 0.500000 0.728835
O O12 0.650926 0.748468 0.653425
O O13 0.737747 0.738780 0.795283
O O14 0.160593 0.500000 0.480200
O O15 0.250000 0.750000 0.500000
O O16 0.050430 0.742608 0.431193
O O17 0.500000 0.226038 0.500000
O O18 0.554644 0.000000 0.589841
O O19 0.231942 0.500000 0.840816
#
# Coordination Sequence:
#
# PCOD8094425 Si02
#       7
#     8   8   8   8   8   8   8
#     4   9  18  35  56  79 109 145 190 240 290 342
#     4  10  21  39  64  95 125 156 194 237 288 347
#     4  10  22  38  59  86 117 153 196 236 284 348
#     4  12  24  38  59  87 120 155 198 248 297 350
#     4  10  21  36  53  79 111 146 190 241 294 348
#     4  10  22  41  60  80 112 157 202 245 300 356
#     4  10  19  37  63  86 115 155 195 237 288 346
#
# _framework density 18.953413000000001
#
# number of rings (size 3 to 8) (size 9 to 14) (size 15 to 20)
#    0.000    1.857    1.429    2.571    2.000    3.714 
#    0.000    0.714    0.000    4.286    0.000    0.000 
#    0.000    0.000    0.000    0.000    0.000    0.000 
#
# Total GULP energy -346969.778013 kJ/mol
# GULP energy per Si atom -12391.777786 kJ/mol
# Density = 1.891027 g / cm^3
# Si number density = 18.953413 Si / 1000 Ang^3
#
#
#
# Elastic Constant Matrix: (Units=GPa)
#
#
# Indices 1 2 3 4 5 6 
#
# 1 109.0337 54.3296 65.7998 0.0000 3.9854 0.0000
# 2 54.3296 104.2687 54.8664 -0.0001 -2.2827 0.0002
# 3 65.7998 54.8664 112.6364 0.0000 -12.3154 0.0000
# 4 0.0000 -0.0001 0.0000 23.3027 0.0000 -1.3534
# 5 3.9854 -2.2827 -12.3154 0.0000 18.3305 0.0000
# 6 0.0000 0.0002 0.0000 -1.3534 0.0000 33.4511
#
#
#
# Elastic Compliance Matrix: (Units=1/GPa)
#
#
# Indices 1 2 3 4 5 6 
#
# 1 0.017209 -0.004448 -0.009019 0.000000 -0.010355 0.000000
# 2 -0.004448 0.014182 -0.004329 0.000000 -0.000175 0.000000
# 3 -0.009019 -0.004329 0.017712 0.000000 0.013322 0.000000
# 4 0.000000 0.000000 0.000000 0.043015 0.000000 0.001740
# 5 -0.010355 -0.000175 0.013322 0.000000 0.065733 0.000000
# 6 0.000000 0.000000 0.000000 0.001740 0.000000 0.029965
#
#
# Mechanical properties :
#
#
# Convention : Reuss Voigt Hill
#
# Bulk Modulus (GPa) = 74.00918 75.10338 74.55628
# Shear Modulus (GPa) = 21.93839 25.07972 23.50905
#
# Velocity S-wave (km/s) = 3.40588 3.64157 3.52569
# Velocity P-wave (km/s) = 7.38914 7.57579 7.48305
#
# Compressibility (1/GPa) = 0.01351184
#
# Stress axis : x y z
#
# Youngs Moduli (GPa) = 58.11004 70.51009 56.45906
#
# Poissons Ratio (x) = 0.31361 0.50918
# Poissons Ratio (y) = 0.25846 0.24443
# Poissons Ratio (z) = 0.52407 0.30526
#
# Static dielectric constant tensor:
#      x y z
#    x 3.552520 0.000000 0.007950 
#    y 0.000000 3.456060 0.000000 
#    z 0.007950 0.000000 3.339230 
# 
# 
# High freq. dielectric constant tensor:
#      x y z
#    x 1.740020 0.000000 -0.004440 
#    y 0.000000 1.739380 0.000000 
#    z -0.004440 0.000000 1.730500 
# 
# From -- ./inp_files/342512.got.cif
#   From: 2010.06.25/outbox.cif.g09.slc.cpg/sg12_172_cif.got.tgz:342512.got - 2010.06.28 00:19:55.
