data_PCOD8094515
_publ_section_title
;
Structure prediction by ZEFSAII (Michael W. Deem and Ramdas Pophale) SiO2 
 PCOD8094515
Probable space group: C 2/M
;
_chemical_formula_sum "Si O2"
_cell_formula_units_Z 60
_cell_length_a 11.099585
_cell_length_b 26.791122
_cell_length_c 16.496760
_cell_angle_alpha 90.000000
_cell_angle_beta 146.025790
_cell_angle_gamma 90.000000
_cell_volume 2741.372122
_symmetry_space_group_name_H-M "C 2/M"
_symmetry_group_IT_number 12
_symmetry_cell_setting 'monoclinic'
loop_
_space_group_symop_operation_xyz
x,y,z
-x,y,-z
-x,-y,-z
x,-y,z
1/2+x,1/2+y,z
1/2-x,1/2+y,-z
1/2-x,1/2-y,-z
1/2+x,1/2-y,z
loop_
_atom_site_type_symbol
_atom_site_label
_atom_site_fract_x
_atom_site_fract_y
_atom_site_fract_z
Si Si1 0.743832 0.661358 0.138043
Si Si2 0.279029 0.054828 0.349527
Si Si3 0.000000 0.345936 0.000000
Si Si4 0.777003 0.697493 0.332780
Si Si5 0.179014 0.892134 0.544828
Si Si6 0.520046 0.628248 0.736657
Si Si7 0.113155 0.444497 0.771256
Si Si8 0.095455 0.305219 0.226532
O O1 0.817245 0.667606 0.271624
O O2 0.778389 0.603822 0.124346
O O3 0.872104 0.699779 0.151911
O O4 0.500000 0.678396 0.000000
O O5 0.500000 0.083083 0.500000
O O6 0.067270 0.080071 0.266101
O O7 0.264722 0.052304 0.245376
O O8 0.282970 0.000000 0.391050
O O9 0.779362 0.377575 0.886812
O O10 0.963868 0.313659 0.899802
O O11 0.571164 0.676445 0.266943
O O12 0.739312 0.756042 0.304153
O O13 0.000000 0.687248 0.500000
O O14 0.064577 0.868549 0.402447
O O15 0.358818 0.932496 0.619637
O O16 0.273000 0.848361 0.654054
O O17 0.000000 0.920060 0.500000
O O18 0.139974 0.500000 0.828353
#
# Coordination Sequence:
#
# PCOD8094515 Si02
#       8
#     8   8   4   8   8   8   8   8
#     4  11  25  44  68 100 137 175 224 273 330 402
#     4  10  19  37  68 103 132 166 220 282 338 388
#     4  12  28  46  65  88 138 186 223 256 346 406
#     4  12  26  44  72 101 130 169 227 279 338 390
#     4  11  22  42  66  96 133 176 225 276 328 392
#     4  12  24  42  69  97 133 179 218 273 332 407
#     4  10  21  39  67 102 136 170 220 283 339 389
#     4  11  27  44  65  95 134 177 221 279 328 398
#
# _framework density 21.886852000000001
#
# number of rings (size 3 to 8) (size 9 to 14) (size 15 to 20)
#    0.000    0.933    4.000    3.200    2.800    2.667 
#    0.000    0.333    0.000    0.000    0.000    0.000 
#    0.000    0.000    0.000    0.000    0.000    0.000 
#
# Total GULP energy -371778.887770 kJ/mol
# GULP energy per Si atom -12392.629592 kJ/mol
# Density = 2.183704 g / cm^3
# Si number density = 21.886852 Si / 1000 Ang^3
#
#
#
# Elastic Constant Matrix: (Units=GPa)
#
#
# Indices 1 2 3 4 5 6 
#
# 1 140.2053 34.8030 47.4003 -0.0001 11.9695 0.0000
# 2 34.8030 99.1693 29.6304 0.0000 4.2333 0.0000
# 3 47.4003 29.6304 109.7668 -0.0002 16.0563 -0.0001
# 4 -0.0001 0.0000 -0.0002 21.6633 -0.0001 2.4122
# 5 11.9695 4.2333 16.0563 -0.0001 51.3724 0.0000
# 6 0.0000 0.0000 -0.0001 2.4122 0.0000 13.5873
#
#
#
# Elastic Compliance Matrix: (Units=1/GPa)
#
#
# Indices 1 2 3 4 5 6 
#
# 1 0.008779 -0.002120 -0.003086 0.000000 -0.000906 0.000000
# 2 -0.002120 0.011480 -0.002219 0.000000 0.000241 0.000000
# 3 -0.003086 -0.002219 0.011433 0.000000 -0.002671 0.000000
# 4 0.000000 0.000000 0.000000 0.047092 0.000000 -0.008360
# 5 -0.000906 0.000241 -0.002671 0.000000 0.020492 0.000000
# 6 0.000000 0.000000 0.000000 -0.008360 0.000000 0.075083
#
#
# Mechanical properties :
#
#
# Convention : Reuss Voigt Hill
#
# Bulk Modulus (GPa) = 59.37561 63.64540 61.51050
# Shear Modulus (GPa) = 25.66421 33.14511 29.40466
#
# Velocity S-wave (km/s) = 3.42802 3.89573 3.66933
# Velocity P-wave (km/s) = 6.54643 7.02695 6.79094
#
# Compressibility (1/GPa) = 0.01684193
#
# Stress axis : x y z
#
# Youngs Moduli (GPa) = 113.90179 87.10424 87.46870
#
# Poissons Ratio (x) = 0.18469 0.26996
# Poissons Ratio (y) = 0.24150 0.19407
# Poissons Ratio (z) = 0.35154 0.19326
#
# Static dielectric constant tensor:
#      x y z
#    x 6.528050 0.000000 -0.642320 
#    y 0.000000 3.938350 0.000000 
#    z -0.642320 0.000000 4.272570 
# 
# 
# High freq. dielectric constant tensor:
#      x y z
#    x 1.874410 0.000000 0.009900 
#    y 0.000000 1.847490 0.000000 
#    z 0.009900 0.000000 1.858290 
# 
# From -- ./inp_files/266036.got.cif
#   From: 2010.06.25/outbox.cif.g09.slc.cpg/sg12_134_cif.got.tgz:266036.got - 2010.06.28 00:19:55.
