data_PCOD8094608
_publ_section_title
;
Structure prediction by ZEFSAII (Michael W. Deem and Ramdas Pophale) SiO2 
 PCOD8094608
Probable space group: C 2/M
;
_chemical_formula_sum "Si O2"
_cell_formula_units_Z 64
_cell_length_a 21.556230
_cell_length_b 8.921634
_cell_length_c 26.995708
_cell_angle_alpha 90.000000
_cell_angle_beta 142.207900
_cell_angle_gamma 90.000000
_cell_volume 3181.481073
_symmetry_space_group_name_H-M "C 2/M"
_symmetry_group_IT_number 12
_symmetry_cell_setting 'monoclinic'
loop_
_space_group_symop_operation_xyz
x,y,z
-x,y,-z
-x,-y,-z
x,-y,z
1/2+x,1/2+y,z
1/2-x,1/2+y,-z
1/2-x,1/2-y,-z
1/2+x,1/2-y,z
loop_
_atom_site_type_symbol
_atom_site_label
_atom_site_fract_x
_atom_site_fract_y
_atom_site_fract_z
Si Si1 0.899549 0.334487 0.909304
Si Si2 0.293568 0.676519 0.672809
Si Si3 0.539423 0.834698 0.162041
Si Si4 0.333005 0.676100 0.585729
Si Si5 0.406460 0.677127 0.406595
Si Si6 0.815124 0.322670 0.999611
Si Si7 0.769914 0.325392 0.151536
Si Si8 0.550567 0.323298 0.679962
O O1 0.872151 0.500000 0.914848
O O2 0.908279 0.354999 0.857119
O O3 0.812329 0.210122 0.858365
O O4 0.000000 0.274265 0.000000
O O5 0.277257 0.500000 0.665359
O O6 0.397147 0.719299 0.765480
O O7 0.312266 0.732484 0.628501
O O8 0.196456 0.752024 0.637235
O O9 0.534575 0.000000 0.184639
O O10 0.428658 0.767285 0.082176
O O11 0.321020 0.500000 0.575676
O O12 0.250000 0.750000 0.500000
O O13 0.440456 0.723661 0.630253
O O14 0.500000 0.729547 0.500000
O O15 0.392299 0.500000 0.400288
O O16 0.430746 0.727718 0.365332
O O17 0.808494 0.500000 0.996629
O O18 0.772520 0.264892 0.921443
O O19 0.750000 0.250000 0.000000
O O20 0.778684 0.500000 0.145092
O O21 0.877094 0.264702 0.237066
O O22 0.569886 0.500000 0.697232
#
# Coordination Sequence:
#
# PCOD8094608 Si02
#       8
#     8   8   8   8   8   8   8   8
#     4  10  19  38  62  84 114 159 205 250 304 359
#     4  11  24  39  60  94 131 161 198 253 316 368
#     4  10  22  40  63  88 119 161 207 247 300 368
#     4  10  23  43  66  93 122 160 203 251 311 371
#     4  10  21  40  67  94 121 162 211 254 307 377
#     4  11  24  43  63  87 120 163 210 257 307 364
#     4  12  25  39  59  92 126 161 206 256 309 363
#     4  10  22  41  64  90 124 166 211 256 306 370
#
# _framework density 20.116416999999998
#
# number of rings (size 3 to 8) (size 9 to 14) (size 15 to 20)
#    0.000    1.500    1.250    3.375    1.750    8.000 
#    0.000    0.000    0.000    0.000    0.000    0.000 
#    0.000    0.000    0.000    0.000    0.000    0.000 
#
# Total GULP energy -396731.160183 kJ/mol
# GULP energy per Si atom -12397.848756 kJ/mol
# Density = 2.007063 g / cm^3
# Si number density = 20.116417 Si / 1000 Ang^3
#
#
#
# Elastic Constant Matrix: (Units=GPa)
#
#
# Indices 1 2 3 4 5 6 
#
# 1 147.2918 40.5600 69.9895 0.0000 12.7701 0.0000
# 2 40.5600 59.2458 55.5662 -0.0004 8.8970 -0.0001
# 3 69.9895 55.5662 171.9853 0.0000 8.0323 0.0000
# 4 0.0000 -0.0004 0.0000 20.5250 0.0000 -13.8073
# 5 12.7701 8.8970 8.0323 0.0000 24.3122 0.0000
# 6 0.0000 -0.0001 0.0000 -13.8073 0.0000 12.7933
#
#
#
# Elastic Compliance Matrix: (Units=1/GPa)
#
#
# Indices 1 2 3 4 5 6 
#
# 1 0.009173 -0.003575 -0.002452 0.000000 -0.002700 0.000000
# 2 -0.003575 0.026624 -0.006886 0.000002 -0.005590 0.000002
# 3 -0.002452 -0.006886 0.008998 -0.000001 0.000835 -0.000001
# 4 0.000000 0.000002 -0.000001 0.177829 -0.000001 0.191923
# 5 -0.002700 -0.005590 0.000835 -0.000001 0.044320 -0.000001
# 6 0.000000 0.000002 -0.000001 0.191923 -0.000001 0.285301
#
#
# Mechanical properties :
#
#
# Convention : Reuss Voigt Hill
#
# Bulk Modulus (GPa) = 52.71603 78.97272 65.84438
# Shear Modulus (GPa) = 8.55590 25.68658 17.12124
#
# Velocity S-wave (km/s) = 2.06456 3.57725 2.92054
# Velocity P-wave (km/s) = 5.65204 7.51035 6.64646
#
# Compressibility (1/GPa) = 0.01896956
#
# Stress axis : x y z
#
# Youngs Moduli (GPa) = 109.01869 37.56008 111.13571
#
# Poissons Ratio (x) = 0.13427 0.27248
# Poissons Ratio (y) = 0.38971 0.76529
# Poissons Ratio (z) = 0.26729 0.25864
#
# Static dielectric constant tensor:
#      x y z
#    x 3.869730 0.000000 0.087560 
#    y 0.000000 3.715830 0.000000 
#    z 0.087560 0.000000 3.447680 
# 
# 
# High freq. dielectric constant tensor:
#      x y z
#    x 1.798470 0.000000 0.000550 
#    y 0.000000 1.775190 0.000000 
#    z 0.000550 0.000000 1.800100 
# 
# From -- ./inp_files/382447.got.cif
#   From: 2010.06.25/outbox.cif.g09.slc.cpg/sg12_192_cif.got.tgz:382447.got - 2010.06.28 00:19:55.
