data_PCOD8094176
_publ_section_title
;
Structure prediction by ZEFSAII (Michael W. Deem and Ramdas Pophale) SiO2 
 PCOD8094176
Probable space group: C 2/M
;
_chemical_formula_sum "Si O2"
_cell_formula_units_Z 40
_cell_length_a 11.985231
_cell_length_b 24.093246
_cell_length_c 7.963438
_cell_angle_alpha 90.000000
_cell_angle_beta 54.597236
_cell_angle_gamma 90.000000
_cell_volume 1874.360572
_symmetry_space_group_name_H-M "C 2/M"
_symmetry_group_IT_number 12
_symmetry_cell_setting 'monoclinic'
loop_
_space_group_symop_operation_xyz
x,y,z
-x,y,-z
-x,-y,-z
x,-y,z
1/2+x,1/2+y,z
1/2-x,1/2+y,-z
1/2-x,1/2-y,-z
1/2+x,1/2-y,z
loop_
_atom_site_type_symbol
_atom_site_label
_atom_site_fract_x
_atom_site_fract_y
_atom_site_fract_z
Si Si1 0.764915 0.437351 0.424366
Si Si2 0.500000 0.611803 0.500000
Si Si3 0.919869 0.305701 0.817865
Si Si4 0.498898 0.312356 0.189294
Si Si5 0.500000 0.108330 0.000000
Si Si6 0.293496 0.169506 0.594107
O O1 0.760982 0.500000 0.496386
O O2 0.628889 0.426210 0.434442
O O3 0.901131 0.430350 0.193980
O O4 0.774123 0.396343 0.575657
O O5 0.450900 0.648220 0.703608
O O6 0.802862 0.320381 0.785465
O O7 0.905679 0.242551 0.895681
O O8 0.071465 0.308321 0.610370
O O9 0.901894 0.350723 0.979008
O O10 0.338338 0.298508 0.365758
O O11 0.500000 0.339896 0.000000
#
# Coordination Sequence:
#
# PCOD8094176 Si02
#       6
#     8   4   8   8   4   8
#     4  10  21  41  62  83 113 157 200 252 303 338
#     4  10  23  40  62  88 124 154 201 244 292 360
#     4  10  19  37  55  86 120 155 185 238 296 354
#     4  11  22  36  59  90 121 160 191 233 294 361
#     4  10  21  34  60  92 114 148 199 246 284 366
#     4   9  21  36  57  81 119 151 198 241 287 355
#
# _framework density 21.340610999999999
#
# number of rings (size 3 to 8) (size 9 to 14) (size 15 to 20)
#    0.000    2.000    1.000    2.400    2.800    4.000 
#    0.000    9.000    0.000    3.000    0.000    0.000 
#    0.000    0.000    0.000    0.000    0.000    0.000 
#
# Total GULP energy -247937.369382 kJ/mol
# GULP energy per Si atom -12396.868469 kJ/mol
# Density = 2.129204 g / cm^3
# Si number density = 21.340611 Si / 1000 Ang^3
#
#
#
# Elastic Constant Matrix: (Units=GPa)
#
#
# Indices 1 2 3 4 5 6 
#
# 1 88.2265 36.0071 14.2303 0.0000 8.4450 0.0000
# 2 36.0071 120.7879 25.0443 0.0000 10.9353 0.0000
# 3 14.2303 25.0443 52.0904 0.0000 21.4009 0.0000
# 4 0.0000 0.0000 0.0000 12.3009 0.0000 0.8864
# 5 8.4450 10.9353 21.4009 0.0000 37.3480 0.0000
# 6 0.0000 0.0000 0.0000 0.8864 0.0000 26.6747
#
#
#
# Elastic Compliance Matrix: (Units=1/GPa)
#
#
# Indices 1 2 3 4 5 6 
#
# 1 0.013104 -0.003508 -0.001436 0.000000 -0.001113 0.000000
# 2 -0.003508 0.010136 -0.003952 0.000000 0.000090 0.000000
# 3 -0.001436 -0.003952 0.027310 0.000000 -0.014167 0.000000
# 4 0.000000 0.000000 0.000000 0.081490 0.000000 -0.002708
# 5 -0.001113 0.000090 -0.014167 0.000000 0.035119 0.000000
# 6 0.000000 0.000000 0.000000 -0.002708 0.000000 0.037579
#
#
# Mechanical properties :
#
#
# Convention : Reuss Voigt Hill
#
# Bulk Modulus (GPa) = 30.52608 45.74091 38.13350
# Shear Modulus (GPa) = 21.41795 27.65292 24.53544
#
# Velocity S-wave (km/s) = 3.17144 3.60361 3.39441
# Velocity P-wave (km/s) = 5.26745 6.22856 5.76806
#
# Compressibility (1/GPa) = 0.03275887
#
# Stress axis : x y z
#
# Youngs Moduli (GPa) = 76.31091 98.65898 36.61641
#
# Poissons Ratio (x) = 0.34608 0.05258
# Poissons Ratio (y) = 0.26769 0.14470
# Poissons Ratio (z) = 0.10958 0.38988
#
# Static dielectric constant tensor:
#      x y z
#    x 4.135870 0.000000 0.117470 
#    y 0.000000 3.558250 0.000000 
#    z 0.117470 0.000000 3.793210 
# 
# 
# High freq. dielectric constant tensor:
#      x y z
#    x 1.854310 0.000000 -0.007730 
#    y 0.000000 1.810190 0.000000 
#    z -0.007730 0.000000 1.833590 
# 
# From -- ./inp_files/50478.got.cif
#   From: 2010.06.25/outbox.cif.g09.slc.cpg/sg12_26_cif.got.tgz:50478.got - 2010.06.28 00:19:55.
