data_PCOD8094867
_publ_section_title
;
Structure prediction by ZEFSAII (Michael W. Deem and Ramdas Pophale) SiO2 
 PCOD8094867
Probable space group: C 2/M
;
_chemical_formula_sum "Si O2"
_cell_formula_units_Z 44
_cell_length_a 17.203060
_cell_length_b 25.749949
_cell_length_c 6.615757
_cell_angle_alpha 90.000000
_cell_angle_beta 132.225980
_cell_angle_gamma 90.000000
_cell_volume 2170.134486
_symmetry_space_group_name_H-M "C 2/M"
_symmetry_group_IT_number 12
_symmetry_cell_setting 'monoclinic'
loop_
_space_group_symop_operation_xyz
x,y,z
-x,y,-z
-x,-y,-z
x,-y,z
1/2+x,1/2+y,z
1/2-x,1/2+y,-z
1/2-x,1/2-y,-z
1/2+x,1/2-y,z
loop_
_atom_site_type_symbol
_atom_site_label
_atom_site_fract_x
_atom_site_fract_y
_atom_site_fract_z
Si Si1 0.000000 0.383887 0.000000
Si Si2 0.281588 0.635020 0.009027
Si Si3 0.703172 0.060000 0.202663
Si Si4 0.887703 0.096938 0.812427
Si Si5 0.160506 0.808561 0.506386
Si Si6 0.352534 0.191133 0.551281
O O1 0.908138 0.421625 0.909158
O O2 0.955053 0.344930 0.750438
O O3 0.358962 0.603841 0.996516
O O4 0.205486 0.672127 0.750128
O O5 0.221630 0.591043 0.029313
O O6 0.343091 0.673200 0.267641
O O7 0.795204 0.067935 0.529341
O O8 0.696439 0.000000 0.134806
O O9 0.910567 0.153100 0.750626
O O10 0.000000 0.066649 0.000000
O O11 0.279428 0.813464 0.624088
O O12 0.113703 0.750887 0.414384
#
# Coordination Sequence:
#
# PCOD8094867 Si02
#       6
#     4   8   8   8   8   8
#     4  12  21  44  60  94 132 166 207 256 308 382
#     4  10  19  42  61  92 122 165 215 258 308 377
#     4  11  25  44  64  89 123 167 216 268 320 371
#     4  10  22  42  65  91 127 159 209 267 318 374
#     4   9  19  37  60  92 127 169 205 247 303 375
#     4  10  20  36  61  89 133 168 204 251 304 367
#
# _framework density 20.27524
#
# number of rings (size 3 to 8) (size 9 to 14) (size 15 to 20)
#    0.000    1.818    5.455    0.818    1.273    4.727 
#    0.000    3.636    0.000    0.000    0.000    0.000 
#    0.000    0.000    0.000    0.000    0.000    0.000 
#
# Total GULP energy -272708.899506 kJ/mol
# GULP energy per Si atom -12395.859068 kJ/mol
# Density = 2.022909 g / cm^3
# Si number density = 20.275240 Si / 1000 Ang^3
#
#
#
# Elastic Constant Matrix: (Units=GPa)
#
#
# Indices 1 2 3 4 5 6 
#
# 1 85.5859 21.1861 50.8798 0.0000 -1.9919 0.0000
# 2 21.1861 101.9840 9.9061 0.0000 -5.7052 0.0000
# 3 50.8798 9.9061 70.3340 0.0000 -10.5771 0.0000
# 4 0.0000 0.0000 0.0000 12.3231 0.0000 -3.1350
# 5 -1.9919 -5.7052 -10.5771 0.0000 41.8393 0.0000
# 6 0.0000 0.0000 0.0000 -3.1350 0.0000 9.9558
#
#
#
# Elastic Compliance Matrix: (Units=1/GPa)
#
#
# Indices 1 2 3 4 5 6 
#
# 1 0.021810 -0.003182 -0.015840 0.000000 -0.003400 0.000000
# 2 -0.003182 0.010450 0.001062 0.000000 0.001542 0.000000
# 3 -0.015840 0.001062 0.026441 0.000000 0.006075 0.000000
# 4 0.000000 0.000000 0.000000 0.088215 0.000000 0.027778
# 5 -0.003400 0.001542 0.006075 0.000000 0.025485 0.000000
# 6 0.000000 0.000000 0.000000 0.027778 0.000000 0.109191
#
#
# Mechanical properties :
#
#
# Convention : Reuss Voigt Hill
#
# Bulk Modulus (GPa) = 43.89953 46.87198 45.38576
# Shear Modulus (GPa) = 15.37964 24.55244 19.96604
#
# Velocity S-wave (km/s) = 2.75715 3.48366 3.14148
# Velocity P-wave (km/s) = 5.64222 6.27289 5.96590
#
# Compressibility (1/GPa) = 0.02277929
#
# Stress axis : x y z
#
# Youngs Moduli (GPa) = 45.85133 95.69713 37.82048
#
# Poissons Ratio (x) = 0.30454 0.59909
# Poissons Ratio (y) = 0.14591 -0.04017
# Poissons Ratio (z) = 0.72630 -0.10165
#
# Static dielectric constant tensor:
#      x y z
#    x 3.593980 0.000000 -0.039060 
#    y 0.000000 3.732890 0.000000 
#    z -0.039060 0.000000 3.623430 
# 
# 
# High freq. dielectric constant tensor:
#      x y z
#    x 1.780390 0.000000 -0.004240 
#    y 0.000000 1.792180 0.000000 
#    z -0.004240 0.000000 1.793830 
# 
# From -- ./inp_files/17817.got.cif
#   From: 2010.06.25/outbox.cif.g09.slc.cpg/sg12_9_cif.got.tgz:17817.got - 2010.06.28 00:19:55.
