data_PCOD8094779
_publ_section_title
;
Structure prediction by ZEFSAII (Michael W. Deem and Ramdas Pophale) SiO2 
 PCOD8094779
Probable space group: C 2/M
;
_chemical_formula_sum "Si O2"
_cell_formula_units_Z 56
_cell_length_a 11.529343
_cell_length_b 30.967105
_cell_length_c 14.877356
_cell_angle_alpha 90.000000
_cell_angle_beta 28.635171
_cell_angle_gamma 90.000000
_cell_volume 2545.514464
_symmetry_space_group_name_H-M "C 2/M"
_symmetry_group_IT_number 12
_symmetry_cell_setting 'monoclinic'
loop_
_space_group_symop_operation_xyz
x,y,z
-x,y,-z
-x,-y,-z
x,-y,z
1/2+x,1/2+y,z
1/2-x,1/2+y,-z
1/2-x,1/2-y,-z
1/2+x,1/2-y,z
loop_
_atom_site_type_symbol
_atom_site_label
_atom_site_fract_x
_atom_site_fract_y
_atom_site_fract_z
Si Si1 0.775097 0.757689 0.790666
Si Si2 0.973827 0.877114 0.382402
Si Si3 0.618925 0.680247 0.131941
Si Si4 0.677763 0.165111 0.732284
Si Si5 0.300856 0.169192 0.707078
Si Si6 0.242221 0.950841 0.571857
Si Si7 0.220810 0.925032 0.788680
O O1 0.900737 0.777065 0.793820
O O2 0.794890 0.790501 0.692171
O O3 0.904178 0.711100 0.689404
O O4 0.500000 0.750225 0.000000
O O5 0.774587 0.847140 0.568173
O O6 0.884598 0.925997 0.425890
O O7 0.001088 0.859547 0.263803
O O8 0.227918 0.873460 0.264529
O O9 0.456640 0.687206 0.154796
O O10 0.891488 0.667742 0.921483
O O11 0.500000 0.155105 0.500000
O O12 0.254638 0.125523 0.794149
O O13 0.163675 0.930520 0.721517
O O14 0.531448 0.950118 0.359109
O O15 0.152591 0.000000 0.629358
O O16 0.000000 0.943449 0.000000
#
# Coordination Sequence:
#
# PCOD8094779 Si02
#       7
#     8   8   8   8   8   8   8
#     4   9  21  39  55  89 127 168 215 259 301 355
#     4  10  19  39  64  94 115 162 209 251 316 377
#     4  10  21  41  61  85 127 173 209 258 308 357
#     4   9  21  38  65  89 124 168 214 251 305 370
#     4  12  23  38  59  95 128 164 216 261 302 364
#     4  11  24  43  65  95 127 156 201 262 322 382
#     4  11  23  43  63  90 128 168 209 252 308 377
#
# _framework density 21.999483999999999
#
# number of rings (size 3 to 8) (size 9 to 14) (size 15 to 20)
#    0.000    1.714    2.857    2.571    6.000    4.000 
#    5.143    1.429    0.000    1.714    0.000    0.000 
#    0.000    0.000    0.000    0.000    0.000    0.000 
#
# Total GULP energy -346998.778594 kJ/mol
# GULP energy per Si atom -12392.813521 kJ/mol
# Density = 2.194941 g / cm^3
# Si number density = 21.999484 Si / 1000 Ang^3
#
#
#
# Elastic Constant Matrix: (Units=GPa)
#
#
# Indices 1 2 3 4 5 6 
#
# 1 30.3212 11.4606 19.3379 0.0000 -24.1205 0.0000
# 2 11.4606 119.4578 22.1278 0.0000 -1.8747 0.0000
# 3 19.3379 22.1278 112.7525 -0.0001 2.5665 0.0002
# 4 0.0000 0.0000 -0.0001 12.3882 0.0000 3.5807
# 5 -24.1205 -1.8747 2.5665 0.0000 20.1216 0.0000
# 6 0.0000 0.0000 0.0002 3.5807 0.0000 23.4774
#
#
#
# Elastic Compliance Matrix: (Units=1/GPa)
#
#
# Indices 1 2 3 4 5 6 
#
# 1 -0.306896 0.012705 0.058659 -0.000001 -0.374185 0.000000
# 2 0.012705 0.008182 -0.004161 0.000000 0.016523 0.000000
# 3 0.058659 -0.004161 -0.001972 0.000000 0.070180 0.000000
# 4 -0.000001 0.000000 0.000000 0.084445 -0.000001 -0.012879
# 5 -0.374185 0.016523 0.070180 -0.000001 -0.406262 0.000000
# 6 0.000000 0.000000 0.000000 -0.012879 0.000000 0.044558
#
#
# Mechanical properties :
#
#
# Convention : Reuss Voigt Hill
#
# Bulk Modulus (GPa) = -6.01397 40.93157 17.45880
# Shear Modulus (GPa) = -6.51230 25.17113 9.32941
#
# Velocity S-wave (km/s) = -1.72239 3.38623 2.06154
# Velocity P-wave (km/s) = 2.58750 5.82536 3.69051
#
# Compressibility (1/GPa) = -0.16627950
#
# Stress axis : x y z
#
# Youngs Moduli (GPa) = -3.25843 122.21512 -507.00508
#
# Poissons Ratio (x) = -1.55277 29.74038
# Poissons Ratio (y) = 0.04140 -2.10962
# Poissons Ratio (z) = 0.19114 0.50853
#
# Static dielectric constant tensor:
#      x y z
#    x 3.896260 0.000000 0.035970 
#    y 0.000000 4.038860 0.000000 
#    z 0.035970 0.000000 4.047100 
# 
# 
# High freq. dielectric constant tensor:
#      x y z
#    x 1.847860 0.000000 0.002200 
#    y 0.000000 1.848090 0.000000 
#    z 0.002200 0.000000 1.872250 
# 
# From -- ./inp_files/209998.got.cif
#   From: 2010.06.25/outbox.cif.g09.slc.cpg/sg12_105_cif.got.tgz:209998.got - 2010.06.28 00:19:55.
