data_PCOD8094146
_publ_section_title
;
Structure prediction by ZEFSAII (Michael W. Deem and Ramdas Pophale) SiO2 
 PCOD8094146
Probable space group: C 2/M
;
_chemical_formula_sum "Si O2"
_cell_formula_units_Z 48
_cell_length_a 14.587998
_cell_length_b 28.694936
_cell_length_c 7.768868
_cell_angle_alpha 90.000000
_cell_angle_beta 143.602846
_cell_angle_gamma 90.000000
_cell_volume 1929.704461
_symmetry_space_group_name_H-M "C 2/M"
_symmetry_group_IT_number 12
_symmetry_cell_setting 'monoclinic'
loop_
_space_group_symop_operation_xyz
x,y,z
-x,y,-z
-x,-y,-z
x,-y,z
1/2+x,1/2+y,z
1/2-x,1/2+y,-z
1/2-x,1/2-y,-z
1/2+x,1/2-y,z
loop_
_atom_site_type_symbol
_atom_site_label
_atom_site_fract_x
_atom_site_fract_y
_atom_site_fract_z
Si Si1 0.179968 0.797128 0.814772
Si Si2 0.331595 0.794407 0.695167
Si Si3 0.604843 0.888548 0.329105
Si Si4 0.111329 0.947570 0.025731
Si Si5 0.806276 0.947656 0.401523
Si Si6 0.185862 0.609118 0.896757
O O1 0.252860 0.812607 0.746933
O O2 0.233650 0.840586 0.013721
O O3 0.000000 0.791270 0.500000
O O4 0.250000 0.750000 0.000000
O O5 0.250000 0.750000 0.500000
O O6 0.322191 0.836805 0.544717
O O7 0.500000 0.777128 0.000000
O O8 0.733950 0.928511 0.479952
O O9 0.500000 0.887569 0.000000
O O10 0.499905 0.892639 0.346196
O O11 0.265080 0.917927 0.206929
O O12 0.992858 0.948769 0.684360
O O13 0.161730 0.000000 0.155045
O O14 0.000000 0.924288 0.000000
O O15 0.758005 0.916309 0.170127
O O16 0.740148 0.000000 0.277591
#
# Coordination Sequence:
#
# PCOD8094146 Si02
#       6
#     8   8   8   8   8   8
#     4  12  25  42  63  97 132 172 222 272 323 391
#     4  11  21  43  67  91 131 173 215 272 328 384
#     4   9  19  37  60  90 125 157 203 266 317 375
#     4  10  22  40  60  90 129 165 207 262 323 391
#     4  10  19  36  65  94 120 159 210 261 320 386
#     4  11  21  40  64  90 126 163 214 266 319 382
#
# _framework density 24.874274
#
# number of rings (size 3 to 8) (size 9 to 14) (size 15 to 20)
#    0.000    1.500    5.000    3.000    0.000    5.000 
#    3.000    0.833    0.000    3.000    0.000    0.000 
#    0.000    0.000    0.000    0.000    0.000    0.000 
#
# Total GULP energy -297419.695261 kJ/mol
# GULP energy per Si atom -12392.487303 kJ/mol
# Density = 2.481766 g / cm^3
# Si number density = 24.874274 Si / 1000 Ang^3
#
#
#
# Elastic Constant Matrix: (Units=GPa)
#
#
# Indices 1 2 3 4 5 6 
#
# 1 171.4279 55.9672 26.2257 0.0000 16.4847 0.0000
# 2 55.9672 179.0608 49.0008 0.0000 25.9347 0.0000
# 3 26.2257 49.0008 73.6550 0.0000 50.3433 0.0000
# 4 0.0000 0.0000 0.0000 34.6801 0.0000 3.9208
# 5 16.4847 25.9347 50.3433 0.0000 43.4047 0.0000
# 6 0.0000 0.0000 0.0000 3.9208 0.0000 44.3162
#
#
#
# Elastic Compliance Matrix: (Units=1/GPa)
#
#
# Indices 1 2 3 4 5 6 
#
# 1 0.006582 -0.001753 -0.000892 0.000000 -0.000418 0.000000
# 2 -0.001753 0.007604 -0.008609 0.000000 0.006108 0.000000
# 3 -0.000892 -0.008609 0.076601 0.000000 -0.083363 0.000000
# 4 0.000000 0.000000 0.000000 0.029126 0.000000 -0.002577
# 5 -0.000418 0.006108 -0.083363 0.000000 0.116238 0.000000
# 6 0.000000 0.000000 0.000000 -0.002577 0.000000 0.022793
#
#
# Mechanical properties :
#
#
# Convention : Reuss Voigt Hill
#
# Bulk Modulus (GPa) = 14.64568 76.28123 45.46346
# Shear Modulus (GPa) = 16.43593 44.01019 30.22306
#
# Velocity S-wave (km/s) = 2.57331 4.21087 3.48951
# Velocity P-wave (km/s) = 3.83796 7.37396 5.87814
#
# Compressibility (1/GPa) = 0.06827950
#
# Stress axis : x y z
#
# Youngs Moduli (GPa) = 151.92426 131.51208 13.05469
#
# Poissons Ratio (x) = 0.23051 0.01164
# Poissons Ratio (y) = 0.26628 0.11239
# Poissons Ratio (z) = 0.13546 1.13223
#
# Static dielectric constant tensor:
#      x y z
#    x 5.995510 0.000000 0.662850 
#    y 0.000000 4.461300 0.000000 
#    z 0.662850 0.000000 5.061690 
# 
# 
# High freq. dielectric constant tensor:
#      x y z
#    x 2.010640 0.000000 -0.002310 
#    y 0.000000 1.989730 0.000000 
#    z -0.002310 0.000000 2.014220 
# 
# From -- ./inp_files/67405.got.cif
#   From: 2010.06.25/outbox.cif.g09.slc.cpg/sg12_34_cif.got.tgz:67405.got - 2010.06.28 00:19:55.
