data_PCOD8094819
_publ_section_title
;
Structure prediction by ZEFSAII (Michael W. Deem and Ramdas Pophale) SiO2 
 PCOD8094819
Probable space group: C 2/M
;
_chemical_formula_sum "Si O2"
_cell_formula_units_Z 60
_cell_length_a 10.031747
_cell_length_b 34.381163
_cell_length_c 9.225525
_cell_angle_alpha 90.000000
_cell_angle_beta 111.577374
_cell_angle_gamma 90.000000
_cell_volume 2958.929694
_symmetry_space_group_name_H-M "C 2/M"
_symmetry_group_IT_number 12
_symmetry_cell_setting 'monoclinic'
loop_
_space_group_symop_operation_xyz
x,y,z
-x,y,-z
-x,-y,-z
x,-y,z
1/2+x,1/2+y,z
1/2-x,1/2+y,-z
1/2-x,1/2-y,-z
1/2+x,1/2-y,z
loop_
_atom_site_type_symbol
_atom_site_label
_atom_site_fract_x
_atom_site_fract_y
_atom_site_fract_z
Si Si1 0.013895 0.956248 0.774797
Si Si2 0.054857 0.222459 0.869847
Si Si3 0.284798 0.712865 0.609021
Si Si4 0.290863 0.131966 0.509924
Si Si5 0.090976 0.616620 0.751797
Si Si6 0.673016 0.199592 0.884241
Si Si7 0.737090 0.544384 0.115651
Si Si8 0.500000 0.403934 0.500000
O O1 0.853946 0.949780 0.773357
O O2 0.047954 0.929364 0.654079
O O3 0.029485 0.000000 0.725716
O O4 0.131593 0.947047 0.941916
O O5 0.045488 0.269841 0.864556
O O6 0.957926 0.206632 0.696936
O O7 0.216982 0.205552 0.935600
O O8 0.000000 0.205582 0.000000
O O9 0.250000 0.750000 0.500000
O O10 0.206232 0.678546 0.491536
O O11 0.229200 0.715411 0.751315
O O12 0.420519 0.115758 0.659131
O O13 0.315051 0.117515 0.356250
O O14 0.137726 0.120881 0.512079
O O15 0.126330 0.654500 0.863545
O O16 0.134355 0.575816 0.844839
O O17 0.798121 0.500000 0.133975
#
# Coordination Sequence:
#
# PCOD8094819 Si02
#       8
#     8   8   8   8   8   8   8   4
#     4   9  19  36  61  89 118 151 189 234 292 351
#     4   9  18  34  53  80 108 142 198 239 282 344
#     4  10  20  35  53  77 109 154 191 236 284 339
#     4  10  23  35  56  84 118 148 197 233 291 351
#     4  10  19  40  57  82 114 157 189 241 289 348
#     4   9  19  34  56  77 108 149 189 238 290 340
#     4   9  18  37  63  88 112 152 202 236 276 361
#     4  12  21  38  56  92 122 148 178 252 294 340
#
# _framework density 20.277602000000002
#
# number of rings (size 3 to 8) (size 9 to 14) (size 15 to 20)
#    0.000    2.400    1.333    1.800    0.000    3.733 
#    4.800    8.667    0.000    1.600    0.000    0.000 
#    0.000    0.000    0.000    0.000    0.000    0.000 
#
# Total GULP energy -371703.507561 kJ/mol
# GULP energy per Si atom -12390.116919 kJ/mol
# Density = 2.023145 g / cm^3
# Si number density = 20.277602 Si / 1000 Ang^3
#
#
#
# Elastic Constant Matrix: (Units=GPa)
#
#
# Indices 1 2 3 4 5 6 
#
# 1 81.1391 27.0028 23.0408 0.0000 15.1059 0.0000
# 2 27.0028 116.8176 37.6365 0.0000 18.8452 0.0000
# 3 23.0408 37.6365 67.8477 0.0000 13.5097 0.0000
# 4 0.0000 0.0000 0.0000 33.7783 0.0000 4.0281
# 5 15.1059 18.8452 13.5097 0.0000 30.2705 0.0000
# 6 0.0000 0.0000 0.0000 4.0281 0.0000 32.1514
#
#
#
# Elastic Compliance Matrix: (Units=1/GPa)
#
#
# Indices 1 2 3 4 5 6 
#
# 1 0.014656 -0.001589 -0.003113 0.000000 -0.004935 0.000000
# 2 -0.001589 0.011129 -0.004843 0.000000 -0.003974 0.000000
# 3 -0.003113 -0.004843 0.019287 0.000000 -0.004039 0.000000
# 4 0.000000 0.000000 0.000000 0.030054 0.000000 -0.003765
# 5 -0.004935 -0.003974 -0.004039 0.000000 0.039775 0.000000
# 6 0.000000 0.000000 0.000000 -0.003765 0.000000 0.031575
#
#
# Mechanical properties :
#
#
# Convention : Reuss Voigt Hill
#
# Bulk Modulus (GPa) = 38.48678 49.01830 43.75254
# Shear Modulus (GPa) = 28.69848 31.11498 29.90673
#
# Velocity S-wave (km/s) = 3.76610 3.92146 3.84456
# Velocity P-wave (km/s) = 6.15894 6.68804 6.42893
#
# Compressibility (1/GPa) = 0.02598295
#
# Stress axis : x y z
#
# Youngs Moduli (GPa) = 68.23108 89.85612 51.84922
#
# Poissons Ratio (x) = 0.14275 0.16142
# Poissons Ratio (y) = 0.10839 0.25108
# Poissons Ratio (z) = 0.21242 0.43513
#
# Static dielectric constant tensor:
#      x y z
#    x 3.776530 0.000000 0.142100 
#    y 0.000000 3.617050 0.000000 
#    z 0.142100 0.000000 3.632500 
# 
# 
# High freq. dielectric constant tensor:
#      x y z
#    x 1.774790 0.000000 0.014440 
#    y 0.000000 1.788530 0.000000 
#    z 0.014440 0.000000 1.787400 
# 
# From -- ./inp_files/54772.got.cif
#   From: 2010.06.25/outbox.cif.g09.slc.cpg/sg12_28_cif.got.tgz:54772.got - 2010.06.28 00:19:55.
