data_PCOD8094559
_publ_section_title
;
Structure prediction by ZEFSAII (Michael W. Deem and Ramdas Pophale) SiO2 
 PCOD8094559
Probable space group: C 2/M
;
_chemical_formula_sum "Si O2"
_cell_formula_units_Z 64
_cell_length_a 27.700130
_cell_length_b 14.863871
_cell_length_c 8.500490
_cell_angle_alpha 90.000000
_cell_angle_beta 115.741592
_cell_angle_gamma 90.000000
_cell_volume 3152.591818
_symmetry_space_group_name_H-M "C 2/M"
_symmetry_group_IT_number 12
_symmetry_cell_setting 'monoclinic'
loop_
_space_group_symop_operation_xyz
x,y,z
-x,y,-z
-x,-y,-z
x,-y,z
1/2+x,1/2+y,z
1/2-x,1/2+y,-z
1/2-x,1/2-y,-z
1/2+x,1/2-y,z
loop_
_atom_site_type_symbol
_atom_site_label
_atom_site_fract_x
_atom_site_fract_y
_atom_site_fract_z
Si Si1 0.836942 0.394987 0.226672
Si Si2 0.886383 0.740018 0.515645
Si Si3 0.618162 0.901348 0.046699
Si Si4 0.063298 0.895264 0.609063
Si Si5 0.058758 0.248778 0.106180
Si Si6 0.766212 0.836650 0.753632
Si Si7 0.699621 0.826894 0.382629
Si Si8 0.881993 0.101613 0.980144
O O1 0.837531 0.500000 0.275372
O O2 0.883297 0.341877 0.387030
O O3 0.847938 0.379617 0.059767
O O4 0.779429 0.349730 0.179396
O O5 0.899638 0.835358 0.452739
O O6 0.934465 0.718419 0.705133
O O7 0.831465 0.741551 0.540603
O O8 0.592053 0.000000 0.000589
O O9 0.570655 0.829834 0.001500
O O10 0.658721 0.898759 0.252522
O O11 0.000000 0.870425 0.500000
O O12 0.072180 0.000000 0.578353
O O13 0.085449 0.874697 0.815151
O O14 0.098636 0.166072 0.131744
O O15 0.000000 0.211526 0.000000
O O16 0.744655 0.876986 0.553861
O O17 0.777088 0.731447 0.729652
O O18 0.817927 0.885355 0.900703
O O19 0.894526 0.000000 0.948670
#
# Coordination Sequence:
#
# PCOD8094559 Si02
#       8
#     8   8   8   8   8   8   8   8
#     4  10  22  38  61  89 120 156 192 234 289 353
#     4  10  20  37  60  84 115 156 193 237 295 348
#     4  10  21  40  61  86 116 153 196 239 292 350
#     4  10  22  40  60  84 116 156 200 246 299 349
#     4  11  23  40  60  86 116 151 199 249 298 346
#     4  10  19  38  59  86 122 150 194 231 287 347
#     4   9  20  37  58  89 118 157 191 230 292 354
#     4  11  22  38  61  88 120 156 197 245 290 346
#
# _framework density 20.300756
#
# number of rings (size 3 to 8) (size 9 to 14) (size 15 to 20)
#    0.000    1.875    2.500    1.875    0.000    6.500 
#    4.500    0.000    0.000    1.875    0.000    0.000 
#    0.000    0.000    0.000    0.000    0.000    0.000 
#
# Total GULP energy -396521.515851 kJ/mol
# GULP energy per Si atom -12391.297370 kJ/mol
# Density = 2.025455 g / cm^3
# Si number density = 20.300756 Si / 1000 Ang^3
#
#
#
# Elastic Constant Matrix: (Units=GPa)
#
#
# Indices 1 2 3 4 5 6 
#
# 1 71.9208 46.5847 40.3587 0.0000 1.4534 0.0000
# 2 46.5847 97.5185 33.1788 0.0000 -12.8985 0.0000
# 3 40.3587 33.1788 112.7190 0.0000 14.9423 0.0000
# 4 0.0000 0.0000 0.0000 29.3093 0.0000 1.0049
# 5 1.4534 -12.8985 14.9423 0.0000 34.5791 0.0000
# 6 0.0000 0.0000 0.0000 1.0049 0.0000 7.3740
#
#
#
# Elastic Compliance Matrix: (Units=1/GPa)
#
#
# Indices 1 2 3 4 5 6 
#
# 1 0.023016 -0.009560 -0.005119 0.000000 -0.002321 0.000000
# 2 -0.009560 0.016698 -0.002515 0.000000 0.007717 0.000000
# 3 -0.005119 -0.002515 0.012242 0.000000 -0.006013 0.000000
# 4 0.000000 0.000000 0.000000 0.034279 0.000000 -0.004671
# 5 -0.002321 0.007717 -0.006013 0.000000 0.034494 0.000000
# 6 0.000000 0.000000 0.000000 -0.004671 0.000000 0.136249
#
#
# Mechanical properties :
#
#
# Convention : Reuss Voigt Hill
#
# Bulk Modulus (GPa) = 56.92422 58.04476 57.48449
# Shear Modulus (GPa) = 16.82247 25.05488 20.93867
#
# Velocity S-wave (km/s) = 2.88177 3.51691 3.21506
# Velocity P-wave (km/s) = 6.25892 6.71908 6.49308
#
# Compressibility (1/GPa) = 0.01756721
#
# Stress axis : x y z
#
# Youngs Moduli (GPa) = 43.44800 59.88822 81.68699
#
# Poissons Ratio (x) = 0.57254 0.41816
# Poissons Ratio (y) = 0.41537 0.20544
# Poissons Ratio (z) = 0.22241 0.15062
#
# Static dielectric constant tensor:
#      x y z
#    x 3.551840 0.000000 0.074900 
#    y 0.000000 3.586360 0.000000 
#    z 0.074900 0.000000 3.932680 
# 
# 
# High freq. dielectric constant tensor:
#      x y z
#    x 1.778770 0.000000 0.003340 
#    y 0.000000 1.781080 0.000000 
#    z 0.003340 0.000000 1.807470 
# 
# From -- ./inp_files/111682.got.cif
#   From: 2010.06.25/outbox.cif.g09.slc.cpg/sg12_56_cif.got.tgz:111682.got - 2010.06.28 00:19:55.
