data_PCOD8094390
_publ_section_title
;
Structure prediction by ZEFSAII (Michael W. Deem and Ramdas Pophale) SiO2 
 PCOD8094390
Probable space group: C 2/M
;
_chemical_formula_sum "Si O2"
_cell_formula_units_Z 64
_cell_length_a 19.469807
_cell_length_b 8.880071
_cell_length_c 31.287655
_cell_angle_alpha 90.000000
_cell_angle_beta 142.645142
_cell_angle_gamma 90.000000
_cell_volume 3282.167232
_symmetry_space_group_name_H-M "C 2/M"
_symmetry_group_IT_number 12
_symmetry_cell_setting 'monoclinic'
loop_
_space_group_symop_operation_xyz
x,y,z
-x,y,-z
-x,-y,-z
x,-y,z
1/2+x,1/2+y,z
1/2-x,1/2+y,-z
1/2-x,1/2-y,-z
1/2+x,1/2-y,z
loop_
_atom_site_type_symbol
_atom_site_label
_atom_site_fract_x
_atom_site_fract_y
_atom_site_fract_z
Si Si1 0.679176 0.820530 0.503333
Si Si2 0.029972 0.823287 0.216328
Si Si3 0.467626 0.822591 0.873347
Si Si4 0.667536 0.829338 0.835353
Si Si5 0.239591 0.678751 0.626982
Si Si6 0.076682 0.678799 0.619328
Si Si7 0.765222 0.327641 0.226561
Si Si8 0.588325 0.323493 0.008019
O O1 0.750000 0.750000 0.500000
O O2 0.729858 0.762789 0.573579
O O3 0.550310 0.759197 0.437979
O O4 0.684260 0.000000 0.501935
O O5 0.008791 0.741073 0.161586
O O6 0.144566 0.760878 0.294830
O O7 0.926027 0.787506 0.195711
O O8 0.038826 0.000000 0.212489
O O9 0.347000 0.770759 0.831547
O O10 0.566344 0.763693 0.953192
O O11 0.472709 0.000000 0.874022
O O12 0.669341 0.816029 0.785361
O O13 0.636475 0.000000 0.833554
O O14 0.786845 0.782221 0.914545
O O15 0.239395 0.500000 0.626534
O O16 0.133299 0.736084 0.603000
O O17 0.072219 0.500000 0.617391
O O18 0.152829 0.737207 0.696270
O O19 0.729706 0.500000 0.218961
O O20 0.572551 0.500000 0.991945
O O21 0.500000 0.267547 0.000000
#
# Coordination Sequence:
#
# PCOD8094390 Si02
#       8
#     8   8   8   8   8   8   8   8
#     4  10  21  36  57  88 120 153 189 237 289 341
#     4  11  23  40  61  84 118 160 198 242 297 352
#     4  12  24  38  60  90 121 151 194 250 296 347
#     4  10  22  38  60  89 119 150 194 247 295 350
#     4   9  18  35  60  85 111 149 201 244 277 336
#     4   9  17  33  61  87 110 149 201 241 278 336
#     4  10  19  37  62  87 116 155 201 242 291 355
#     4  10  20  39  64  86 114 157 198 238 292 353
#
# _framework density 19.499310000000001
#
# number of rings (size 3 to 8) (size 9 to 14) (size 15 to 20)
#    0.000    1.875    2.500    1.875    1.750    3.250 
#    0.000    1.250    0.000    0.750    0.000    0.000 
#    0.000    0.000    0.000    0.000    0.000    0.000 
#
# Total GULP energy -396867.332034 kJ/mol
# GULP energy per Si atom -12402.104126 kJ/mol
# Density = 1.945493 g / cm^3
# Si number density = 19.499310 Si / 1000 Ang^3
#
#
#
# Elastic Constant Matrix: (Units=GPa)
#
#
# Indices 1 2 3 4 5 6 
#
# 1 138.0578 29.4593 70.0864 0.0000 -2.6648 0.0001
# 2 29.4593 49.8673 28.7378 0.0000 -3.8901 0.0004
# 3 70.0864 28.7378 127.2675 0.0000 -14.1888 0.0000
# 4 0.0000 0.0000 0.0000 12.1552 0.0000 3.2397
# 5 -2.6648 -3.8901 -14.1888 0.0000 39.8706 0.0000
# 6 0.0001 0.0004 0.0000 3.2397 0.0000 32.4945
#
#
#
# Elastic Compliance Matrix: (Units=1/GPa)
#
#
# Indices 1 2 3 4 5 6 
#
# 1 0.010590 -0.003352 -0.005241 0.000000 -0.001484 0.000000
# 2 -0.003352 0.024121 -0.003502 0.000000 0.000883 0.000000
# 3 -0.005241 -0.003502 0.011931 0.000000 0.003554 0.000000
# 4 0.000000 0.000000 0.000000 0.084515 0.000000 -0.008426
# 5 -0.001484 0.000883 0.003554 0.000000 0.026333 0.000000
# 6 0.000000 0.000000 0.000000 -0.008426 0.000000 0.031615
#
#
# Mechanical properties :
#
#
# Convention : Reuss Voigt Hill
#
# Bulk Modulus (GPa) = 44.53992 63.52884 54.03438
# Shear Modulus (GPa) = 22.64720 29.36467 26.00593
#
# Velocity S-wave (km/s) = 3.41168 3.88485 3.65593
# Velocity P-wave (km/s) = 6.19765 7.26454 6.75220
#
# Compressibility (1/GPa) = 0.02245177
#
# Stress axis : x y z
#
# Youngs Moduli (GPa) = 94.42447 41.45837 83.81825
#
# Poissons Ratio (x) = 0.13897 0.43927
# Poissons Ratio (y) = 0.31651 0.29355
# Poissons Ratio (z) = 0.49486 0.14519
#
# Static dielectric constant tensor:
#      x y z
#    x 3.596300 0.000000 -0.076190 
#    y 0.000000 3.222820 0.000000 
#    z -0.076190 0.000000 3.849130 
# 
# 
# High freq. dielectric constant tensor:
#      x y z
#    x 1.767930 0.000000 -0.006550 
#    y 0.000000 1.722050 0.000000 
#    z -0.006550 0.000000 1.774690 
# 
# From -- ./inp_files/346258.got.cif
#   From: 2010.06.25/outbox.cif.g09.slc.cpg/sg12_174_cif.got.tgz:346258.got - 2010.06.28 00:19:55.
