data_PCOD8094264
_publ_section_title
;
Structure prediction by ZEFSAII (Michael W. Deem and Ramdas Pophale) SiO2 
 PCOD8094264
Probable space group: C 2/M
;
_chemical_formula_sum "Si O2"
_cell_formula_units_Z 56
_cell_length_a 20.562872
_cell_length_b 8.638522
_cell_length_c 17.552413
_cell_angle_alpha 90.000000
_cell_angle_beta 70.625454
_cell_angle_gamma 90.000000
_cell_volume 2941.319252
_symmetry_space_group_name_H-M "C 2/M"
_symmetry_group_IT_number 12
_symmetry_cell_setting 'monoclinic'
loop_
_space_group_symop_operation_xyz
x,y,z
-x,y,-z
-x,-y,-z
x,-y,z
1/2+x,1/2+y,z
1/2-x,1/2+y,-z
1/2-x,1/2-y,-z
1/2+x,1/2-y,z
loop_
_atom_site_type_symbol
_atom_site_label
_atom_site_fract_x
_atom_site_fract_y
_atom_site_fract_z
Si Si1 0.682468 0.183050 0.773140
Si Si2 0.061518 0.181944 0.256788
Si Si3 0.823203 0.182366 0.493949
Si Si4 0.310115 0.319542 0.071150
Si Si5 0.087263 0.319094 0.670804
Si Si6 0.330366 0.683371 0.661289
Si Si7 0.345978 0.180034 0.903744
O O1 0.659763 0.266723 0.859614
O O2 0.628062 0.233050 0.730224
O O3 0.757008 0.247520 0.718766
O O4 0.683238 0.000000 0.786337
O O5 0.108931 0.243758 0.307728
O O6 0.098644 0.218208 0.162874
O O7 0.991682 0.276963 0.287990
O O8 0.046381 0.000000 0.268801
O O9 0.750000 0.250000 0.500000
O O10 0.883193 0.231826 0.413839
O O11 0.843947 0.242120 0.570174
O O12 0.815482 0.000000 0.496898
O O13 0.322757 0.500000 0.052721
O O14 0.229287 0.277567 0.099363
O O15 0.350787 0.225618 0.990467
O O16 0.096749 0.500000 0.653029
O O17 0.327584 0.500000 0.665352
O O18 0.363307 0.000000 0.887006
#
# Coordination Sequence:
#
# PCOD8094264 Si02
#       7
#     8   8   8   8   8   8   8
#     4  10  19  37  60  83 114 154 193 234 287 347
#     4  11  22  39  61  85 116 154 194 239 289 344
#     4  11  21  38  61  88 117 151 196 242 290 342
#     4  10  20  33  56  90 119 147 192 243 283 332
#     4  11  24  41  59  84 120 157 192 236 293 351
#     4   9  19  36  60  85 113 151 193 236 288 345
#     4  10  20  35  56  85 120 155 188 232 290 345
#
# _framework density 19.039076999999999
#
# number of rings (size 3 to 8) (size 9 to 14) (size 15 to 20)
#    0.000    1.714    2.857    2.143    0.000    2.857 
#    0.000    6.429    0.000    4.286    0.000    0.000 
#    0.000    0.000    0.000    0.000    0.000    0.000 
#
# Total GULP energy -347320.622758 kJ/mol
# GULP energy per Si atom -12404.307956 kJ/mol
# Density = 1.899574 g / cm^3
# Si number density = 19.039077 Si / 1000 Ang^3
#
#
#
# Elastic Constant Matrix: (Units=GPa)
#
#
# Indices 1 2 3 4 5 6 
#
# 1 114.4106 15.9501 55.9708 0.0000 9.4035 0.0000
# 2 15.9501 40.6393 19.9222 0.0000 7.0651 0.0000
# 3 55.9708 19.9222 136.0757 0.0000 18.2284 0.0000
# 4 0.0000 0.0000 0.0000 35.0804 0.0000 -1.3018
# 5 9.4035 7.0651 18.2284 0.0000 30.9927 0.0000
# 6 0.0000 0.0000 0.0000 -1.3018 0.0000 28.1755
#
#
#
# Elastic Compliance Matrix: (Units=1/GPa)
#
#
# Indices 1 2 3 4 5 6 
#
# 1 0.011141 -0.002244 -0.004201 0.000000 -0.000398 0.000000
# 2 -0.002244 0.027446 -0.002549 0.000000 -0.004076 0.000000
# 3 -0.004201 -0.002549 0.009988 0.000000 -0.004019 0.000000
# 4 0.000000 0.000000 0.000000 0.028555 0.000000 0.001319
# 5 -0.000398 -0.004076 -0.004019 0.000000 0.035680 0.000000
# 6 0.000000 0.000000 0.000000 0.001319 0.000000 0.035553
#
#
# Mechanical properties :
#
#
# Convention : Reuss Voigt Hill
#
# Bulk Modulus (GPa) = 32.69335 52.75685 42.72510
# Shear Modulus (GPa) = 28.32128 32.13523 30.22825
#
# Velocity S-wave (km/s) = 3.86104 4.11281 3.98891
# Velocity P-wave (km/s) = 6.08981 7.09391 6.61095
#
# Compressibility (1/GPa) = 0.03058726
#
# Stress axis : x y z
#
# Youngs Moduli (GPa) = 89.75830 36.43550 100.11770
#
# Poissons Ratio (x) = 0.08177 0.42056
# Poissons Ratio (y) = 0.20143 0.25521
# Poissons Ratio (z) = 0.37704 0.09288
#
# Static dielectric constant tensor:
#      x y z
#    x 3.459760 0.000000 0.129890 
#    y 0.000000 3.353810 0.000000 
#    z 0.129890 0.000000 3.740610 
# 
# 
# High freq. dielectric constant tensor:
#      x y z
#    x 1.726710 0.000000 0.010380 
#    y 0.000000 1.734900 0.000000 
#    z 0.010380 0.000000 1.753510 
# 
# From -- ./inp_files/275677.got.cif
#   From: 2010.06.25/outbox.cif.g09.slc.cpg/sg12_138_cif.got.tgz:275677.got - 2010.06.28 00:19:55.
