data_PCOD8094431
_publ_section_title
;
Structure prediction by ZEFSAII (Michael W. Deem and Ramdas Pophale) SiO2 
 PCOD8094431
Probable space group: C 2/M
;
_chemical_formula_sum "Si O2"
_cell_formula_units_Z 48
_cell_length_a 15.417473
_cell_length_b 21.068325
_cell_length_c 13.040759
_cell_angle_alpha 90.000000
_cell_angle_beta 145.481076
_cell_angle_gamma 90.000000
_cell_volume 2400.395127
_symmetry_space_group_name_H-M "C 2/M"
_symmetry_group_IT_number 12
_symmetry_cell_setting 'monoclinic'
loop_
_space_group_symop_operation_xyz
x,y,z
-x,y,-z
-x,-y,-z
x,-y,z
1/2+x,1/2+y,z
1/2-x,1/2+y,-z
1/2-x,1/2-y,-z
1/2+x,1/2-y,z
loop_
_atom_site_type_symbol
_atom_site_label
_atom_site_fract_x
_atom_site_fract_y
_atom_site_fract_z
Si Si1 0.678622 0.768913 0.179083
Si Si2 0.320564 0.133505 0.341604
Si Si3 0.904990 0.848325 0.512160
Si Si4 0.833417 0.071603 0.626759
Si Si5 0.201021 0.814571 0.900725
Si Si6 0.177662 0.070622 0.017751
O O1 0.761499 0.701820 0.247072
O O2 0.755139 0.803988 0.351019
O O3 0.709252 0.818551 0.118066
O O4 0.500000 0.755576 0.000000
O O5 0.500000 0.131520 0.500000
O O6 0.281322 0.117706 0.422044
O O7 0.240149 0.080452 0.193050
O O8 0.847446 0.909615 0.519760
O O9 0.000000 0.865858 0.500000
O O10 0.019190 0.811420 0.700805
O O11 0.770023 0.000000 0.567539
O O12 0.995396 0.077082 0.841749
O O13 0.250000 0.750000 0.000000
O O14 0.249659 0.876413 0.012717
O O15 0.225154 0.000000 0.026151
#
# Coordination Sequence:
#
# PCOD8094431 Si02
#       6
#     8   8   8   8   8   8
#     4  11  23  39  60  88 119 157 204 256 311 353
#     4  12  24  37  58  87 126 164 199 250 306 365
#     4   9  21  40  61  90 119 152 202 254 306 357
#     4  10  22  40  62  88 119 160 204 245 299 370
#     4  10  19  37  63  87 120 157 200 251 298 361
#     4  10  21  38  61  88 121 162 200 246 302 363
#
# _framework density 19.996708000000002
#
# number of rings (size 3 to 8) (size 9 to 14) (size 15 to 20)
#    0.000    1.667    1.667    3.500    2.333    5.000 
#    0.000    2.500    0.000    1.000    0.000    0.000 
#    0.000    0.000    0.000    0.000    0.000    0.000 
#
# Total GULP energy -297454.382210 kJ/mol
# GULP energy per Si atom -12393.932592 kJ/mol
# Density = 1.995120 g / cm^3
# Si number density = 19.996708 Si / 1000 Ang^3
#
#
#
# Elastic Constant Matrix: (Units=GPa)
#
#
# Indices 1 2 3 4 5 6 
#
# 1 97.2519 58.5673 35.4894 0.0000 -3.0958 0.0000
# 2 58.5673 126.3169 42.2793 0.0000 -6.0015 0.0000
# 3 35.4894 42.2793 101.0925 0.0000 -0.0273 0.0000
# 4 0.0000 0.0000 0.0000 24.2433 0.0000 -4.8453
# 5 -3.0958 -6.0015 -0.0273 0.0000 26.7601 0.0000
# 6 0.0000 0.0000 0.0000 -4.8453 0.0000 31.1637
#
#
#
# Elastic Compliance Matrix: (Units=1/GPa)
#
#
# Indices 1 2 3 4 5 6 
#
# 1 0.014886 -0.005971 -0.002729 0.000000 0.000380 0.000000
# 2 -0.005971 0.011715 -0.002803 0.000000 0.001934 0.000000
# 3 -0.002729 -0.002803 0.012022 0.000000 -0.000932 0.000000
# 4 0.000000 0.000000 0.000000 0.042571 0.000000 0.006619
# 5 0.000380 0.001934 -0.000932 0.000000 0.037846 0.000000
# 6 0.000000 0.000000 0.000000 0.006619 0.000000 0.033118
#
#
# Mechanical properties :
#
#
# Convention : Reuss Voigt Hill
#
# Bulk Modulus (GPa) = 64.02710 66.37039 65.19874
# Shear Modulus (GPa) = 27.72106 28.98845 28.35476
#
# Velocity S-wave (km/s) = 3.72732 3.81157 3.76968
# Velocity P-wave (km/s) = 7.11423 7.25489 7.18490
#
# Compressibility (1/GPa) = 0.01561839
#
# Stress axis : x y z
#
# Youngs Moduli (GPa) = 67.17685 85.36131 83.18171
#
# Poissons Ratio (x) = 0.50966 0.22698
# Poissons Ratio (y) = 0.40108 0.23315
# Poissons Ratio (z) = 0.18331 0.23926
#
# Static dielectric constant tensor:
#      x y z
#    x 3.644550 0.000000 -0.233270 
#    y 0.000000 3.700010 0.000000 
#    z -0.233270 0.000000 4.108340 
# 
# 
# High freq. dielectric constant tensor:
#      x y z
#    x 1.767530 0.000000 -0.008860 
#    y 0.000000 1.776340 0.000000 
#    z -0.008860 0.000000 1.786320 
# 
# From -- ./inp_files/148007.got.cif
#   From: 2010.06.25/outbox.cif.g09.slc.cpg/sg12_75_cif.got.tgz:148007.got - 2010.06.28 00:19:55.
