data_PCOD8094469
_publ_section_title
;
Structure prediction by ZEFSAII (Michael W. Deem and Ramdas Pophale) SiO2 
 PCOD8094469
Probable space group: C 2/M
;
_chemical_formula_sum "Si O2"
_cell_formula_units_Z 40
_cell_length_a 9.565316
_cell_length_b 17.257666
_cell_length_c 12.623325
_cell_angle_alpha 90.000000
_cell_angle_beta 74.316536
_cell_angle_gamma 90.000000
_cell_volume 2006.215612
_symmetry_space_group_name_H-M "C 2/M"
_symmetry_group_IT_number 12
_symmetry_cell_setting 'monoclinic'
loop_
_space_group_symop_operation_xyz
x,y,z
-x,y,-z
-x,-y,-z
x,-y,z
1/2+x,1/2+y,z
1/2-x,1/2+y,-z
1/2-x,1/2-y,-z
1/2+x,1/2-y,z
loop_
_atom_site_type_symbol
_atom_site_label
_atom_site_fract_x
_atom_site_fract_y
_atom_site_fract_z
Si Si1 0.375632 0.914376 0.802789
Si Si2 0.669630 0.173199 0.983504
Si Si3 0.783229 0.589354 0.239886
Si Si4 0.853328 0.409359 0.580806
Si Si5 0.169651 0.824842 0.466716
O O1 0.548065 0.914772 0.772213
O O2 0.330186 0.871352 0.702236
O O3 0.311777 0.000000 0.812890
O O4 0.303497 0.878514 0.919664
O O5 0.743089 0.129199 0.869147
O O6 0.500000 0.190044 0.000000
O O7 0.750000 0.250000 0.000000
O O8 0.721229 0.500000 0.255241
O O9 0.713005 0.647398 0.340175
O O10 0.878009 0.500000 0.590529
O O11 0.712799 0.394421 0.537192
O O12 0.000000 0.372992 0.500000
O O13 0.250000 0.750000 0.500000
O O14 0.000000 0.808579 0.500000
#
# Coordination Sequence:
#
# PCOD8094469 Si02
#       5
#     8   8   8   8   8
#     4   9  18  36  65  91 116 155 205 247 292 360
#     4  10  22  38  62  88 122 158 201 248 301 353
#     4  10  21  40  65  90 120 159 205 251 298 362
#     4  10  19  37  64  90 121 157 197 248 304 364
#     4  12  27  40  60  88 125 161 204 251 308 367
#
# _framework density 19.938036
#
# number of rings (size 3 to 8) (size 9 to 14) (size 15 to 20)
#    0.000    1.800    2.000    1.800    2.800    5.600 
#    0.000    0.000    0.000    1.200    0.000    0.000 
#    0.000    0.000    0.000    0.000    0.000    0.000 
#
# Total GULP energy -247811.783013 kJ/mol
# GULP energy per Si atom -12390.589151 kJ/mol
# Density = 1.989266 g / cm^3
# Si number density = 19.938036 Si / 1000 Ang^3
#
#
#
# Elastic Constant Matrix: (Units=GPa)
#
#
# Indices 1 2 3 4 5 6 
#
# 1 76.6996 34.6350 53.6880 0.0000 11.1103 0.0000
# 2 34.6350 101.6235 76.4060 0.0000 -4.9000 0.0000
# 3 53.6880 76.4060 219.3752 0.0000 16.1164 0.0000
# 4 0.0000 0.0000 0.0000 30.8250 0.0000 8.6705
# 5 11.1103 -4.9000 16.1164 0.0000 25.7233 0.0000
# 6 0.0000 0.0000 0.0000 8.6705 0.0000 32.1084
#
#
#
# Elastic Compliance Matrix: (Units=1/GPa)
#
#
# Indices 1 2 3 4 5 6 
#
# 1 0.017748 -0.004784 -0.002146 0.000000 -0.007233 0.000000
# 2 -0.004784 0.015472 -0.004808 0.000000 0.008026 0.000000
# 3 -0.002146 -0.004808 0.007083 0.000000 -0.004427 0.000000
# 4 0.000000 0.000000 0.000000 0.035108 0.000000 -0.009481
# 5 -0.007233 0.008026 -0.004427 0.000000 0.046302 0.000000
# 6 0.000000 0.000000 0.000000 -0.009481 0.000000 0.033705
#
#
# Mechanical properties :
#
#
# Convention : Reuss Voigt Hill
#
# Bulk Modulus (GPa) = 59.42395 80.79514 70.10954
# Shear Modulus (GPa) = 27.09991 33.26262 30.18126
#
# Velocity S-wave (km/s) = 3.69074 4.08891 3.89492
# Velocity P-wave (km/s) = 6.93045 7.93116 7.44763
#
# Compressibility (1/GPa) = 0.01682823
#
# Stress axis : x y z
#
# Youngs Moduli (GPa) = 56.34448 64.63126 141.17845
#
# Poissons Ratio (x) = 0.30921 0.30295
# Poissons Ratio (y) = 0.26956 0.67874
# Poissons Ratio (z) = 0.12091 0.31072
#
# Static dielectric constant tensor:
#      x y z
#    x 3.420330 0.000000 0.089740 
#    y 0.000000 2.254130 0.000000 
#    z 0.089740 0.000000 2.183040 
# 
# 
# High freq. dielectric constant tensor:
#      x y z
#    x 1.745920 0.000000 0.018370 
#    y 0.000000 1.779160 0.000000 
#    z 0.018370 0.000000 1.802090 
# 
# From -- ./inp_files/118956.got.cif
#   From: 2010.06.25/outbox.cif.g09.slc.cpg/sg12_60_cif.got.tgz:118956.got - 2010.06.28 00:19:55.
