data_PCOD8094730
_publ_section_title
;
Structure prediction by ZEFSAII (Michael W. Deem and Ramdas Pophale) SiO2 
 PCOD8094730
Probable space group: C 2/M
;
_chemical_formula_sum "Si O2"
_cell_formula_units_Z 36
_cell_length_a 8.571493
_cell_length_b 23.353567
_cell_length_c 11.731693
_cell_angle_alpha 90.000000
_cell_angle_beta 61.036843
_cell_angle_gamma 90.000000
_cell_volume 2054.680639
_symmetry_space_group_name_H-M "C 2/M"
_symmetry_group_IT_number 12
_symmetry_cell_setting 'monoclinic'
loop_
_space_group_symop_operation_xyz
x,y,z
-x,y,-z
-x,-y,-z
x,-y,z
1/2+x,1/2+y,z
1/2-x,1/2+y,-z
1/2-x,1/2-y,-z
1/2+x,1/2-y,z
loop_
_atom_site_type_symbol
_atom_site_label
_atom_site_fract_x
_atom_site_fract_y
_atom_site_fract_z
Si Si1 0.222333 0.000000 0.186788
Si Si2 0.500000 0.264041 0.000000
Si Si3 0.782294 0.500000 0.410656
Si Si4 0.829463 0.000000 0.298068
Si Si5 0.871977 0.676055 0.871380
Si Si6 0.000000 0.587935 0.000000
Si Si7 0.553709 0.096795 0.354787
O O1 0.161366 0.000000 0.340788
O O2 0.345444 0.946088 0.117919
O O3 0.035662 0.000000 0.182750
O O4 0.669963 0.304116 0.930950
O O5 0.492152 0.226245 0.886036
O O6 0.669958 0.500000 0.565203
O O7 0.900492 0.556766 0.360379
O O8 0.734424 0.941735 0.288276
O O9 0.934065 0.654766 0.724591
O O10 0.884315 0.622662 0.950631
O O11 0.500000 0.117202 0.500000
#
# Coordination Sequence:
#
# PCOD8094730 Si02
#       7
#     4   4   4   4   8   4   8
#     4  11  19  31  45  85 107 137 174 205 241 298
#     4   9  22  35  60  74  94 129 178 223 264 304
#     4   9  16  34  50  74 112 142 167 200 242 309
#     4   9  20  29  51  80 109 143 170 196 238 312
#     4  10  19  39  53  75  98 134 171 218 265 304
#     4  10  22  31  52  74 112 137 164 212 258 298
#     4   9  18  34  55  76 106 141 165 202 256 305
#
# _framework density 17.520970999999999
#
# number of rings (size 3 to 8) (size 9 to 14) (size 15 to 20)
#    0.000    2.444    2.222    1.667    3.111    0.000 
#    0.000    2.222    0.000    0.000    0.000    0.000 
#    0.000    0.000    0.000    0.000    0.000    0.000 
#
# Total GULP energy -223021.869541 kJ/mol
# GULP energy per Si atom -12390.103863 kJ/mol
# Density = 1.748109 g / cm^3
# Si number density = 17.520971 Si / 1000 Ang^3
#
#
#
# Elastic Constant Matrix: (Units=GPa)
#
#
# Indices 1 2 3 4 5 6 
#
# 1 113.6285 49.7626 44.5947 0.0000 -7.9451 0.0000
# 2 49.7626 96.2941 50.5905 0.0000 0.1759 0.0000
# 3 44.5947 50.5905 73.6973 0.0000 10.9530 0.0000
# 4 0.0000 0.0000 0.0000 -664.0054 0.0000 -54.0749
# 5 -7.9451 0.1759 10.9530 0.0000 31.6526 0.0000
# 6 0.0000 0.0000 0.0000 -54.0749 0.0000 18.3682
#
#
#
# Elastic Compliance Matrix: (Units=1/GPa)
#
#
# Indices 1 2 3 4 5 6 
#
# 1 0.013244 -0.003454 -0.006473 0.000000 0.005583 0.000000
# 2 -0.003454 0.017631 -0.010405 0.000000 0.002636 0.000000
# 3 -0.006473 -0.010405 0.026210 0.000000 -0.010636 0.000000
# 4 0.000000 0.000000 0.000000 -0.001215 0.000000 -0.003576
# 5 0.005583 0.002636 -0.010636 0.000000 0.036660 0.000000
# 6 0.000000 0.000000 0.000000 -0.003576 0.000000 0.043914
#
#
# Mechanical properties :
#
#
# Convention : Reuss Voigt Hill
#
# Bulk Modulus (GPa) = 60.89728 63.72394 62.31061
# Shear Modulus (GPa) = 27.38499 -113.55210 -43.08355
#
# Velocity S-wave (km/s) = 3.95775 -8.05915 -4.96418
# Velocity P-wave (km/s) = 7.46440 7.08173 1.66829
#
# Compressibility (1/GPa) = 0.01642109
#
# Stress axis : x y z
#
# Youngs Moduli (GPa) = 75.50652 56.71686 38.15405
#
# Poissons Ratio (x) = 0.19588 0.24697
# Poissons Ratio (y) = 0.26077 0.39700
# Poissons Ratio (z) = 0.48876 0.59016
#
# Static dielectric constant tensor:
#      x y z
#    x 3.326080 0.000000 0.159020 
#    y 0.000000 3.187930 0.000000 
#    z 0.159020 0.000000 3.154620 
# 
# 
# High freq. dielectric constant tensor:
#      x y z
#    x 1.691330 0.000000 0.010620 
#    y 0.000000 1.664210 0.000000 
#    z 0.010620 0.000000 1.663310 
# 
# From -- ./inp_files/40283.got.cif
#   From: 2010.06.25/outbox.cif.g09.slc.cpg/sg12_21_cif.got.tgz:40283.got - 2010.06.28 00:19:55.
