data_PCOD8094952
_publ_section_title
;
Structure prediction by ZEFSAII (Michael W. Deem and Ramdas Pophale) SiO2 
 PCOD8094952
Probable space group: C 2/M
;
_chemical_formula_sum "Si O2"
_cell_formula_units_Z 64
_cell_length_a 24.737552
_cell_length_b 9.107732
_cell_length_c 21.313067
_cell_angle_alpha 90.000000
_cell_angle_beta 56.000635
_cell_angle_gamma 90.000000
_cell_volume 3980.983460
_symmetry_space_group_name_H-M "C 2/M"
_symmetry_group_IT_number 12
_symmetry_cell_setting 'monoclinic'
loop_
_space_group_symop_operation_xyz
x,y,z
-x,y,-z
-x,-y,-z
x,-y,z
1/2+x,1/2+y,z
1/2-x,1/2+y,-z
1/2-x,1/2-y,-z
1/2+x,1/2-y,z
loop_
_atom_site_type_symbol
_atom_site_label
_atom_site_fract_x
_atom_site_fract_y
_atom_site_fract_z
Si Si1 0.181250 0.671070 0.913129
Si Si2 0.094059 0.333901 0.091137
Si Si3 0.308407 0.672023 0.497315
Si Si4 0.653207 0.330173 0.806952
Si Si5 0.771567 0.662904 0.338087
Si Si6 0.608108 0.165856 0.645402
Si Si7 0.466569 0.329714 0.205977
Si Si8 0.719378 0.830277 0.078494
O O1 0.194705 0.500000 0.894905
O O2 0.147398 0.737374 0.873906
O O3 0.251358 0.751331 0.878681
O O4 0.133360 0.701826 0.002233
O O5 0.066791 0.500000 0.106204
O O6 0.141090 0.315732 0.121706
O O7 0.035276 0.220777 0.133741
O O8 0.308895 0.500000 0.479860
O O9 0.250000 0.750000 0.500000
O O10 0.296081 0.695309 0.580302
O O11 0.375714 0.746587 0.429825
O O12 0.662106 0.500000 0.817507
O O13 0.716055 0.278927 0.725401
O O14 0.587560 0.297621 0.811403
O O15 0.769202 0.500000 0.309764
O O16 0.829227 0.671031 0.351034
O O17 0.548256 0.242696 0.720218
O O18 0.588009 0.000000 0.641415
O O19 0.469371 0.500000 0.221052
O O20 0.740538 0.000000 0.064682
O O21 0.750000 0.750000 0.000000
#
# Coordination Sequence:
#
# PCOD8094952 Si02
#       8
#     8   8   8   8   8   8   8   8
#     4  10  20  33  49  67  87 115 149 185 226 268
#     4   9  19  33  48  66  87 114 146 181 223 267
#     4   9  15  23  37  57  80 108 144 181 217 258
#     4  10  20  31  43  62  89 120 152 186 221 260
#     4   8  15  26  39  56  80 112 145 178 216 258
#     4   9  16  26  40  57  81 113 146 181 219 259
#     4  10  20  31  44  63  89 121 153 185 220 261
#     4   9  17  31  50  70  89 109 139 181 227 269
#
# _framework density 16.076429999999998
#
# number of rings (size 3 to 8) (size 9 to 14) (size 15 to 20)
#    0.000    2.750    0.000    3.750    0.000    8.500 
#    0.000    2.500    0.000    0.000    0.000    0.000 
#    0.000    1.000    0.000   10.500    0.000    7.125 
#
# Total GULP energy -396603.124077 kJ/mol
# GULP energy per Si atom -12393.847627 kJ/mol
# Density = 1.603984 g / cm^3
# Si number density = 16.076430 Si / 1000 Ang^3
#
#
#
# Elastic Constant Matrix: (Units=GPa)
#
#
# Indices 1 2 3 4 5 6 
#
# 1 45.2300 43.6308 35.0390 0.0002 -3.0779 -0.0004
# 2 43.6308 125.0060 54.8836 0.0012 -6.2763 -0.0002
# 3 35.0390 54.8836 82.8588 0.0006 -8.9099 -0.0013
# 4 0.0002 0.0012 0.0006 33.0439 -0.0001 -0.6326
# 5 -3.0779 -6.2763 -8.9099 -0.0001 2.0700 0.0000
# 6 -0.0004 -0.0002 -0.0013 -0.6326 0.0000 23.0132
#
#
#
# Elastic Compliance Matrix: (Units=1/GPa)
#
#
# Indices 1 2 3 4 5 6 
#
# 1 0.039736 -0.009271 -0.013650 0.000000 -0.027781 0.000000
# 2 -0.009271 0.013459 -0.003888 0.000000 0.010288 0.000000
# 3 -0.013650 -0.003888 0.031586 0.000000 0.103872 0.000002
# 4 0.000000 0.000000 0.000000 0.030279 0.000001 0.000832
# 5 -0.027781 0.010288 0.103872 0.000001 0.920090 0.000006
# 6 0.000000 0.000000 0.000002 0.000832 0.000006 0.043476
#
#
# Mechanical properties :
#
#
# Convention : Reuss Voigt Hill
#
# Bulk Modulus (GPa) = 32.08935 57.80017 44.94476
# Shear Modulus (GPa) = 4.37586 19.59483 11.98535
#
# Velocity S-wave (km/s) = 1.65161 3.49500 2.73339
# Velocity P-wave (km/s) = 4.86219 7.23312 6.16275
#
# Compressibility (1/GPa) = 0.03116299
#
# Stress axis : x y z
#
# Youngs Moduli (GPa) = 25.16579 74.29896 31.65955
#
# Poissons Ratio (x) = 0.68883 0.43215
# Poissons Ratio (y) = 0.23331 0.12310
# Poissons Ratio (z) = 0.34351 0.28889
#
# Static dielectric constant tensor:
#      x y z
#    x 2.659520 0.000000 -0.061730 
#    y 0.000000 3.265040 0.000000 
#    z -0.061730 0.000000 3.275390 
# 
# 
# High freq. dielectric constant tensor:
#      x y z
#    x 1.563520 0.000000 -0.004170 
#    y 0.000000 1.637530 0.000000 
#    z -0.004170 0.000000 1.612430 
# 
# From -- ./inp_files/323693.got.cif
#   From: 2010.06.25/outbox.cif.g09.slc.cpg/sg12_162_cif.got.tgz:323693.got - 2010.06.28 00:19:55.
