data_PCOD8094134
_publ_section_title
;
Structure prediction by ZEFSAII (Michael W. Deem and Ramdas Pophale) SiO2 
 PCOD8094134
Probable space group: C 2/M
;
_chemical_formula_sum "Si O2"
_cell_formula_units_Z 44
_cell_length_a 10.672213
_cell_length_b 20.640169
_cell_length_c 9.011247
_cell_angle_alpha 90.000000
_cell_angle_beta 79.130958
_cell_angle_gamma 90.000000
_cell_volume 1949.355184
_symmetry_space_group_name_H-M "C 2/M"
_symmetry_group_IT_number 12
_symmetry_cell_setting 'monoclinic'
loop_
_space_group_symop_operation_xyz
x,y,z
-x,y,-z
-x,-y,-z
x,-y,z
1/2+x,1/2+y,z
1/2-x,1/2+y,-z
1/2-x,1/2-y,-z
1/2+x,1/2-y,z
loop_
_atom_site_type_symbol
_atom_site_label
_atom_site_fract_x
_atom_site_fract_y
_atom_site_fract_z
Si Si1 0.853114 0.426076 0.001650
Si Si2 0.500000 0.332167 0.500000
Si Si3 0.579646 0.757672 0.730984
Si Si4 0.815660 0.070853 0.671925
Si Si5 0.866055 0.370858 0.486114
Si Si6 0.689870 0.808180 0.196992
O O1 0.840826 0.500000 0.942753
O O2 0.772677 0.417232 0.167440
O O3 0.797456 0.374700 0.897079
O O4 0.000000 0.409277 0.000000
O O5 0.410555 0.288810 0.415753
O O6 0.576311 0.375112 0.363629
O O7 0.621838 0.828341 0.666929
O O8 0.432779 0.764296 0.824056
O O9 0.677375 0.733670 0.839670
O O10 0.732872 0.073396 0.537520
O O11 0.879649 0.000000 0.666215
O O12 0.821555 0.325269 0.628260
O O13 0.000000 0.404082 0.500000
#
# Coordination Sequence:
#
# PCOD8094134 Si02
#       6
#     8   4   8   8   8   8
#     4  10  23  45  66  91 134 177 218 271 325 380
#     4  12  21  42  68  92 131 174 212 264 330 386
#     4  11  21  38  68  95 133 169 213 269 327 389
#     4  11  24  41  64  94 128 170 217 265 322 382
#     4  10  19  36  64  94 125 164 213 266 320 377
#     4  11  21  39  66  98 130 172 212 266 330 391
#
# _framework density 22.571567999999999
#
# number of rings (size 3 to 8) (size 9 to 14) (size 15 to 20)
#    0.000    1.273    4.545    4.091    0.000    1.091 
#    0.000   10.909    0.000    2.182    0.000    0.000 
#    0.000    0.000    0.000    0.000    0.000    0.000 
#
# Total GULP energy -272673.075214 kJ/mol
# GULP energy per Si atom -12394.230692 kJ/mol
# Density = 2.252019 g / cm^3
# Si number density = 22.571568 Si / 1000 Ang^3
#
#
#
# Elastic Constant Matrix: (Units=GPa)
#
#
# Indices 1 2 3 4 5 6 
#
# 1 119.2180 36.0936 35.7459 0.0000 8.5416 0.0000
# 2 36.0936 95.4347 37.5590 0.0000 5.5481 0.0000
# 3 35.7459 37.5590 37.2058 0.0000 -6.2695 0.0000
# 4 0.0000 0.0000 0.0000 -93.7976 0.0000 -24.5424
# 5 8.5416 5.5481 -6.2695 0.0000 31.2553 0.0000
# 6 0.0000 0.0000 0.0000 -24.5424 0.0000 25.7766
#
#
#
# Elastic Compliance Matrix: (Units=1/GPa)
#
#
# Indices 1 2 3 4 5 6 
#
# 1 0.012948 0.001401 -0.015000 0.000000 -0.006796 0.000000
# 2 0.001401 0.019074 -0.021979 0.000000 -0.008178 0.000000
# 3 -0.015000 -0.021979 0.067093 0.000000 0.021459 0.000000
# 4 0.000000 0.000000 0.000000 -0.008535 0.000000 -0.008126
# 5 -0.006796 -0.008178 0.021459 0.000000 0.039608 0.000000
# 6 0.000000 0.000000 0.000000 -0.008126 0.000000 0.031058
#
#
# Mechanical properties :
#
#
# Convention : Reuss Voigt Hill
#
# Bulk Modulus (GPa) = 35.76655 52.29506 44.03081
# Shear Modulus (GPa) = 20.68498 2.14420 11.41459
#
# Velocity S-wave (km/s) = 3.03052 0.97571 2.25123
# Velocity P-wave (km/s) = 5.30336 4.94856 5.12903
#
# Compressibility (1/GPa) = 0.02795908
#
# Stress axis : x y z
#
# Youngs Moduli (GPa) = 77.23095 52.42770 14.90468
#
# Poissons Ratio (x) = -0.07347 0.22357
# Poissons Ratio (y) = -0.10823 0.32760
# Poissons Ratio (z) = 1.15847 1.15233
#
# Static dielectric constant tensor:
#      x y z
#    x 4.262120 0.000000 -0.049150 
#    y 0.000000 4.057460 0.000000 
#    z -0.049150 0.000000 3.764710 
# 
# 
# High freq. dielectric constant tensor:
#      x y z
#    x 1.890020 0.000000 -0.005350 
#    y 0.000000 1.887740 0.000000 
#    z -0.005350 0.000000 1.871580 
# 
# From -- ./inp_files/49280.got.cif
#   From: 2010.06.25/outbox.cif.g09.slc.cpg/sg12_25_cif.got.tgz:49280.got - 2010.06.28 00:19:55.
