data_PCOD8094741
_publ_section_title
;
Structure prediction by ZEFSAII (Michael W. Deem and Ramdas Pophale) SiO2 
 PCOD8094741
Probable space group: C 2/M
;
_chemical_formula_sum "Si O2"
_cell_formula_units_Z 64
_cell_length_a 14.749704
_cell_length_b 17.209159
_cell_length_c 17.778701
_cell_angle_alpha 90.000000
_cell_angle_beta 43.280027
_cell_angle_gamma 90.000000
_cell_volume 3093.793844
_symmetry_space_group_name_H-M "C 2/M"
_symmetry_group_IT_number 12
_symmetry_cell_setting 'monoclinic'
loop_
_space_group_symop_operation_xyz
x,y,z
-x,y,-z
-x,-y,-z
x,-y,z
1/2+x,1/2+y,z
1/2-x,1/2+y,-z
1/2-x,1/2-y,-z
1/2+x,1/2-y,z
loop_
_atom_site_type_symbol
_atom_site_label
_atom_site_fract_x
_atom_site_fract_y
_atom_site_fract_z
Si Si1 0.961539 0.915608 0.108719
Si Si2 0.950389 0.871017 0.451592
Si Si3 0.343904 0.320863 0.781509
Si Si4 0.458196 0.182331 0.809049
Si Si5 0.665140 0.264897 0.771844
Si Si6 0.827993 0.718023 0.524320
Si Si7 0.732361 0.590845 0.028954
Si Si8 0.345786 0.088251 0.410535
O O1 0.851879 0.849128 0.180572
O O2 0.086838 0.895104 0.084447
O O3 0.903813 0.000000 0.168716
O O4 0.000000 0.921401 0.000000
O O5 0.947425 0.777380 0.466756
O O6 0.809207 0.907658 0.517118
O O7 0.000000 0.909629 0.500000
O O8 0.052208 0.881063 0.320506
O O9 0.415360 0.246275 0.774018
O O10 0.244395 0.292336 0.777559
O O11 0.262135 0.369570 0.892417
O O12 0.523668 0.224854 0.841253
O O13 0.567872 0.125500 0.707755
O O14 0.334178 0.132594 0.911616
O O15 0.734031 0.282988 0.651905
O O16 0.750000 0.750000 0.500000
O O17 0.875811 0.631688 0.472053
O O18 0.768658 0.500000 0.012864
O O19 0.389370 0.000000 0.395312
#
# Coordination Sequence:
#
# PCOD8094741 Si02
#       8
#     8   8   8   8   8   8   8   8
#     4  10  23  43  65  96 133 170 220 279 335 384
#     4  11  20  40  64  92 126 168 215 267 312 380
#     4  12  24  40  70  99 128 173 227 266 325 395
#     4  12  22  43  64  96 131 172 224 268 323 394
#     4  12  23  39  70  98 127 174 223 270 320 397
#     4  10  19  39  59  89 124 162 212 256 317 371
#     4  11  26  44  64  96 137 173 214 277 337 385
#     4  11  23  38  64  96 128 171 211 263 335 389
#
# _framework density 20.686575000000001
#
# number of rings (size 3 to 8) (size 9 to 14) (size 15 to 20)
#    0.000    0.875    6.250    2.250    1.750    1.250 
#    0.000    3.750    0.000    1.125    0.000    0.000 
#    0.000    0.000    0.000    0.000    0.000    0.000 
#
# Total GULP energy -396731.440402 kJ/mol
# GULP energy per Si atom -12397.857513 kJ/mol
# Density = 2.063949 g / cm^3
# Si number density = 20.686575 Si / 1000 Ang^3
#
#
#
# Elastic Constant Matrix: (Units=GPa)
#
#
# Indices 1 2 3 4 5 6 
#
# 1 49.3124 3.2819 8.4806 0.0001 14.1453 0.0000
# 2 3.2819 100.0689 25.1397 0.0001 6.7165 0.0000
# 3 8.4806 25.1397 103.2611 0.0002 9.9512 -0.0001
# 4 0.0001 0.0001 0.0002 25.4360 0.0000 -0.3403
# 5 14.1453 6.7165 9.9512 0.0000 24.7147 0.0000
# 6 0.0000 0.0000 -0.0001 -0.3403 0.0000 20.6967
#
#
#
# Elastic Compliance Matrix: (Units=1/GPa)
#
#
# Indices 1 2 3 4 5 6 
#
# 1 0.024317 0.000311 -0.000753 0.000000 -0.013699 0.000000
# 2 0.000311 0.010737 -0.002436 0.000000 -0.002115 0.000000
# 3 -0.000753 -0.002436 0.010647 0.000000 -0.003194 0.000000
# 4 0.000000 0.000000 0.000000 0.039323 0.000000 0.000646
# 5 -0.013699 -0.002115 -0.003194 0.000000 0.050163 0.000000
# 6 0.000000 0.000000 0.000000 0.000646 0.000000 0.048328
#
#
# Mechanical properties :
#
#
# Convention : Reuss Voigt Hill
#
# Bulk Modulus (GPa) = 25.03361 36.27187 30.65274
# Shear Modulus (GPa) = 24.68103 28.55215 26.61659
#
# Velocity S-wave (km/s) = 3.45787 3.71917 3.59090
# Velocity P-wave (km/s) = 5.29812 6.00125 5.66062
#
# Compressibility (1/GPa) = 0.03994630
#
# Stress axis : x y z
#
# Youngs Moduli (GPa) = 41.12308 93.13778 93.92484
#
# Poissons Ratio (x) = -0.02897 0.07069
# Poissons Ratio (y) = -0.01279 0.22877
# Poissons Ratio (z) = 0.03095 0.22685
#
# Static dielectric constant tensor:
#      x y z
#    x 3.799870 0.000000 0.113770 
#    y 0.000000 4.167290 0.000000 
#    z 0.113770 0.000000 3.796170 
# 
# 
# High freq. dielectric constant tensor:
#      x y z
#    x 1.803200 0.000000 0.007020 
#    y 0.000000 1.808580 0.000000 
#    z 0.007020 0.000000 1.816290 
# 
# From -- ./inp_files/216763.got.cif
#   From: 2010.06.25/outbox.cif.g09.slc.cpg/sg12_109_cif.got.tgz:216763.got - 2010.06.28 00:19:55.
