data_PCOD8094054
_publ_section_title
;
Structure prediction by ZEFSAII (Michael W. Deem and Ramdas Pophale) SiO2 
 PCOD8094054
Probable space group: C 2/M
;
_chemical_formula_sum "Si O2"
_cell_formula_units_Z 64
_cell_length_a 30.277373
_cell_length_b 9.006023
_cell_length_c 11.814615
_cell_angle_alpha 90.000000
_cell_angle_beta 90.673443
_cell_angle_gamma 90.000000
_cell_volume 3221.371535
_symmetry_space_group_name_H-M "C 2/M"
_symmetry_group_IT_number 12
_symmetry_cell_setting 'monoclinic'
loop_
_space_group_symop_operation_xyz
x,y,z
-x,y,-z
-x,-y,-z
x,-y,z
1/2+x,1/2+y,z
1/2-x,1/2+y,-z
1/2-x,1/2-y,-z
1/2+x,1/2-y,z
loop_
_atom_site_type_symbol
_atom_site_label
_atom_site_fract_x
_atom_site_fract_y
_atom_site_fract_z
Si Si1 0.875450 0.676500 0.864514
Si Si2 0.961758 0.327370 0.735411
Si Si3 0.300895 0.670251 0.719394
Si Si4 0.369136 0.675407 0.105773
Si Si5 0.200341 0.329855 0.748563
Si Si6 0.449730 0.326069 0.266199
Si Si7 0.324505 0.170388 0.501657
Si Si8 0.573139 0.831801 0.508172
O O1 0.873384 0.500000 0.871685
O O2 0.919568 0.732354 0.802745
O O3 0.833074 0.730000 0.794414
O O4 0.875621 0.745490 0.987613
O O5 0.967892 0.500000 0.759049
O O6 0.956264 0.294715 0.601937
O O7 0.005455 0.245341 0.780593
O O8 0.316916 0.500000 0.720684
O O9 0.252381 0.684578 0.771249
O O10 0.298825 0.728014 0.590483
O O11 0.367346 0.500000 0.087484
O O12 0.323433 0.728135 0.159782
O O13 0.409369 0.726010 0.186808
O O14 0.184428 0.500000 0.761860
O O15 0.187353 0.271685 0.623533
O O16 0.455802 0.500000 0.262723
O O17 0.440234 0.279106 0.393929
O O18 0.376323 0.188129 0.526585
O O19 0.309259 0.000000 0.516205
O O20 0.564490 0.000000 0.550027
#
# Coordination Sequence:
#
# PCOD8094054 Si02
#       8
#     8   8   8   8   8   8   8   8
#     4  11  24  44  66  87 115 158 208 250 296 356
#     4  10  22  40  62  89 118 156 202 243 291 354
#     4  11  23  38  61  94 127 157 196 247 305 357
#     4  11  25  43  62  88 120 156 201 253 306 355
#     4  10  22  40  63  91 122 162 204 243 293 357
#     4  11  24  39  59  91 125 156 193 243 306 360
#     4  10  19  36  62  90 124 162 201 242 291 354
#     4  10  19  36  62  89 121 159 199 242 289 351
#
# _framework density 19.867314
#
# number of rings (size 3 to 8) (size 9 to 14) (size 15 to 20)
#    0.000    1.500    2.500    2.250    0.000    7.500 
#    0.000    2.500    0.000    0.000    0.000    0.000 
#    0.000    0.000    0.000    0.000    0.000    0.000 
#
# Total GULP energy -396994.851406 kJ/mol
# GULP energy per Si atom -12406.089106 kJ/mol
# Density = 1.982210 g / cm^3
# Si number density = 19.867314 Si / 1000 Ang^3
#
#
#
# Elastic Constant Matrix: (Units=GPa)
#
#
# Indices 1 2 3 4 5 6 
#
# 1 94.1015 41.3925 41.6023 0.0000 -7.0612 0.0000
# 2 41.3925 73.0745 49.7631 0.0000 -6.9656 0.0000
# 3 41.6023 49.7631 108.0717 0.0000 -10.3005 0.0000
# 4 0.0000 0.0000 0.0000 33.2638 0.0000 0.6712
# 5 -7.0612 -6.9656 -10.3005 0.0000 13.0001 0.0000
# 6 0.0000 0.0000 0.0000 0.6712 0.0000 32.9292
#
#
#
# Elastic Compliance Matrix: (Units=1/GPa)
#
#
# Indices 1 2 3 4 5 6 
#
# 1 0.014737 -0.006417 -0.002469 0.000000 0.002610 0.000000
# 2 -0.006417 0.022895 -0.007826 0.000000 0.002581 0.000000
# 3 -0.002469 -0.007826 0.014365 0.000000 0.005847 0.000000
# 4 0.000000 0.000000 0.000000 0.030075 0.000000 -0.000613
# 5 0.002610 0.002581 0.005847 0.000000 0.084356 0.000000
# 6 0.000000 0.000000 0.000000 -0.000613 0.000000 0.030381
#
#
# Mechanical properties :
#
#
# Convention : Reuss Voigt Hill
#
# Bulk Modulus (GPa) = 53.84628 60.08483 56.96555
# Shear Modulus (GPa) = 21.14838 25.33792 23.24315
#
# Velocity S-wave (km/s) = 3.26618 3.57509 3.42412
# Velocity P-wave (km/s) = 6.43317 6.88116 6.66093
#
# Compressibility (1/GPa) = 0.01857138
#
# Stress axis : x y z
#
# Youngs Moduli (GPa) = 67.85551 43.67717 69.61542
#
# Poissons Ratio (x) = 0.28029 0.17191
# Poissons Ratio (y) = 0.43546 0.54481
# Poissons Ratio (z) = 0.16756 0.34182
#
# Static dielectric constant tensor:
#      x y z
#    x 3.749510 0.000000 0.029390 
#    y 0.000000 3.560190 0.000000 
#    z 0.029390 0.000000 3.567270 
# 
# 
# High freq. dielectric constant tensor:
#      x y z
#    x 1.788810 0.000000 0.000130 
#    y 0.000000 1.772470 0.000000 
#    z 0.000130 0.000000 1.772300 
# 
# From -- ./inp_files/187390.got.cif
#   From: 2010.06.25/outbox.cif.g09.slc.cpg/sg12_94_cif.got.tgz:187390.got - 2010.06.28 00:19:55.
