data_PCOD8094201
_publ_section_title
;
Structure prediction by ZEFSAII (Michael W. Deem and Ramdas Pophale) SiO2 
 PCOD8094201
Probable space group: C 2/M
;
_chemical_formula_sum "Si O2"
_cell_formula_units_Z 40
_cell_length_a 25.711655
_cell_length_b 13.411499
_cell_length_c 7.689836
_cell_angle_alpha 90.000000
_cell_angle_beta 128.274879
_cell_angle_gamma 90.000000
_cell_volume 2081.712076
_symmetry_space_group_name_H-M "C 2/M"
_symmetry_group_IT_number 12
_symmetry_cell_setting 'monoclinic'
loop_
_space_group_symop_operation_xyz
x,y,z
-x,y,-z
-x,-y,-z
x,-y,z
1/2+x,1/2+y,z
1/2-x,1/2+y,-z
1/2-x,1/2-y,-z
1/2+x,1/2-y,z
loop_
_atom_site_type_symbol
_atom_site_label
_atom_site_fract_x
_atom_site_fract_y
_atom_site_fract_z
Si Si1 0.612626 0.111029 0.960549
Si Si2 0.680033 0.792466 0.803994
Si Si3 0.676633 0.220216 0.404091
Si Si4 0.565108 0.696844 0.733463
Si Si5 0.074378 0.886984 0.108566
O O1 0.663531 0.116291 0.901628
O O2 0.555040 0.193706 0.807091
O O3 0.582445 0.000000 0.911116
O O4 0.650238 0.136581 0.217463
O O5 0.678152 0.827256 0.600038
O O6 0.625946 0.704167 0.724111
O O7 0.750000 0.750000 0.000000
O O8 0.750000 0.250000 0.500000
O O9 0.629099 0.316846 0.310645
O O10 0.500000 0.662067 0.500000
O O11 0.582654 0.616509 0.916866
O O12 0.086380 0.000000 0.197696
O O13 0.000000 0.850721 0.000000
#
# Coordination Sequence:
#
# PCOD8094201 Si02
#       5
#     8   8   8   8   8
#     4   9  21  36  57  86 114 148 192 234 284 350
#     4  10  19  37  58  81 115 152 191 238 289 343
#     4  11  20  38  63  81 120 157 194 243 296 347
#     4   9  19  36  59  81 117 155 185 241 287 343
#     4  10  21  37  59  90 121 154 200 244 294 353
#
# _framework density 19.214953000000001
#
# number of rings (size 3 to 8) (size 9 to 14) (size 15 to 20)
#    1.200    1.000    2.000    1.200    0.000    2.400 
#    0.000    4.000    0.000    3.600    0.000    0.000 
#    0.000    0.000    0.000    0.000    0.000    0.000 
#
# Total GULP energy -247796.788251 kJ/mol
# GULP energy per Si atom -12389.839413 kJ/mol
# Density = 1.917122 g / cm^3
# Si number density = 19.214953 Si / 1000 Ang^3
#
#
#
# Elastic Constant Matrix: (Units=GPa)
#
#
# Indices 1 2 3 4 5 6 
#
# 1 94.9623 7.0561 29.1273 0.0000 -8.7848 0.0000
# 2 7.0561 73.4474 11.0643 0.0000 1.0785 0.0000
# 3 29.1273 11.0643 103.9968 0.0000 -18.2368 0.0000
# 4 0.0000 0.0000 0.0000 17.2518 0.0000 0.2978
# 5 -8.7848 1.0785 -18.2368 0.0000 53.1016 0.0000
# 6 0.0000 0.0000 0.0000 0.2978 0.0000 21.2982
#
#
#
# Elastic Compliance Matrix: (Units=1/GPa)
#
#
# Indices 1 2 3 4 5 6 
#
# 1 0.011589 -0.000672 -0.003017 0.000000 0.000895 0.000000
# 2 -0.000672 0.013911 -0.001448 0.000000 -0.000891 0.000000
# 3 -0.003017 -0.001448 0.011207 0.000000 0.003379 0.000000
# 4 0.000000 0.000000 0.000000 0.057979 0.000000 -0.000811
# 5 0.000895 -0.000891 0.003379 0.000000 0.020158 0.000000
# 6 0.000000 0.000000 0.000000 -0.000811 0.000000 0.046964
#
#
# Mechanical properties :
#
#
# Convention : Reuss Voigt Hill
#
# Bulk Modulus (GPa) = 37.83246 40.76690 39.29968
# Shear Modulus (GPa) = 27.64058 33.34092 30.49075
#
# Velocity S-wave (km/s) = 3.79686 4.17004 3.98782
# Velocity P-wave (km/s) = 6.24126 6.66693 6.45760
#
# Compressibility (1/GPa) = 0.02643233
#
# Stress axis : x y z
#
# Youngs Moduli (GPa) = 86.29105 71.88576 89.22653
#
# Poissons Ratio (x) = 0.04830 0.26923
# Poissons Ratio (y) = 0.05798 0.12921
# Poissons Ratio (z) = 0.26037 0.10409
#
# Static dielectric constant tensor:
#      x y z
#    x 3.522750 0.000000 -0.156740 
#    y 0.000000 3.099780 0.000000 
#    z -0.156740 0.000000 3.533090 
# 
# 
# High freq. dielectric constant tensor:
#      x y z
#    x 1.746800 0.000000 -0.011660 
#    y 0.000000 1.711730 0.000000 
#    z -0.011660 0.000000 1.755110 
# 
# From -- ./inp_files/103774.got.cif
#   From: 2010.06.25/outbox.cif.g09.slc.cpg/sg12_52_cif.got.tgz:103774.got - 2010.06.28 00:19:55.
