data_PCOD8094044
_publ_section_title
;
Structure prediction by ZEFSAII (Michael W. Deem and Ramdas Pophale) SiO2 
 PCOD8094044
Probable space group: C 2/M
;
_chemical_formula_sum "Si O2"
_cell_formula_units_Z 64
_cell_length_a 29.512948
_cell_length_b 8.544771
_cell_length_c 12.805458
_cell_angle_alpha 90.000000
_cell_angle_beta 99.102551
_cell_angle_gamma 90.000000
_cell_volume 3188.630785
_symmetry_space_group_name_H-M "C 2/M"
_symmetry_group_IT_number 12
_symmetry_cell_setting 'monoclinic'
loop_
_space_group_symop_operation_xyz
x,y,z
-x,y,-z
-x,-y,-z
x,-y,z
1/2+x,1/2+y,z
1/2-x,1/2+y,-z
1/2-x,1/2-y,-z
1/2+x,1/2-y,z
loop_
_atom_site_type_symbol
_atom_site_label
_atom_site_fract_x
_atom_site_fract_y
_atom_site_fract_z
Si Si1 0.049096 0.186301 0.049666
Si Si2 0.688349 0.183063 0.813825
Si Si3 0.356219 0.815801 0.420150
Si Si4 0.550083 0.313016 0.486290
Si Si5 0.075896 0.824894 0.277139
Si Si6 0.322230 0.675651 0.621805
Si Si7 0.784477 0.682851 0.807711
Si Si8 0.854734 0.183619 0.996107
O O1 0.059383 0.261648 0.166949
O O2 0.091215 0.231851 0.988938
O O3 0.046005 0.000000 0.055606
O O4 0.000000 0.258546 0.000000
O O5 0.668741 0.237637 0.694794
O O6 0.741820 0.223273 0.839859
O O7 0.681065 0.000000 0.829491
O O8 0.662088 0.274378 0.895024
O O9 0.408633 0.755024 0.429053
O O10 0.328233 0.746542 0.508445
O O11 0.356392 0.000000 0.433702
O O12 0.500000 0.253646 0.500000
O O13 0.554492 0.500000 0.491421
O O14 0.556471 0.241148 0.372933
O O15 0.130402 0.827516 0.299035
O O16 0.055943 0.000000 0.269483
O O17 0.302458 0.500000 0.602272
O O18 0.289302 0.774304 0.686226
O O19 0.774732 0.500000 0.812719
O O20 0.828057 0.725945 0.894684
O O21 0.848337 0.000000 0.972605
#
# Coordination Sequence:
#
# PCOD8094044 Si02
#       8
#     8   8   8   8   8   8   8   8
#     4   9  17  30  53  86 117 149 191 239 291 344
#     4  11  25  43  60  83 121 162 199 246 305 363
#     4  10  22  39  58  84 119 156 196 246 305 362
#     4   9  18  32  55  84 114 153 200 245 291 354
#     4   8  14  28  49  76 111 146 183 232 285 333
#     4  10  19  36  62  87 116 153 193 243 295 350
#     4  12  24  39  63  91 118 154 203 247 297 362
#     4  11  22  39  62  88 120 157 202 251 299 352
#
# _framework density 20.071311999999999
#
# number of rings (size 3 to 8) (size 9 to 14) (size 15 to 20)
#    0.000    2.000    1.250    3.750    0.000    3.750 
#    0.000    2.500    0.000    1.500    0.000    0.000 
#    0.000    0.000    0.000    0.000    0.000    0.000 
#
# Total GULP energy -396668.800508 kJ/mol
# GULP energy per Si atom -12395.900016 kJ/mol
# Density = 2.002563 g / cm^3
# Si number density = 20.071312 Si / 1000 Ang^3
#
#
#
# Elastic Constant Matrix: (Units=GPa)
#
#
# Indices 1 2 3 4 5 6 
#
# 1 116.1691 11.1185 42.9327 0.0000 -9.3521 0.0000
# 2 11.1185 47.2609 20.0783 0.0000 2.2776 0.0000
# 3 42.9327 20.0783 104.8975 0.0000 -1.7449 0.0000
# 4 0.0000 0.0000 0.0000 29.9029 0.0000 -2.6454
# 5 -9.3521 2.2776 -1.7449 0.0000 29.3512 0.0000
# 6 0.0000 0.0000 0.0000 -2.6454 0.0000 23.8019
#
#
#
# Elastic Compliance Matrix: (Units=1/GPa)
#
#
# Indices 1 2 3 4 5 6 
#
# 1 0.010445 -0.000888 -0.004052 0.000000 0.003156 0.000000
# 2 -0.000888 0.023232 -0.004122 0.000000 -0.002331 0.000000
# 3 -0.004052 -0.004122 0.011976 0.000000 -0.000259 0.000000
# 4 0.000000 0.000000 0.000000 0.033774 0.000000 0.003754
# 5 0.003156 -0.002331 -0.000259 0.000000 0.035241 0.000000
# 6 0.000000 0.000000 0.000000 0.003754 0.000000 0.042431
#
#
# Mechanical properties :
#
#
# Convention : Reuss Voigt Hill
#
# Bulk Modulus (GPa) = 36.32644 46.28739 41.30691
# Shear Modulus (GPa) = 27.11512 29.55775 28.33643
#
# Velocity S-wave (km/s) = 3.67950 3.84166 3.76145
# Velocity P-wave (km/s) = 6.01578 6.54135 6.28406
#
# Compressibility (1/GPa) = 0.02752816
#
# Stress axis : x y z
#
# Youngs Moduli (GPa) = 95.74100 43.04488 83.49734
#
# Poissons Ratio (x) = 0.03821 0.33837
# Poissons Ratio (y) = 0.08499 0.34419
# Poissons Ratio (z) = 0.38799 0.17744
#
# Static dielectric constant tensor:
#      x y z
#    x 3.736700 0.000000 -0.019840 
#    y 0.000000 3.409460 0.000000 
#    z -0.019840 0.000000 3.833980 
# 
# 
# High freq. dielectric constant tensor:
#      x y z
#    x 1.783910 0.000000 -0.007000 
#    y 0.000000 1.759650 0.000000 
#    z -0.007000 0.000000 1.792220 
# 
# From -- ./inp_files/187606.got.cif
#   From: 2010.06.25/outbox.cif.g09.slc.cpg/sg12_94_cif.got.tgz:187606.got - 2010.06.28 00:19:55.
