data_PCOD8094875
_publ_section_title
;
Structure prediction by ZEFSAII (Michael W. Deem and Ramdas Pophale) SiO2 
 PCOD8094875
Probable space group: C 2/M
;
_chemical_formula_sum "Si O2"
_cell_formula_units_Z 52
_cell_length_a 20.091055
_cell_length_b 23.045016
_cell_length_c 9.495370
_cell_angle_alpha 90.000000
_cell_angle_beta 37.829255
_cell_angle_gamma 90.000000
_cell_volume 2696.323487
_symmetry_space_group_name_H-M "C 2/M"
_symmetry_group_IT_number 12
_symmetry_cell_setting 'monoclinic'
loop_
_space_group_symop_operation_xyz
x,y,z
-x,y,-z
-x,-y,-z
x,-y,z
1/2+x,1/2+y,z
1/2-x,1/2+y,-z
1/2-x,1/2-y,-z
1/2+x,1/2-y,z
loop_
_atom_site_type_symbol
_atom_site_label
_atom_site_fract_x
_atom_site_fract_y
_atom_site_fract_z
Si Si1 0.721154 0.828177 0.590231
Si Si2 0.139239 0.780784 0.854153
Si Si3 0.891615 0.565526 0.097362
Si Si4 0.784551 0.185273 0.986425
Si Si5 0.081320 0.618633 0.234399
Si Si6 0.540097 0.220974 0.695614
Si Si7 0.500000 0.293388 0.500000
O O1 0.842499 0.818578 0.321398
O O2 0.704330 0.780678 0.739437
O O3 0.703045 0.891907 0.685463
O O4 0.642697 0.810719 0.590856
O O5 0.195594 0.817819 0.881106
O O6 0.013602 0.765053 0.099725
O O7 0.857970 0.500000 0.192778
O O8 0.907843 0.567567 0.900157
O O9 0.000000 0.583839 0.000000
O O10 0.901442 0.168073 0.723442
O O11 0.750000 0.250000 0.000000
O O12 0.698811 0.134768 0.099232
O O13 0.000000 0.602544 0.500000
O O14 0.046522 0.672244 0.197420
O O15 0.561416 0.253585 0.513556
#
# Coordination Sequence:
#
# PCOD8094875 Si02
#       7
#     8   8   8   8   8   8   4
#     4  11  19  33  50  73 113 145 177 221 274 331
#     4  10  20  28  48  77 103 144 177 216 271 333
#     4  11  23  38  55  77 109 150 194 232 273 329
#     4  11  18  31  48  75 108 146 183 219 274 335
#     4  12  21  34  55  76 109 152 183 228 275 331
#     4  11  18  29  46  76 109 149 174 215 274 327
#     4  10  20  30  48  78 116 150 186 218 270 346
#
# _framework density 19.285519000000001
#
# number of rings (size 3 to 8) (size 9 to 14) (size 15 to 20)
#    0.000    1.077    6.923    2.308    0.000    0.308 
#    0.000    0.000    0.000    0.000    0.000    0.538 
#    0.000   35.692    0.000    0.308    0.000    0.000 
#
# Total GULP energy -322091.614271 kJ/mol
# GULP energy per Si atom -12388.139010 kJ/mol
# Density = 1.924162 g / cm^3
# Si number density = 19.285519 Si / 1000 Ang^3
#
#
#
# Elastic Constant Matrix: (Units=GPa)
#
#
# Indices 1 2 3 4 5 6 
#
# 1 52.4721 7.3770 26.4381 0.0000 8.3750 0.0000
# 2 7.3770 73.4368 39.9506 0.0000 4.4012 0.0000
# 3 26.4381 39.9506 131.8724 0.0000 10.2733 0.0000
# 4 0.0000 0.0000 0.0000 7.1456 0.0000 -4.9124
# 5 8.3750 4.4012 10.2733 0.0000 31.0064 0.0000
# 6 0.0000 0.0000 0.0000 -4.9124 0.0000 12.0144
#
#
#
# Elastic Compliance Matrix: (Units=1/GPa)
#
#
# Indices 1 2 3 4 5 6 
#
# 1 0.021816 0.000321 -0.004115 0.000000 -0.004575 0.000000
# 2 0.000321 0.016324 -0.004950 0.000000 -0.000764 0.000000
# 3 -0.004115 -0.004950 0.010025 0.000000 -0.001508 0.000000
# 4 0.000000 0.000000 0.000000 0.194666 0.000000 0.079595
# 5 -0.004575 -0.000764 -0.001508 0.000000 0.034095 0.000000
# 6 0.000000 0.000000 0.000000 0.079595 0.000000 0.115778
#
#
# Mechanical properties :
#
#
# Convention : Reuss Voigt Hill
#
# Bulk Modulus (GPa) = 32.59729 45.03475 38.81602
# Shear Modulus (GPa) = 11.89297 22.30098 17.09697
#
# Velocity S-wave (km/s) = 2.48600 3.40422 2.98068
# Velocity P-wave (km/s) = 5.01791 6.23329 5.65832
#
# Compressibility (1/GPa) = 0.03067739
#
# Stress axis : x y z
#
# Youngs Moduli (GPa) = 45.83806 61.26103 99.75004
#
# Poissons Ratio (x) = -0.01967 0.41043
# Poissons Ratio (y) = -0.01472 0.49377
# Poissons Ratio (z) = 0.18860 0.30325
#
# Static dielectric constant tensor:
#      x y z
#    x 6.745520 0.000000 0.568540 
#    y 0.000000 3.010180 0.000000 
#    z 0.568540 0.000000 3.854470 
# 
# 
# High freq. dielectric constant tensor:
#      x y z
#    x 1.760680 0.000000 0.018670 
#    y 0.000000 1.671900 0.000000 
#    z 0.018670 0.000000 1.773080 
# 
# From -- ./inp_files/90601.got.cif
#   From: 2010.06.25/outbox.cif.g09.slc.cpg/sg12_46_cif.got.tgz:90601.got - 2010.06.28 00:19:55.
