data_PCOD8094672
_publ_section_title
;
Structure prediction by ZEFSAII (Michael W. Deem and Ramdas Pophale) SiO2 
 PCOD8094672
Probable space group: C 2/M
;
_chemical_formula_sum "Si O2"
_cell_formula_units_Z 48
_cell_length_a 22.207790
_cell_length_b 27.488781
_cell_length_c 9.046993
_cell_angle_alpha 90.000000
_cell_angle_beta 26.212896
_cell_angle_gamma 90.000000
_cell_volume 2439.496170
_symmetry_space_group_name_H-M "C 2/M"
_symmetry_group_IT_number 12
_symmetry_cell_setting 'monoclinic'
loop_
_space_group_symop_operation_xyz
x,y,z
-x,y,-z
-x,-y,-z
x,-y,z
1/2+x,1/2+y,z
1/2-x,1/2+y,-z
1/2-x,1/2-y,-z
1/2+x,1/2-y,z
loop_
_atom_site_type_symbol
_atom_site_label
_atom_site_fract_x
_atom_site_fract_y
_atom_site_fract_z
Si Si1 0.871367 0.552096 0.882792
Si Si2 0.868801 0.102083 0.711724
Si Si3 0.757825 0.227069 0.648029
Si Si4 0.987315 0.151562 0.184703
Si Si5 0.239755 0.173689 0.819519
Si Si6 0.532653 0.848262 0.252066
O O1 0.842625 0.500000 0.029454
O O2 0.896199 0.599010 0.932188
O O3 0.000000 0.543879 0.500000
O O4 0.750236 0.562736 0.032046
O O5 0.902158 0.115103 0.471077
O O6 0.000000 0.078086 0.500000
O O7 0.827173 0.152941 0.882814
O O8 0.750000 0.250000 0.500000
O O9 0.905164 0.202104 0.343856
O O10 0.749918 0.268026 0.793619
O O11 0.632966 0.191032 0.958820
O O12 0.000000 0.124962 0.000000
O O13 0.141735 0.158970 0.900427
O O14 0.392012 0.151954 0.469333
O O15 0.500000 0.839409 0.500000
#
# Coordination Sequence:
#
# PCOD8094672 Si02
#       6
#     8   8   8   8   8   8
#     4  10  19  38  64  91 122 153 198 266 322 359
#     4  10  21  38  60  90 122 157 203 250 311 372
#     4  12  24  39  57  87 127 171 207 248 301 369
#     4  11  22  39  54  84 123 162 204 245 300 356
#     4  11  22  36  59  84 124 162 201 249 300 362
#     4  11  22  40  60  92 124 159 212 253 308 367
#
# _framework density 19.676193999999999
#
# number of rings (size 3 to 8) (size 9 to 14) (size 15 to 20)
#    0.000    1.167    6.667    1.000    0.000    5.000 
#    0.000    0.000    0.000    0.500    0.000   11.667 
#    0.000    0.000    0.000    0.000    0.000    0.000 
#
# Total GULP energy -297325.003620 kJ/mol
# GULP energy per Si atom -12388.541817 kJ/mol
# Density = 1.963141 g / cm^3
# Si number density = 19.676194 Si / 1000 Ang^3
#
#
#
# Elastic Constant Matrix: (Units=GPa)
#
#
# Indices 1 2 3 4 5 6 
#
# 1 112.9154 50.2863 71.9844 -0.0917 -19.9690 0.0225
# 2 50.2863 122.4508 52.7146 -0.0011 -8.7388 0.0006
# 3 71.9844 52.7146 111.4276 -0.1240 -24.3479 0.0314
# 4 -0.0917 -0.0011 -0.1240 667.6581 0.1133 -148.4378
# 5 -19.9690 -8.7388 -24.3479 0.1133 52.3709 -0.0276
# 6 0.0225 0.0006 0.0314 -148.4378 -0.0276 43.0138
#
#
#
# Elastic Compliance Matrix: (Units=1/GPa)
#
#
# Indices 1 2 3 4 5 6 
#
# 1 0.015813 -0.002677 -0.008603 0.000000 0.001583 0.000000
# 2 -0.002677 0.010726 -0.003536 -0.000001 -0.000875 0.000001
# 3 -0.008603 -0.003536 0.017096 0.000000 0.004078 -0.000004
# 4 0.000000 -0.000001 0.000000 0.006435 -0.000002 0.022205
# 5 0.001583 -0.000875 0.004078 -0.000002 0.021448 0.000003
# 6 0.000000 0.000001 -0.000004 0.022205 0.000003 0.099878
#
#
# Mechanical properties :
#
#
# Convention : Reuss Voigt Hill
#
# Bulk Modulus (GPa) = 71.41594 77.41827 74.41710
# Shear Modulus (GPa) = 24.30793 164.06247 94.18520
#
# Velocity S-wave (km/s) = 3.51864 9.14124 6.92615
# Velocity P-wave (km/s) = 7.27201 12.28201 10.09282
#
# Compressibility (1/GPa) = 0.01400248
#
# Stress axis : x y z
#
# Youngs Moduli (GPa) = 63.23937 93.23397 58.49376
#
# Poissons Ratio (x) = 0.24962 0.50322
# Poissons Ratio (y) = 0.16931 0.20682
# Poissons Ratio (z) = 0.54404 0.32965
#
# Static dielectric constant tensor:
#      x y z
#    x 3.706580 -0.000010 -0.281360 
#    y -0.000010 3.865910 0.000010 
#    z -0.281360 0.000010 3.880730 
# 
# 
# High freq. dielectric constant tensor:
#      x y z
#    x 1.757090 0.000000 -0.030690 
#    y 0.000000 1.742630 0.000000 
#    z -0.030690 0.000000 1.781750 
# 
# From -- ./inp_files/91366.got.cif
#   From: 2010.06.25/outbox.cif.g09.slc.cpg/sg12_46_cif.got.tgz:91366.got - 2010.06.28 00:19:55.
