data_PCOD8094943
_publ_section_title
;
Structure prediction by ZEFSAII (Michael W. Deem and Ramdas Pophale) SiO2 
 PCOD8094943
Probable space group: C 2/M
;
_chemical_formula_sum "Si O2"
_cell_formula_units_Z 64
_cell_length_a 24.250176
_cell_length_b 9.534126
_cell_length_c 21.469669
_cell_angle_alpha 90.000000
_cell_angle_beta 51.686609
_cell_angle_gamma 90.000000
_cell_volume 3894.815308
_symmetry_space_group_name_H-M "C 2/M"
_symmetry_group_IT_number 12
_symmetry_cell_setting 'monoclinic'
loop_
_space_group_symop_operation_xyz
x,y,z
-x,y,-z
-x,-y,-z
x,-y,z
1/2+x,1/2+y,z
1/2-x,1/2+y,-z
1/2-x,1/2-y,-z
1/2+x,1/2-y,z
loop_
_atom_site_type_symbol
_atom_site_label
_atom_site_fract_x
_atom_site_fract_y
_atom_site_fract_z
Si Si1 0.234035 0.162243 0.603686
Si Si2 0.507819 0.835195 0.718258
Si Si3 0.456504 0.838354 0.170905
Si Si4 0.172275 0.837990 0.776152
Si Si5 0.357324 0.834205 0.843903
Si Si6 0.852721 0.662373 0.432705
Si Si7 0.216369 0.835837 0.881438
Si Si8 0.115617 0.338946 0.034297
O O1 0.223680 0.204384 0.682884
O O2 0.182056 0.250831 0.597958
O O3 0.314919 0.193370 0.525410
O O4 0.215763 0.000000 0.605376
O O5 0.539613 0.779402 0.761207
O O6 0.429379 0.773574 0.761229
O O7 0.563634 0.798868 0.624015
O O8 0.497136 0.000000 0.734819
O O9 0.399284 0.749937 0.173339
O O10 0.532135 0.818996 0.085766
O O11 0.432944 0.000000 0.185815
O O12 0.215655 0.806623 0.808268
O O13 0.150449 0.000000 0.787202
O O14 0.289127 0.771063 0.857385
O O15 0.357647 0.791685 0.916169
O O16 0.355008 0.000000 0.837946
O O17 0.844502 0.500000 0.419959
O O18 0.209227 0.000000 0.901607
O O19 0.151079 0.758309 0.958272
O O20 0.136505 0.500000 0.007530
#
# Coordination Sequence:
#
# PCOD8094943 Si02
#       8
#     8   8   8   8   8   8   8   8
#     4   9  17  27  40  63  94 119 139 173 215 253
#     4   8  13  24  45  69  87 106 141 184 219 253
#     4   9  17  30  47  66  87 113 145 181 222 261
#     4  10  20  31  42  61  94 126 146 170 210 265
#     4   8  15  29  48  67  86 110 144 186 224 254
#     4   9  15  25  45  68  87 111 145 179 213 254
#     4  10  20  32  46  63  86 121 153 174 212 268
#     4   9  18  32  50  69  86 105 142 196 233 251
#
# _framework density 16.432100999999999
#
# number of rings (size 3 to 8) (size 9 to 14) (size 15 to 20)
#    0.000    3.000    1.250    1.875    0.000    1.500 
#    0.000    2.500    0.000    2.250    0.000    5.250 
#    0.000    0.000    0.000    8.500    0.000    9.000 
#
# Total GULP energy -396546.155996 kJ/mol
# GULP energy per Si atom -12392.067375 kJ/mol
# Density = 1.639470 g / cm^3
# Si number density = 16.432101 Si / 1000 Ang^3
#
#
#
# Elastic Constant Matrix: (Units=GPa)
#
#
# Indices 1 2 3 4 5 6 
#
# 1 70.6050 28.2867 55.7723 0.0005 -1.5268 -0.0017
# 2 28.2867 34.7098 39.0231 -0.0020 -1.7246 0.0086
# 3 55.7723 39.0231 128.9248 0.0006 -11.3444 -0.0017
# 4 0.0005 -0.0020 0.0006 20.0248 -0.0001 -1.5340
# 5 -1.5268 -1.7246 -11.3444 -0.0001 21.8686 -0.0009
# 6 -0.0017 0.0086 -0.0017 -1.5340 -0.0009 17.7512
#
#
#
# Elastic Compliance Matrix: (Units=1/GPa)
#
#
# Indices 1 2 3 4 5 6 
#
# 1 0.024698 -0.012077 -0.007294 -0.000001 -0.003012 0.000007
# 2 -0.012077 0.049846 -0.010050 0.000003 -0.002126 -0.000026
# 3 -0.007294 -0.010050 0.014501 -0.000001 0.006221 0.000006
# 4 -0.000001 0.000003 -0.000001 0.050271 0.000000 0.004344
# 5 -0.003012 -0.002126 0.006221 0.000000 0.048577 0.000004
# 6 0.000007 -0.000026 0.000006 0.004344 0.000004 0.056710
#
#
# Mechanical properties :
#
#
# Convention : Reuss Voigt Hill
#
# Bulk Modulus (GPa) = 33.10910 53.37820 43.24365
# Shear Modulus (GPa) = 15.94837 19.33941 17.64389
#
# Velocity S-wave (km/s) = 3.11876 3.43436 3.28036
# Velocity P-wave (km/s) = 5.75862 6.94846 6.38133
#
# Compressibility (1/GPa) = 0.03020318
#
# Stress axis : x y z
#
# Youngs Moduli (GPa) = 40.48869 20.06194 68.96083
#
# Poissons Ratio (x) = 0.24229 0.50299
# Poissons Ratio (y) = 0.48899 0.69304
# Poissons Ratio (z) = 0.29532 0.20162
#
# Static dielectric constant tensor:
#      x y z
#    x 3.149310 0.000000 -0.219280 
#    y 0.000000 2.873920 0.000000 
#    z -0.219280 0.000000 3.302430 
# 
# 
# High freq. dielectric constant tensor:
#      x y z
#    x 1.611630 0.000000 -0.020170 
#    y 0.000000 1.607090 0.000000 
#    z -0.020170 0.000000 1.637110 
# 
# From -- ./inp_files/319924.got.cif
#   From: 2010.06.25/outbox.cif.g09.slc.cpg/sg12_160_cif.got.tgz:319924.got - 2010.06.28 00:19:55.
