data_PCOD8094917
_publ_section_title
;
Structure prediction by ZEFSAII (Michael W. Deem and Ramdas Pophale) SiO2 
 PCOD8094917
Probable space group: C 2/M
;
_chemical_formula_sum "Si O2"
_cell_formula_units_Z 40
_cell_length_a 20.611190
_cell_length_b 12.476149
_cell_length_c 7.996836
_cell_angle_alpha 90.000000
_cell_angle_beta 101.249313
_cell_angle_gamma 90.000000
_cell_volume 2016.864790
_symmetry_space_group_name_H-M "C 2/M"
_symmetry_group_IT_number 12
_symmetry_cell_setting 'monoclinic'
loop_
_space_group_symop_operation_xyz
x,y,z
-x,y,-z
-x,-y,-z
x,-y,z
1/2+x,1/2+y,z
1/2-x,1/2+y,-z
1/2-x,1/2-y,-z
1/2+x,1/2-y,z
loop_
_atom_site_type_symbol
_atom_site_label
_atom_site_fract_x
_atom_site_fract_y
_atom_site_fract_z
Si Si1 0.692073 0.621721 0.043290
Si Si2 0.074079 0.500000 0.473680
Si Si3 0.575132 0.000000 0.080498
Si Si4 0.422976 0.765985 0.923538
Si Si5 0.856128 0.697930 0.560448
Si Si6 0.262705 0.698462 0.274508
O O1 0.685182 0.500000 0.102648
O O2 0.619956 0.678055 0.000408
O O3 0.739761 0.684670 0.194740
O O4 0.721751 0.620388 0.871243
O O5 0.079927 0.500000 0.279441
O O6 0.112010 0.608177 0.547078
O O7 0.000000 0.500000 0.500000
O O8 0.603106 0.885441 0.027510
O O9 0.500000 0.000000 0.000000
O O10 0.411071 0.754344 0.716522
O O11 0.500000 0.747201 0.000000
O O12 0.796095 0.648851 0.642767
O O13 0.827693 0.789072 0.423240
#
# Coordination Sequence:
#
# PCOD8094917 Si02
#       6
#     8   4   4   8   8   8
#     4  10  21  36  56  82 109 144 190 236 273 331
#     4  10  20  30  50  84 110 140 177 223 285 330
#     4   8  16  32  52  76 110 148 174 211 265 330
#     4   9  18  35  56  83 115 148 182 221 281 336
#     4   9  19  35  55  78 110 146 182 230 275 332
#     4   9  20  38  53  80 107 146 193 229 279 320
#
# _framework density 19.832761999999999
#
# number of rings (size 3 to 8) (size 9 to 14) (size 15 to 20)
#    0.000    2.800    0.000    0.000    2.800    5.200 
#   10.800    1.000    0.000    1.200    0.000    0.000 
#    0.000    0.000    0.000    0.000    0.000    0.000 
#
# Total GULP energy -247772.664937 kJ/mol
# GULP energy per Si atom -12388.633247 kJ/mol
# Density = 1.978762 g / cm^3
# Si number density = 19.832762 Si / 1000 Ang^3
#
#
#
# Elastic Constant Matrix: (Units=GPa)
#
#
# Indices 1 2 3 4 5 6 
#
# 1 96.8908 36.0250 31.1078 0.0000 10.3957 0.0000
# 2 36.0250 105.4143 7.6979 0.0000 -3.8270 0.0000
# 3 31.1078 7.6979 60.6999 0.0000 18.2439 0.0000
# 4 0.0000 0.0000 0.0000 13.0842 0.0000 -0.7946
# 5 10.3957 -3.8270 18.2439 0.0000 43.4279 0.0000
# 6 0.0000 0.0000 0.0000 -0.7946 0.0000 33.3215
#
#
#
# Elastic Compliance Matrix: (Units=1/GPa)
#
#
# Indices 1 2 3 4 5 6 
#
# 1 0.014111 -0.004399 -0.006343 0.000000 -0.001101 0.000000
# 2 -0.004399 0.011039 0.000281 0.000000 0.001908 0.000000
# 3 -0.006343 0.000281 0.022004 0.000000 -0.007701 0.000000
# 4 0.000000 0.000000 0.000000 0.076539 0.000000 0.001825
# 5 -0.001101 0.001908 -0.007701 0.000000 0.026693 0.000000
# 6 0.000000 0.000000 0.000000 0.001825 0.000000 0.030054
#
#
# Mechanical properties :
#
#
# Convention : Reuss Voigt Hill
#
# Bulk Modulus (GPa) = 38.12158 45.85181 41.98669
# Shear Modulus (GPa) = 23.79751 30.51168 27.15459
#
# Velocity S-wave (km/s) = 3.46773 3.92656 3.70426
# Velocity P-wave (km/s) = 5.94111 6.61261 6.28583
#
# Compressibility (1/GPa) = 0.02623186
#
# Stress axis : x y z
#
# Youngs Moduli (GPa) = 70.86584 90.59194 45.44631
#
# Poissons Ratio (x) = 0.39853 0.28826
# Poissons Ratio (y) = 0.31175 -0.01278
# Poissons Ratio (z) = 0.44950 -0.02548
#
# Static dielectric constant tensor:
#      x y z
#    x 3.534150 0.000000 0.167670 
#    y 0.000000 3.771660 0.000000 
#    z 0.167670 0.000000 3.632540 
# 
# 
# High freq. dielectric constant tensor:
#      x y z
#    x 1.764770 0.000000 0.016530 
#    y 0.000000 1.748190 0.000000 
#    z 0.016530 0.000000 1.770340 
# 
# From -- ./inp_files/83495.got.cif
#   From: 2010.06.25/outbox.cif.g09.slc.cpg/sg12_42_cif.got.tgz:83495.got - 2010.06.28 00:19:55.
