data_PCOD8094070
_publ_section_title
;
Structure prediction by ZEFSAII (Michael W. Deem and Ramdas Pophale) SiO2 
 PCOD8094070
Probable space group: C 2/M
;
_chemical_formula_sum "Si O2"
_cell_formula_units_Z 64
_cell_length_a 11.617714
_cell_length_b 17.459099
_cell_length_c 16.043220
_cell_angle_alpha 90.000000
_cell_angle_beta 91.329773
_cell_angle_gamma 90.000000
_cell_volume 3253.247239
_symmetry_space_group_name_H-M "C 2/M"
_symmetry_group_IT_number 12
_symmetry_cell_setting 'monoclinic'
loop_
_space_group_symop_operation_xyz
x,y,z
-x,y,-z
-x,-y,-z
x,-y,z
1/2+x,1/2+y,z
1/2-x,1/2+y,-z
1/2-x,1/2-y,-z
1/2+x,1/2-y,z
loop_
_atom_site_type_symbol
_atom_site_label
_atom_site_fract_x
_atom_site_fract_y
_atom_site_fract_z
Si Si1 0.645265 0.853511 0.713474
Si Si2 0.377923 0.410131 0.794559
Si Si3 0.574924 0.914609 0.221771
Si Si4 0.281104 0.820974 0.890528
Si Si5 0.246789 0.411253 0.367835
Si Si6 0.873684 0.836145 0.960761
Si Si7 0.399834 0.319080 0.259980
Si Si8 0.376993 0.089561 0.467484
O O1 0.767465 0.865682 0.758164
O O2 0.559792 0.911281 0.759160
O O3 0.586305 0.770678 0.723390
O O4 0.662169 0.867844 0.616068
O O5 0.382501 0.500000 0.768412
O O6 0.380617 0.405841 0.895383
O O7 0.482734 0.361359 0.760058
O O8 0.606988 0.866745 0.139522
O O9 0.639799 0.888231 0.307054
O O10 0.610249 0.000000 0.199033
O O11 0.325646 0.736450 0.909605
O O12 0.187874 0.827634 0.816873
O O13 0.219634 0.857981 0.970291
O O14 0.279298 0.500000 0.357219
O O15 0.354631 0.359697 0.343248
O O16 0.216617 0.392957 0.462879
O O17 0.000000 0.817991 0.000000
O O18 0.500000 0.120737 0.500000
O O19 0.386384 0.000000 0.447536
#
# Coordination Sequence:
#
# PCOD8094070 Si02
#       8
#     8   8   8   8   8   8   8   8
#     4  12  24  39  65  92 128 165 211 254 311 369
#     4  12  26  43  64  94 129 168 210 257 314 376
#     4  10  20  36  61  91 122 156 203 259 311 361
#     4  10  22  39  65  91 119 161 209 256 314 371
#     4   9  19  37  62  91 122 159 207 257 307 364
#     4  11  22  41  63  92 123 163 208 257 312 377
#     4  11  23  41  63  89 127 166 208 252 312 377
#     4  10  19  36  62  93 125 161 207 258 310 366
#
# _framework density 19.672650999999998
#
# number of rings (size 3 to 8) (size 9 to 14) (size 15 to 20)
#    0.000    1.375    3.750    2.250    1.750    1.750 
#    0.000    0.625    0.000    4.125    0.000    0.000 
#    0.000    0.000    0.000    0.000    0.000    0.000 
#
# Total GULP energy -396757.182469 kJ/mol
# GULP energy per Si atom -12398.661952 kJ/mol
# Density = 1.962788 g / cm^3
# Si number density = 19.672651 Si / 1000 Ang^3
#
#
#
# Elastic Constant Matrix: (Units=GPa)
#
#
# Indices 1 2 3 4 5 6 
#
# 1 103.5110 26.9469 48.8874 0.0000 -9.1361 0.0000
# 2 26.9469 82.4857 42.7443 0.0000 -14.1889 0.0000
# 3 48.8874 42.7443 117.4748 0.0000 -23.1742 0.0000
# 4 0.0000 0.0000 0.0000 28.6268 0.0000 -3.7897
# 5 -9.1361 -14.1889 -23.1742 0.0000 27.2885 0.0000
# 6 0.0000 0.0000 0.0000 -3.7897 0.0000 17.0935
#
#
#
# Elastic Compliance Matrix: (Units=1/GPa)
#
#
# Indices 1 2 3 4 5 6 
#
# 1 0.012219 -0.001733 -0.004595 0.000000 -0.000712 0.000000
# 2 -0.001733 0.015519 -0.004142 0.000000 0.003971 0.000000
# 3 -0.004595 -0.004142 0.013458 0.000000 0.007737 0.000000
# 4 0.000000 0.000000 0.000000 0.035989 0.000000 0.007979
# 5 -0.000712 0.003971 0.007737 0.000000 0.045042 0.000000
# 6 0.000000 0.000000 0.000000 0.007979 0.000000 0.060271
#
#
# Mechanical properties :
#
#
# Convention : Reuss Voigt Hill
#
# Bulk Modulus (GPa) = 49.36828 60.06985 54.71907
# Shear Modulus (GPa) = 23.78791 26.92794 25.35792
#
# Velocity S-wave (km/s) = 3.48111 3.70374 3.59415
# Velocity P-wave (km/s) = 6.42704 6.99223 6.71558
#
# Compressibility (1/GPa) = 0.02025592
#
# Stress axis : x y z
#
# Youngs Moduli (GPa) = 81.83762 64.43663 74.30505
#
# Poissons Ratio (x) = 0.11169 0.34143
# Poissons Ratio (y) = 0.14185 0.30777
# Poissons Ratio (z) = 0.37604 0.26690
#
# Static dielectric constant tensor:
#      x y z
#    x 3.590870 0.000000 -0.197620 
#    y 0.000000 3.502000 0.000000 
#    z -0.197620 0.000000 3.724090 
# 
# 
# High freq. dielectric constant tensor:
#      x y z
#    x 1.767410 0.000000 -0.015910 
#    y 0.000000 1.758440 0.000000 
#    z -0.015910 0.000000 1.772150 
# 
# From -- ./inp_files/206668.got.cif
#   From: 2010.06.25/outbox.cif.g09.slc.cpg/sg12_104_cif.got.tgz:206668.got - 2010.06.28 00:19:55.
