data_PCOD8094841
_publ_section_title
;
Structure prediction by ZEFSAII (Michael W. Deem and Ramdas Pophale) SiO2 
 PCOD8094841
Probable space group: C 2/M
;
_chemical_formula_sum "Si O2"
_cell_formula_units_Z 52
_cell_length_a 9.527175
_cell_length_b 29.955281
_cell_length_c 17.079538
_cell_angle_alpha 90.000000
_cell_angle_beta 148.326786
_cell_angle_gamma 90.000000
_cell_volume 2559.375674
_symmetry_space_group_name_H-M "C 2/M"
_symmetry_group_IT_number 12
_symmetry_cell_setting 'monoclinic'
loop_
_space_group_symop_operation_xyz
x,y,z
-x,y,-z
-x,-y,-z
x,-y,z
1/2+x,1/2+y,z
1/2-x,1/2+y,-z
1/2-x,1/2-y,-z
1/2+x,1/2-y,z
loop_
_atom_site_type_symbol
_atom_site_label
_atom_site_fract_x
_atom_site_fract_y
_atom_site_fract_z
Si Si1 0.243460 0.585968 0.931698
Si Si2 0.945957 0.500000 0.362579
Si Si3 0.708551 0.262574 0.891604
Si Si4 0.302112 0.170769 0.173393
Si Si5 0.985268 0.000000 0.311070
Si Si6 0.451820 0.573928 0.772811
Si Si7 0.912446 0.500000 0.745920
Si Si8 0.252811 0.833873 0.331850
O O1 0.077891 0.629061 0.819644
O O2 0.059209 0.543305 0.846888
O O3 0.500000 0.576248 0.000000
O O4 0.337217 0.594170 0.065124
O O5 0.766587 0.544115 0.284614
O O6 0.102059 0.500000 0.354012
O O7 0.190006 0.500000 0.540194
O O8 0.573940 0.219331 0.785333
O O9 0.502326 0.302270 0.779697
O O10 0.750000 0.250000 0.000000
O O11 0.000000 0.277354 0.000000
O O12 0.335100 0.160965 0.280386
O O13 0.000000 0.174453 0.000000
O O14 0.896838 0.955607 0.221291
O O15 0.875650 0.000000 0.347512
O O16 0.315554 0.616811 0.667485
O O17 0.500000 0.814830 0.500000
#
# Coordination Sequence:
#
# PCOD8094841 Si02
#       8
#     8   4   8   8   4   8   4   8
#     4  11  19  36  66  87 108 162 218 248 284 371
#     4  11  20  39  65  75 116 180 208 230 304 398
#     4  11  21  42  68  92 125 168 210 252 313 380
#     4  10  19  40  64  89 121 162 214 246 300 378
#     4  11  26  38  49  90 135 154 189 266 327 352
#     4  11  21  40  64  87 116 163 213 250 302 372
#     4  12  22  36  58  91 124 153 206 264 304 357
#     4  12  23  39  67  99 127 160 211 269 310 364
#
# _framework density 20.317454999999999
#
# number of rings (size 3 to 8) (size 9 to 14) (size 15 to 20)
#    0.000    0.923    7.692    3.231    0.000    1.846 
#    5.538    0.000    0.000    1.846    0.000    0.000 
#    0.000    0.000    0.000    0.000    0.000    0.000 
#
# Total GULP energy -322307.333801 kJ/mol
# GULP energy per Si atom -12396.435915 kJ/mol
# Density = 2.027121 g / cm^3
# Si number density = 20.317455 Si / 1000 Ang^3
#
#
#
# Elastic Constant Matrix: (Units=GPa)
#
#
# Indices 1 2 3 4 5 6 
#
# 1 86.1999 46.3527 20.3607 0.0000 -2.5089 0.0000
# 2 46.3527 165.0967 40.0120 0.0000 7.7870 0.0000
# 3 20.3607 40.0120 94.0987 0.0000 -5.2646 0.0000
# 4 0.0000 0.0000 0.0000 7.2968 0.0000 -21.6200
# 5 -2.5089 7.7870 -5.2646 0.0000 28.0885 0.0000
# 6 0.0000 0.0000 0.0000 -21.6200 0.0000 4.6340
#
#
#
# Elastic Compliance Matrix: (Units=1/GPa)
#
#
# Indices 1 2 3 4 5 6 
#
# 1 0.013960 -0.003690 -0.001339 0.000000 0.002019 0.000000
# 2 -0.003690 0.007898 -0.002729 0.000000 -0.003031 0.000000
# 3 -0.001339 -0.002729 0.012241 0.000000 0.002931 0.000000
# 4 0.000000 0.000000 0.000000 -0.010687 0.000000 -0.049860
# 5 0.002019 -0.003031 0.002931 0.000000 0.037172 0.000000
# 6 0.000000 0.000000 0.000000 -0.049860 0.000000 -0.016828
#
#
# Mechanical properties :
#
#
# Convention : Reuss Voigt Hill
#
# Bulk Modulus (GPa) = 53.81268 62.09402 57.95335
# Shear Modulus (GPa) = 76.37517 23.91518 50.14518
#
# Velocity S-wave (km/s) = 6.13779 3.43458 4.97337
# Velocity P-wave (km/s) = 8.76205 6.80857 7.84634
#
# Compressibility (1/GPa) = 0.01858298
#
# Stress axis : x y z
#
# Youngs Moduli (GPa) = 71.63167 126.62183 81.69100
#
# Poissons Ratio (x) = 0.46728 0.10935
# Poissons Ratio (y) = 0.26435 0.22295
# Poissons Ratio (z) = 0.09588 0.34557
#
# Static dielectric constant tensor:
#      x y z
#    x 3.715040 0.000000 0.003620 
#    y 0.000000 2.223770 0.000000 
#    z 0.003620 0.000000 3.815560 
# 
# 
# High freq. dielectric constant tensor:
#      x y z
#    x 1.773660 0.000000 -0.026670 
#    y 0.000000 1.811480 0.000000 
#    z -0.026670 0.000000 1.778630 
# 
# From -- ./inp_files/201400.got.cif
#   From: 2010.06.25/outbox.cif.g09.slc.cpg/sg12_101_cif.got.tgz:201400.got - 2010.06.28 00:19:55.
