data_PCOD8094242
_publ_section_title
;
Structure prediction by ZEFSAII (Michael W. Deem and Ramdas Pophale) SiO2 
 PCOD8094242
Probable space group: C 2/M
;
_chemical_formula_sum "Si O2"
_cell_formula_units_Z 64
_cell_length_a 11.477915
_cell_length_b 17.440352
_cell_length_c 28.906933
_cell_angle_alpha 90.000000
_cell_angle_beta 148.583382
_cell_angle_gamma 90.000000
_cell_volume 3016.284555
_symmetry_space_group_name_H-M "C 2/M"
_symmetry_group_IT_number 12
_symmetry_cell_setting 'monoclinic'
loop_
_space_group_symop_operation_xyz
x,y,z
-x,y,-z
-x,-y,-z
x,-y,z
1/2+x,1/2+y,z
1/2-x,1/2+y,-z
1/2-x,1/2-y,-z
1/2+x,1/2-y,z
loop_
_atom_site_type_symbol
_atom_site_label
_atom_site_fract_x
_atom_site_fract_y
_atom_site_fract_z
Si Si1 0.703162 0.590813 0.311768
Si Si2 0.454018 0.655119 0.646088
Si Si3 0.608114 0.177060 0.965241
Si Si4 0.462184 0.911064 0.726303
Si Si5 0.660763 0.673050 0.866854
Si Si6 0.560571 0.166265 0.371269
Si Si7 0.526194 0.838210 0.177125
Si Si8 0.056065 0.911680 0.451561
O O1 0.750136 0.500000 0.327135
O O2 0.672067 0.622101 0.352581
O O3 0.484545 0.607964 0.206861
O O4 0.912827 0.638766 0.364233
O O5 0.408363 0.743881 0.622026
O O6 0.715982 0.641004 0.740901
O O7 0.351989 0.609202 0.568128
O O8 0.362012 0.199178 0.901039
O O9 0.586938 0.131235 0.909223
O O10 0.750000 0.250000 0.000000
O O11 0.742189 0.135443 0.052472
O O12 0.563931 0.865954 0.717032
O O13 0.572446 0.883406 0.811941
O O14 0.202475 0.888291 0.636507
O O15 0.510237 0.000000 0.736417
O O16 0.509651 0.747505 0.826946
O O17 0.809277 0.132201 0.462683
O O18 0.091747 0.000000 0.474522
#
# Coordination Sequence:
#
# PCOD8094242 Si02
#       8
#     8   8   8   8   8   8   8   8
#     4  12  25  41  64  94 131 168 204 259 323 377
#     4  11  23  39  63  91 124 162 213 258 309 371
#     4   9  19  34  61  92 124 158 202 249 309 367
#     4  10  22  38  60  87 119 162 208 257 311 368
#     4  10  19  37  59  92 125 160 205 252 303 372
#     4  12  24  41  64  88 124 167 216 257 310 376
#     4  10  19  37  62  89 119 158 205 256 304 364
#     4  10  22  42  63  88 124 163 209 264 319 372
#
# _framework density 21.218157000000001
#
# number of rings (size 3 to 8) (size 9 to 14) (size 15 to 20)
#    0.000    1.500    2.500    3.000    1.750    2.000 
#    2.250    3.125    0.000    0.000    0.000    9.625 
#    0.000    0.000    0.000    0.000    0.000    0.000 
#
# Total GULP energy -396662.394061 kJ/mol
# GULP energy per Si atom -12395.699814 kJ/mol
# Density = 2.116986 g / cm^3
# Si number density = 21.218157 Si / 1000 Ang^3
#
#
#
# Elastic Constant Matrix: (Units=GPa)
#
#
# Indices 1 2 3 4 5 6 
#
# 1 86.3710 3.3050 7.0539 0.0000 -26.4245 0.0000
# 2 3.3050 52.1750 1.6841 0.0000 -2.7454 0.0000
# 3 7.0539 1.6841 58.0634 0.0004 -18.7191 0.0000
# 4 0.0000 0.0000 0.0004 15.0746 -0.0001 -4.4201
# 5 -26.4245 -2.7454 -18.7191 -0.0001 36.8016 0.0000
# 6 0.0000 0.0000 0.0000 -4.4201 0.0000 26.0786
#
#
#
# Elastic Compliance Matrix: (Units=1/GPa)
#
#
# Indices 1 2 3 4 5 6 
#
# 1 0.015033 -0.000397 0.001980 0.000000 0.011772 0.000000
# 2 -0.000397 0.019253 -0.000166 0.000000 0.001067 0.000000
# 3 0.001980 -0.000166 0.020862 -0.000001 0.012021 0.000000
# 4 0.000000 0.000000 -0.000001 0.069806 0.000000 0.011832
# 5 0.011772 0.001067 0.012021 0.000000 0.041819 0.000000
# 6 0.000000 0.000000 0.000000 0.011832 0.000000 0.040351
#
#
# Mechanical properties :
#
#
# Convention : Reuss Voigt Hill
#
# Bulk Modulus (GPa) = 17.24659 24.52172 20.88416
# Shear Modulus (GPa) = 22.35961 27.89537 25.12749
#
# Velocity S-wave (km/s) = 3.24974 3.62980 3.44502
# Velocity P-wave (km/s) = 4.71455 5.39901 5.06835
#
# Compressibility (1/GPa) = 0.05798247
#
# Stress axis : x y z
#
# Youngs Moduli (GPa) = 66.52098 51.94018 47.93344
#
# Poissons Ratio (x) = 0.02061 -0.09492
# Poissons Ratio (y) = 0.02639 0.00797
# Poissons Ratio (z) = -0.13173 0.00864
#
# Static dielectric constant tensor:
#      x y z
#    x 4.271610 0.000000 -0.389560 
#    y 0.000000 3.478880 0.000000 
#    z -0.389560 0.000000 4.157080 
# 
# 
# High freq. dielectric constant tensor:
#      x y z
#    x 1.853660 0.000000 -0.020140 
#    y 0.000000 1.800790 0.000000 
#    z -0.020140 0.000000 1.833980 
# 
# From -- ./inp_files/374474.got.cif
#   From: 2010.06.25/outbox.cif.g09.slc.cpg/sg12_188_cif.got.tgz:374474.got - 2010.06.28 00:19:55.
