data_PCOD8094790
_publ_section_title
;
Structure prediction by ZEFSAII (Michael W. Deem and Ramdas Pophale) SiO2 
 PCOD8094790
Probable space group: C 2/M
;
_chemical_formula_sum "Si O2"
_cell_formula_units_Z 48
_cell_length_a 11.556099
_cell_length_b 20.896235
_cell_length_c 11.417602
_cell_angle_alpha 90.000000
_cell_angle_beta 54.229189
_cell_angle_gamma 90.000000
_cell_volume 2237.014040
_symmetry_space_group_name_H-M "C 2/M"
_symmetry_group_IT_number 12
_symmetry_cell_setting 'monoclinic'
loop_
_space_group_symop_operation_xyz
x,y,z
-x,y,-z
-x,-y,-z
x,-y,z
1/2+x,1/2+y,z
1/2-x,1/2+y,-z
1/2-x,1/2-y,-z
1/2+x,1/2-y,z
loop_
_atom_site_type_symbol
_atom_site_label
_atom_site_fract_x
_atom_site_fract_y
_atom_site_fract_z
Si Si1 0.600428 0.828467 0.633189
Si Si2 0.878576 0.069871 0.982818
Si Si3 0.700795 0.704477 0.672485
Si Si4 0.278952 0.805105 0.885209
Si Si5 0.720653 0.428070 0.367161
Si Si6 0.999194 0.894788 0.682493
O O1 0.706468 0.778262 0.632628
O O2 0.654588 0.830085 0.464539
O O3 0.440859 0.805709 0.746409
O O4 0.630186 0.895650 0.681813
O O5 0.954131 0.059553 0.814320
O O6 0.813876 0.000000 0.057831
O O7 0.758505 0.124823 0.041739
O O8 0.000000 0.092555 0.000000
O O9 0.687669 0.703602 0.820893
O O10 0.559003 0.672084 0.699524
O O11 0.250000 0.750000 0.000000
O O12 0.751348 0.500000 0.303404
O O13 0.620104 0.432212 0.540169
O O14 0.640936 0.384846 0.316153
#
# Coordination Sequence:
#
# PCOD8094790 Si02
#       6
#     8   8   8   8   8   8
#     4  10  24  40  65  91 124 166 203 268 316 372
#     4  11  23  40  63  91 127 166 207 257 312 374
#     4  10  22  43  64  92 123 161 217 261 314 367
#     4  12  26  42  65  91 129 168 211 260 316 386
#     4  10  21  38  66  96 126 164 210 259 312 371
#     4  10  19  39  65  92 125 161 213 261 300 365
#
# _framework density 21.457176
#
# number of rings (size 3 to 8) (size 9 to 14) (size 15 to 20)
#    0.000    1.500    1.667    3.500    4.667    0.667 
#    0.000    0.000    0.000    5.000    0.000    0.000 
#    0.000    0.000    0.000    0.000    0.000    0.000 
#
# Total GULP energy -297382.596938 kJ/mol
# GULP energy per Si atom -12390.941539 kJ/mol
# Density = 2.140834 g / cm^3
# Si number density = 21.457176 Si / 1000 Ang^3
#
#
#
# Elastic Constant Matrix: (Units=GPa)
#
#
# Indices 1 2 3 4 5 6 
#
# 1 70.4870 41.5362 40.7078 0.0000 19.0968 0.0000
# 2 41.5362 123.6583 33.3171 0.0000 4.1326 0.0000
# 3 40.7078 33.3171 95.8644 0.0000 20.2045 0.0000
# 4 0.0000 0.0000 0.0000 24.8776 0.0000 4.0349
# 5 19.0968 4.1326 20.2045 0.0000 33.9398 0.0000
# 6 0.0000 0.0000 0.0000 4.0349 0.0000 73.0942
#
#
#
# Elastic Compliance Matrix: (Units=1/GPa)
#
#
# Indices 1 2 3 4 5 6 
#
# 1 0.023667 -0.006015 -0.006069 0.000000 -0.008971 0.000000
# 2 -0.006015 0.010473 -0.001750 0.000000 0.003151 0.000000
# 3 -0.006069 -0.001750 0.014696 0.000000 -0.005121 0.000000
# 4 0.000000 0.000000 0.000000 0.040560 0.000000 -0.002239
# 5 -0.008971 0.003151 -0.005121 0.000000 0.037177 0.000000
# 6 0.000000 0.000000 0.000000 -0.002239 0.000000 0.013805
#
#
# Mechanical properties :
#
#
# Convention : Reuss Voigt Hill
#
# Bulk Modulus (GPa) = 47.23803 57.90352 52.57078
# Shear Modulus (GPa) = 28.55519 38.01223 33.28371
#
# Velocity S-wave (km/s) = 3.65197 4.21353 3.94276
# Velocity P-wave (km/s) = 6.31232 7.12152 6.72909
#
# Compressibility (1/GPa) = 0.02116938
#
# Stress axis : x y z
#
# Youngs Moduli (GPa) = 42.25359 95.48114 68.04658
#
# Poissons Ratio (x) = 0.57428 0.41295
# Poissons Ratio (y) = 0.25414 0.11908
# Poissons Ratio (z) = 0.25642 0.16709
#
# Static dielectric constant tensor:
#      x y z
#    x 3.735730 0.000000 0.267170 
#    y 0.000000 3.791850 0.000000 
#    z 0.267170 0.000000 3.972010 
# 
# 
# High freq. dielectric constant tensor:
#      x y z
#    x 1.824590 0.000000 0.018840 
#    y 0.000000 1.841500 0.000000 
#    z 0.018840 0.000000 1.838400 
# 
# From -- ./inp_files/135207.got.cif
#   From: 2010.06.25/outbox.cif.g09.slc.cpg/sg12_68_cif.got.tgz:135207.got - 2010.06.28 00:19:55.
