data_PCOD8094367
_publ_section_title
;
Structure prediction by ZEFSAII (Michael W. Deem and Ramdas Pophale) SiO2 
 PCOD8094367
Probable space group: C 2/M
;
_chemical_formula_sum "Si O2"
_cell_formula_units_Z 56
_cell_length_a 17.367704
_cell_length_b 23.565090
_cell_length_c 8.790648
_cell_angle_alpha 90.000000
_cell_angle_beta 52.912840
_cell_angle_gamma 90.000000
_cell_volume 2870.003231
_symmetry_space_group_name_H-M "C 2/M"
_symmetry_group_IT_number 12
_symmetry_cell_setting 'monoclinic'
loop_
_space_group_symop_operation_xyz
x,y,z
-x,y,-z
-x,-y,-z
x,-y,z
1/2+x,1/2+y,z
1/2-x,1/2+y,-z
1/2-x,1/2-y,-z
1/2+x,1/2-y,z
loop_
_atom_site_type_symbol
_atom_site_label
_atom_site_fract_x
_atom_site_fract_y
_atom_site_fract_z
Si Si1 0.107027 0.894771 0.442243
Si Si2 0.413243 0.267583 0.484833
Si Si3 0.312193 0.795945 0.849864
Si Si4 0.500643 0.822133 0.179235
Si Si5 0.131334 0.000000 0.968391
Si Si6 0.081812 0.000000 0.679277
Si Si7 0.973289 0.436186 0.707510
Si Si8 0.750167 0.910334 0.007547
O O1 0.121486 0.832365 0.503536
O O2 0.192712 0.905545 0.219861
O O3 0.000000 0.899869 0.500000
O O4 0.120098 0.943327 0.552279
O O5 0.500000 0.271508 0.500000
O O6 0.335483 0.227253 0.656180
O O7 0.435839 0.232141 0.305329
O O8 0.397387 0.812129 0.863329
O O9 0.250000 0.750000 0.000000
O O10 0.247360 0.851013 0.907656
O O11 0.469214 0.886071 0.270254
O O12 0.500000 0.821430 0.000000
O O13 0.120557 0.000000 0.802336
O O14 0.191578 0.054023 0.941784
O O15 0.033445 0.000000 0.181360
O O16 0.008360 0.500000 0.712945
O O17 0.000000 0.425314 0.500000
O O18 0.858863 0.433468 0.881593
#
# Coordination Sequence:
#
# PCOD8094367 Si02
#       8
#     8   8   8   8   4   4   8   8
#     4  11  20  36  61  89 115 158 200 239 295 359
#     4   9  19  37  60  86 115 155 198 240 288 361
#     4  10  19  37  62  85 112 154 204 240 286 357
#     4  10  21  38  58  87 124 153 190 251 306 347
#     4  11  23  40  56  89 121 161 195 248 301 351
#     4  11  24  39  56  86 130 156 193 245 309 354
#     4  10  21  39  67  89 111 158 210 247 296 358
#     4  11  20  37  66  87 114 155 205 247 286 357
#
# _framework density 19.512174000000002
#
# number of rings (size 3 to 8) (size 9 to 14) (size 15 to 20)
#    0.000    1.714    3.571    2.786    0.000    0.286 
#    5.143    6.429    0.000    0.000    0.000    0.000 
#    0.000    0.000    0.000    0.000    0.000    0.000 
#
# Total GULP energy -346869.662143 kJ/mol
# GULP energy per Si atom -12388.202219 kJ/mol
# Density = 1.946776 g / cm^3
# Si number density = 19.512174 Si / 1000 Ang^3
#
#
#
# Elastic Constant Matrix: (Units=GPa)
#
#
# Indices 1 2 3 4 5 6 
#
# 1 26.9202 30.6442 27.6231 0.0000 0.4257 0.0000
# 2 30.6442 198.7405 73.7203 0.0000 12.7922 0.0000
# 3 27.6231 73.7203 143.8572 0.0000 1.0593 0.0000
# 4 0.0000 0.0000 0.0000 42.9181 0.0000 -9.3542
# 5 0.4257 12.7922 1.0593 0.0000 24.8170 0.0000
# 6 0.0000 0.0000 0.0000 -9.3542 0.0000 20.2942
#
#
#
# Elastic Compliance Matrix: (Units=1/GPa)
#
#
# Indices 1 2 3 4 5 6 
#
# 1 0.050296 -0.005318 -0.006949 0.000000 0.002175 0.000000
# 2 -0.005318 0.007017 -0.002550 0.000000 -0.003417 0.000000
# 3 -0.006949 -0.002550 0.009585 0.000000 0.001024 0.000000
# 4 0.000000 0.000000 0.000000 0.025902 0.000000 0.011939
# 5 0.002175 -0.003417 0.001024 0.000000 0.041975 0.000000
# 6 0.000000 0.000000 0.000000 0.011939 0.000000 0.054778
#
#
# Mechanical properties :
#
#
# Convention : Reuss Voigt Hill
#
# Bulk Modulus (GPa) = 26.83442 70.38813 48.61127
# Shear Modulus (GPa) = 21.58820 33.44122 27.51471
#
# Velocity S-wave (km/s) = 3.32986 4.14438 3.75924
# Velocity P-wave (km/s) = 5.34476 7.68462 6.61891
#
# Compressibility (1/GPa) = 0.03726558
#
# Stress axis : x y z
#
# Youngs Moduli (GPa) = 19.88241 142.50248 104.33259
#
# Poissons Ratio (x) = 0.75778 0.72496
# Poissons Ratio (y) = 0.10573 0.26603
# Poissons Ratio (z) = 0.13815 0.36336
#
# Static dielectric constant tensor:
#      x y z
#    x 3.120630 0.000000 -0.248770 
#    y 0.000000 3.543840 0.000000 
#    z -0.248770 0.000000 3.684470 
# 
# 
# High freq. dielectric constant tensor:
#      x y z
#    x 1.710070 0.000000 -0.013860 
#    y 0.000000 1.795290 0.000000 
#    z -0.013860 0.000000 1.772060 
# 
# From -- ./inp_files/90353.got.cif
#   From: 2010.06.25/outbox.cif.g09.slc.cpg/sg12_46_cif.got.tgz:90353.got - 2010.06.28 00:19:55.
