data_PCOD8094094
_publ_section_title
;
Structure prediction by ZEFSAII (Michael W. Deem and Ramdas Pophale) SiO2 
 PCOD8094094
Probable space group: C 2/M
;
_chemical_formula_sum "Si O2"
_cell_formula_units_Z 64
_cell_length_a 19.230210
_cell_length_b 8.747560
_cell_length_c 31.056503
_cell_angle_alpha 90.000000
_cell_angle_beta 142.711903
_cell_angle_gamma 90.000000
_cell_volume 3164.968264
_symmetry_space_group_name_H-M "C 2/M"
_symmetry_group_IT_number 12
_symmetry_cell_setting 'monoclinic'
loop_
_space_group_symop_operation_xyz
x,y,z
-x,y,-z
-x,-y,-z
x,-y,z
1/2+x,1/2+y,z
1/2-x,1/2+y,-z
1/2-x,1/2-y,-z
1/2+x,1/2-y,z
loop_
_atom_site_type_symbol
_atom_site_label
_atom_site_fract_x
_atom_site_fract_y
_atom_site_fract_z
Si Si1 0.738508 0.674289 0.370479
Si Si2 0.935303 0.318411 0.010829
Si Si3 0.273792 0.822318 0.722823
Si Si4 0.334061 0.178709 0.506945
Si Si5 0.676267 0.318526 0.885518
Si Si6 0.499619 0.319615 0.130541
Si Si7 0.067493 0.322673 0.665663
Si Si8 0.021753 0.825377 0.731442
O O1 0.776505 0.500000 0.379827
O O2 0.774381 0.778477 0.347911
O O3 0.804648 0.740438 0.444801
O O4 0.602936 0.684939 0.309535
O O5 0.934877 0.500000 0.011083
O O6 0.002596 0.259851 0.085627
O O7 0.805459 0.252912 0.948209
O O8 0.000000 0.257606 0.000000
O O9 0.386325 0.723776 0.787686
O O10 0.176590 0.781873 0.709500
O O11 0.304052 0.000000 0.740690
O O12 0.250000 0.250000 0.500000
O O13 0.465270 0.218714 0.582369
O O14 0.309319 0.000000 0.496173
O O15 0.675884 0.500000 0.885460
O O16 0.609948 0.260688 0.895666
O O17 0.611719 0.261955 0.810858
O O18 0.495521 0.500000 0.122102
O O19 0.101161 0.500000 0.678691
O O20 0.026451 0.286312 0.693374
O O21 0.049558 0.000000 0.731466
#
# Coordination Sequence:
#
# PCOD8094094 Si02
#       8
#     8   8   8   8   8   8   8   8
#     4  10  20  39  64  89 121 161 204 255 309 362
#     4  10  22  39  60  91 128 163 201 245 297 360
#     4  12  26  42  62  89 121 160 206 258 315 371
#     4  10  21  37  61  90 123 163 205 252 306 364
#     4   9  19  37  61  88 121 163 202 243 297 355
#     4  11  22  41  65  88 120 161 205 253 304 361
#     4  11  24  40  59  90 127 162 203 254 310 367
#     4  10  19  36  63  90 121 163 208 250 302 362
#
# _framework density 20.221371000000001
#
# number of rings (size 3 to 8) (size 9 to 14) (size 15 to 20)
#    0.000    1.625    2.500    2.250    1.750    2.250 
#    0.000    3.750    0.000    0.000    0.000    0.000 
#    0.000    0.000    0.000    0.000    0.000    0.000 
#
# Total GULP energy -396925.912445 kJ/mol
# GULP energy per Si atom -12403.934764 kJ/mol
# Density = 2.017535 g / cm^3
# Si number density = 20.221371 Si / 1000 Ang^3
#
#
#
# Elastic Constant Matrix: (Units=GPa)
#
#
# Indices 1 2 3 4 5 6 
#
# 1 90.7247 26.3080 33.5858 0.0000 -5.1238 0.0000
# 2 26.3080 29.0673 18.9857 0.0001 0.6034 -0.0004
# 3 33.5858 18.9857 97.2688 0.0000 -15.1061 0.0000
# 4 0.0000 0.0001 0.0000 27.9595 0.0000 -6.5235
# 5 -5.1238 0.6034 -15.1061 0.0000 37.7698 0.0000
# 6 0.0000 -0.0004 0.0000 -6.5235 0.0000 26.5746
#
#
#
# Elastic Compliance Matrix: (Units=1/GPa)
#
#
# Indices 1 2 3 4 5 6 
#
# 1 0.015738 -0.012426 -0.002822 0.000000 0.001205 0.000000
# 2 -0.012426 0.049803 -0.006201 0.000000 -0.004961 0.000001
# 3 -0.002822 -0.006201 0.013244 0.000000 0.005013 0.000000
# 4 0.000000 0.000000 0.000000 0.037939 0.000000 0.009313
# 5 0.001205 -0.004961 0.005013 0.000000 0.028724 0.000000
# 6 0.000000 0.000001 0.000000 0.009313 0.000000 0.039916
#
#
# Mechanical properties :
#
#
# Convention : Reuss Voigt Hill
#
# Bulk Modulus (GPa) = 27.86484 41.64664 34.75574
# Shear Modulus (GPa) = 20.81394 27.67288 24.24341
#
# Velocity S-wave (km/s) = 3.21176 3.70333 3.46627
# Velocity P-wave (km/s) = 5.25011 6.23909 5.76585
#
# Compressibility (1/GPa) = 0.03588752
#
# Stress axis : x y z
#
# Youngs Moduli (GPa) = 63.53931 20.07929 75.50623
#
# Poissons Ratio (x) = 0.24951 0.21305
# Poissons Ratio (y) = 0.78956 0.46819
# Poissons Ratio (z) = 0.17929 0.12451
#
# Static dielectric constant tensor:
#      x y z
#    x 3.794800 0.000000 0.059810 
#    y 0.000000 3.412520 0.000000 
#    z 0.059810 0.000000 3.919140 
# 
# 
# High freq. dielectric constant tensor:
#      x y z
#    x 1.795460 0.000000 -0.005350 
#    y 0.000000 1.767050 0.000000 
#    z -0.005350 0.000000 1.801690 
# 
# From -- ./inp_files/378038.got.cif
#   From: 2010.06.25/outbox.cif.g09.slc.cpg/sg12_190_cif.got.tgz:378038.got - 2010.06.28 00:19:55.
