data_PCOD8094643
_publ_section_title
;
Structure prediction by ZEFSAII (Michael W. Deem and Ramdas Pophale) SiO2 
 PCOD8094643
Probable space group: C 2/M
;
_chemical_formula_sum "Si O2"
_cell_formula_units_Z 56
_cell_length_a 17.456308
_cell_length_b 13.342694
_cell_length_c 15.535480
_cell_angle_alpha 90.000000
_cell_angle_beta 131.782330
_cell_angle_gamma 90.000000
_cell_volume 2698.199019
_symmetry_space_group_name_H-M "C 2/M"
_symmetry_group_IT_number 12
_symmetry_cell_setting 'monoclinic'
loop_
_space_group_symop_operation_xyz
x,y,z
-x,y,-z
-x,-y,-z
x,-y,z
1/2+x,1/2+y,z
1/2-x,1/2+y,-z
1/2-x,1/2-y,-z
1/2+x,1/2-y,z
loop_
_atom_site_type_symbol
_atom_site_label
_atom_site_fract_x
_atom_site_fract_y
_atom_site_fract_z
Si Si1 0.488155 0.889900 0.355646
Si Si2 0.509101 0.112563 0.175367
Si Si3 0.384286 0.696738 0.095161
Si Si4 0.722721 0.199456 0.839792
Si Si5 0.088762 0.887027 0.306033
Si Si6 0.077036 0.808578 0.487353
Si Si7 0.297413 0.226875 0.717945
O O1 0.535146 0.881046 0.295817
O O2 0.364772 0.876739 0.257531
O O3 0.545037 0.808457 0.456816
O O4 0.510321 0.000000 0.411214
O O5 0.418864 0.192107 0.086775
O O6 0.615415 0.142090 0.209245
O O7 0.475622 0.000000 0.122481
O O8 0.331827 0.708316 0.150101
O O9 0.481771 0.624405 0.174725
O O10 0.303856 0.649222 0.967200
O O11 0.786709 0.233214 0.805872
O O12 0.067063 0.863258 0.389183
O O13 0.173008 0.814435 0.327270
O O14 0.128994 0.000000 0.326533
O O15 0.192067 0.821744 0.607024
O O16 0.000000 0.858152 0.500000
#
# Coordination Sequence:
#
# PCOD8094643 Si02
#       7
#     8   8   8   8   8   8   8
#     4  10  20  37  61  87 114 151 198 243 291 349
#     4   9  19  37  60  87 116 152 197 239 290 349
#     4   9  19  40  64  85 118 159 195 248 293 351
#     4  10  19  38  63  87 120 154 196 242 302 347
#     4  11  24  40  58  87 120 159 201 241 300 367
#     4  12  22  42  62  83 120 156 201 250 299 347
#     4  11  22  38  60  87 121 156 191 250 303 354
#
# _framework density 20.754584000000001
#
# number of rings (size 3 to 8) (size 9 to 14) (size 15 to 20)
#    0.000    1.714    5.714    0.429    0.000    5.143 
#    0.000    6.429    0.000    0.000    0.000    0.000 
#    0.000    0.000    0.000    0.000    0.000    0.000 
#
# Total GULP energy -347126.466332 kJ/mol
# GULP energy per Si atom -12397.373798 kJ/mol
# Density = 2.070735 g / cm^3
# Si number density = 20.754584 Si / 1000 Ang^3
#
#
#
# Elastic Constant Matrix: (Units=GPa)
#
#
# Indices 1 2 3 4 5 6 
#
# 1 133.6290 12.7973 19.0868 0.0000 -5.1996 0.0000
# 2 12.7973 71.4935 -6.2926 0.0000 -6.6604 0.0000
# 3 19.0868 -6.2926 51.8236 0.0000 1.8121 0.0000
# 4 0.0000 0.0000 0.0000 15.1441 0.0000 3.6871
# 5 -5.1996 -6.6604 1.8121 0.0000 31.5052 0.0000
# 6 0.0000 0.0000 0.0000 3.6871 0.0000 13.8561
#
#
#
# Elastic Compliance Matrix: (Units=1/GPa)
#
#
# Indices 1 2 3 4 5 6 
#
# 1 0.008149 -0.001633 -0.003241 0.000000 0.001186 0.000000
# 2 -0.001633 0.014735 0.002296 0.000000 0.002713 0.000000
# 3 -0.003241 0.002296 0.020812 0.000000 -0.001247 0.000000
# 4 0.000000 0.000000 0.000000 0.070607 0.000000 -0.018788
# 5 0.001186 0.002713 -0.001247 0.000000 0.032582 0.000000
# 6 0.000000 0.000000 0.000000 -0.018788 0.000000 0.077170
#
#
# Mechanical properties :
#
#
# Convention : Reuss Voigt Hill
#
# Bulk Modulus (GPa) = 25.94817 34.23656 30.09237
# Shear Modulus (GPa) = 20.65623 27.52471 24.09047
#
# Velocity S-wave (km/s) = 3.15820 3.64565 3.41065
# Velocity P-wave (km/s) = 5.08217 5.85259 5.48093
#
# Compressibility (1/GPa) = 0.03853836
#
# Stress axis : x y z
#
# Youngs Moduli (GPa) = 122.71561 67.86789 48.04858
#
# Poissons Ratio (x) = 0.11086 0.15573
# Poissons Ratio (y) = 0.20045 -0.11031
# Poissons Ratio (z) = 0.39773 -0.15581
#
# Static dielectric constant tensor:
#      x y z
#    x 3.941940 0.000000 0.025970 
#    y 0.000000 3.616000 0.000000 
#    z 0.025970 0.000000 3.636560 
# 
# 
# High freq. dielectric constant tensor:
#      x y z
#    x 1.826840 0.000000 0.002360 
#    y 0.000000 1.778740 0.000000 
#    z 0.002360 0.000000 1.806440 
# 
# From -- ./inp_files/225410.got.cif
#   From: 2010.06.25/outbox.cif.g09.slc.cpg/sg12_113_cif.got.tgz:225410.got - 2010.06.28 00:19:55.
