data_PCOD8094881
_publ_section_title
;
Structure prediction by ZEFSAII (Michael W. Deem and Ramdas Pophale) SiO2 
 PCOD8094881
Probable space group: C 2/M
;
_chemical_formula_sum "Si O2"
_cell_formula_units_Z 48
_cell_length_a 8.452570
_cell_length_b 23.639061
_cell_length_c 13.390346
_cell_angle_alpha 90.000000
_cell_angle_beta 111.934323
_cell_angle_gamma 90.000000
_cell_volume 2481.861024
_symmetry_space_group_name_H-M "C 2/M"
_symmetry_group_IT_number 12
_symmetry_cell_setting 'monoclinic'
loop_
_space_group_symop_operation_xyz
x,y,z
-x,y,-z
-x,-y,-z
x,-y,z
1/2+x,1/2+y,z
1/2-x,1/2+y,-z
1/2-x,1/2-y,-z
1/2+x,1/2-y,z
loop_
_atom_site_type_symbol
_atom_site_label
_atom_site_fract_x
_atom_site_fract_y
_atom_site_fract_z
Si Si1 0.781581 0.000000 0.564659
Si Si2 0.565736 0.881349 0.311690
Si Si3 0.996147 0.500000 0.334655
Si Si4 0.729799 0.797721 0.216999
Si Si5 0.077474 0.777316 0.923401
Si Si6 0.853977 0.700010 0.383103
Si Si7 0.650405 0.380068 0.463798
O O1 0.896525 0.057579 0.592446
O O2 0.667966 0.000000 0.439021
O O3 0.670437 0.000000 0.637387
O O4 0.492076 0.943237 0.265495
O O5 0.682281 0.859173 0.248844
O O6 0.416277 0.836920 0.302863
O O7 0.671363 0.887911 0.438087
O O8 0.877480 0.810025 0.168781
O O9 0.560976 0.771091 0.130062
O O10 0.795671 0.760051 0.325365
O O11 0.250000 0.750000 0.000000
O O12 0.000000 0.813802 0.000000
O O13 0.687656 0.668082 0.389623
O O14 0.000000 0.711295 0.500000
O O15 0.500000 0.358358 0.500000
#
# Coordination Sequence:
#
# PCOD8094881 Si02
#       7
#     4   8   4   8   8   8   8
#     4   9  15  30  50  62  94 145 200 236 246 280
#     4  10  20  33  51  74 105 150 182 219 258 317
#     4   9  16  32  52  68  96 146 193 222 252 302
#     4  11  20  35  55  80 114 137 175 221 272 328
#     4   9  20  37  57  79 104 133 175 225 279 325
#     4  10  21  34  48  76 116 157 179 203 264 330
#     4  10  20  29  46  72 106 145 191 224 258 296
#
# _framework density 19.340325
#
# number of rings (size 3 to 8) (size 9 to 14) (size 15 to 20)
#    0.000    2.167    3.333    0.250    2.333    3.333 
#    0.000    0.000    0.000    0.000    0.000    5.833 
#    0.000    0.167    0.000    0.000    0.000    0.000 
#
# Total GULP energy -297346.178225 kJ/mol
# GULP energy per Si atom -12389.424093 kJ/mol
# Density = 1.929631 g / cm^3
# Si number density = 19.340325 Si / 1000 Ang^3
#
#
#
# Elastic Constant Matrix: (Units=GPa)
#
#
# Indices 1 2 3 4 5 6 
#
# 1 95.0339 40.8023 29.2729 0.0000 -32.9510 0.0000
# 2 40.8023 89.9840 32.1396 0.0000 -25.6616 0.0000
# 3 29.2729 32.1396 59.6396 0.0000 -15.8239 0.0000
# 4 0.0000 0.0000 0.0000 5.1814 0.0000 -3.0760
# 5 -32.9510 -25.6616 -15.8239 0.0000 45.4252 0.0000
# 6 0.0000 0.0000 0.0000 -3.0760 0.0000 23.7516
#
#
#
# Elastic Compliance Matrix: (Units=1/GPa)
#
#
# Indices 1 2 3 4 5 6 
#
# 1 0.016117 -0.003580 -0.003764 0.000000 0.008357 0.000000
# 2 -0.003580 0.016053 -0.005703 0.000000 0.004484 0.000000
# 3 -0.003764 -0.005703 0.022157 0.000000 0.001766 0.000000
# 4 0.000000 0.000000 0.000000 0.209071 0.000000 0.027076
# 5 0.008357 0.004484 0.001766 0.000000 0.031225 0.000000
# 6 0.000000 0.000000 0.000000 0.027076 0.000000 0.045609
#
#
# Mechanical properties :
#
#
# Convention : Reuss Voigt Hill
#
# Bulk Modulus (GPa) = 35.42197 49.89858 42.66027
# Shear Modulus (GPa) = 13.30719 24.36784 18.83751
#
# Velocity S-wave (km/s) = 2.62592 3.55343 3.12429
# Velocity P-wave (km/s) = 5.24870 6.53392 5.92625
#
# Compressibility (1/GPa) = 0.02823107
#
# Stress axis : x y z
#
# Youngs Moduli (GPa) = 62.04699 62.29542 45.13260
#
# Poissons Ratio (x) = 0.22304 0.16987
# Poissons Ratio (y) = 0.22215 0.25741
# Poissons Ratio (z) = 0.23353 0.35530
#
# Static dielectric constant tensor:
#      x y z
#    x 3.857480 0.000000 -0.362240 
#    y 0.000000 3.640950 0.000000 
#    z -0.362240 0.000000 3.469950 
# 
# 
# High freq. dielectric constant tensor:
#      x y z
#    x 1.772180 0.000000 -0.017170 
#    y 0.000000 1.731370 0.000000 
#    z -0.017170 0.000000 1.705980 
# 
# From -- ./inp_files/196941.got.cif
#   From: 2010.06.25/outbox.cif.g09.slc.cpg/sg12_99_cif.got.tgz:196941.got - 2010.06.28 00:19:55.
