data_PCOD8094035
_publ_section_title
;
Structure prediction by ZEFSAII (Michael W. Deem and Ramdas Pophale) SiO2 
 PCOD8094035
Probable space group: C 2/M
;
_chemical_formula_sum "Si O2"
_cell_formula_units_Z 56
_cell_length_a 30.020818
_cell_length_b 9.455460
_cell_length_c 12.434143
_cell_angle_alpha 90.000000
_cell_angle_beta 53.367403
_cell_angle_gamma 90.000000
_cell_volume 2832.397816
_symmetry_space_group_name_H-M "C 2/M"
_symmetry_group_IT_number 12
_symmetry_cell_setting 'monoclinic'
loop_
_space_group_symop_operation_xyz
x,y,z
-x,y,-z
-x,-y,-z
x,-y,z
1/2+x,1/2+y,z
1/2-x,1/2+y,-z
1/2-x,1/2-y,-z
1/2+x,1/2-y,z
loop_
_atom_site_type_symbol
_atom_site_label
_atom_site_fract_x
_atom_site_fract_y
_atom_site_fract_z
Si Si1 0.555564 0.349032 0.476035
Si Si2 0.791402 0.334973 0.680630
Si Si3 0.860522 0.339770 0.374821
Si Si4 0.327126 0.330579 0.221698
Si Si5 0.602876 0.836642 0.044410
Si Si6 0.022382 0.341333 0.717514
Si Si7 0.636557 0.836049 0.231468
O O1 0.500000 0.392698 0.500000
O O2 0.586978 0.500000 0.453656
O O3 0.543049 0.270227 0.603004
O O4 0.585253 0.250020 0.348417
O O5 0.782221 0.500000 0.692927
O O6 0.839286 0.293722 0.525221
O O7 0.731694 0.269906 0.737063
O O8 0.809721 0.287030 0.775346
O O9 0.839617 0.500000 0.380344
O O10 0.833814 0.228734 0.331851
O O11 0.927726 0.336793 0.266858
O O12 0.331463 0.500000 0.217193
O O13 0.375295 0.267320 0.078156
O O14 0.537660 0.799195 0.149787
O O15 0.639412 0.807146 0.099715
O O16 0.609868 0.000000 0.999183
O O17 0.018198 0.500000 0.674193
O O18 0.624372 0.000000 0.271171
#
# Coordination Sequence:
#
# PCOD8094035 Si02
#       7
#     8   8   8   8   8   8   8
#     4  11  21  31  50  86 126 153 178 226 291 348
#     4   9  19  37  62  89 112 144 191 243 289 332
#     4  10  20  38  64  87 110 142 193 250 287 329
#     4  11  24  40  57  80 118 158 191 234 291 345
#     4  10  22  38  59  86 114 151 196 234 275 340
#     4  10  20  36  61  87 111 148 194 239 281 332
#     4  10  19  36  62  86 112 148 196 238 276 335
#
# _framework density 19.771234
#
# number of rings (size 3 to 8) (size 9 to 14) (size 15 to 20)
#    0.000    1.857    2.857    1.286    0.000    3.429 
#    0.000    5.000    0.000    0.000    0.000    0.000 
#    0.000    0.000    0.000    0.000    0.000    0.000 
#
# Total GULP energy -346953.543391 kJ/mol
# GULP energy per Si atom -12391.197978 kJ/mol
# Density = 1.972623 g / cm^3
# Si number density = 19.771234 Si / 1000 Ang^3
#
#
#
# Elastic Constant Matrix: (Units=GPa)
#
#
# Indices 1 2 3 4 5 6 
#
# 1 84.0267 9.4030 7.3036 0.0000 -5.7503 0.0000
# 2 9.4030 62.1379 18.9126 0.0000 2.1354 0.0000
# 3 7.3036 18.9126 51.4269 0.0000 -3.5940 0.0000
# 4 0.0000 0.0000 0.0000 15.2540 0.0000 3.6172
# 5 -5.7503 2.1354 -3.5940 0.0000 24.3743 0.0000
# 6 0.0000 0.0000 0.0000 3.6172 0.0000 25.5561
#
#
#
# Elastic Compliance Matrix: (Units=1/GPa)
#
#
# Indices 1 2 3 4 5 6 
#
# 1 0.012371 -0.001689 -0.000931 0.000000 0.002929 0.000000
# 2 -0.001689 0.018517 -0.006781 0.000000 -0.003021 0.000000
# 3 -0.000931 -0.006781 0.022327 0.000000 0.003667 0.000000
# 4 0.000000 0.000000 0.000000 0.067833 0.000000 -0.009601
# 5 0.002929 -0.003021 0.003667 0.000000 0.042523 0.000000
# 6 0.000000 0.000000 0.000000 -0.009601 0.000000 0.040489
#
#
# Mechanical properties :
#
#
# Convention : Reuss Voigt Hill
#
# Bulk Modulus (GPa) = 29.05887 29.86998 29.46442
# Shear Modulus (GPa) = 21.33715 23.83505 22.58610
#
# Velocity S-wave (km/s) = 3.28868 3.47586 3.38357
# Velocity P-wave (km/s) = 5.39908 5.59011 5.49543
#
# Compressibility (1/GPa) = 0.03441290
#
# Stress axis : x y z
#
# Youngs Moduli (GPa) = 80.83145 54.00581 44.78845
#
# Poissons Ratio (x) = 0.09124 0.04170
# Poissons Ratio (y) = 0.13656 0.30370
# Poissons Ratio (z) = 0.07525 0.36620
#
# Static dielectric constant tensor:
#      x y z
#    x 3.707210 0.000000 0.149260 
#    y 0.000000 3.492540 0.000000 
#    z 0.149260 0.000000 3.249550 
# 
# 
# High freq. dielectric constant tensor:
#      x y z
#    x 1.781400 0.000000 0.001230 
#    y 0.000000 1.762780 0.000000 
#    z 0.001230 0.000000 1.750460 
# 
# From -- ./inp_files/181133.got.cif
#   From: 2010.06.25/outbox.cif.g09.slc.cpg/sg12_91_cif.got.tgz:181133.got - 2010.06.28 00:19:55.
