data_PCOD8094034
_publ_section_title
;
Structure prediction by ZEFSAII (Michael W. Deem and Ramdas Pophale) SiO2 
 PCOD8094034
Probable space group: C 2/M
;
_chemical_formula_sum "Si O2"
_cell_formula_units_Z 48
_cell_length_a 23.599744
_cell_length_b 8.434346
_cell_length_c 12.728528
_cell_angle_alpha 90.000000
_cell_angle_beta 89.969431
_cell_angle_gamma 90.000000
_cell_volume 2533.592854
_symmetry_space_group_name_H-M "C 2/M"
_symmetry_group_IT_number 12
_symmetry_cell_setting 'monoclinic'
loop_
_space_group_symop_operation_xyz
x,y,z
-x,y,-z
-x,-y,-z
x,-y,z
1/2+x,1/2+y,z
1/2-x,1/2+y,-z
1/2-x,1/2-y,-z
1/2+x,1/2-y,z
loop_
_atom_site_type_symbol
_atom_site_label
_atom_site_fract_x
_atom_site_fract_y
_atom_site_fract_z
Si Si1 0.937880 0.313957 0.889754
Si Si2 0.936497 0.310983 0.495971
Si Si3 0.632007 0.187295 0.307120
Si Si4 0.558615 0.316181 0.885095
Si Si5 0.868410 0.313383 0.294917
Si Si6 0.746131 0.312573 0.618142
O O1 0.930369 0.500000 0.909398
O O2 0.894542 0.249025 0.801480
O O3 0.002446 0.281731 0.853194
O O4 0.923097 0.221674 0.996029
O O5 0.935825 0.500000 0.498287
O O6 0.902560 0.239754 0.594891
O O7 0.906852 0.249584 0.390293
O O8 0.000000 0.243888 0.500000
O O9 0.697417 0.235900 0.318160
O O10 0.624612 0.000000 0.310661
O O11 0.544200 0.500000 0.875066
O O12 0.610881 0.270697 0.810904
O O13 0.874037 0.500000 0.280511
O O14 0.803790 0.269153 0.317401
O O15 0.737552 0.500000 0.614556
O O16 0.750000 0.250000 0.500000
#
# Coordination Sequence:
#
# PCOD8094034 Si02
#       6
#     8   8   8   8   8   8
#     4  10  19  36  62  86 109 146 193 231 272 332
#     4   9  16  28  51  81 109 138 176 225 276 325
#     4   9  18  33  55  83 111 144 187 232 275 327
#     4  11  22  37  56  83 119 150 180 228 289 338
#     4  11  21  36  58  82 110 147 194 233 274 333
#     4  11  21  37  57  81 114 152 189 229 281 331
#
# _framework density 18.945428
#
# number of rings (size 3 to 8) (size 9 to 14) (size 15 to 20)
#    0.000    1.833    1.667    5.000    0.000    2.667 
#    0.000    4.167    0.000    2.000    0.000    0.000 
#    0.000    0.000    0.000    0.000    0.000    0.000 
#
# Total GULP energy -297650.222860 kJ/mol
# GULP energy per Si atom -12402.092619 kJ/mol
# Density = 1.890231 g / cm^3
# Si number density = 18.945428 Si / 1000 Ang^3
#
#
#
# Elastic Constant Matrix: (Units=GPa)
#
#
# Indices 1 2 3 4 5 6 
#
# 1 128.3373 12.1663 76.0935 0.0000 -0.4008 0.0000
# 2 12.1663 49.1534 22.2264 0.0000 3.4684 0.0000
# 3 76.0935 22.2264 131.4550 0.0000 -3.3229 0.0000
# 4 0.0000 0.0000 0.0000 20.7414 0.0000 -7.4807
# 5 -0.4008 3.4684 -3.3229 0.0000 37.5120 0.0000
# 6 0.0000 0.0000 0.0000 -7.4807 0.0000 24.4667
#
#
#
# Elastic Compliance Matrix: (Units=1/GPa)
#
#
# Indices 1 2 3 4 5 6 
#
# 1 0.011875 0.000228 -0.006925 0.000000 -0.000508 0.000000
# 2 0.000228 0.022246 -0.003954 0.000000 -0.002405 0.000000
# 3 -0.006925 -0.003954 0.012319 0.000000 0.001383 0.000000
# 4 0.000000 0.000000 0.000000 0.054188 0.000000 0.016568
# 5 -0.000508 -0.002405 0.001383 0.000000 0.026998 0.000000
# 6 0.000000 0.000000 0.000000 0.016568 0.000000 0.045937
#
#
# Mechanical properties :
#
#
# Convention : Reuss Voigt Hill
#
# Bulk Modulus (GPa) = 39.78134 58.87978 49.33056
# Shear Modulus (GPa) = 24.60089 29.77466 27.18777
#
# Velocity S-wave (km/s) = 3.60740 3.96864 3.79232
# Velocity P-wave (km/s) = 6.19633 7.22124 6.72833
#
# Compressibility (1/GPa) = 0.02513742
#
# Stress axis : x y z
#
# Youngs Moduli (GPa) = 84.21155 44.95255 81.17287
#
# Poissons Ratio (x) = -0.01025 0.56214
# Poissons Ratio (y) = -0.01921 0.32097
# Poissons Ratio (z) = 0.58318 0.17775
#
# Static dielectric constant tensor:
#      x y z
#    x 3.634730 0.000000 0.073720 
#    y 0.000000 3.222450 0.000000 
#    z 0.073720 0.000000 3.585240 
# 
# 
# High freq. dielectric constant tensor:
#      x y z
#    x 1.737500 0.000000 -0.000490 
#    y 0.000000 1.717460 0.000000 
#    z -0.000490 0.000000 1.740180 
# 
# From -- ./inp_files/172192.got.cif
#   From: 2010.06.25/outbox.cif.g09.slc.cpg/sg12_87_cif.got.tgz:172192.got - 2010.06.28 00:19:55.
