data_PCOD8094359
_publ_section_title
;
Structure prediction by ZEFSAII (Michael W. Deem and Ramdas Pophale) SiO2 
 PCOD8094359
Probable space group: C 2/M
;
_chemical_formula_sum "Si O2"
_cell_formula_units_Z 32
_cell_length_a 31.403085
_cell_length_b 7.547354
_cell_length_c 20.626620
_cell_angle_alpha 90.000000
_cell_angle_beta 19.359908
_cell_angle_gamma 90.000000
_cell_volume 1620.615549
_symmetry_space_group_name_H-M "C 2/M"
_symmetry_group_IT_number 12
_symmetry_cell_setting 'monoclinic'
loop_
_space_group_symop_operation_xyz
x,y,z
-x,y,-z
-x,-y,-z
x,-y,z
1/2+x,1/2+y,z
1/2-x,1/2+y,-z
1/2-x,1/2-y,-z
1/2+x,1/2-y,z
loop_
_atom_site_type_symbol
_atom_site_label
_atom_site_fract_x
_atom_site_fract_y
_atom_site_fract_z
Si Si1 0.004349 0.000000 0.098413
Si Si2 0.091324 0.796600 0.564194
Si Si3 0.378086 0.694502 0.962044
Si Si4 0.290372 0.500000 0.309233
Si Si5 0.110902 0.709029 0.390841
O O1 0.858652 0.000000 0.281589
O O2 0.031981 0.175035 0.102668
O O3 0.103256 0.000000 0.898103
O O4 0.209434 0.678831 0.418149
O O5 0.073549 0.795046 0.512674
O O6 0.962443 0.715884 0.783794
O O7 0.113225 0.000000 0.556015
O O8 0.335962 0.500000 0.996896
O O9 0.244866 0.794071 0.171514
O O10 0.127267 0.500000 0.379259
O O11 0.000000 0.757155 0.500000
#
# Coordination Sequence:
#
# PCOD8094359 Si02
#       5
#     4   8   8   4   8
#     4   9  18  38  62  79 118 153 183 240 285 323
#     4  11  21  37  59  84 118 149 185 238 282 333
#     4   8  17  36  54  83 118 147 181 239 281 322
#     4  11  20  38  64  83 108 159 195 220 289 341
#     4  10  19  37  62  83 112 153 193 230 284 343
#
# _framework density 19.745583
#
# number of rings (size 3 to 8) (size 9 to 14) (size 15 to 20)
#    0.750    1.500    3.750    0.000    0.000    2.500 
#    2.250    2.500    0.000    0.000    0.000    0.000 
#    0.000    0.000    0.000    0.000    0.000    0.000 
#
# Total GULP energy -198232.951345 kJ/mol
# GULP energy per Si atom -12389.559459 kJ/mol
# Density = 1.970064 g / cm^3
# Si number density = 19.745583 Si / 1000 Ang^3
#
#
#
# Elastic Constant Matrix: (Units=GPa)
#
#
# Indices 1 2 3 4 5 6 
#
# 1 130.5200 22.1320 92.7865 0.0001 -12.6925 -0.0001
# 2 22.1320 57.8061 20.9266 -0.0004 -7.0300 -0.0003
# 3 92.7865 20.9266 165.7990 0.0002 16.5574 -0.0001
# 4 0.0001 -0.0004 0.0002 8.5907 -0.0003 12.5376
# 5 -12.6925 -7.0300 16.5574 -0.0003 28.5112 0.0000
# 6 -0.0001 -0.0003 -0.0001 12.5376 0.0000 10.0914
#
#
#
# Elastic Compliance Matrix: (Units=1/GPa)
#
#
# Indices 1 2 3 4 5 6 
#
# 1 0.016537 -0.000942 -0.010454 0.000000 0.013201 0.000001
# 2 -0.000942 0.019259 -0.002480 -0.000001 0.005770 0.000001
# 3 -0.010454 -0.002480 0.013504 0.000001 -0.013107 -0.000001
# 4 0.000000 -0.000001 0.000001 -0.143142 -0.000002 0.177840
# 5 0.013201 0.005770 -0.013107 -0.000002 0.049985 0.000003
# 6 0.000001 0.000001 -0.000001 0.177840 0.000003 -0.121855
#
#
# Mechanical properties :
#
#
# Convention : Reuss Voigt Hill
#
# Bulk Modulus (GPa) = 46.40686 69.53504 57.97095
# Shear Modulus (GPa) = -38.23253 23.99065 -7.12094
#
# Velocity S-wave (km/s) = -4.40507 3.48945 -1.90110
# Velocity P-wave (km/s) = 1.52295 7.17823 4.96022
#
# Compressibility (1/GPa) = 0.02154854
#
# Stress axis : x y z
#
# Youngs Moduli (GPa) = 60.47177 51.92313 74.05364
#
# Poissons Ratio (x) = 0.04889 0.77415
# Poissons Ratio (y) = 0.05694 0.18366
# Poissons Ratio (z) = 0.63216 0.12878
#
# Static dielectric constant tensor:
#      x y z
#    x 3.620630 0.000000 0.016080 
#    y 0.000000 3.186710 0.000000 
#    z 0.016080 0.000000 3.898550 
# 
# 
# High freq. dielectric constant tensor:
#      x y z
#    x 1.759010 0.000000 0.011390 
#    y 0.000000 1.731190 0.000000 
#    z 0.011390 0.000000 1.787930 
# 
# From -- ./inp_files/294962.got.cif
#   From: 2010.06.25/outbox.cif.g09.slc.cpg/sg12_148_cif.got.tgz:294962.got - 2010.06.28 00:19:55.
