data_PCOD8094320
_publ_section_title
;
Structure prediction by ZEFSAII (Michael W. Deem and Ramdas Pophale) SiO2 
 PCOD8094320
Probable space group: C 2/M
;
_chemical_formula_sum "Si O2"
_cell_formula_units_Z 64
_cell_length_a 29.821289
_cell_length_b 8.916957
_cell_length_c 17.451088
_cell_angle_alpha 90.000000
_cell_angle_beta 45.220435
_cell_angle_gamma 90.000000
_cell_volume 3293.935198
_symmetry_space_group_name_H-M "C 2/M"
_symmetry_group_IT_number 12
_symmetry_cell_setting 'monoclinic'
loop_
_space_group_symop_operation_xyz
x,y,z
-x,y,-z
-x,-y,-z
x,-y,z
1/2+x,1/2+y,z
1/2-x,1/2+y,-z
1/2-x,1/2-y,-z
1/2+x,1/2-y,z
loop_
_atom_site_type_symbol
_atom_site_label
_atom_site_fract_x
_atom_site_fract_y
_atom_site_fract_z
Si Si1 0.551728 0.178289 0.212593
Si Si2 0.744906 0.835125 0.928579
Si Si3 0.364670 0.671769 0.012225
Si Si4 0.344812 0.822970 0.619801
Si Si5 0.113685 0.165732 0.284620
Si Si6 0.691206 0.823201 0.612259
Si Si7 0.702817 0.672708 0.757812
Si Si8 0.590543 0.177150 0.612764
O O1 0.583102 0.229855 0.094354
O O2 0.586481 0.243762 0.245216
O O3 0.480474 0.241041 0.297815
O O4 0.555008 0.000000 0.213192
O O5 0.812534 0.857404 0.811989
O O6 0.712624 0.000000 0.977273
O O7 0.750000 0.750000 0.000000
O O8 0.704814 0.724824 0.925329
O O9 0.375729 0.500000 0.974544
O O10 0.358331 0.690213 0.111972
O O11 0.391059 0.754099 0.629487
O O12 0.270635 0.774533 0.711835
O O13 0.373193 0.762107 0.505695
O O14 0.351016 0.000000 0.621149
O O15 0.081634 0.000000 0.327957
O O16 0.750000 0.750000 0.500000
O O17 0.685080 0.772238 0.706713
O O18 0.627991 0.771904 0.643591
O O19 0.700075 0.000000 0.598063
O O20 0.710433 0.500000 0.723174
O O21 0.587330 0.000000 0.611588
#
# Coordination Sequence:
#
# PCOD8094320 Si02
#       8
#     8   8   8   8   8   8   8   8
#     4  11  23  40  61  81 111 161 208 238 282 344
#     4  11  21  32  52  80 114 151 195 243 287 339
#     4  11  22  37  57  84 120 155 193 243 295 346
#     4  10  19  37  61  84 117 155 194 239 291 348
#     4  11  23  36  53  85 123 153 194 244 293 342
#     4  11  21  38  65  94 122 149 188 241 297 350
#     4  10  21  37  60  91 122 151 187 239 300 350
#     4   9  21  41  62  85 114 152 198 241 284 352
#
# _framework density 19.429646999999999
#
# number of rings (size 3 to 8) (size 9 to 14) (size 15 to 20)
#    0.000    1.500    3.750    1.875    0.000    3.000 
#    0.000    6.875    0.000    3.750    0.000    0.000 
#    0.000    0.000    0.000    0.000    0.000    0.000 
#
# Total GULP energy -396573.227767 kJ/mol
# GULP energy per Si atom -12392.913368 kJ/mol
# Density = 1.938542 g / cm^3
# Si number density = 19.429647 Si / 1000 Ang^3
#
#
#
# Elastic Constant Matrix: (Units=GPa)
#
#
# Indices 1 2 3 4 5 6 
#
# 1 91.1076 37.7217 57.2161 -0.0183 9.2335 0.0049
# 2 37.7217 76.0779 38.1494 -0.0259 13.6310 0.0070
# 3 57.2161 38.1494 108.8036 -0.0051 3.2276 -0.0010
# 4 -0.0183 -0.0259 -0.0051 28.1073 0.0069 6.6558
# 5 9.2335 13.6310 3.2276 0.0069 31.9186 0.0022
# 6 0.0049 0.0070 -0.0010 6.6558 0.0022 27.8632
#
#
#
# Elastic Compliance Matrix: (Units=1/GPa)
#
#
# Indices 1 2 3 4 5 6 
#
# 1 0.018019 -0.004583 -0.007796 0.000008 -0.002467 -0.000004
# 2 -0.004583 0.018469 -0.003883 0.000017 -0.006169 -0.000007
# 3 -0.007796 -0.003883 0.014579 -0.000008 0.002439 0.000004
# 4 0.000008 0.000017 -0.000008 0.037711 -0.000016 -0.009008
# 5 -0.002467 -0.006169 0.002439 -0.000016 0.034431 0.000003
# 6 -0.000004 -0.000007 0.000004 -0.009008 0.000003 0.038041
#
#
# Mechanical properties :
#
#
# Convention : Reuss Voigt Hill
#
# Bulk Modulus (GPa) = 53.92325 60.24039 57.08182
# Shear Modulus (GPa) = 25.00546 27.10460 26.05503
#
# Velocity S-wave (km/s) = 3.59133 3.73904 3.66593
# Velocity P-wave (km/s) = 6.70897 7.05069 6.88195
#
# Compressibility (1/GPa) = 0.01854487
#
# Stress axis : x y z
#
# Youngs Moduli (GPa) = 55.49567 54.14407 68.59058
#
# Poissons Ratio (x) = 0.24817 0.53470
# Poissons Ratio (y) = 0.25436 0.26631
# Poissons Ratio (z) = 0.43262 0.21022
#
# Static dielectric constant tensor:
#      x y z
#    x 3.623030 -0.000040 0.053600 
#    y -0.000040 3.615050 0.000030 
#    z 0.053600 0.000030 3.680080 
# 
# 
# High freq. dielectric constant tensor:
#      x y z
#    x 1.746450 0.000000 0.013670 
#    y 0.000000 1.754610 0.000000 
#    z 0.013670 0.000000 1.757860 
# 
# From -- ./inp_files/295543.got.cif
#   From: 2010.06.25/outbox.cif.g09.slc.cpg/sg12_148_cif.got.tgz:295543.got - 2010.06.28 00:19:55.
