data_PCOD8094658
_publ_section_title
;
Structure prediction by ZEFSAII (Michael W. Deem and Ramdas Pophale) SiO2 
 PCOD8094658
Probable space group: C 2/M
;
_chemical_formula_sum "Si O2"
_cell_formula_units_Z 56
_cell_length_a 19.533947
_cell_length_b 8.848491
_cell_length_c 29.016189
_cell_angle_alpha 90.000000
_cell_angle_beta 146.416969
_cell_angle_gamma 90.000000
_cell_volume 2774.204409
_symmetry_space_group_name_H-M "C 2/M"
_symmetry_group_IT_number 12
_symmetry_cell_setting 'monoclinic'
loop_
_space_group_symop_operation_xyz
x,y,z
-x,y,-z
-x,-y,-z
x,-y,z
1/2+x,1/2+y,z
1/2-x,1/2+y,-z
1/2-x,1/2-y,-z
1/2+x,1/2-y,z
loop_
_atom_site_type_symbol
_atom_site_label
_atom_site_fract_x
_atom_site_fract_y
_atom_site_fract_z
Si Si1 0.355218 0.179713 0.642207
Si Si2 0.944783 0.679251 0.172731
Si Si3 0.997533 0.820916 0.642434
Si Si4 0.077145 0.820859 0.500149
Si Si5 0.679784 0.673125 0.056328
Si Si6 0.254105 0.327163 0.803207
Si Si7 0.975663 0.321822 0.882693
O O1 0.452170 0.241967 0.734379
O O2 0.386226 0.252726 0.610270
O O3 0.219491 0.233070 0.582341
O O4 0.361864 0.000000 0.640492
O O5 0.945273 0.500000 0.176131
O O6 0.809679 0.739771 0.110766
O O7 0.973621 0.736588 0.137708
O O8 0.126618 0.762385 0.734739
O O9 0.982646 0.765332 0.581381
O O10 0.992008 0.000000 0.642795
O O11 0.000000 0.751424 0.500000
O O12 0.071554 0.000000 0.499672
O O13 0.660211 0.500000 0.029318
O O14 0.675480 0.684840 0.108820
O O15 0.570498 0.775168 0.975552
O O16 0.225166 0.500000 0.774355
O O17 0.342369 0.254604 0.814423
O O18 0.956417 0.500000 0.872596
#
# Coordination Sequence:
#
# PCOD8094658 Si02
#       7
#     8   8   8   8   8   8   8
#     4  10  19  38  64  85 115 160 199 230 279 352
#     4   9  19  36  59  85 113 154 199 236 281 346
#     4  11  22  37  60  91 120 148 193 248 290 333
#     4   9  20  36  61  92 119 153 193 233 284 349
#     4  10  20  39  60  80 110 155 205 238 282 355
#     4  11  23  40  61  83 114 160 201 234 286 355
#     4  11  23  36  57  89 120 149 191 250 300 335
#
# _framework density 20.185967000000002
#
# number of rings (size 3 to 8) (size 9 to 14) (size 15 to 20)
#    0.000    1.857    1.429    2.571    2.000    2.857 
#    0.000    2.857    0.000    2.143    0.000    0.000 
#    0.000    0.000    0.000    0.000    0.000    0.000 
#
# Total GULP energy -347292.062025 kJ/mol
# GULP energy per Si atom -12403.287929 kJ/mol
# Density = 2.014002 g / cm^3
# Si number density = 20.185967 Si / 1000 Ang^3
#
#
#
# Elastic Constant Matrix: (Units=GPa)
#
#
# Indices 1 2 3 4 5 6 
#
# 1 139.6513 31.6038 34.9004 0.0000 11.0033 0.0000
# 2 31.6038 46.4233 20.9043 -0.0002 0.3760 0.0003
# 3 34.9004 20.9043 86.7949 0.0000 4.5903 0.0000
# 4 0.0000 -0.0002 0.0000 14.8154 0.0000 0.2969
# 5 11.0033 0.3760 4.5903 0.0000 35.5982 0.0000
# 6 0.0000 0.0003 0.0000 0.2969 0.0000 30.6334
#
#
#
# Elastic Compliance Matrix: (Units=1/GPa)
#
#
# Indices 1 2 3 4 5 6 
#
# 1 0.009089 -0.005138 -0.002287 0.000000 -0.002460 0.000000
# 2 -0.005138 0.027074 -0.004555 0.000000 0.001889 0.000000
# 3 -0.002287 -0.004555 0.013591 0.000000 -0.000997 0.000000
# 4 0.000000 0.000000 0.000000 0.067510 0.000000 -0.000654
# 5 -0.002460 0.001889 -0.000997 0.000000 0.028960 0.000000
# 6 0.000000 0.000000 0.000000 -0.000654 0.000000 0.032650
#
#
# Mechanical properties :
#
#
# Convention : Reuss Voigt Hill
#
# Bulk Modulus (GPa) = 38.76766 49.74295 44.25531
# Shear Modulus (GPa) = 23.64824 28.57348 26.11086
#
# Velocity S-wave (km/s) = 3.42646 3.76641 3.60045
# Velocity P-wave (km/s) = 5.90772 6.60381 6.26544
#
# Compressibility (1/GPa) = 0.02579470
#
# Stress axis : x y z
#
# Youngs Moduli (GPa) = 110.02590 36.93553 73.57890
#
# Poissons Ratio (x) = 0.18976 0.16828
# Poissons Ratio (y) = 0.56527 0.33514
# Poissons Ratio (z) = 0.25164 0.16824
#
# Static dielectric constant tensor:
#      x y z
#    x 3.975700 0.000000 0.013000 
#    y 0.000000 3.343620 0.000000 
#    z 0.013000 0.000000 3.693980 
# 
# 
# High freq. dielectric constant tensor:
#      x y z
#    x 1.805080 0.000000 0.004770 
#    y 0.000000 1.756280 0.000000 
#    z 0.004770 0.000000 1.794350 
# 
# From -- ./inp_files/363176.got.cif
#   From: 2010.06.25/outbox.cif.g09.slc.cpg/sg12_182_cif.got.tgz:363176.got - 2010.06.28 00:19:55.
