data_PCOD8094015
_publ_section_title
;
Structure prediction by ZEFSAII (Michael W. Deem and Ramdas Pophale) SiO2 
 PCOD8094015
Probable space group: C 2/M
;
_chemical_formula_sum "Si O2"
_cell_formula_units_Z 56
_cell_length_a 28.200351
_cell_length_b 16.951845
_cell_length_c 9.550687
_cell_angle_alpha 90.000000
_cell_angle_beta 142.979800
_cell_angle_gamma 90.000000
_cell_volume 2748.984161
_symmetry_space_group_name_H-M "C 2/M"
_symmetry_group_IT_number 12
_symmetry_cell_setting 'monoclinic'
loop_
_space_group_symop_operation_xyz
x,y,z
-x,y,-z
-x,-y,-z
x,-y,z
1/2+x,1/2+y,z
1/2-x,1/2+y,-z
1/2-x,1/2-y,-z
1/2+x,1/2-y,z
loop_
_atom_site_type_symbol
_atom_site_label
_atom_site_fract_x
_atom_site_fract_y
_atom_site_fract_z
Si Si1 0.906685 0.000000 0.436786
Si Si2 0.323489 0.357498 0.901268
Si Si3 0.139687 0.404584 0.807504
Si Si4 0.577495 0.500000 0.859225
Si Si5 0.809445 0.855883 0.188580
Si Si6 0.915483 0.304358 0.080383
Si Si7 0.098066 0.289757 0.481349
Si Si8 0.687080 0.811264 0.413314
O O1 0.862778 0.922267 0.386028
O O2 0.918121 0.000000 0.297607
O O3 0.989620 0.000000 0.709446
O O4 0.244934 0.373445 0.623995
O O5 0.384004 0.421791 0.987335
O O6 0.297287 0.374159 0.997080
O O7 0.363610 0.272247 0.991011
O O8 0.139477 0.500000 0.809312
O O9 0.080539 0.368022 0.784372
O O10 0.114089 0.374737 0.592257
O O11 0.223174 0.366247 0.051785
O O12 0.851814 0.772218 0.307749
O O13 0.004264 0.275256 0.258434
O O14 0.872135 0.345392 0.844309
O O15 0.129733 0.278058 0.399214
O O16 0.750000 0.750000 0.500000
#
# Coordination Sequence:
#
# PCOD8094015 Si02
#       8
#     4   8   8   4   8   8   8   8
#     4   9  18  30  52  91 130 152 193 262 325 379
#     4  10  19  36  61  90 127 163 212 261 315 388
#     4  12  25  42  65  96 132 169 218 270 325 383
#     4   9  18  30  54  89 126 158 195 256 325 381
#     4  11  19  36  62  95 122 163 212 262 324 379
#     4  11  24  41  61  94 128 171 214 266 327 379
#     4  12  23  39  69  91 127 166 216 273 323 383
#     4  10  22  41  63  90 124 170 219 261 314 390
#
# _framework density 20.371161000000001
#
# number of rings (size 3 to 8) (size 9 to 14) (size 15 to 20)
#    0.000    1.286    3.571    3.857    0.000    2.286 
#    1.286    0.000    0.000    1.714    0.000    6.000 
#    0.000    0.000    0.000    0.000    0.000    0.000 
#
# Total GULP energy -346943.580228 kJ/mol
# GULP energy per Si atom -12390.842151 kJ/mol
# Density = 2.032480 g / cm^3
# Si number density = 20.371161 Si / 1000 Ang^3
#
#
#
# Elastic Constant Matrix: (Units=GPa)
#
#
# Indices 1 2 3 4 5 6 
#
# 1 99.6059 16.9749 26.2908 0.0000 6.9781 0.0000
# 2 16.9749 104.7373 26.3980 0.0000 0.4521 0.0000
# 3 26.2908 26.3980 74.2079 0.0000 0.1669 0.0000
# 4 0.0000 0.0000 0.0000 23.7889 0.0000 8.8331
# 5 6.9781 0.4521 0.1669 0.0000 34.6090 0.0000
# 6 0.0000 0.0000 0.0000 8.8331 0.0000 17.0420
#
#
#
# Elastic Compliance Matrix: (Units=1/GPa)
#
#
# Indices 1 2 3 4 5 6 
#
# 1 0.011324 -0.000896 -0.003688 0.000000 -0.002254 0.000000
# 2 -0.000896 0.010559 -0.003439 0.000000 0.000059 0.000000
# 3 -0.003688 -0.003439 0.016004 0.000000 0.000711 0.000000
# 4 0.000000 0.000000 0.000000 0.052055 0.000000 -0.026980
# 5 -0.002254 0.000059 0.000711 0.000000 0.029344 0.000000
# 6 0.000000 0.000000 0.000000 -0.026980 0.000000 0.072663
#
#
# Mechanical properties :
#
#
# Convention : Reuss Voigt Hill
#
# Bulk Modulus (GPa) = 45.78532 46.43096 46.10814
# Shear Modulus (GPa) = 23.22611 29.01382 26.11997
#
# Velocity S-wave (km/s) = 3.38027 3.77803 3.58467
# Velocity P-wave (km/s) = 6.14486 6.47096 6.31002
#
# Compressibility (1/GPa) = 0.02184106
#
# Stress axis : x y z
#
# Youngs Moduli (GPa) = 88.31129 94.70220 62.48435
#
# Poissons Ratio (x) = 0.08485 0.23044
# Poissons Ratio (y) = 0.07913 0.21488
# Poissons Ratio (z) = 0.32569 0.32568
#
# Static dielectric constant tensor:
#      x y z
#    x 3.747640 0.000000 0.116800 
#    y 0.000000 3.544610 0.000000 
#    z 0.116800 0.000000 4.143160 
# 
# 
# High freq. dielectric constant tensor:
#      x y z
#    x 1.792320 0.000000 0.022140 
#    y 0.000000 1.773520 0.000000 
#    z 0.022140 0.000000 1.804570 
# 
# From -- ./inp_files/106066.got.cif
#   From: 2010.06.25/outbox.cif.g09.slc.cpg/sg12_54_cif.got.tgz:106066.got - 2010.06.28 00:19:55.
