data_PCOD8094036
_publ_section_title
;
Structure prediction by ZEFSAII (Michael W. Deem and Ramdas Pophale) SiO2 
 PCOD8094036
Probable space group: C 2/M
;
_chemical_formula_sum "Si O2"
_cell_formula_units_Z 56
_cell_length_a 11.467443
_cell_length_b 14.055654
_cell_length_c 21.149674
_cell_angle_alpha 90.000000
_cell_angle_beta 57.409285
_cell_angle_gamma 90.000000
_cell_volume 2872.180287
_symmetry_space_group_name_H-M "C 2/M"
_symmetry_group_IT_number 12
_symmetry_cell_setting 'monoclinic'
loop_
_space_group_symop_operation_xyz
x,y,z
-x,y,-z
-x,-y,-z
x,-y,z
1/2+x,1/2+y,z
1/2-x,1/2+y,-z
1/2-x,1/2-y,-z
1/2+x,1/2-y,z
loop_
_atom_site_type_symbol
_atom_site_label
_atom_site_fract_x
_atom_site_fract_y
_atom_site_fract_z
Si Si1 0.449746 0.393190 0.131018
Si Si2 0.140233 0.810098 0.491233
Si Si3 0.020154 0.768515 0.758899
Si Si4 0.258422 0.722966 0.099417
Si Si5 0.720081 0.893460 0.671287
Si Si6 0.993144 0.103792 0.353378
Si Si7 0.272643 0.107965 0.012241
O O1 0.389612 0.500000 0.154918
O O2 0.422062 0.338016 0.204026
O O3 0.378182 0.338082 0.095149
O O4 0.608535 0.396960 0.066079
O O5 0.250000 0.750000 0.500000
O O6 0.230512 0.859767 0.411607
O O7 0.080981 0.887100 0.557370
O O8 0.000000 0.759953 0.500000
O O9 0.098200 0.668846 0.736307
O O10 0.054118 0.816725 0.681991
O O11 0.857944 0.748523 0.815130
O O12 0.324807 0.821853 0.053085
O O13 0.186864 0.658788 0.065437
O O14 0.842876 0.888316 0.685855
O O15 0.662178 0.000000 0.681351
O O16 0.955569 0.000000 0.336747
O O17 0.334718 0.000000 0.999085
#
# Coordination Sequence:
#
# PCOD8094036 Si02
#       7
#     8   8   8   8   8   8   8
#     4  10  20  35  56  79 105 141 183 225 269 328
#     4  10  19  36  62  86 112 149 195 242 287 337
#     4  11  21  35  53  79 114 143 178 228 280 328
#     4  10  20  33  55  81 107 138 179 225 277 330
#     4  10  21  36  55  81 112 149 189 229 280 339
#     4  10  20  36  59  81 106 147 194 232 269 332
#     4   9  19  36  57  78 102 138 183 227 269 325
#
# _framework density 19.497384
#
# number of rings (size 3 to 8) (size 9 to 14) (size 15 to 20)
#    0.000    2.000    1.429    2.571    0.000    4.571 
#    0.000    0.714    0.000   15.429    0.000    0.000 
#    0.000    0.000    0.000    0.000    0.000    0.000 
#
# Total GULP energy -347033.138209 kJ/mol
# GULP energy per Si atom -12394.040650 kJ/mol
# Density = 1.945301 g / cm^3
# Si number density = 19.497384 Si / 1000 Ang^3
#
#
#
# Elastic Constant Matrix: (Units=GPa)
#
#
# Indices 1 2 3 4 5 6 
#
# 1 65.2042 38.1987 8.0058 0.0000 14.3690 0.0000
# 2 38.1987 146.6320 26.6931 0.0000 10.1634 0.0000
# 3 8.0058 26.6931 73.6974 0.0000 6.8932 0.0000
# 4 0.0000 0.0000 0.0000 25.0021 0.0000 1.9318
# 5 14.3690 10.1634 6.8932 0.0000 16.5858 0.0000
# 6 0.0000 0.0000 0.0000 1.9318 0.0000 30.1942
#
#
#
# Elastic Compliance Matrix: (Units=1/GPa)
#
#
# Indices 1 2 3 4 5 6 
#
# 1 0.021507 -0.004639 0.000854 0.000000 -0.016145 0.000000
# 2 -0.004639 0.008504 -0.002564 0.000000 -0.000126 0.000000
# 3 0.000854 -0.002564 0.014907 0.000000 -0.005364 0.000000
# 4 0.000000 0.000000 0.000000 0.040195 0.000000 -0.002572
# 5 -0.016145 -0.000126 -0.005364 0.000000 0.076586 0.000000
# 6 0.000000 0.000000 0.000000 -0.002572 0.000000 0.033284
#
#
# Mechanical properties :
#
#
# Convention : Reuss Voigt Hill
#
# Bulk Modulus (GPa) = 31.03781 47.92542 39.48162
# Shear Modulus (GPa) = 22.89155 28.53213 25.71184
#
# Velocity S-wave (km/s) = 3.43021 3.82957 3.63538
# Velocity P-wave (km/s) = 5.62512 6.64740 6.15751
#
# Compressibility (1/GPa) = 0.03221877
#
# Stress axis : x y z
#
# Youngs Moduli (GPa) = 46.49609 117.59302 67.08376
#
# Poissons Ratio (x) = 0.54554 -0.05729
# Poissons Ratio (y) = 0.21571 0.17203
# Poissons Ratio (z) = -0.03971 0.30155
#
# Static dielectric constant tensor:
#      x y z
#    x 3.456200 0.000000 0.110900 
#    y 0.000000 3.888710 0.000000 
#    z 0.110900 0.000000 3.538720 
# 
# 
# High freq. dielectric constant tensor:
#      x y z
#    x 1.739760 0.000000 0.008430 
#    y 0.000000 1.763130 0.000000 
#    z 0.008430 0.000000 1.767320 
# 
# From -- ./inp_files/262849.got.cif
#   From: 2010.06.25/outbox.cif.g09.slc.cpg/sg12_132_cif.got.tgz:262849.got - 2010.06.28 00:19:55.
