data_PCOD8094249
_publ_section_title
;
Structure prediction by ZEFSAII (Michael W. Deem and Ramdas Pophale) SiO2 
 PCOD8094249
Probable space group: C 2/M
;
_chemical_formula_sum "Si O2"
_cell_formula_units_Z 48
_cell_length_a 20.030317
_cell_length_b 9.030126
_cell_length_c 13.847363
_cell_angle_alpha 90.000000
_cell_angle_beta 90.307197
_cell_angle_gamma 90.000000
_cell_volume 2504.623595
_symmetry_space_group_name_H-M "C 2/M"
_symmetry_group_IT_number 12
_symmetry_cell_setting 'monoclinic'
loop_
_space_group_symop_operation_xyz
x,y,z
-x,y,-z
-x,-y,-z
x,-y,z
1/2+x,1/2+y,z
1/2-x,1/2+y,-z
1/2-x,1/2-y,-z
1/2+x,1/2-y,z
loop_
_atom_site_type_symbol
_atom_site_label
_atom_site_fract_x
_atom_site_fract_y
_atom_site_fract_z
Si Si1 0.884616 0.171701 0.074330
Si Si2 0.797765 0.176058 0.423229
Si Si3 0.948403 0.824168 0.421071
Si Si4 0.996099 0.828603 0.781601
Si Si5 0.874994 0.675395 0.871364
Si Si6 0.733512 0.675574 0.791122
O O1 0.824949 0.235751 0.139904
O O2 0.954205 0.194380 0.129085
O O3 0.872872 0.000000 0.048602
O O4 0.888494 0.264169 0.977391
O O5 0.750000 0.250000 0.500000
O O6 0.873522 0.229252 0.444554
O O7 0.776750 0.234999 0.317332
O O8 0.791040 0.000000 0.430437
O O9 0.000000 0.758189 0.500000
O O10 0.969347 0.768127 0.315312
O O11 0.950037 0.000000 0.422247
O O12 0.929742 0.734613 0.797459
O O13 0.976046 0.000000 0.770794
O O14 0.877951 0.500000 0.873947
O O15 0.803616 0.732785 0.832993
O O16 0.728868 0.500000 0.788980
#
# Coordination Sequence:
#
# PCOD8094249 Si02
#       6
#     8   8   8   8   8   8
#     4  10  19  37  60  78 101 143 191 226 260 313
#     4  10  20  37  59  83 110 141 176 220 271 322
#     4   9  18  34  58  84 107 136 180 227 264 307
#     4  10  20  36  58  81 107 142 183 224 265 315
#     4  11  23  35  52  81 114 145 175 220 274 322
#     4   9  19  37  57  77 109 147 180 216 268 324
#
# _framework density 19.164556000000001
#
# number of rings (size 3 to 8) (size 9 to 14) (size 15 to 20)
#    0.000    2.167    1.667    1.500    2.333    2.667 
#    0.000    3.333    0.000    1.000    0.000    0.000 
#    0.000    0.000    0.000    0.000    0.000    0.000 
#
# Total GULP energy -297645.437798 kJ/mol
# GULP energy per Si atom -12401.893242 kJ/mol
# Density = 1.912094 g / cm^3
# Si number density = 19.164556 Si / 1000 Ang^3
#
#
#
# Elastic Constant Matrix: (Units=GPa)
#
#
# Indices 1 2 3 4 5 6 
#
# 1 124.7049 31.5493 46.6823 0.0000 -9.8754 0.0000
# 2 31.5493 37.2250 23.1027 0.0000 -0.8251 0.0000
# 3 46.6823 23.1027 114.4796 0.0000 -4.9160 0.0000
# 4 0.0000 0.0000 0.0000 25.1658 0.0000 -6.4946
# 5 -9.8754 -0.8251 -4.9160 0.0000 40.6395 0.0000
# 6 0.0000 0.0000 0.0000 -6.4946 0.0000 27.2628
#
#
#
# Elastic Compliance Matrix: (Units=1/GPa)
#
#
# Indices 1 2 3 4 5 6 
#
# 1 0.011229 -0.007642 -0.002941 0.000000 0.002218 0.000000
# 2 -0.007642 0.035912 -0.004201 0.000000 -0.001636 0.000000
# 3 -0.002941 -0.004201 0.010804 0.000000 0.000507 0.000000
# 4 0.000000 0.000000 0.000000 0.042339 0.000000 0.010086
# 5 0.002218 -0.001636 0.000507 0.000000 0.025174 0.000000
# 6 0.000000 0.000000 0.000000 0.010086 0.000000 0.039083
#
#
# Mechanical properties :
#
#
# Convention : Reuss Voigt Hill
#
# Bulk Modulus (GPa) = 35.24193 53.23090 44.23641
# Shear Modulus (GPa) = 24.56170 30.28530 27.42350
#
# Velocity S-wave (km/s) = 3.58386 3.97958 3.78689
# Velocity P-wave (km/s) = 5.96275 6.99658 6.50025
#
# Compressibility (1/GPa) = 0.02837529
#
# Stress axis : x y z
#
# Youngs Moduli (GPa) = 89.05424 27.84607 92.55625
#
# Poissons Ratio (x) = 0.21281 0.27225
# Poissons Ratio (y) = 0.68058 0.38884
# Poissons Ratio (z) = 0.26195 0.11698
#
# Static dielectric constant tensor:
#      x y z
#    x 3.773370 0.000000 0.048870 
#    y 0.000000 3.088330 0.000000 
#    z 0.048870 0.000000 3.652840 
# 
# 
# High freq. dielectric constant tensor:
#      x y z
#    x 1.763980 0.000000 -0.001780 
#    y 0.000000 1.701180 0.000000 
#    z -0.001780 0.000000 1.758550 
# 
# From -- ./inp_files/221554.got.cif
#   From: 2010.06.25/outbox.cif.g09.slc.cpg/sg12_111_cif.got.tgz:221554.got - 2010.06.28 00:19:55.
