data_PCOD8094882
_publ_section_title
;
Structure prediction by ZEFSAII (Michael W. Deem and Ramdas Pophale) SiO2 
 PCOD8094882
Probable space group: C 2/M
;
_chemical_formula_sum "Si O2"
_cell_formula_units_Z 48
_cell_length_a 26.454236
_cell_length_b 7.725450
_cell_length_c 16.453680
_cell_angle_alpha 90.000000
_cell_angle_beta 125.690719
_cell_angle_gamma 90.000000
_cell_volume 2731.072941
_symmetry_space_group_name_H-M "C 2/M"
_symmetry_group_IT_number 12
_symmetry_cell_setting 'monoclinic'
loop_
_space_group_symop_operation_xyz
x,y,z
-x,y,-z
-x,-y,-z
x,-y,z
1/2+x,1/2+y,z
1/2-x,1/2+y,-z
1/2-x,1/2-y,-z
1/2+x,1/2-y,z
loop_
_atom_site_type_symbol
_atom_site_label
_atom_site_fract_x
_atom_site_fract_y
_atom_site_fract_z
Si Si1 0.194234 0.795575 0.122606
Si Si2 0.658183 0.693012 0.912958
Si Si3 0.012262 0.500000 0.145019
Si Si4 0.536044 0.695538 0.608567
Si Si5 0.516165 0.302870 0.770194
Si Si6 0.831015 0.308983 0.249574
Si Si7 0.897237 0.500000 0.919602
O O1 0.263643 0.749634 0.221056
O O2 0.144569 0.673688 0.120431
O O3 0.178011 0.000000 0.120475
O O4 0.195653 0.749586 0.027976
O O5 0.676380 0.500000 0.901664
O O6 0.585896 0.698012 0.869328
O O7 0.673389 0.818180 0.852591
O O8 0.066080 0.500000 0.129711
O O9 0.022442 0.671434 0.209638
O O10 0.944157 0.500000 0.039737
O O11 0.500000 0.790709 0.500000
O O12 0.512923 0.500000 0.589177
O O13 0.516860 0.773305 0.678205
O O14 0.610967 0.694476 0.665902
O O15 0.489088 0.500000 0.749876
O O16 0.845516 0.500000 0.295293
#
# Coordination Sequence:
#
# PCOD8094882 Si02
#       7
#     8   8   4   8   8   8   4
#     4  10  21  34  46  71 103 135 176 210 249 299
#     4   9  17  29  45  69  99 140 169 197 243 300
#     4  11  22  36  51  80  94 136 187 214 255 302
#     4   9  19  34  51  77 109 135 164 200 256 318
#     4   9  18  33  52  73 106 136 164 213 254 298
#     4  10  20  29  46  73 103 136 168 199 249 301
#     4  11  24  34  54  70 103 140 176 222 259 282
#
# _framework density 17.575510999999999
#
# number of rings (size 3 to 8) (size 9 to 14) (size 15 to 20)
#    0.000    2.333    1.667    2.000    8.167    1.000 
#    0.000    1.667    0.000    0.000    0.000    1.167 
#    0.000    0.000    0.000    0.000    0.000    0.000 
#
# Total GULP energy -297375.401271 kJ/mol
# GULP energy per Si atom -12390.641720 kJ/mol
# Density = 1.753551 g / cm^3
# Si number density = 17.575511 Si / 1000 Ang^3
#
#
#
# Elastic Constant Matrix: (Units=GPa)
#
#
# Indices 1 2 3 4 5 6 
#
# 1 84.2693 42.4932 44.7950 0.0000 3.4774 0.0000
# 2 42.4932 75.5290 28.2339 0.0000 -2.5409 0.0000
# 3 44.7950 28.2339 96.2960 0.0000 0.4644 0.0000
# 4 0.0000 0.0000 0.0000 13.0798 0.0000 -1.0128
# 5 3.4774 -2.5409 0.4644 0.0000 15.3902 0.0000
# 6 0.0000 0.0000 0.0000 -1.0128 0.0000 26.4285
#
#
#
# Elastic Compliance Matrix: (Units=1/GPa)
#
#
# Indices 1 2 3 4 5 6 
#
# 1 0.020272 -0.009084 -0.006738 0.000000 -0.005877 0.000000
# 2 -0.009084 0.019044 -0.001383 0.000000 0.005238 0.000000
# 3 -0.006738 -0.001383 0.013921 0.000000 0.000874 0.000000
# 4 0.000000 0.000000 0.000000 0.076681 0.000000 0.002939
# 5 -0.005877 0.005238 0.000874 0.000000 0.067143 0.000000
# 6 0.000000 0.000000 0.000000 0.002939 0.000000 0.037951
#
#
# Mechanical properties :
#
#
# Convention : Reuss Voigt Hill
#
# Bulk Modulus (GPa) = 53.12001 54.12651 53.62326
# Shear Modulus (GPa) = 18.13591 20.35121 19.24356
#
# Velocity S-wave (km/s) = 3.21578 3.40653 3.31253
# Velocity P-wave (km/s) = 6.63911 6.80705 6.72361
#
# Compressibility (1/GPa) = 0.01882530
#
# Stress axis : x y z
#
# Youngs Moduli (GPa) = 49.33003 52.51024 71.83644
#
# Poissons Ratio (x) = 0.47699 0.48405
# Poissons Ratio (y) = 0.44811 0.09937
# Poissons Ratio (z) = 0.33240 0.07264
#
# Static dielectric constant tensor:
#      x y z
#    x 2.946460 0.000000 0.084960 
#    y 0.000000 3.269480 0.000000 
#    z 0.084960 0.000000 3.297950 
# 
# 
# High freq. dielectric constant tensor:
#      x y z
#    x 1.643280 0.000000 0.013320 
#    y 0.000000 1.684700 0.000000 
#    z 0.013320 0.000000 1.653960 
# 
# From -- ./inp_files/287146.got.cif
#   From: 2010.06.25/outbox.cif.g09.slc.cpg/sg12_144_cif.got.tgz:287146.got - 2010.06.28 00:19:55.
