data_PCOD8094607
_publ_section_title
;
Structure prediction by ZEFSAII (Michael W. Deem and Ramdas Pophale) SiO2 
 PCOD8094607
Probable space group: C 2/M
;
_chemical_formula_sum "Si O2"
_cell_formula_units_Z 36
_cell_length_a 18.846500
_cell_length_b 15.178621
_cell_length_c 15.800003
_cell_angle_alpha 90.000000
_cell_angle_beta 23.394952
_cell_angle_gamma 90.000000
_cell_volume 1794.667606
_symmetry_space_group_name_H-M "C 2/M"
_symmetry_group_IT_number 12
_symmetry_cell_setting 'monoclinic'
loop_
_space_group_symop_operation_xyz
x,y,z
-x,y,-z
-x,-y,-z
x,-y,z
1/2+x,1/2+y,z
1/2-x,1/2+y,-z
1/2-x,1/2-y,-z
1/2+x,1/2-y,z
loop_
_atom_site_type_symbol
_atom_site_label
_atom_site_fract_x
_atom_site_fract_y
_atom_site_fract_z
Si Si1 0.294159 0.599095 0.380155
Si Si2 0.817630 0.903141 0.548697
Si Si3 0.500000 0.835546 0.000000
Si Si4 0.492629 0.772184 0.675938
Si Si5 0.116924 0.217145 0.022734
O O1 0.272356 0.500000 0.369487
O O2 0.246249 0.605475 0.531329
O O3 0.498299 0.629327 0.141244
O O4 0.160705 0.663683 0.475435
O O5 0.961459 0.826095 0.408550
O O6 0.906896 0.000000 0.464558
O O7 0.648017 0.896852 0.795334
O O8 0.600055 0.776256 0.958945
O O9 0.449489 0.771410 0.822790
O O10 0.324209 0.809310 0.807998
#
# Coordination Sequence:
#
# PCOD8094607 Si02
#       5
#     8   8   4   8   8
#     4  10  19  38  62  84 113 153 197 237 276 336
#     4  10  20  35  59  87 119 152 186 231 289 345
#     4  12  19  36  57  86 122 152 179 238 293 344
#     4  10  19  40  59  81 114 156 197 232 271 342
#     4  10  21  35  61  83 114 154 192 233 287 335
#
# _framework density 20.059425999999998
#
# number of rings (size 3 to 8) (size 9 to 14) (size 15 to 20)
#    0.000    1.778    4.444    1.667    0.000    1.778 
#    0.000    7.222    0.000    1.333    0.000    0.000 
#    0.000    0.000    0.000    0.000    0.000    0.000 
#
# Total GULP energy -223189.123634 kJ/mol
# GULP energy per Si atom -12399.395757 kJ/mol
# Density = 2.001377 g / cm^3
# Si number density = 20.059426 Si / 1000 Ang^3
#
#
#
# Elastic Constant Matrix: (Units=GPa)
#
#
# Indices 1 2 3 4 5 6 
#
# 1 59.7917 43.5064 36.6033 -0.0017 -17.7487 -0.0028
# 2 43.5064 154.6747 70.1029 0.0065 -24.2609 -0.0049
# 3 36.6033 70.1029 117.4989 0.0053 -27.7352 0.0028
# 4 -0.0017 0.0065 0.0053 22.7779 -0.0023 1.2991
# 5 -17.7487 -24.2609 -27.7352 -0.0023 38.4215 0.0005
# 6 -0.0028 -0.0049 0.0028 1.2991 0.0005 8.6935
#
#
#
# Elastic Compliance Matrix: (Units=1/GPa)
#
#
# Indices 1 2 3 4 5 6 
#
# 1 0.023600 -0.004139 -0.003527 0.000004 0.005742 0.000005
# 2 -0.004139 0.009736 -0.004243 -0.000002 0.001173 0.000006
# 3 -0.003527 -0.004243 0.013408 -0.000001 0.005371 -0.000008
# 4 0.000004 -0.000002 -0.000001 0.044280 0.000002 -0.006617
# 5 0.005742 0.001173 0.005371 0.000002 0.033298 -0.000001
# 6 0.000005 0.000006 -0.000008 -0.006617 -0.000001 0.116018
#
#
# Mechanical properties :
#
#
# Convention : Reuss Voigt Hill
#
# Bulk Modulus (GPa) = 43.61519 70.26562 56.94040
# Shear Modulus (GPa) = 18.39591 26.09542 22.24567
#
# Velocity S-wave (km/s) = 3.03160 3.61072 3.33376
# Velocity P-wave (km/s) = 5.83475 7.24485 6.57770
#
# Compressibility (1/GPa) = 0.02292779
#
# Stress axis : x y z
#
# Youngs Moduli (GPa) = 42.37263 102.70890 74.57966
#
# Poissons Ratio (x) = 0.42510 0.26305
# Poissons Ratio (y) = 0.17538 0.31641
# Poissons Ratio (z) = 0.14945 0.43575
#
# Static dielectric constant tensor:
#      x y z
#    x 3.471140 -0.000010 -0.019470 
#    y -0.000010 3.643260 0.000000 
#    z -0.019470 0.000000 3.663740 
# 
# 
# High freq. dielectric constant tensor:
#      x y z
#    x 1.762110 0.000000 0.001810 
#    y 0.000000 1.772530 0.000000 
#    z 0.001810 0.000000 1.782460 
# 
# From -- ./inp_files/58315.got.cif
#   From: 2010.06.25/outbox.cif.g09.slc.cpg/sg12_30_cif.got.tgz:58315.got - 2010.06.28 00:19:55.
