data_PCOD8094158
_publ_section_title
;
Structure prediction by ZEFSAII (Michael W. Deem and Ramdas Pophale) SiO2 
 PCOD8094158
Probable space group: C 2/M
;
_chemical_formula_sum "Si O2"
_cell_formula_units_Z 56
_cell_length_a 23.117166
_cell_length_b 15.207131
_cell_length_c 9.046686
_cell_angle_alpha 90.000000
_cell_angle_beta 122.670581
_cell_angle_gamma 90.000000
_cell_volume 2677.158954
_symmetry_space_group_name_H-M "C 2/M"
_symmetry_group_IT_number 12
_symmetry_cell_setting 'monoclinic'
loop_
_space_group_symop_operation_xyz
x,y,z
-x,y,-z
-x,-y,-z
x,-y,z
1/2+x,1/2+y,z
1/2-x,1/2+y,-z
1/2-x,1/2-y,-z
1/2+x,1/2-y,z
loop_
_atom_site_type_symbol
_atom_site_label
_atom_site_fract_x
_atom_site_fract_y
_atom_site_fract_z
Si Si1 0.769260 0.404284 0.409247
Si Si2 0.314355 0.267116 0.337521
Si Si3 0.436733 0.500000 0.632457
Si Si4 0.565040 0.310082 0.700134
Si Si5 0.126216 0.848560 0.295550
Si Si6 0.564698 0.212015 0.994069
Si Si7 0.306042 0.897821 0.790549
Si Si8 0.582267 0.500000 0.702630
O O1 0.792540 0.500000 0.380739
O O2 0.782962 0.330732 0.304994
O O3 0.688246 0.409873 0.328948
O O4 0.807627 0.383788 0.616347
O O5 0.371896 0.261165 0.291763
O O6 0.349390 0.284065 0.542753
O O7 0.254474 0.338385 0.220584
O O8 0.433265 0.412767 0.726218
O O9 0.500920 0.500000 0.616229
O O10 0.383409 0.500000 0.418012
O O11 0.500000 0.323748 0.500000
O O12 0.599437 0.404576 0.798340
O O13 0.540047 0.249778 0.801661
O O14 0.098613 0.794182 0.121586
O O15 0.619751 0.134085 0.047435
O O16 0.500000 0.176519 0.000000
O O17 0.294642 0.000000 0.817931
#
# Coordination Sequence:
#
# PCOD8094158 Si02
#       8
#     8   8   4   8   8   8   8   4
#     4  10  19  36  67  97 128 160 203 257 317 378
#     4  11  20  39  68  90 130 161 210 254 312 380
#     4  11  18  31  64  84 132 156 203 246 297 382
#     4  12  25  41  64  91 126 174 209 252 327 383
#     4  11  19  37  60  94 122 163 204 258 307 368
#     4  12  25  41  63  90 129 165 212 269 310 361
#     4  10  22  39  66  98 121 169 218 256 312 367
#     4  11  20  37  56  91 122 166 208 242 306 392
#
# _framework density 20.917695999999999
#
# number of rings (size 3 to 8) (size 9 to 14) (size 15 to 20)
#    0.000    1.000    6.429    2.571    2.000    1.429 
#    0.000    2.143    0.000    0.857    0.000    0.000 
#    0.000    0.000    0.000    0.000    0.000    0.000 
#
# Total GULP energy -346916.054662 kJ/mol
# GULP energy per Si atom -12389.859095 kJ/mol
# Density = 2.087009 g / cm^3
# Si number density = 20.917696 Si / 1000 Ang^3
#
#
#
# Elastic Constant Matrix: (Units=GPa)
#
#
# Indices 1 2 3 4 5 6 
#
# 1 102.1792 41.5123 22.7919 0.0000 -11.6345 0.0000
# 2 41.5123 115.5501 18.5783 0.0000 -7.9393 0.0000
# 3 22.7919 18.5783 55.7894 0.0000 5.9518 0.0000
# 4 0.0000 0.0000 0.0000 14.6709 0.0000 5.7621
# 5 -11.6345 -7.9393 5.9518 0.0000 21.7609 0.0000
# 6 0.0000 0.0000 0.0000 5.7621 0.0000 42.6848
#
#
#
# Elastic Compliance Matrix: (Units=1/GPa)
#
#
# Indices 1 2 3 4 5 6 
#
# 1 0.013093 -0.003416 -0.004970 0.000000 0.007113 0.000000
# 2 -0.003416 0.010442 -0.002362 0.000000 0.002629 0.000000
# 3 -0.004970 -0.002362 0.021752 0.000000 -0.009469 0.000000
# 4 0.000000 0.000000 0.000000 0.071978 0.000000 -0.009716
# 5 0.007113 0.002629 -0.009469 0.000000 0.053306 0.000000
# 6 0.000000 0.000000 0.000000 -0.009716 0.000000 0.024739
#
#
# Mechanical properties :
#
#
# Convention : Reuss Voigt Hill
#
# Bulk Modulus (GPa) = 42.03456 48.80929 45.42192
# Shear Modulus (GPa) = 22.24814 28.53240 25.39027
#
# Velocity S-wave (km/s) = 3.26483 3.69729 3.48777
# Velocity P-wave (km/s) = 5.86097 6.45067 6.16288
#
# Compressibility (1/GPa) = 0.02378995
#
# Stress axis : x y z
#
# Youngs Moduli (GPa) = 76.37580 95.76788 45.97298
#
# Poissons Ratio (x) = 0.32714 0.22850
# Poissons Ratio (y) = 0.26089 0.10860
# Poissons Ratio (z) = 0.37962 0.22623
#
# Static dielectric constant tensor:
#      x y z
#    x 3.827810 0.000000 0.084830 
#    y 0.000000 3.843360 0.000000 
#    z 0.084830 0.000000 3.474750 
# 
# 
# High freq. dielectric constant tensor:
#      x y z
#    x 1.820500 0.000000 -0.000790 
#    y 0.000000 1.819590 0.000000 
#    z -0.000790 0.000000 1.778510 
# 
# From -- ./inp_files/97012.got.cif
#   From: 2010.06.25/outbox.cif.g09.slc.cpg/sg12_49_cif.got.tgz:97012.got - 2010.06.28 00:19:55.
