data_PCOD8094772
_publ_section_title
;
Structure prediction by ZEFSAII (Michael W. Deem and Ramdas Pophale) SiO2 
 PCOD8094772
Probable space group: C 2/M
;
_chemical_formula_sum "Si O2"
_cell_formula_units_Z 56
_cell_length_a 18.443388
_cell_length_b 14.229353
_cell_length_c 12.092254
_cell_angle_alpha 90.000000
_cell_angle_beta 121.286730
_cell_angle_gamma 90.000000
_cell_volume 2711.973241
_symmetry_space_group_name_H-M "C 2/M"
_symmetry_group_IT_number 12
_symmetry_cell_setting 'monoclinic'
loop_
_space_group_symop_operation_xyz
x,y,z
-x,y,-z
-x,-y,-z
x,-y,z
1/2+x,1/2+y,z
1/2-x,1/2+y,-z
1/2-x,1/2-y,-z
1/2+x,1/2-y,z
loop_
_atom_site_type_symbol
_atom_site_label
_atom_site_fract_x
_atom_site_fract_y
_atom_site_fract_z
Si Si1 0.809973 0.347943 0.754693
Si Si2 0.854406 0.700514 0.028644
Si Si3 0.778546 0.106609 0.931319
Si Si4 0.572851 0.217864 0.470522
Si Si5 0.020060 0.394390 0.219310
Si Si6 0.164596 0.900419 0.488025
Si Si7 0.254035 0.348911 0.667605
O O1 0.895475 0.399869 0.787118
O O2 0.726322 0.399483 0.643753
O O3 0.810568 0.244709 0.701729
O O4 0.804941 0.340279 0.883065
O O5 0.811484 0.649324 0.099752
O O6 0.952883 0.672928 0.104456
O O7 0.847887 0.815263 0.026704
O O8 0.777832 0.096240 0.797990
O O9 0.796193 0.000000 0.991131
O O10 0.500000 0.239044 0.500000
O O11 0.538368 0.144438 0.354911
O O12 0.597063 0.316721 0.432499
O O13 0.654277 0.173714 0.594665
O O14 0.983598 0.500000 0.201050
O O15 0.223828 0.904754 0.425637
O O16 0.115007 0.000000 0.453272
#
# Coordination Sequence:
#
# PCOD8094772 Si02
#       7
#     8   8   8   8   8   8   8
#     4  10  20  38  60  84 118 154 197 247 299 349
#     4  10  23  38  57  87 123 155 195 247 296 356
#     4  10  21  39  62  86 115 158 202 243 296 355
#     4  11  23  39  58  90 129 157 194 251 309 354
#     4  12  23  37  58  86 119 156 198 244 302 361
#     4  11  21  38  65  91 117 160 208 244 295 362
#     4  10  19  39  64  87 116 157 202 252 293 353
#
# _framework density 20.649170999999999
#
# number of rings (size 3 to 8) (size 9 to 14) (size 15 to 20)
#    0.000    1.429    2.857    3.429    0.000    5.143 
#    0.000    0.714    0.000    1.714    0.000    0.000 
#    0.000    0.000    0.000    0.000    0.000    0.000 
#
# Total GULP energy -347113.350122 kJ/mol
# GULP energy per Si atom -12396.905362 kJ/mol
# Density = 2.060217 g / cm^3
# Si number density = 20.649171 Si / 1000 Ang^3
#
#
#
# Elastic Constant Matrix: (Units=GPa)
#
#
# Indices 1 2 3 4 5 6 
#
# 1 82.2433 31.8504 17.1769 0.0000 -4.1331 0.0000
# 2 31.8504 160.2971 35.4290 0.0000 4.4058 0.0000
# 3 17.1769 35.4290 73.8161 0.0000 0.4917 0.0000
# 4 0.0000 0.0000 0.0000 21.4479 0.0000 1.9749
# 5 -4.1331 4.4058 0.4917 0.0000 29.9758 0.0000
# 6 0.0000 0.0000 0.0000 1.9749 0.0000 16.2004
#
#
#
# Elastic Compliance Matrix: (Units=1/GPa)
#
#
# Indices 1 2 3 4 5 6 
#
# 1 0.013598 -0.002306 -0.002073 0.000000 0.002248 0.000000
# 2 -0.002306 0.007398 -0.003005 0.000000 -0.001356 0.000000
# 3 -0.002073 -0.003005 0.015473 0.000000 -0.000098 0.000000
# 4 0.000000 0.000000 0.000000 0.047154 0.000000 -0.005748
# 5 0.002248 -0.001356 -0.000098 0.000000 0.033871 0.000000
# 6 0.000000 0.000000 0.000000 -0.005748 0.000000 0.062428
#
#
# Mechanical properties :
#
#
# Convention : Reuss Voigt Hill
#
# Bulk Modulus (GPa) = 46.07962 53.91880 49.99921
# Shear Modulus (GPa) = 24.76211 28.98485 26.87348
#
# Velocity S-wave (km/s) = 3.46668 3.75064 3.61145
# Velocity P-wave (km/s) = 6.19578 6.70260 6.45417
#
# Compressibility (1/GPa) = 0.02170157
#
# Stress axis : x y z
#
# Youngs Moduli (GPa) = 73.54170 135.17170 64.63073
#
# Poissons Ratio (x) = 0.31164 0.13395
# Poissons Ratio (y) = 0.16955 0.19423
# Poissons Ratio (z) = 0.15242 0.40622
#
# Static dielectric constant tensor:
#      x y z
#    x 3.562280 0.000000 -0.102050 
#    y 0.000000 3.884600 0.000000 
#    z -0.102050 0.000000 3.728910 
# 
# 
# High freq. dielectric constant tensor:
#      x y z
#    x 1.791760 0.000000 -0.016020 
#    y 0.000000 1.816010 0.000000 
#    z -0.016020 0.000000 1.801440 
# 
# From -- ./inp_files/155971.got.cif
#   From: 2010.06.25/outbox.cif.g09.slc.cpg/sg12_78_cif.got.tgz:155971.got - 2010.06.28 00:19:55.
