data_PCOD8094337
_publ_section_title
;
Structure prediction by ZEFSAII (Michael W. Deem and Ramdas Pophale) SiO2 
 PCOD8094337
Probable space group: C 2/M
;
_chemical_formula_sum "Si O2"
_cell_formula_units_Z 64
_cell_length_a 30.390297
_cell_length_b 8.984316
_cell_length_c 18.656443
_cell_angle_alpha 90.000000
_cell_angle_beta 141.345226
_cell_angle_gamma 90.000000
_cell_volume 3181.772828
_symmetry_space_group_name_H-M "C 2/M"
_symmetry_group_IT_number 12
_symmetry_cell_setting 'monoclinic'
loop_
_space_group_symop_operation_xyz
x,y,z
-x,y,-z
-x,-y,-z
x,-y,z
1/2+x,1/2+y,z
1/2-x,1/2+y,-z
1/2-x,1/2-y,-z
1/2+x,1/2-y,z
loop_
_atom_site_type_symbol
_atom_site_label
_atom_site_fract_x
_atom_site_fract_y
_atom_site_fract_z
Si Si1 0.329285 0.324505 0.739372
Si Si2 0.419644 0.674733 0.992422
Si Si3 0.592835 0.172484 0.757008
Si Si4 0.181417 0.173699 0.756748
Si Si5 0.666336 0.173347 0.995358
Si Si6 0.557816 0.828129 0.204404
Si Si7 0.188395 0.176011 0.602976
Si Si8 0.556110 0.171491 0.369735
O O1 0.323301 0.500000 0.721250
O O2 0.370481 0.279629 0.863772
O O3 0.369639 0.254368 0.723038
O O4 0.251761 0.256029 0.642613
O O5 0.433779 0.500000 0.013000
O O6 0.382465 0.726197 0.017416
O O7 0.494506 0.755208 0.078692
O O8 0.615255 0.255433 0.713254
O O9 0.647668 0.211533 0.889928
O O10 0.514507 0.221713 0.679245
O O11 0.594695 0.000000 0.741773
O O12 0.185368 0.234772 0.680857
O O13 0.168212 0.000000 0.738769
O O14 0.252809 0.216445 0.888925
O O15 0.651237 0.000000 0.994018
O O16 0.542514 0.806639 0.268555
O O17 0.563957 0.000000 0.190892
O O18 0.116957 0.219200 0.472543
O O19 0.200099 0.000000 0.614532
O O20 0.575586 0.000000 0.411337
#
# Coordination Sequence:
#
# PCOD8094337 Si02
#       8
#     8   8   8   8   8   8   8   8
#     4  11  24  41  62  92 126 157 198 248 299 358
#     4  11  22  36  60  93 126 158 195 244 300 356
#     4  10  21  38  62  89 120 159 200 242 298 361
#     4  10  22  38  60  90 123 156 197 248 298 356
#     4  10  19  37  61  87 123 159 197 244 296 363
#     4  11  23  41  65  90 122 162 201 243 299 360
#     4  11  24  42  64  88 117 159 206 251 302 356
#     4  10  23  43  63  86 118 158 204 253 299 352
#
# _framework density 20.114571999999999
#
# number of rings (size 3 to 8) (size 9 to 14) (size 15 to 20)
#    0.000    1.500    2.500    2.250    0.000    7.500 
#    0.000    2.500    0.000    0.000    0.000    0.000 
#    0.000    0.000    0.000    0.000    0.000    0.000 
#
# Total GULP energy -397000.579889 kJ/mol
# GULP energy per Si atom -12406.268122 kJ/mol
# Density = 2.006879 g / cm^3
# Si number density = 20.114572 Si / 1000 Ang^3
#
#
#
# Elastic Constant Matrix: (Units=GPa)
#
#
# Indices 1 2 3 4 5 6 
#
# 1 111.8841 37.9263 13.1803 0.0000 23.2431 0.0000
# 2 37.9263 71.5639 31.1616 0.0000 9.2400 0.0000
# 3 13.1803 31.1616 69.6842 0.0000 22.7300 0.0000
# 4 0.0000 0.0000 0.0000 27.3314 0.0000 4.6762
# 5 23.2431 9.2400 22.7300 0.0000 24.5398 0.0000
# 6 0.0000 0.0000 0.0000 4.6762 0.0000 40.3752
#
#
#
# Elastic Compliance Matrix: (Units=1/GPa)
#
#
# Indices 1 2 3 4 5 6 
#
# 1 0.014397 -0.008265 0.006313 0.000000 -0.016372 0.000000
# 2 -0.008265 0.022112 -0.011696 0.000000 0.010336 0.000000
# 3 0.006313 -0.011696 0.027083 0.000000 -0.026661 0.000000
# 4 0.000000 0.000000 0.000000 0.037328 0.000000 -0.004323
# 5 -0.016372 0.010336 -0.026661 0.000000 0.077060 0.000000
# 6 0.000000 0.000000 0.000000 -0.004323 0.000000 0.025268
#
#
# Mechanical properties :
#
#
# Convention : Reuss Voigt Hill
#
# Bulk Modulus (GPa) = 27.55136 46.40761 36.97949
# Shear Modulus (GPa) = 20.60638 29.84022 25.22330
#
# Velocity S-wave (km/s) = 3.20418 3.85582 3.54500
# Velocity P-wave (km/s) = 5.23602 6.55323 5.93131
#
# Compressibility (1/GPa) = 0.03629585
#
# Stress axis : x y z
#
# Youngs Moduli (GPa) = 69.45979 45.22414 36.92301
#
# Poissons Ratio (x) = 0.37377 -0.23310
# Poissons Ratio (y) = 0.57408 0.43186
# Poissons Ratio (z) = -0.43850 0.52896
#
# Static dielectric constant tensor:
#      x y z
#    x 3.739370 0.000000 0.053800 
#    y 0.000000 3.566000 0.000000 
#    z 0.053800 0.000000 3.621280 
# 
# 
# High freq. dielectric constant tensor:
#      x y z
#    x 1.796850 0.000000 0.005660 
#    y 0.000000 1.783290 0.000000 
#    z 0.005660 0.000000 1.782210 
# 
# From -- ./inp_files/295804.got.cif
#   From: 2010.06.25/outbox.cif.g09.slc.cpg/sg12_148_cif.got.tgz:295804.got - 2010.06.28 00:19:55.
