data_PCOD8094504
_publ_section_title
;
Structure prediction by ZEFSAII (Michael W. Deem and Ramdas Pophale) SiO2 
 PCOD8094504
Probable space group: C 2/M
;
_chemical_formula_sum "Si O2"
_cell_formula_units_Z 56
_cell_length_a 16.820832
_cell_length_b 14.607427
_cell_length_c 20.573442
_cell_angle_alpha 90.000000
_cell_angle_beta 147.095028
_cell_angle_gamma 90.000000
_cell_volume 2746.159371
_symmetry_space_group_name_H-M "C 2/M"
_symmetry_group_IT_number 12
_symmetry_cell_setting 'monoclinic'
loop_
_space_group_symop_operation_xyz
x,y,z
-x,y,-z
-x,-y,-z
x,-y,z
1/2+x,1/2+y,z
1/2-x,1/2+y,-z
1/2-x,1/2-y,-z
1/2+x,1/2-y,z
loop_
_atom_site_type_symbol
_atom_site_label
_atom_site_fract_x
_atom_site_fract_y
_atom_site_fract_z
Si Si1 0.882376 0.103067 0.475908
Si Si2 0.547807 0.103645 0.961128
Si Si3 0.374861 0.601806 0.742029
Si Si4 0.569035 0.897079 0.478186
Si Si5 0.558801 0.729353 0.680919
Si Si6 0.200361 0.716223 0.256529
Si Si7 0.332597 0.313983 0.109290
O O1 0.765953 0.176413 0.368714
O O2 0.000000 0.093757 0.500000
O O3 0.944487 0.147436 0.585377
O O4 0.820985 0.000000 0.448712
O O5 0.456886 0.168547 0.851568
O O6 0.501362 0.000000 0.915660
O O7 0.500000 0.132831 0.000000
O O8 0.718443 0.116264 0.063667
O O9 0.377769 0.500000 0.774778
O O10 0.246731 0.606250 0.599389
O O11 0.325816 0.674950 0.761929
O O12 0.537558 0.625125 0.830314
O O13 0.500000 0.866119 0.500000
O O14 0.506128 0.827666 0.382362
O O15 0.515456 0.000000 0.424796
O O16 0.703141 0.698188 0.740611
O O17 0.595455 0.742239 0.781906
O O18 0.250000 0.250000 0.000000
#
# Coordination Sequence:
#
# PCOD8094504 Si02
#       7
#     8   8   8   8   8   8   8
#     4   9  18  32  56  94 128 154 193 257 322 369
#     4  11  23  41  67  92 119 166 218 259 307 372
#     4  11  23  40  66  93 127 167 204 252 315 377
#     4  10  19  37  66  97 124 158 205 256 312 377
#     4  11  21  37  65  92 123 164 208 261 311 371
#     4  11  19  38  65  97 125 155 209 266 312 366
#     4  12  26  43  62  86 129 172 210 260 311 367
#
# _framework density 20.392115
#
# number of rings (size 3 to 8) (size 9 to 14) (size 15 to 20)
#    0.000    1.286    5.714    1.286    0.000    2.286 
#    0.000    1.429    0.000    1.286    0.000    0.000 
#    0.000    0.000    0.000    0.000    0.000    0.000 
#
# Total GULP energy -346974.828527 kJ/mol
# GULP energy per Si atom -12391.958162 kJ/mol
# Density = 2.034570 g / cm^3
# Si number density = 20.392115 Si / 1000 Ang^3
#
#
#
# Elastic Constant Matrix: (Units=GPa)
#
#
# Indices 1 2 3 4 5 6 
#
# 1 51.0217 29.8978 35.1582 0.0010 2.3113 0.0003
# 2 29.8978 137.6144 60.6112 0.0014 -9.2195 0.0000
# 3 35.1582 60.6112 112.1993 0.0033 -4.6765 0.0009
# 4 0.0010 0.0014 0.0033 29.5178 0.0021 6.6487
# 5 2.3113 -9.2195 -4.6765 0.0021 42.5599 0.0007
# 6 0.0003 0.0000 0.0009 6.6487 0.0007 18.9081
#
#
#
# Elastic Compliance Matrix: (Units=1/GPa)
#
#
# Indices 1 2 3 4 5 6 
#
# 1 0.026046 -0.002886 -0.006719 0.000000 -0.002778 0.000000
# 2 -0.002886 0.009952 -0.004396 0.000000 0.001830 0.000000
# 3 -0.006719 -0.004396 0.013430 -0.000001 0.000888 0.000000
# 4 0.000000 0.000000 -0.000001 0.036792 -0.000002 -0.012937
# 5 -0.002778 0.001830 0.000888 -0.000002 0.024141 0.000000
# 6 0.000000 0.000000 0.000000 -0.012937 0.000000 0.057437
#
#
# Mechanical properties :
#
#
# Convention : Reuss Voigt Hill
#
# Bulk Modulus (GPa) = 46.66824 61.35220 54.01022
# Shear Modulus (GPa) = 24.63778 29.87503 27.25641
#
# Velocity S-wave (km/s) = 3.47969 3.83172 3.65994
# Velocity P-wave (km/s) = 6.25135 7.05178 6.66360
#
# Compressibility (1/GPa) = 0.02142785
#
# Stress axis : x y z
#
# Youngs Moduli (GPa) = 38.39375 100.47922 74.46179
#
# Poissons Ratio (x) = 0.28995 0.50027
# Poissons Ratio (y) = 0.11079 0.32732
# Poissons Ratio (z) = 0.25795 0.44169
#
# Static dielectric constant tensor:
#      x y z
#    x 3.436970 0.000000 0.249070 
#    y 0.000000 3.833080 0.000000 
#    z 0.249070 0.000000 3.813600 
# 
# 
# High freq. dielectric constant tensor:
#      x y z
#    x 1.767000 0.000000 0.022690 
#    y 0.000000 1.807420 0.000000 
#    z 0.022690 0.000000 1.796720 
# 
# From -- ./inp_files/316789.got.cif
#   From: 2010.06.25/outbox.cif.g09.slc.cpg/sg12_159_cif.got.tgz:316789.got - 2010.06.28 00:19:55.
