data_PCOD8094967
_publ_section_title
;
Structure prediction by ZEFSAII (Michael W. Deem and Ramdas Pophale) SiO2 
 PCOD8094967
Probable space group: C 2/M
;
_chemical_formula_sum "Si O2"
_cell_formula_units_Z 56
_cell_length_a 18.593775
_cell_length_b 9.234609
_cell_length_c 25.363093
_cell_angle_alpha 90.000000
_cell_angle_beta 134.513827
_cell_angle_gamma 90.000000
_cell_volume 3105.469962
_symmetry_space_group_name_H-M "C 2/M"
_symmetry_group_IT_number 12
_symmetry_cell_setting 'monoclinic'
loop_
_space_group_symop_operation_xyz
x,y,z
-x,y,-z
-x,-y,-z
x,-y,z
1/2+x,1/2+y,z
1/2-x,1/2+y,-z
1/2-x,1/2-y,-z
1/2+x,1/2-y,z
loop_
_atom_site_type_symbol
_atom_site_label
_atom_site_fract_x
_atom_site_fract_y
_atom_site_fract_z
Si Si1 0.838636 0.828603 0.427910
Si Si2 0.480833 0.328671 0.408187
Si Si3 0.359858 0.670720 0.694905
Si Si4 0.946267 0.170679 0.273438
Si Si5 0.068880 0.828511 0.989180
Si Si6 0.254389 0.328943 0.852366
Si Si7 0.600593 0.671596 0.168527
O O1 0.889018 0.779203 0.398485
O O2 0.733592 0.747321 0.381465
O O3 0.912100 0.776885 0.512994
O O4 0.820738 0.000000 0.420080
O O5 0.483530 0.500000 0.407785
O O6 0.464564 0.265104 0.341472
O O7 0.340316 0.500000 0.685049
O O8 0.458614 0.711712 0.713032
O O9 0.372269 0.735681 0.760356
O O10 0.849960 0.245377 0.198120
O O11 0.927148 0.000000 0.265166
O O12 0.013944 0.775314 0.906849
O O13 0.064124 0.000000 0.988653
O O14 0.183988 0.782721 0.062237
O O15 0.000000 0.764430 0.000000
O O16 0.234255 0.500000 0.840616
O O17 0.316815 0.280099 0.832370
O O18 0.599695 0.500000 0.172238
#
# Coordination Sequence:
#
# PCOD8094967 Si02
#       7
#     8   8   8   8   8   8   8
#     4   9  17  32  53  69  83 111 152 190 217 250
#     4   8  16  32  51  68  86 114 150 181 216 265
#     4  10  20  31  44  66  95 122 145 174 219 270
#     4  10  20  32  44  62  94 127 146 169 218 276
#     4   7  11  22  43  68  87 107 142 186 223 252
#     4   9  16  28  49  71  86 108 151 196 219 243
#     4   8  14  27  47  68  89 114 146 183 222 262
#
# _framework density 18.032696999999999
#
# number of rings (size 3 to 8) (size 9 to 14) (size 15 to 20)
#    0.000    3.286    0.000    3.429    0.000    1.143 
#    0.000    2.857    0.000    4.714    0.000    0.000 
#    0.000    0.000    0.000    0.000    0.000    0.000 
#
# Total GULP energy -346884.870561 kJ/mol
# GULP energy per Si atom -12388.745377 kJ/mol
# Density = 1.799165 g / cm^3
# Si number density = 18.032697 Si / 1000 Ang^3
#
#
#
# Elastic Constant Matrix: (Units=GPa)
#
#
# Indices 1 2 3 4 5 6 
#
# 1 69.2608 26.6122 45.5090 0.0000 25.2964 0.0000
# 2 26.6122 22.6359 29.7490 0.0000 13.4300 0.0000
# 3 45.5090 29.7490 125.4973 0.0000 33.8294 0.0000
# 4 0.0000 0.0000 0.0000 20.5153 0.0000 0.9139
# 5 25.2964 13.4300 33.8294 0.0000 25.7141 0.0000
# 6 0.0000 0.0000 0.0000 0.9139 0.0000 7.1495
#
#
#
# Elastic Compliance Matrix: (Units=1/GPa)
#
#
# Indices 1 2 3 4 5 6 
#
# 1 0.030458 -0.025514 -0.000793 0.000000 -0.015594 0.000000
# 2 -0.025514 0.093732 -0.010129 0.000000 -0.010530 0.000000
# 3 -0.000793 -0.010129 0.013978 0.000000 -0.012318 0.000000
# 4 0.000000 0.000000 0.000000 0.049023 0.000000 -0.006266
# 5 -0.015594 -0.010530 -0.012318 0.000000 0.075936 0.000000
# 6 0.000000 0.000000 0.000000 -0.006266 0.000000 0.140671
#
#
# Mechanical properties :
#
#
# Convention : Reuss Voigt Hill
#
# Bulk Modulus (GPa) = 15.31478 46.79272 31.05375
# Shear Modulus (GPa) = 10.03139 18.37736 14.20437
#
# Velocity S-wave (km/s) = 2.36114 3.19582 2.80965
# Velocity P-wave (km/s) = 3.99306 6.29467 5.27102
#
# Compressibility (1/GPa) = 0.06529640
#
# Stress axis : x y z
#
# Youngs Moduli (GPa) = 32.83175 10.66871 71.54332
#
# Poissons Ratio (x) = 0.27220 0.05676
# Poissons Ratio (y) = 0.83767 0.72463
# Poissons Ratio (z) = 0.02605 0.10806
#
# Static dielectric constant tensor:
#      x y z
#    x 3.226660 0.000000 -0.191230 
#    y 0.000000 2.790420 0.000000 
#    z -0.191230 0.000000 3.904230 
# 
# 
# High freq. dielectric constant tensor:
#      x y z
#    x 1.675030 0.000000 0.003930 
#    y 0.000000 1.645800 0.000000 
#    z 0.003930 0.000000 1.723360 
# 
# From -- ./inp_files/313314.got.cif
#   From: 2010.06.25/outbox.cif.g09.slc.cpg/sg12_157_cif.got.tgz:313314.got - 2010.06.28 00:19:55.
