data_PCOD8094376
_publ_section_title
;
Structure prediction by ZEFSAII (Michael W. Deem and Ramdas Pophale) SiO2 
 PCOD8094376
Probable space group: C 2/M
;
_chemical_formula_sum "Si O2"
_cell_formula_units_Z 56
_cell_length_a 26.906352
_cell_length_b 8.896581
_cell_length_c 11.292420
_cell_angle_alpha 90.000000
_cell_angle_beta 83.616292
_cell_angle_gamma 90.000000
_cell_volume 2686.357364
_symmetry_space_group_name_H-M "C 2/M"
_symmetry_group_IT_number 12
_symmetry_cell_setting 'monoclinic'
loop_
_space_group_symop_operation_xyz
x,y,z
-x,y,-z
-x,-y,-z
x,-y,z
1/2+x,1/2+y,z
1/2-x,1/2+y,-z
1/2-x,1/2-y,-z
1/2+x,1/2-y,z
loop_
_atom_site_type_symbol
_atom_site_label
_atom_site_fract_x
_atom_site_fract_y
_atom_site_fract_z
Si Si1 0.562275 0.322216 0.672373
Si Si2 0.450522 0.328626 0.067047
Si Si3 0.873542 0.330866 0.518741
Si Si4 0.537956 0.831067 0.326483
Si Si5 0.775814 0.177649 0.877138
Si Si6 0.611438 0.670828 0.135911
Si Si7 0.275694 0.322463 0.610302
O O1 0.567266 0.500000 0.657947
O O2 0.562565 0.255242 0.804652
O O3 0.612821 0.248624 0.607682
O O4 0.510011 0.269369 0.628176
O O5 0.465700 0.500000 0.090694
O O6 0.500000 0.248652 0.000000
O O7 0.401368 0.319123 0.999417
O O8 0.853142 0.500000 0.504211
O O9 0.925741 0.329656 0.572005
O O10 0.832701 0.233698 0.599267
O O11 0.568929 0.768361 0.208251
O O12 0.520158 0.000000 0.302723
O O13 0.833078 0.235476 0.860956
O O14 0.753693 0.218156 0.749591
O O15 0.773539 0.000000 0.897475
O O16 0.750000 0.250000 0.000000
O O17 0.608006 0.500000 0.184294
O O18 0.273710 0.500000 0.593189
O O19 0.250000 0.250000 0.500000
#
# Coordination Sequence:
#
# PCOD8094376 Si02
#       7
#     8   8   8   8   8   8   8
#     4  11  22  36  58  88 123 165 209 251 300 367
#     4   9  17  32  56  84 115 152 197 247 298 354
#     4  11  24  41  60  87 124 161 204 259 312 367
#     4  11  22  36  57  86 120 159 201 249 304 357
#     4  10  23  41  66  96 126 159 207 263 319 385
#     4  10  19  37  62  86 114 153 199 247 297 361
#     4  11  24  44  69  98 128 165 212 262 323 389
#
# _framework density 20.846073000000001
#
# number of rings (size 3 to 8) (size 9 to 14) (size 15 to 20)
#    0.000    1.571    2.857    2.143    0.000    6.286 
#    0.000    3.571    0.000    0.000    0.000    0.000 
#    0.000    0.000    0.000    0.000    0.000    0.000 
#
# Total GULP energy -346948.392656 kJ/mol
# GULP energy per Si atom -12391.014023 kJ/mol
# Density = 2.079863 g / cm^3
# Si number density = 20.846073 Si / 1000 Ang^3
#
#
#
# Elastic Constant Matrix: (Units=GPa)
#
#
# Indices 1 2 3 4 5 6 
#
# 1 57.8153 21.0515 35.1993 0.0000 2.3607 0.0000
# 2 21.0515 81.4352 52.5409 0.0000 1.2677 0.0000
# 3 35.1993 52.5409 155.7661 0.0000 -6.0742 0.0000
# 4 0.0000 0.0000 0.0000 32.4647 0.0000 -4.2482
# 5 2.3607 1.2677 -6.0742 0.0000 32.6277 0.0000
# 6 0.0000 0.0000 0.0000 -4.2482 0.0000 28.2503
#
#
#
# Elastic Compliance Matrix: (Units=1/GPa)
#
#
# Indices 1 2 3 4 5 6 
#
# 1 0.020743 -0.002879 -0.003798 0.000000 -0.002096 0.000000
# 2 -0.002879 0.016179 -0.004858 0.000000 -0.001325 0.000000
# 3 -0.003798 -0.004858 0.009000 0.000000 0.002139 0.000000
# 4 0.000000 0.000000 0.000000 0.031421 0.000000 0.004725
# 5 -0.002096 -0.001325 0.002139 0.000000 0.031250 0.000000
# 6 0.000000 0.000000 0.000000 0.004725 0.000000 0.036108
#
#
# Mechanical properties :
#
#
# Convention : Reuss Voigt Hill
#
# Bulk Modulus (GPa) = 43.76125 56.95556 50.35841
# Shear Modulus (GPa) = 28.50798 31.08354 29.79576
#
# Velocity S-wave (km/s) = 3.70205 3.86566 3.78474
# Velocity P-wave (km/s) = 6.26990 6.87792 6.58094
#
# Compressibility (1/GPa) = 0.02285127
#
# Stress axis : x y z
#
# Youngs Moduli (GPa) = 48.20983 61.80795 111.10740
#
# Poissons Ratio (x) = 0.17795 0.42198
# Poissons Ratio (y) = 0.13880 0.53980
# Poissons Ratio (z) = 0.18310 0.30029
#
# Static dielectric constant tensor:
#      x y z
#    x 3.682760 0.000000 0.073060 
#    y 0.000000 3.717810 0.000000 
#    z 0.073060 0.000000 4.094690 
# 
# 
# High freq. dielectric constant tensor:
#      x y z
#    x 1.804660 0.000000 0.004880 
#    y 0.000000 1.799890 0.000000 
#    z 0.004880 0.000000 1.832860 
# 
# From -- ./inp_files/180809.got.cif
#   From: 2010.06.25/outbox.cif.g09.slc.cpg/sg12_91_cif.got.tgz:180809.got - 2010.06.28 00:19:55.
