data_PCOD8094739
_publ_section_title
;
Structure prediction by ZEFSAII (Michael W. Deem and Ramdas Pophale) SiO2 
 PCOD8094739
Probable space group: C 2/M
;
_chemical_formula_sum "Si O2"
_cell_formula_units_Z 44
_cell_length_a 13.152499
_cell_length_b 19.334975
_cell_length_c 21.786222
_cell_angle_alpha 90.000000
_cell_angle_beta 155.375825
_cell_angle_gamma 90.000000
_cell_volume 2308.448577
_symmetry_space_group_name_H-M "C 2/M"
_symmetry_group_IT_number 12
_symmetry_cell_setting 'monoclinic'
loop_
_space_group_symop_operation_xyz
x,y,z
-x,y,-z
-x,-y,-z
x,-y,z
1/2+x,1/2+y,z
1/2-x,1/2+y,-z
1/2-x,1/2-y,-z
1/2+x,1/2-y,z
loop_
_atom_site_type_symbol
_atom_site_label
_atom_site_fract_x
_atom_site_fract_y
_atom_site_fract_z
Si Si1 0.725565 0.174201 0.012574
Si Si2 0.252565 0.872989 0.105128
Si Si3 0.512180 0.271202 0.274077
Si Si4 0.500000 0.709723 0.500000
Si Si5 0.173505 0.147599 0.718908
Si Si6 0.917125 0.000000 0.357551
Si Si7 0.598126 0.000000 0.300309
O O1 0.910238 0.169684 0.171447
O O2 0.750000 0.250000 0.000000
O O3 0.791677 0.122645 0.992949
O O4 0.454287 0.161532 0.888392
O O5 0.359577 0.799403 0.184822
O O6 0.441073 0.931945 0.227723
O O7 0.000000 0.887388 0.000000
O O8 0.490869 0.301141 0.330851
O O9 0.795551 0.259091 0.416341
O O10 0.619133 0.660533 0.616934
O O11 0.110843 0.068084 0.699862
O O12 0.697402 0.000000 0.285816
O O13 0.182701 0.000000 0.532070
#
# Coordination Sequence:
#
# PCOD8094739 Si02
#       7
#     8   8   8   4   8   4   4
#     4  10  19  39  58  85 123 153 203 249 297 357
#     4  11  21  36  64  92 122 159 203 253 310 358
#     4  11  23  39  62  92 124 163 201 256 307 367
#     4  12  22  37  62  95 124 156 206 260 310 361
#     4  12  22  40  62  92 122 162 208 249 309 361
#     4  11  22  38  62  85 129 163 199 254 301 371
#     4  11  21  40  59  91 128 160 200 255 308 361
#
# _framework density 19.060421000000002
#
# number of rings (size 3 to 8) (size 9 to 14) (size 15 to 20)
#    0.000    0.909    5.455    5.727    0.000    0.000 
#    0.000    2.727    0.000    0.545    0.000    0.000 
#    0.000    0.000    0.000    0.000    0.000    0.000 
#
# Total GULP energy -272855.060825 kJ/mol
# GULP energy per Si atom -12402.502765 kJ/mol
# Density = 1.901704 g / cm^3
# Si number density = 19.060421 Si / 1000 Ang^3
#
#
#
# Elastic Constant Matrix: (Units=GPa)
#
#
# Indices 1 2 3 4 5 6 
#
# 1 89.4608 39.9895 26.5992 0.0000 18.3600 -0.0011
# 2 39.9895 111.9144 36.6563 0.0142 6.7797 0.0016
# 3 26.5992 36.6563 79.9611 0.0321 21.6759 0.0136
# 4 0.0000 0.0142 0.0321 19.9872 -0.0034 -13.0611
# 5 18.3600 6.7797 21.6759 -0.0034 38.7153 0.0055
# 6 -0.0011 0.0016 0.0136 -13.0611 0.0055 11.3961
#
#
#
# Elastic Compliance Matrix: (Units=1/GPa)
#
#
# Indices 1 2 3 4 5 6 
#
# 1 0.014698 -0.004475 -0.001368 0.000034 -0.005420 0.000046
# 2 -0.004475 0.011910 -0.004694 0.000004 0.002665 0.000007
# 3 -0.001368 -0.004694 0.017347 -0.000146 -0.008241 -0.000183
# 4 0.000034 0.000004 -0.000146 0.199297 0.000049 0.228416
# 5 -0.005420 0.002665 -0.008241 0.000049 0.032548 0.000050
# 6 0.000046 0.000007 -0.000183 0.228416 0.000050 0.349539
#
#
# Mechanical properties :
#
#
# Convention : Reuss Voigt Hill
#
# Bulk Modulus (GPa) = 43.70466 54.20294 48.95380
# Shear Modulus (GPa) = 7.64478 25.89245 16.76862
#
# Velocity S-wave (km/s) = 2.00487 3.68970 2.96929
# Velocity P-wave (km/s) = 5.32341 6.83016 6.12330
#
# Compressibility (1/GPa) = 0.02288086
#
# Stress axis : x y z
#
# Youngs Moduli (GPa) = 68.03721 83.95962 57.64637
#
# Poissons Ratio (x) = 0.37575 0.07888
# Poissons Ratio (y) = 0.30449 0.27057
# Poissons Ratio (z) = 0.09310 0.39408
#
# Static dielectric constant tensor:
#      x y z
#    x 3.614020 0.000200 -0.051880 
#    y 0.000200 3.437540 -0.000260 
#    z -0.051880 -0.000260 3.563660 
# 
# 
# High freq. dielectric constant tensor:
#      x y z
#    x 1.737000 0.000000 0.008380 
#    y 0.000000 1.727620 -0.000010 
#    z 0.008380 -0.000010 1.744880 
# 
# From -- ./inp_files/340762.got.cif
#   From: 2010.06.25/outbox.cif.g09.slc.cpg/sg12_171_cif.got.tgz:340762.got - 2010.06.28 00:19:55.
