data_PCOD8094312
_publ_section_title
;
Structure prediction by ZEFSAII (Michael W. Deem and Ramdas Pophale) SiO2 
 PCOD8094312
Probable space group: C 2/M
;
_chemical_formula_sum "Si O2"
_cell_formula_units_Z 32
_cell_length_a 13.951990
_cell_length_b 13.167601
_cell_length_c 20.350571
_cell_angle_alpha 90.000000
_cell_angle_beta 156.220834
_cell_angle_gamma 90.000000
_cell_volume 1507.486657
_symmetry_space_group_name_H-M "C 2/M"
_symmetry_group_IT_number 12
_symmetry_cell_setting 'monoclinic'
loop_
_space_group_symop_operation_xyz
x,y,z
-x,y,-z
-x,-y,-z
x,-y,z
1/2+x,1/2+y,z
1/2-x,1/2+y,-z
1/2-x,1/2-y,-z
1/2+x,1/2-y,z
loop_
_atom_site_type_symbol
_atom_site_label
_atom_site_fract_x
_atom_site_fract_y
_atom_site_fract_z
Si Si1 0.326171 0.813165 0.660577
Si Si2 0.731395 0.196489 0.821712
Si Si3 0.339448 0.616758 0.304819
Si Si4 0.604141 0.108366 0.494526
O O1 0.588889 0.836687 0.798432
O O2 0.307593 0.832823 0.726624
O O3 0.122143 0.879430 0.496679
O O4 0.297653 0.696665 0.619026
O O5 0.722829 0.317471 0.798850
O O6 0.616523 0.135947 0.689912
O O7 0.000000 0.160307 0.000000
O O8 0.261641 0.500000 0.246012
O O9 0.500000 0.094203 0.500000
O O10 0.718534 0.000000 0.543526
#
# Coordination Sequence:
#
# PCOD8094312 Si02
#       4
#     8   8   8   8
#     4  10  19  37  64  86 114 156 198 245 290 347
#     4  11  24  38  58  88 127 155 189 241 303 353
#     4  10  20  39  63  88 115 154 204 246 287 345
#     4  10  19  37  61  84 112 150 198 241 286 345
#
# _framework density 21.227385999999999
#
# number of rings (size 3 to 8) (size 9 to 14) (size 15 to 20)
#    0.000    1.750    5.000    4.500    0.000    7.000 
#    0.000    0.000    0.000    0.000    0.000    0.000 
#    0.000    0.000    0.000    0.000    0.000    0.000 
#
# Total GULP energy -198262.331395 kJ/mol
# GULP energy per Si atom -12391.395712 kJ/mol
# Density = 2.117907 g / cm^3
# Si number density = 21.227386 Si / 1000 Ang^3
#
#
#
# Elastic Constant Matrix: (Units=GPa)
#
#
# Indices 1 2 3 4 5 6 
#
# 1 96.8009 19.2273 48.7528 -0.0244 27.7023 -0.0112
# 2 19.2273 126.3767 4.0054 -0.0543 2.7582 0.0428
# 3 48.7528 4.0054 78.5440 -0.0209 38.1839 0.0258
# 4 -0.0244 -0.0543 -0.0209 6.6529 0.0247 0.5711
# 5 27.7023 2.7582 38.1839 0.0247 30.6553 -0.0080
# 6 -0.0112 0.0428 0.0258 0.5711 -0.0080 61.7130
#
#
#
# Elastic Compliance Matrix: (Units=1/GPa)
#
#
# Indices 1 2 3 4 5 6 
#
# 1 0.015857 -0.002071 -0.007254 0.000037 -0.005108 0.000006
# 2 -0.002071 0.008200 0.000802 0.000062 0.000135 -0.000007
# 3 -0.007254 0.000802 0.035597 0.000235 -0.037857 -0.000024
# 4 0.000037 0.000062 0.000235 0.150433 -0.000453 -0.001392
# 5 -0.005108 0.000135 -0.037857 -0.000453 0.084380 0.000030
# 6 0.000006 -0.000007 -0.000024 -0.001392 0.000030 0.016217
#
#
# Mechanical properties :
#
#
# Convention : Reuss Voigt Hill
#
# Bulk Modulus (GPa) = 23.46978 49.52139 36.49558
# Shear Modulus (GPa) = 14.62278 35.11999 24.87139
#
# Velocity S-wave (km/s) = 2.62747 4.07193 3.42667
# Velocity P-wave (km/s) = 4.50391 6.74441 5.73464
#
# Compressibility (1/GPa) = 0.04260798
#
# Stress axis : x y z
#
# Youngs Moduli (GPa) = 63.06412 121.95678 28.09190
#
# Poissons Ratio (x) = 0.25259 0.20377
# Poissons Ratio (y) = 0.13061 -0.02252
# Poissons Ratio (z) = 0.45744 -0.09777
#
# Static dielectric constant tensor:
#      x y z
#    x 3.903160 0.000260 0.060770 
#    y 0.000260 5.312940 0.000440 
#    z 0.060770 0.000440 3.371450 
# 
# 
# High freq. dielectric constant tensor:
#      x y z
#    x 1.841480 0.000000 0.010640 
#    y 0.000000 1.837950 -0.000010 
#    z 0.010640 -0.000010 1.782920 
# 
# From -- ./inp_files/142441.got.cif
#   From: 2010.06.25/outbox.cif.g09.slc.cpg/sg12_72_cif.got.tgz:142441.got - 2010.06.28 00:19:55.
