data_PCOD8094528
_publ_section_title
;
Structure prediction by ZEFSAII (Michael W. Deem and Ramdas Pophale) SiO2 
 PCOD8094528
Probable space group: C 2/M
;
_chemical_formula_sum "Si O2"
_cell_formula_units_Z 40
_cell_length_a 14.701284
_cell_length_b 29.369892
_cell_length_c 5.208986
_cell_angle_alpha 90.000000
_cell_angle_beta 52.384684
_cell_angle_gamma 90.000000
_cell_volume 1781.580118
_symmetry_space_group_name_H-M "C 2/M"
_symmetry_group_IT_number 12
_symmetry_cell_setting 'monoclinic'
loop_
_space_group_symop_operation_xyz
x,y,z
-x,y,-z
-x,-y,-z
x,-y,z
1/2+x,1/2+y,z
1/2-x,1/2+y,-z
1/2-x,1/2-y,-z
1/2+x,1/2-y,z
loop_
_atom_site_type_symbol
_atom_site_label
_atom_site_fract_x
_atom_site_fract_y
_atom_site_fract_z
Si Si1 0.430631 0.814343 0.368648
Si Si2 0.371551 0.286081 0.451574
Si Si3 0.127468 0.825923 0.050463
Si Si4 0.282629 0.099805 0.789759
Si Si5 0.369219 0.947147 0.158893
O O1 0.500000 0.799031 0.500000
O O2 0.372194 0.766995 0.382728
O O3 0.351347 0.855046 0.597706
O O4 0.500000 0.832345 0.000000
O O5 0.495308 0.311758 0.260919
O O6 0.308983 0.298630 0.825754
O O7 0.307610 0.309922 0.322389
O O8 0.151659 0.880632 0.045574
O O9 0.291240 0.063826 0.542406
O O10 0.329042 0.079589 0.975574
O O11 0.356568 0.000000 0.115541
O O12 0.500000 0.934216 0.000000
#
# Coordination Sequence:
#
# PCOD8094528 Si02
#       5
#     8   8   8   8   8
#     4  12  21  36  54  79 123 162 200 238 281 334
#     4  10  19  38  54  77 120 175 195 225 294 329
#     4  10  20  36  56  83 119 157 207 234 281 339
#     4  12  24  36  62  96 113 148 207 251 281 342
#     4  11  24  45  65  86 119 152 185 238 317 367
#
# _framework density 22.451976999999999
#
# number of rings (size 3 to 8) (size 9 to 14) (size 15 to 20)
#    0.000    1.000    4.000    5.400    0.000    3.200 
#    0.000    0.000    0.000    0.000    0.000   56.000 
#    0.000    0.000    0.000    0.000    0.000    0.000 
#
# Total GULP energy -247778.274035 kJ/mol
# GULP energy per Si atom -12388.913702 kJ/mol
# Density = 2.240088 g / cm^3
# Si number density = 22.451977 Si / 1000 Ang^3
#
#
#
# Elastic Constant Matrix: (Units=GPa)
#
#
# Indices 1 2 3 4 5 6 
#
# 1 79.1423 61.4700 54.9240 0.0000 38.9741 0.0000
# 2 61.4700 121.7772 31.5546 0.0000 7.6318 0.0000
# 3 54.9240 31.5546 97.4993 0.0000 45.6315 0.0000
# 4 0.0000 0.0000 0.0000 -75.3077 0.0000 347.5352
# 5 38.9741 7.6318 45.6315 0.0000 57.9709 0.0000
# 6 0.0000 0.0000 0.0000 347.5352 0.0000 -932.9982
#
#
#
# Elastic Compliance Matrix: (Units=1/GPa)
#
#
# Indices 1 2 3 4 5 6 
#
# 1 0.041749 -0.017537 -0.009162 0.000000 -0.018547 0.000000
# 2 -0.017537 0.016443 0.000083 0.000000 0.009560 0.000000
# 3 -0.009162 0.000083 0.019812 0.000000 -0.009446 0.000000
# 4 0.000000 0.000000 0.000000 0.018468 0.000000 0.006879
# 5 -0.018547 0.009560 -0.009446 0.000000 0.035896 0.000000
# 6 0.000000 0.000000 0.000000 0.006879 0.000000 0.001491
#
#
# Mechanical properties :
#
#
# Convention : Reuss Voigt Hill
#
# Bulk Modulus (GPa) = 40.36881 66.03509 53.20195
# Shear Modulus (GPa) = 25.59525 -180.03566 -77.22020
#
# Velocity S-wave (km/s) = 3.38005 -8.96443 -5.87096
# Velocity P-wave (km/s) = 5.76646 8.81320 4.71277
#
# Compressibility (1/GPa) = 0.02477160
#
# Stress axis : x y z
#
# Youngs Moduli (GPa) = 23.95273 60.81457 50.47548
#
# Poissons Ratio (x) = 1.06653 0.46246
# Poissons Ratio (y) = 0.42007 -0.00420
# Poissons Ratio (z) = 0.21945 -0.00506
#
# Static dielectric constant tensor:
#      x y z
#    x 5.430280 0.000000 1.799070 
#    y 0.000000 4.036190 0.000000 
#    z 1.799070 0.000000 6.458680 
# 
# 
# High freq. dielectric constant tensor:
#      x y z
#    x 1.889320 0.000000 0.034720 
#    y 0.000000 1.872440 0.000000 
#    z 0.034720 0.000000 1.897390 
# 
# From -- ./inp_files/17289.got.cif
#   From: 2010.06.25/outbox.cif.g09.slc.cpg/sg12_9_cif.got.tgz:17289.got - 2010.06.28 00:19:55.
