data_PCOD8094759
_publ_section_title
;
Structure prediction by ZEFSAII (Michael W. Deem and Ramdas Pophale) SiO2 
 PCOD8094759
Probable space group: C 2/M
;
_chemical_formula_sum "Si O2"
_cell_formula_units_Z 44
_cell_length_a 16.869811
_cell_length_b 16.361802
_cell_length_c 8.533148
_cell_angle_alpha 90.000000
_cell_angle_beta 76.892975
_cell_angle_gamma 90.000000
_cell_volume 2293.963345
_symmetry_space_group_name_H-M "C 2/M"
_symmetry_group_IT_number 12
_symmetry_cell_setting 'monoclinic'
loop_
_space_group_symop_operation_xyz
x,y,z
-x,y,-z
-x,-y,-z
x,-y,z
1/2+x,1/2+y,z
1/2-x,1/2+y,-z
1/2-x,1/2-y,-z
1/2+x,1/2-y,z
loop_
_atom_site_type_symbol
_atom_site_label
_atom_site_fract_x
_atom_site_fract_y
_atom_site_fract_z
Si Si1 0.000000 0.174061 0.500000
Si Si2 0.414238 0.256627 0.071411
Si Si3 0.093079 0.907609 0.734812
Si Si4 0.358643 0.752070 0.754048
Si Si5 0.214466 0.409103 0.368410
Si Si6 0.717275 0.811957 0.646748
O O1 0.942354 0.117956 0.418591
O O2 0.944808 0.231578 0.635436
O O3 0.438550 0.348582 0.113459
O O4 0.366778 0.215050 0.236107
O O5 0.500000 0.210421 0.000000
O O6 0.360812 0.254498 0.939622
O O7 0.189816 0.899036 0.696497
O O8 0.065169 0.000000 0.783096
O O9 0.332375 0.843951 0.718903
O O10 0.290509 0.684116 0.738932
O O11 0.184615 0.500000 0.336214
O O12 0.197575 0.395413 0.562603
O O13 0.750000 0.750000 0.500000
#
# Coordination Sequence:
#
# PCOD8094759 Si02
#       6
#     4   8   8   8   8   8
#     4  12  21  40  61  92 118 170 200 246 289 368
#     4  12  23  38  61  93 122 160 199 252 301 358
#     4  11  22  39  60  92 128 158 194 248 307 361
#     4  11  22  36  65  87 121 160 211 240 298 359
#     4  10  21  40  65  89 117 159 207 254 297 352
#     4  10  19  39  62  85 115 160 206 240 288 363
#
# _framework density 19.180779000000001
#
# number of rings (size 3 to 8) (size 9 to 14) (size 15 to 20)
#    0.000    1.091    7.273    1.909    0.000    0.364 
#    0.000    2.273    0.000    1.091    0.000    0.000 
#    0.000    0.000    0.000    0.000    0.000    0.000 
#
# Total GULP energy -272671.346781 kJ/mol
# GULP energy per Si atom -12394.152126 kJ/mol
# Density = 1.913712 g / cm^3
# Si number density = 19.180779 Si / 1000 Ang^3
#
#
#
# Elastic Constant Matrix: (Units=GPa)
#
#
# Indices 1 2 3 4 5 6 
#
# 1 72.6409 18.3910 31.9617 0.0000 -5.9882 0.0000
# 2 18.3910 80.1450 27.1205 0.0000 6.3455 0.0000
# 3 31.9617 27.1205 106.4411 0.0000 1.6342 0.0000
# 4 0.0000 0.0000 0.0000 17.5631 0.0000 1.8685
# 5 -5.9882 6.3455 1.6342 0.0000 50.1664 0.0000
# 6 0.0000 0.0000 0.0000 1.8685 0.0000 21.3745
#
#
#
# Elastic Compliance Matrix: (Units=1/GPa)
#
#
# Indices 1 2 3 4 5 6 
#
# 1 0.016520 -0.002508 -0.004359 0.000000 0.002431 0.000000
# 2 -0.002508 0.014168 -0.002826 0.000000 -0.001999 0.000000
# 3 -0.004359 -0.002826 0.011432 0.000000 -0.000535 0.000000
# 4 0.000000 0.000000 0.000000 0.057472 0.000000 -0.005024
# 5 0.002431 -0.001999 -0.000535 0.000000 0.020494 0.000000
# 6 0.000000 0.000000 0.000000 -0.005024 0.000000 0.047224
#
#
# Mechanical properties :
#
#
# Convention : Reuss Voigt Hill
#
# Bulk Modulus (GPa) = 43.98843 46.01929 45.00386
# Shear Modulus (GPa) = 25.73701 29.93772 27.83736
#
# Velocity S-wave (km/s) = 3.66705 3.95501 3.81375
# Velocity P-wave (km/s) = 6.39633 6.70079 6.55033
#
# Compressibility (1/GPa) = 0.02273325
#
# Stress axis : x y z
#
# Youngs Moduli (GPa) = 60.53419 70.58381 87.47452
#
# Poissons Ratio (x) = 0.17705 0.38127
# Poissons Ratio (y) = 0.15184 0.24720
# Poissons Ratio (z) = 0.26385 0.19946
#
# Static dielectric constant tensor:
#      x y z
#    x 3.652130 0.000000 0.110610 
#    y 0.000000 3.654480 0.000000 
#    z 0.110610 0.000000 3.652880 
# 
# 
# High freq. dielectric constant tensor:
#      x y z
#    x 1.755870 0.000000 0.000990 
#    y 0.000000 1.713310 0.000000 
#    z 0.000990 0.000000 1.754280 
# 
# From -- ./inp_files/61092.got.cif
#   From: 2010.06.25/outbox.cif.g09.slc.cpg/sg12_31_cif.got.tgz:61092.got - 2010.06.28 00:19:55.
