data_PCOD8094520
_publ_section_title
;
Structure prediction by ZEFSAII (Michael W. Deem and Ramdas Pophale) SiO2 
 PCOD8094520
Probable space group: C 2/M
;
_chemical_formula_sum "Si O2"
_cell_formula_units_Z 44
_cell_length_a 15.803707
_cell_length_b 14.095158
_cell_length_c 15.773169
_cell_angle_alpha 90.000000
_cell_angle_beta 146.274860
_cell_angle_gamma 90.000000
_cell_volume 1950.763839
_symmetry_space_group_name_H-M "C 2/M"
_symmetry_group_IT_number 12
_symmetry_cell_setting 'monoclinic'
loop_
_space_group_symop_operation_xyz
x,y,z
-x,y,-z
-x,-y,-z
x,-y,z
1/2+x,1/2+y,z
1/2-x,1/2+y,-z
1/2-x,1/2-y,-z
1/2+x,1/2-y,z
loop_
_atom_site_type_symbol
_atom_site_label
_atom_site_fract_x
_atom_site_fract_y
_atom_site_fract_z
Si Si1 0.693343 0.811163 0.305835
Si Si2 0.019478 0.891884 0.368507
Si Si3 0.000000 0.702488 0.000000
Si Si4 0.798936 0.897409 0.654213
Si Si5 0.730178 0.243759 0.883346
Si Si6 0.516948 0.896025 0.310837
O O1 0.864270 0.849498 0.463250
O O2 0.611908 0.859180 0.155397
O O3 0.686572 0.697601 0.277417
O O4 0.591679 0.827356 0.303861
O O5 0.098638 0.887261 0.343780
O O6 0.864002 0.832184 0.234813
O O7 0.981268 0.000000 0.362170
O O8 0.893727 0.764196 0.974624
O O9 0.623054 0.901671 0.480794
O O10 0.838233 0.000000 0.731883
O O11 0.642589 0.146210 0.790910
O O12 0.750000 0.250000 0.000000
O O13 0.491598 0.000000 0.249344
#
# Coordination Sequence:
#
# PCOD8094520 Si02
#       6
#     8   8   4   8   8   8
#     4  11  19  42  62  98 135 168 218 273 321 390
#     4  10  20  38  68  96 127 175 219 264 326 394
#     4  12  28  40  68  98 132 176 218 272 336 382
#     4   9  16  32  67 102 122 161 221 269 321 388
#     4  12  23  45  65  94 135 172 214 270 327 385
#     4  10  19  37  69  96 125 173 216 264 329 390
#
# _framework density 22.555266
#
# number of rings (size 3 to 8) (size 9 to 14) (size 15 to 20)
#    0.000    1.455    5.455    2.727    0.000    1.455 
#    0.000    7.727    0.000    2.182    0.000    0.000 
#    0.000    0.000    0.000    0.000    0.000    0.000 
#
# Total GULP energy -272559.200082 kJ/mol
# GULP energy per Si atom -12389.054549 kJ/mol
# Density = 2.250393 g / cm^3
# Si number density = 22.555266 Si / 1000 Ang^3
#
#
#
# Elastic Constant Matrix: (Units=GPa)
#
#
# Indices 1 2 3 4 5 6 
#
# 1 75.7203 10.0551 40.5411 -0.0010 21.3522 -0.0004
# 2 10.0551 163.5711 45.1676 -0.0020 8.1225 -0.0008
# 3 40.5411 45.1676 131.2650 -0.0038 3.6335 -0.0016
# 4 -0.0010 -0.0020 -0.0038 11.0598 -0.0015 1.9730
# 5 21.3522 8.1225 3.6335 -0.0015 36.3683 -0.0005
# 6 -0.0004 -0.0008 -0.0016 1.9730 -0.0005 7.0871
#
#
#
# Elastic Compliance Matrix: (Units=1/GPa)
#
#
# Indices 1 2 3 4 5 6 
#
# 1 0.019415 0.001023 -0.006043 -0.000001 -0.011023 -0.000001
# 2 0.001023 0.006869 -0.002628 0.000000 -0.001872 0.000000
# 3 -0.006043 -0.002628 0.010303 0.000003 0.003105 0.000001
# 4 -0.000001 0.000000 0.000003 0.095142 0.000004 -0.026487
# 5 -0.011023 -0.001872 0.003105 0.000004 0.034076 0.000001
# 6 -0.000001 0.000000 0.000001 -0.026487 0.000001 0.148475
#
#
# Mechanical properties :
#
#
# Convention : Reuss Voigt Hill
#
# Bulk Modulus (GPa) = 46.96932 62.45376 54.71154
# Shear Modulus (GPa) = 14.85122 29.22256 22.03689
#
# Velocity S-wave (km/s) = 2.56879 3.60335 3.12912
# Velocity P-wave (km/s) = 5.44679 6.71278 6.11265
#
# Compressibility (1/GPa) = 0.02129049
#
# Stress axis : x y z
#
# Youngs Moduli (GPa) = 51.50788 145.57654 97.06166
#
# Poissons Ratio (x) = -0.14886 0.58653
# Poissons Ratio (y) = -0.05267 0.25505
# Poissons Ratio (z) = 0.31126 0.38253
#
# Static dielectric constant tensor:
#      x y z
#    x 3.668830 0.000000 0.126360 
#    y 0.000000 4.304660 0.000000 
#    z 0.126360 0.000000 4.371660 
# 
# 
# High freq. dielectric constant tensor:
#      x y z
#    x 1.857610 0.000000 0.012020 
#    y 0.000000 1.878150 0.000000 
#    z 0.012020 0.000000 1.897750 
# 
# From -- ./inp_files/277923.got.cif
#   From: 2010.06.25/outbox.cif.g09.slc.cpg/sg12_139_cif.got.tgz:277923.got - 2010.06.28 00:19:55.
