data_PCOD8094569
_publ_section_title
;
Structure prediction by ZEFSAII (Michael W. Deem and Ramdas Pophale) SiO2 
 PCOD8094569
Probable space group: C 2/M
;
_chemical_formula_sum "Si O2"
_cell_formula_units_Z 40
_cell_length_a 17.435897
_cell_length_b 12.322723
_cell_length_c 20.552655
_cell_angle_alpha 90.000000
_cell_angle_beta 151.354024
_cell_angle_gamma 90.000000
_cell_volume 2116.964249
_symmetry_space_group_name_H-M "C 2/M"
_symmetry_group_IT_number 12
_symmetry_cell_setting 'monoclinic'
loop_
_space_group_symop_operation_xyz
x,y,z
-x,y,-z
-x,-y,-z
x,-y,z
1/2+x,1/2+y,z
1/2-x,1/2+y,-z
1/2-x,1/2-y,-z
1/2+x,1/2-y,z
loop_
_atom_site_type_symbol
_atom_site_label
_atom_site_fract_x
_atom_site_fract_y
_atom_site_fract_z
Si Si1 0.083430 0.625776 0.774815
Si Si2 0.383937 0.210398 0.746857
Si Si3 0.383590 0.271528 0.547394
Si Si4 0.264536 0.000000 0.709400
Si Si5 0.957404 0.875098 0.040238
Si Si6 0.984880 0.000000 0.593169
O O1 0.032061 0.500000 0.736666
O O2 0.004827 0.686006 0.777752
O O3 0.021165 0.681302 0.661204
O O4 0.271964 0.641042 0.917931
O O5 0.202820 0.237529 0.587191
O O6 0.442746 0.312055 0.831452
O O7 0.376595 0.105980 0.788695
O O8 0.250000 0.250000 0.500000
O O9 0.457747 0.391340 0.614986
O O10 0.142552 0.000000 0.559078
O O11 0.167403 0.000000 0.704279
O O12 0.008757 0.000000 0.084170
O O13 0.000000 0.831476 0.000000
#
# Coordination Sequence:
#
# PCOD8094569 Si02
#       6
#     8   8   8   4   8   4
#     4  10  20  38  59  82 114 151 189 233 286 336
#     4  10  19  38  60  83 111 147 194 230 285 338
#     4   9  20  33  59  86 115 149 182 232 277 335
#     4   9  18  32  60  81 113 148 176 240 286 331
#     4  10  23  40  57  78 113 154 191 234 284 338
#     4   9  18  34  51  88 121 142 181 226 292 326
#
# _framework density 18.894981999999999
#
# number of rings (size 3 to 8) (size 9 to 14) (size 15 to 20)
#    0.000    2.400    1.000    0.600    7.000    0.800 
#    5.400    1.500    0.000    3.600    0.000    0.000 
#    0.000    0.000    0.000    0.000    0.000    0.000 
#
# Total GULP energy -247937.558361 kJ/mol
# GULP energy per Si atom -12396.877918 kJ/mol
# Density = 1.885198 g / cm^3
# Si number density = 18.894982 Si / 1000 Ang^3
#
#
#
# Elastic Constant Matrix: (Units=GPa)
#
#
# Indices 1 2 3 4 5 6 
#
# 1 89.7660 49.0498 23.8169 0.0007 4.3556 0.0003
# 2 49.0498 120.2683 64.0858 0.0009 -15.6454 -0.0001
# 3 23.8169 64.0858 81.8227 0.0030 -10.7843 0.0023
# 4 0.0007 0.0009 0.0030 34.5255 0.0011 -7.2225
# 5 4.3556 -15.6454 -10.7843 0.0011 21.3181 0.0009
# 6 0.0003 -0.0001 0.0023 -7.2225 0.0009 22.9244
#
#
#
# Elastic Compliance Matrix: (Units=1/GPa)
#
#
# Indices 1 2 3 4 5 6 
#
# 1 0.015683 -0.007695 0.000317 0.000000 -0.008692 0.000000
# 2 -0.007695 0.018598 -0.011057 0.000001 0.009628 0.000001
# 3 0.000317 -0.011057 0.021120 -0.000002 0.002504 -0.000003
# 4 0.000000 0.000001 -0.000002 0.031008 -0.000003 0.009769
# 5 -0.008692 0.009628 0.002504 -0.000003 0.057017 -0.000003
# 6 0.000000 0.000001 -0.000003 0.009769 -0.000003 0.046700
#
#
# Mechanical properties :
#
#
# Convention : Reuss Voigt Hill
#
# Bulk Modulus (GPa) = 53.97163 62.86245 58.41704
# Shear Modulus (GPa) = 21.44340 26.08058 23.76199
#
# Velocity S-wave (km/s) = 3.37244 3.71926 3.55009
# Velocity P-wave (km/s) = 6.61744 7.19621 6.91288
#
# Compressibility (1/GPa) = 0.01852825
#
# Stress axis : x y z
#
# Youngs Moduli (GPa) = 63.76462 53.77041 47.34910
#
# Poissons Ratio (x) = 0.41379 -0.01500
# Poissons Ratio (y) = 0.49070 0.52355
# Poissons Ratio (z) = -0.02020 0.59455
#
# Static dielectric constant tensor:
#      x y z
#    x 3.440320 -0.000010 0.139750 
#    y -0.000010 3.776750 -0.000010 
#    z 0.139750 -0.000010 3.801350 
# 
# 
# High freq. dielectric constant tensor:
#      x y z
#    x 1.726650 0.000000 0.015690 
#    y 0.000000 1.742280 0.000000 
#    z 0.015690 0.000000 1.718710 
# 
# From -- ./inp_files/83611.got.cif
#   From: 2010.06.25/outbox.cif.g09.slc.cpg/sg12_42_cif.got.tgz:83611.got - 2010.06.28 00:19:55.
