data_PCOD8094609
_publ_section_title
;
Structure prediction by ZEFSAII (Michael W. Deem and Ramdas Pophale) SiO2 
 PCOD8094609
Probable space group: C 2/M
;
_chemical_formula_sum "Si O2"
_cell_formula_units_Z 64
_cell_length_a 20.222579
_cell_length_b 8.880667
_cell_length_c 19.981718
_cell_angle_alpha 90.000000
_cell_angle_beta 113.918660
_cell_angle_gamma 90.000000
_cell_volume 3280.341772
_symmetry_space_group_name_H-M "C 2/M"
_symmetry_group_IT_number 12
_symmetry_cell_setting 'monoclinic'
loop_
_space_group_symop_operation_xyz
x,y,z
-x,y,-z
-x,-y,-z
x,-y,z
1/2+x,1/2+y,z
1/2-x,1/2+y,-z
1/2-x,1/2-y,-z
1/2+x,1/2-y,z
loop_
_atom_site_type_symbol
_atom_site_label
_atom_site_fract_x
_atom_site_fract_y
_atom_site_fract_z
Si Si1 0.939151 0.677667 0.862336
Si Si2 0.180465 0.177576 0.688926
Si Si3 0.674256 0.178142 0.449554
Si Si4 0.336421 0.326359 0.924259
Si Si5 0.334721 0.822063 0.704105
Si Si6 0.590428 0.326505 0.907976
Si Si7 0.825704 0.677287 0.175002
Si Si8 0.416899 0.324834 0.476112
O O1 0.952961 0.500000 0.868558
O O2 0.889001 0.719734 0.904072
O O3 0.900692 0.731653 0.777776
O O4 0.013958 0.763602 0.900982
O O5 0.259369 0.242854 0.702029
O O6 0.152722 0.256901 0.744413
O O7 0.125730 0.222593 0.607756
O O8 0.181904 0.000000 0.701815
O O9 0.750000 0.250000 0.500000
O O10 0.652486 0.234180 0.366245
O O11 0.611183 0.229819 0.472856
O O12 0.683237 0.000000 0.455795
O O13 0.347737 0.500000 0.907158
O O14 0.254839 0.271278 0.878203
O O15 0.352257 0.304410 0.008993
O O16 0.328018 0.000000 0.702632
O O17 0.581654 0.500000 0.885051
O O18 0.616859 0.237450 0.854363
O O19 0.832850 0.500000 0.180141
O O20 0.500000 0.283749 0.500000
O O21 0.405004 0.500000 0.487356
#
# Coordination Sequence:
#
# PCOD8094609 Si02
#       8
#     8   8   8   8   8   8   8   8
#     4  11  22  38  61  88 117 153 197 242 291 346
#     4  10  19  38  62  84 118 158 192 233 294 351
#     4  11  21  37  61  88 118 153 195 241 289 342
#     4  10  22  40  61  86 117 153 195 242 291 349
#     4   9  19  36  59  86 117 153 191 238 291 344
#     4  11  24  41  59  83 120 159 192 237 299 351
#     4  11  23  39  61  90 118 149 199 247 285 342
#     4  10  22  40  61  88 122 157 195 238 288 348
#
# _framework density 19.510162000000001
#
# number of rings (size 3 to 8) (size 9 to 14) (size 15 to 20)
#    0.000    1.625    2.500    2.250    0.000    4.750 
#    0.000    5.000    0.000    0.000    0.000    0.000 
#    0.000    0.000    0.000    0.000    0.000    0.000 
#
# Total GULP energy -396961.184428 kJ/mol
# GULP energy per Si atom -12405.037013 kJ/mol
# Density = 1.946576 g / cm^3
# Si number density = 19.510162 Si / 1000 Ang^3
#
#
#
# Elastic Constant Matrix: (Units=GPa)
#
#
# Indices 1 2 3 4 5 6 
#
# 1 78.0478 24.4958 20.0767 0.0000 -11.3935 0.0000
# 2 24.4958 52.8070 29.9212 0.0000 -9.5968 0.0000
# 3 20.0767 29.9212 86.1415 0.0000 -15.7833 0.0000
# 4 0.0000 0.0000 0.0000 25.6912 0.0000 -7.1903
# 5 -11.3935 -9.5968 -15.7833 0.0000 38.0913 0.0000
# 6 0.0000 0.0000 0.0000 -7.1903 0.0000 33.5905
#
#
#
# Elastic Compliance Matrix: (Units=1/GPa)
#
#
# Indices 1 2 3 4 5 6 
#
# 1 0.015363 -0.006089 -0.000979 0.000000 0.002656 0.000000
# 2 -0.006089 0.026261 -0.007385 0.000000 0.001735 0.000000
# 3 -0.000979 -0.007385 0.015158 0.000000 0.004128 0.000000
# 4 0.000000 0.000000 0.000000 0.041404 0.000000 0.008863
# 5 0.002656 0.001735 0.004128 0.000000 0.029194 0.000000
# 6 0.000000 0.000000 0.000000 0.008863 0.000000 0.031668
#
#
# Mechanical properties :
#
#
# Convention : Reuss Voigt Hill
#
# Bulk Modulus (GPa) = 35.87213 40.66484 38.26848
# Shear Modulus (GPa) = 25.34886 28.97476 27.16181
#
# Velocity S-wave (km/s) = 3.60844 3.85789 3.73525
# Velocity P-wave (km/s) = 5.98226 6.38221 6.18547
#
# Compressibility (1/GPa) = 0.02787679
#
# Stress axis : x y z
#
# Youngs Moduli (GPa) = 65.09004 38.07902 65.97037
#
# Poissons Ratio (x) = 0.23188 0.06458
# Poissons Ratio (y) = 0.39636 0.48717
# Poissons Ratio (z) = 0.06372 0.28120
#
# Static dielectric constant tensor:
#      x y z
#    x 3.561690 0.000000 -0.022190 
#    y 0.000000 3.461460 0.000000 
#    z -0.022190 0.000000 3.872690 
# 
# 
# High freq. dielectric constant tensor:
#      x y z
#    x 1.762550 0.000000 -0.003330 
#    y 0.000000 1.750690 0.000000 
#    z -0.003330 0.000000 1.773530 
# 
# From -- ./inp_files/320096.got.cif
#   From: 2010.06.25/outbox.cif.g09.slc.cpg/sg12_161_cif.got.tgz:320096.got - 2010.06.28 00:19:55.
