data_PCOD8094769
_publ_section_title
;
Structure prediction by ZEFSAII (Michael W. Deem and Ramdas Pophale) SiO2 
 PCOD8094769
Probable space group: C 2/M
;
_chemical_formula_sum "Si O2"
_cell_formula_units_Z 48
_cell_length_a 10.844879
_cell_length_b 22.867370
_cell_length_c 10.783275
_cell_angle_alpha 90.000000
_cell_angle_beta 59.831792
_cell_angle_gamma 90.000000
_cell_volume 2311.977619
_symmetry_space_group_name_H-M "C 2/M"
_symmetry_group_IT_number 12
_symmetry_cell_setting 'monoclinic'
loop_
_space_group_symop_operation_xyz
x,y,z
-x,y,-z
-x,-y,-z
x,-y,z
1/2+x,1/2+y,z
1/2-x,1/2+y,-z
1/2-x,1/2-y,-z
1/2+x,1/2-y,z
loop_
_atom_site_type_symbol
_atom_site_label
_atom_site_fract_x
_atom_site_fract_y
_atom_site_fract_z
Si Si1 0.912823 0.771970 0.422578
Si Si2 0.319205 0.762629 0.833660
Si Si3 0.679188 0.152982 0.812207
Si Si4 0.291048 0.000000 0.538538
Si Si5 0.636927 0.399901 0.491725
Si Si6 0.134837 0.621688 0.098321
Si Si7 0.415130 0.000000 0.744417
O O1 0.750000 0.750000 0.500000
O O2 0.914613 0.841710 0.413046
O O3 0.000000 0.748983 0.500000
O O4 0.009521 0.749829 0.258669
O O5 0.238258 0.720631 0.774932
O O6 0.299722 0.833775 0.829811
O O7 0.250000 0.750000 0.000000
O O8 0.749904 0.114136 0.671219
O O9 0.513457 0.151123 0.866940
O O10 0.721541 0.123663 0.924130
O O11 0.201857 0.941802 0.561819
O O12 0.326996 0.000000 0.663708
O O13 0.420444 0.000000 0.375648
O O14 0.500000 0.431230 0.500000
O O15 0.124460 0.556358 0.154197
#
# Coordination Sequence:
#
# PCOD8094769 Si02
#       7
#     8   8   8   4   8   8   4
#     4  11  23  38  63  95 132 167 218 268 329 398
#     4  10  21  39  63  97 133 170 210 277 338 391
#     4  10  19  39  63  99 123 164 221 277 324 391
#     4  11  25  41  63  88 132 169 218 263 329 398
#     4  11  21  41  64  92 125 162 222 268 321 387
#     4  10  22  38  67  90 135 165 219 270 330 392
#     4  11  24  44  60  95 129 176 212 265 334 402
#
# _framework density 20.761447
#
# number of rings (size 3 to 8) (size 9 to 14) (size 15 to 20)
#    0.000    1.500    5.000    1.250    0.000    3.333 
#    0.000    0.000    0.000    2.000    0.000    0.000 
#    0.000    0.000    0.000    0.000    0.000    0.000 
#
# Total GULP energy -297327.218443 kJ/mol
# GULP energy per Si atom -12388.634102 kJ/mol
# Density = 2.071419 g / cm^3
# Si number density = 20.761447 Si / 1000 Ang^3
#
#
#
# Elastic Constant Matrix: (Units=GPa)
#
#
# Indices 1 2 3 4 5 6 
#
# 1 64.8230 34.9177 7.8185 0.0000 -7.4789 0.0000
# 2 34.9177 153.7932 33.4976 0.0000 14.2138 0.0000
# 3 7.8185 33.4976 89.7229 0.0000 -10.2688 0.0000
# 4 0.0000 0.0000 0.0000 37.1970 0.0000 -0.0487
# 5 -7.4789 14.2138 -10.2688 0.0000 24.5576 0.0000
# 6 0.0000 0.0000 0.0000 -0.0487 0.0000 31.5181
#
#
#
# Elastic Compliance Matrix: (Units=1/GPa)
#
#
# Indices 1 2 3 4 5 6 
#
# 1 0.019421 -0.005654 0.001544 0.000000 0.009833 0.000000
# 2 -0.005654 0.009498 -0.004075 0.000000 -0.008923 0.000000
# 3 0.001544 -0.004075 0.013502 0.000000 0.008474 0.000000
# 4 0.000000 0.000000 0.000000 0.026884 0.000000 0.000042
# 5 0.009833 -0.008923 0.008474 0.000000 0.052423 0.000000
# 6 0.000000 0.000000 0.000000 0.000042 0.000000 0.031728
#
#
# Mechanical properties :
#
#
# Convention : Reuss Voigt Hill
#
# Bulk Modulus (GPa) = 38.38632 51.20074 44.79353
# Shear Modulus (GPa) = 28.00966 34.12823 31.06894
#
# Velocity S-wave (km/s) = 3.67702 4.05881 3.87262
# Velocity P-wave (km/s) = 6.04621 6.83230 6.45124
#
# Compressibility (1/GPa) = 0.02605095
#
# Stress axis : x y z
#
# Youngs Moduli (GPa) = 51.49156 105.28263 74.06293
#
# Poissons Ratio (x) = 0.59531 -0.11436
# Poissons Ratio (y) = 0.29115 0.30178
# Poissons Ratio (z) = -0.07951 0.42899
#
# Static dielectric constant tensor:
#      x y z
#    x 3.974470 0.000000 0.021440 
#    y 0.000000 3.871180 0.000000 
#    z 0.021440 0.000000 4.346550 
# 
# 
# High freq. dielectric constant tensor:
#      x y z
#    x 1.798820 0.000000 -0.010370 
#    y 0.000000 1.808910 0.000000 
#    z -0.010370 0.000000 1.822880 
# 
# From -- ./inp_files/133029.got.cif
#   From: 2010.06.25/outbox.cif.g09.slc.cpg/sg12_67_cif.got.tgz:133029.got - 2010.06.28 00:19:55.
