data_PCOD8094380
_publ_section_title
;
Structure prediction by ZEFSAII (Michael W. Deem and Ramdas Pophale) SiO2 
 PCOD8094380
Probable space group: C 2/M
;
_chemical_formula_sum "Si O2"
_cell_formula_units_Z 64
_cell_length_a 13.585367
_cell_length_b 23.587433
_cell_length_c 9.949882
_cell_angle_alpha 90.000000
_cell_angle_beta 97.671024
_cell_angle_gamma 90.000000
_cell_volume 3159.845992
_symmetry_space_group_name_H-M "C 2/M"
_symmetry_group_IT_number 12
_symmetry_cell_setting 'monoclinic'
loop_
_space_group_symop_operation_xyz
x,y,z
-x,y,-z
-x,-y,-z
x,-y,z
1/2+x,1/2+y,z
1/2-x,1/2+y,-z
1/2-x,1/2-y,-z
1/2+x,1/2-y,z
loop_
_atom_site_type_symbol
_atom_site_label
_atom_site_fract_x
_atom_site_fract_y
_atom_site_fract_z
Si Si1 0.105257 0.062861 0.471125
Si Si2 0.887636 0.719224 0.934579
Si Si3 0.886478 0.934605 0.996147
Si Si4 0.275896 0.129601 0.387518
Si Si5 0.278322 0.560613 0.237818
Si Si6 0.042487 0.438481 0.653215
Si Si7 0.265360 0.329232 0.890897
Si Si8 0.373642 0.856123 0.691501
O O1 0.163139 0.105963 0.383885
O O2 0.177300 0.055589 0.607960
O O3 0.000000 0.089117 0.500000
O O4 0.087345 0.000000 0.402219
O O5 0.847929 0.782853 0.941214
O O6 0.883778 0.702271 0.775401
O O7 0.825381 0.677472 0.021247
O O8 0.000000 0.717679 0.000000
O O9 0.812459 0.892360 0.904996
O O10 0.869069 0.000000 0.946163
O O11 0.865869 0.925713 0.150222
O O12 0.000000 0.916252 0.000000
O O13 0.343028 0.079277 0.339220
O O14 0.271713 0.178194 0.271277
O O15 0.325855 0.154053 0.534476
O O16 0.228494 0.500000 0.191695
O O17 0.195499 0.607992 0.221902
O O18 0.036755 0.500000 0.727915
O O19 0.000000 0.448577 0.500000
O O20 0.979078 0.388455 0.710187
#
# Coordination Sequence:
#
# PCOD8094380 Si02
#       8
#     8   8   8   8   8   8   8   8
#     4   9  18  31  50  79 118 159 194 233 288 349
#     4  11  24  44  65  84 113 160 201 245 298 360
#     4  10  21  36  58  87 120 158 200 246 294 350
#     4  10  21  35  57  88 118 153 194 247 294 349
#     4   9  17  32  53  81 116 155 192 236 292 347
#     4   9  17  31  56  89 123 157 190 232 292 355
#     4  11  24  42  62  88 121 154 199 248 302 356
#     4  10  19  37  62  86 117 152 198 244 291 349
#
# _framework density 20.254151
#
# number of rings (size 3 to 8) (size 9 to 14) (size 15 to 20)
#    0.000    2.125    1.250    1.875    1.750    4.500 
#    0.000    0.000    0.000    4.125    0.000    0.000 
#    0.000    0.000    0.000    0.000    0.000    0.000 
#
# Total GULP energy -396523.601487 kJ/mol
# GULP energy per Si atom -12391.362546 kJ/mol
# Density = 2.020805 g / cm^3
# Si number density = 20.254151 Si / 1000 Ang^3
#
#
#
# Elastic Constant Matrix: (Units=GPa)
#
#
# Indices 1 2 3 4 5 6 
#
# 1 131.1055 42.1337 28.0235 0.0000 -11.7564 0.0000
# 2 42.1337 71.8555 35.4439 0.0000 -0.0564 0.0000
# 3 28.0235 35.4439 97.3139 0.0000 -9.2903 0.0000
# 4 0.0000 0.0000 0.0000 29.9987 0.0000 7.5694
# 5 -11.7564 -0.0564 -9.2903 0.0000 26.8338 0.0000
# 6 0.0000 0.0000 0.0000 7.5694 0.0000 21.7712
#
#
#
# Elastic Compliance Matrix: (Units=1/GPa)
#
#
# Indices 1 2 3 4 5 6 
#
# 1 0.009887 -0.005591 -0.000412 0.000000 0.004177 0.000000
# 2 -0.005591 0.020250 -0.006200 0.000000 -0.004553 0.000000
# 3 -0.000412 -0.006200 0.013066 0.000000 0.004330 0.000000
# 4 0.000000 0.000000 0.000000 0.036540 0.000000 -0.012704
# 5 0.004177 -0.004553 0.004330 0.000000 0.040586 0.000000
# 6 0.000000 0.000000 0.000000 -0.012704 0.000000 0.050349
#
#
# Mechanical properties :
#
#
# Convention : Reuss Voigt Hill
#
# Bulk Modulus (GPa) = 53.20001 56.83079 55.01540
# Shear Modulus (GPa) = 24.83232 28.69898 26.76565
#
# Velocity S-wave (km/s) = 3.50528 3.76831 3.63917
# Velocity P-wave (km/s) = 6.53497 6.85954 6.69922
#
# Compressibility (1/GPa) = 0.01879699
#
# Stress axis : x y z
#
# Youngs Moduli (GPa) = 101.14483 49.38316 76.53266
#
# Poissons Ratio (x) = 0.27609 0.03153
# Poissons Ratio (y) = 0.56548 0.47452
# Poissons Ratio (z) = 0.04168 0.30618
#
# Static dielectric constant tensor:
#      x y z
#    x 4.151770 0.000000 -0.129270 
#    y 0.000000 3.624020 0.000000 
#    z -0.129270 0.000000 3.727940 
# 
# 
# High freq. dielectric constant tensor:
#      x y z
#    x 1.797030 0.000000 -0.015190 
#    y 0.000000 1.768080 0.000000 
#    z -0.015190 0.000000 1.785070 
# 
# From -- ./inp_files/65856.got.cif
#   From: 2010.06.25/outbox.cif.g09.slc.cpg/sg12_33_cif.got.tgz:65856.got - 2010.06.28 00:19:55.
