data_PCOD8094845
_publ_section_title
;
Structure prediction by ZEFSAII (Michael W. Deem and Ramdas Pophale) SiO2 
 PCOD8094845
Probable space group: C 2/M
;
_chemical_formula_sum "Si O2"
_cell_formula_units_Z 48
_cell_length_a 9.299390
_cell_length_b 26.506533
_cell_length_c 20.684182
_cell_angle_alpha 90.000000
_cell_angle_beta 151.727105
_cell_angle_gamma 90.000000
_cell_volume 2415.033226
_symmetry_space_group_name_H-M "C 2/M"
_symmetry_group_IT_number 12
_symmetry_cell_setting 'monoclinic'
loop_
_space_group_symop_operation_xyz
x,y,z
-x,y,-z
-x,-y,-z
x,-y,z
1/2+x,1/2+y,z
1/2-x,1/2+y,-z
1/2-x,1/2-y,-z
1/2+x,1/2-y,z
loop_
_atom_site_type_symbol
_atom_site_label
_atom_site_fract_x
_atom_site_fract_y
_atom_site_fract_z
Si Si1 0.568543 0.232161 0.601748
Si Si2 0.460947 0.000000 0.908278
Si Si3 0.131591 0.915400 0.486314
Si Si4 0.797079 0.640283 0.259557
Si Si5 0.336664 0.500000 0.603637
Si Si6 0.137277 0.665971 0.268187
Si Si7 0.784961 0.096936 0.976794
O O1 0.500000 0.223962 0.500000
O O2 0.712097 0.180797 0.686527
O O3 0.803783 0.275059 0.718128
O O4 0.250000 0.250000 0.500000
O O5 0.094885 0.000000 0.759972
O O6 0.500000 0.000000 0.000000
O O7 0.605682 0.047877 0.929297
O O8 0.489958 0.906115 0.635089
O O9 0.000000 0.940627 0.500000
O O10 0.955907 0.862835 0.404850
O O11 0.092855 0.951340 0.410898
O O12 0.469414 0.617615 0.111848
O O13 0.933868 0.666131 0.251013
O O14 0.000000 0.500000 0.500000
O O15 0.954633 0.640550 0.137036
O O16 0.000000 0.083664 0.000000
#
# Coordination Sequence:
#
# PCOD8094845 Si02
#       7
#     8   4   8   8   4   8   8
#     4  12  21  38  64  94 130 171 210 263 323 371
#     4  12  27  48  62  92 140 168 203 266 336 382
#     4  10  20  40  66  89 122 163 219 267 307 367
#     4  10  22  38  64  99 122 162 218 266 310 377
#     4  12  27  42  62  96 128 166 207 268 324 386
#     4  10  19  40  65  92 124 164 216 265 308 374
#     4  10  23  45  72  91 122 173 222 261 313 386
#
# _framework density 19.875503999999999
#
# number of rings (size 3 to 8) (size 9 to 14) (size 15 to 20)
#    0.000    1.333    5.000    1.000    2.333    1.333 
#    3.000    0.000    0.000    0.000    0.000    0.000 
#    0.000    0.000    0.000    0.000    0.000    0.000 
#
# Total GULP energy -297486.040920 kJ/mol
# GULP energy per Si atom -12395.251705 kJ/mol
# Density = 1.983027 g / cm^3
# Si number density = 19.875504 Si / 1000 Ang^3
#
#
#
# Elastic Constant Matrix: (Units=GPa)
#
#
# Indices 1 2 3 4 5 6 
#
# 1 82.7102 45.9198 45.7867 0.0252 -10.5680 0.0423
# 2 45.9198 109.1078 59.8028 0.0208 -8.6092 0.0338
# 3 45.7867 59.8028 168.6824 0.0614 -4.9271 0.1562
# 4 0.0252 0.0208 0.0614 40.5373 0.0165 -2.8618
# 5 -10.5680 -8.6092 -4.9271 0.0165 30.5786 0.0127
# 6 0.0423 0.0338 0.1562 -2.8618 0.0127 28.6658
#
#
#
# Elastic Compliance Matrix: (Units=1/GPa)
#
#
# Indices 1 2 3 4 5 6 
#
# 1 0.017048 -0.005450 -0.002580 -0.000006 0.003942 -0.000007
# 2 -0.005450 0.013322 -0.003204 0.000002 0.001351 0.000009
# 3 -0.002580 -0.003204 0.007749 -0.000011 -0.000545 -0.000035
# 4 -0.000006 0.000002 -0.000011 0.024844 -0.000018 0.002480
# 5 0.003942 0.001351 -0.000545 -0.000018 0.034357 -0.000021
# 6 -0.000007 0.000009 -0.000035 0.002480 -0.000021 0.035133
#
#
# Mechanical properties :
#
#
# Convention : Reuss Voigt Hill
#
# Bulk Modulus (GPa) = 63.89701 73.72433 68.81067
# Shear Modulus (GPa) = 31.22322 33.88908 32.55615
#
# Velocity S-wave (km/s) = 3.96781 4.13373 4.05162
# Velocity P-wave (km/s) = 7.29450 7.74320 7.52220
#
# Compressibility (1/GPa) = 0.01565018
#
# Stress axis : x y z
#
# Youngs Moduli (GPa) = 58.65781 75.06558 129.05252
#
# Poissons Ratio (x) = 0.40908 0.33299
# Poissons Ratio (y) = 0.31967 0.41351
# Poissons Ratio (z) = 0.15135 0.24053
#
# Static dielectric constant tensor:
#      x y z
#    x 3.583550 0.000000 0.046230 
#    y 0.000000 3.418640 -0.000170 
#    z 0.046230 -0.000170 4.100210 
# 
# 
# High freq. dielectric constant tensor:
#      x y z
#    x 1.765100 0.000000 -0.002180 
#    y 0.000000 1.773380 0.000000 
#    z -0.002180 0.000000 1.788110 
# 
# From -- ./inp_files/260467.got.cif
#   From: 2010.06.25/outbox.cif.g09.slc.cpg/sg12_131_cif.got.tgz:260467.got - 2010.06.28 00:19:55.
