data_PCOD8094639
_publ_section_title
;
Structure prediction by ZEFSAII (Michael W. Deem and Ramdas Pophale) SiO2 
 PCOD8094639
Probable space group: C 2/M
;
_chemical_formula_sum "Si O2"
_cell_formula_units_Z 48
_cell_length_a 27.793983
_cell_length_b 8.845707
_cell_length_c 17.121981
_cell_angle_alpha 90.000000
_cell_angle_beta 143.576489
_cell_angle_gamma 90.000000
_cell_volume 2499.426255
_symmetry_space_group_name_H-M "C 2/M"
_symmetry_group_IT_number 12
_symmetry_cell_setting 'monoclinic'
loop_
_space_group_symop_operation_xyz
x,y,z
-x,y,-z
-x,-y,-z
x,-y,z
1/2+x,1/2+y,z
1/2-x,1/2+y,-z
1/2-x,1/2-y,-z
1/2+x,1/2-y,z
loop_
_atom_site_type_symbol
_atom_site_label
_atom_site_fract_x
_atom_site_fract_y
_atom_site_fract_z
Si Si1 0.638079 0.670653 0.521731
Si Si2 0.162455 0.678396 0.874808
Si Si3 0.519045 0.678831 0.780384
Si Si4 0.224396 0.177407 0.386690
Si Si5 0.089990 0.828268 0.632692
Si Si6 0.956521 0.179636 0.866469
O O1 0.654517 0.500000 0.513503
O O2 0.554238 0.727060 0.373156
O O3 0.712246 0.777780 0.596817
O O4 0.637470 0.677652 0.613873
O O5 0.169197 0.500000 0.892983
O O6 0.100945 0.740509 0.859805
O O7 0.132381 0.718739 0.749109
O O8 0.250000 0.750000 0.000000
O O9 0.532951 0.500000 0.795306
O O10 0.499034 0.735700 0.841988
O O11 0.250000 0.250000 0.500000
O O12 0.135440 0.238491 0.249185
O O13 0.222766 0.000000 0.395049
O O14 0.000000 0.768053 0.500000
O O15 0.087219 0.000000 0.662703
O O16 0.959538 0.000000 0.871810
O O17 0.000000 0.247520 0.000000
#
# Coordination Sequence:
#
# PCOD8094639 Si02
#       6
#     8   8   8   8   8   8
#     4  10  20  36  61  91 121 157 198 244 304 366
#     4  12  26  42  62  90 124 159 205 252 305 364
#     4  10  19  38  63  86 118 160 201 242 307 368
#     4  11  21  35  57  86 119 155 202 250 299 354
#     4  10  20  39  64  88 120 159 200 246 306 367
#     4   9  19  36  59  86 117 155 198 243 294 354
#
# _framework density 19.204407
#
# number of rings (size 3 to 8) (size 9 to 14) (size 15 to 20)
#    0.000    1.667    3.333    2.000    0.000    3.000 
#    0.000    1.667    0.000    3.500    0.000    0.000 
#    0.000    0.000    0.000    0.000    0.000    0.000 
#
# Total GULP energy -297644.348347 kJ/mol
# GULP energy per Si atom -12401.847848 kJ/mol
# Density = 1.916070 g / cm^3
# Si number density = 19.204407 Si / 1000 Ang^3
#
#
#
# Elastic Constant Matrix: (Units=GPa)
#
#
# Indices 1 2 3 4 5 6 
#
# 1 132.9560 46.5932 73.8801 0.0000 13.3654 0.0000
# 2 46.5932 75.9671 51.7636 0.0000 10.1882 0.0000
# 3 73.8801 51.7636 150.5812 0.0000 14.1774 0.0000
# 4 0.0000 0.0000 0.0000 27.8248 0.0000 4.5010
# 5 13.3654 10.1882 14.1774 0.0000 38.5672 0.0000
# 6 0.0000 0.0000 0.0000 4.5010 0.0000 32.6592
#
#
#
# Elastic Compliance Matrix: (Units=1/GPa)
#
#
# Indices 1 2 3 4 5 6 
#
# 1 0.011307 -0.003994 -0.004045 0.000000 -0.001376 0.000000
# 2 -0.003994 0.018828 -0.004324 0.000000 -0.002000 0.000000
# 3 -0.004045 -0.004324 0.010226 0.000000 -0.001215 0.000000
# 4 0.000000 0.000000 0.000000 0.036759 0.000000 -0.005066
# 5 -0.001376 -0.002000 -0.001215 0.000000 0.027381 0.000000
# 6 0.000000 0.000000 0.000000 -0.005066 0.000000 0.031317
#
#
# Mechanical properties :
#
#
# Convention : Reuss Voigt Hill
#
# Bulk Modulus (GPa) = 63.96054 78.21979 71.09016
# Shear Modulus (GPa) = 30.16458 32.29472 31.22965
#
# Velocity S-wave (km/s) = 3.96752 4.10522 4.03696
# Velocity P-wave (km/s) = 7.37331 7.95544 7.66990
#
# Compressibility (1/GPa) = 0.01563464
#
# Stress axis : x y z
#
# Youngs Moduli (GPa) = 88.44022 53.11181 97.78526
#
# Poissons Ratio (x) = 0.21214 0.39554
# Poissons Ratio (y) = 0.35325 0.42286
# Poissons Ratio (z) = 0.35774 0.22968
#
# Static dielectric constant tensor:
#      x y z
#    x 7.674630 0.000000 -1.318940 
#    y 0.000000 3.866350 0.000000 
#    z -1.318940 0.000000 2.697810 
# 
# 
# High freq. dielectric constant tensor:
#      x y z
#    x 1.763790 0.000000 0.001410 
#    y 0.000000 1.723050 0.000000 
#    z 0.001410 0.000000 1.748920 
# 
# From -- ./inp_files/274585.got.cif
#   From: 2010.06.25/outbox.cif.g09.slc.cpg/sg12_138_cif.got.tgz:274585.got - 2010.06.28 00:19:55.
