data_PCOD8094907
_publ_section_title
;
Structure prediction by ZEFSAII (Michael W. Deem and Ramdas Pophale) SiO2 
 PCOD8094907
Probable space group: C 2/M
;
_chemical_formula_sum "Si O2"
_cell_formula_units_Z 48
_cell_length_a 17.522319
_cell_length_b 13.114940
_cell_length_c 29.139452
_cell_angle_alpha 90.000000
_cell_angle_beta 154.864981
_cell_angle_gamma 90.000000
_cell_volume 2844.300948
_symmetry_space_group_name_H-M "C 2/M"
_symmetry_group_IT_number 12
_symmetry_cell_setting 'monoclinic'
loop_
_space_group_symop_operation_xyz
x,y,z
-x,y,-z
-x,-y,-z
x,-y,z
1/2+x,1/2+y,z
1/2-x,1/2+y,-z
1/2-x,1/2-y,-z
1/2+x,1/2-y,z
loop_
_atom_site_type_symbol
_atom_site_label
_atom_site_fract_x
_atom_site_fract_y
_atom_site_fract_z
Si Si1 0.101449 0.618136 0.400013
Si Si2 0.943991 0.620215 0.899823
Si Si3 0.073560 0.776206 0.458000
Si Si4 0.091284 0.723420 0.304650
Si Si5 0.706385 0.120998 0.277733
Si Si6 0.285640 0.379629 0.139558
O O1 0.066820 0.500000 0.389706
O O2 0.014082 0.679140 0.395094
O O3 0.316268 0.643743 0.514685
O O4 0.011544 0.653672 0.302761
O O5 0.956861 0.500000 0.906658
O O6 0.896128 0.661721 0.823399
O O7 0.786536 0.651382 0.849355
O O8 0.138500 0.659997 0.022393
O O9 0.206169 0.740892 0.571580
O O10 0.903681 0.831195 0.387330
O O11 0.092361 0.656311 0.259293
O O12 0.971649 0.822942 0.231225
O O13 0.725909 0.000000 0.288651
O O14 0.321116 0.500000 0.154811
#
# Coordination Sequence:
#
# PCOD8094907 Si02
#       6
#     8   8   8   8   8   8
#     4   9  18  33  49  71  99 128 165 208 241 286
#     4   8  17  31  53  77  93 129 172 206 255 291
#     4   9  20  32  47  76  98 133 172 193 245 307
#     4  10  20  30  47  78 101 131 169 195 255 305
#     4  11  20  32  51  74 105 132 164 213 250 293
#     4   9  17  34  53  73 103 128 168 218 243 289
#
# _framework density 16.875851999999998
#
# number of rings (size 3 to 8) (size 9 to 14) (size 15 to 20)
#    1.000    1.667    0.000    3.500    0.000    2.000 
#    0.000    0.833    0.000    2.000    0.000   22.167 
#    0.000    0.000    0.000    0.000    0.000    0.000 
#
# Total GULP energy -297420.948353 kJ/mol
# GULP energy per Si atom -12392.539515 kJ/mol
# Density = 1.683744 g / cm^3
# Si number density = 16.875852 Si / 1000 Ang^3
#
#
#
# Elastic Constant Matrix: (Units=GPa)
#
#
# Indices 1 2 3 4 5 6 
#
# 1 80.3033 37.8457 49.5343 -0.0004 -18.5147 0.0000
# 2 37.8457 86.5527 43.3101 0.0016 3.3516 -0.0003
# 3 49.5343 43.3101 101.0704 0.0080 -12.8439 -0.0008
# 4 -0.0004 0.0016 0.0080 26.4566 -0.0007 3.7839
# 5 -18.5147 3.3516 -12.8439 -0.0007 22.0179 -0.0001
# 6 0.0000 -0.0003 -0.0008 3.7839 -0.0001 30.0716
#
#
#
# Elastic Compliance Matrix: (Units=1/GPa)
#
#
# Indices 1 2 3 4 5 6 
#
# 1 0.024268 -0.008296 -0.006032 0.000003 0.018151 -0.000001
# 2 -0.008296 0.018425 -0.005479 0.000000 -0.012976 0.000000
# 3 -0.006032 -0.005479 0.015833 -0.000005 0.004998 0.000001
# 4 0.000003 0.000000 -0.000005 0.038490 0.000001 -0.004843
# 5 0.018151 -0.012976 0.004998 0.000001 0.065571 0.000000
# 6 -0.000001 0.000000 0.000001 -0.004843 0.000000 0.033863
#
#
# Mechanical properties :
#
#
# Convention : Reuss Voigt Hill
#
# Bulk Modulus (GPa) = 52.87378 58.81185 55.84282
# Shear Modulus (GPa) = 20.62966 24.85832 22.74399
#
# Velocity S-wave (km/s) = 3.50013 3.84215 3.67512
# Velocity P-wave (km/s) = 6.90895 7.38973 7.15338
#
# Compressibility (1/GPa) = 0.01891296
#
# Stress axis : x y z
#
# Youngs Moduli (GPa) = 41.20596 54.27410 63.15812
#
# Poissons Ratio (x) = 0.45025 0.38099
# Poissons Ratio (y) = 0.34184 0.34602
# Poissons Ratio (z) = 0.24857 0.29735
#
# Static dielectric constant tensor:
#      x y z
#    x 3.155420 0.000000 -0.353580 
#    y 0.000000 2.816990 0.000000 
#    z -0.353580 0.000000 3.229840 
# 
# 
# High freq. dielectric constant tensor:
#      x y z
#    x 1.643270 0.000000 -0.019730 
#    y 0.000000 1.622870 0.000000 
#    z -0.019730 0.000000 1.640520 
# 
# From -- ./inp_files/361299.got.cif
#   From: 2010.06.25/outbox.cif.g09.slc.cpg/sg12_181_cif.got.tgz:361299.got - 2010.06.28 00:19:55.
