data_PCOD8094969
_publ_section_title
;
Structure prediction by ZEFSAII (Michael W. Deem and Ramdas Pophale) SiO2 
 PCOD8094969
Probable space group: C 2/M
;
_chemical_formula_sum "Si O2"
_cell_formula_units_Z 48
_cell_length_a 19.002681
_cell_length_b 7.809757
_cell_length_c 32.731335
_cell_angle_alpha 90.000000
_cell_angle_beta 148.280543
_cell_angle_gamma 90.000000
_cell_volume 2553.901312
_symmetry_space_group_name_H-M "C 2/M"
_symmetry_group_IT_number 12
_symmetry_cell_setting 'monoclinic'
loop_
_space_group_symop_operation_xyz
x,y,z
-x,y,-z
-x,-y,-z
x,-y,z
1/2+x,1/2+y,z
1/2-x,1/2+y,-z
1/2-x,1/2-y,-z
1/2+x,1/2-y,z
loop_
_atom_site_type_symbol
_atom_site_label
_atom_site_fract_x
_atom_site_fract_y
_atom_site_fract_z
Si Si1 0.483416 0.202895 0.368323
Si Si2 0.715199 0.690630 0.196588
Si Si3 0.864655 0.689294 0.184538
Si Si4 0.578914 0.196306 0.501120
Si Si5 0.373490 0.799481 0.640994
Si Si6 0.057568 0.500000 0.093222
Si Si7 0.791097 0.500000 0.918004
O O1 0.326954 0.249493 0.284704
O O2 0.534526 0.283628 0.436298
O O3 0.573888 0.278318 0.376120
O O4 0.499686 0.000000 0.375002
O O5 0.658296 0.500000 0.178715
O O6 0.785857 0.684115 0.187894
O O7 0.595810 0.829395 0.137629
O O8 0.855775 0.500000 0.159658
O O9 0.018425 0.738311 0.270058
O O10 0.800629 0.830473 0.122900
O O11 0.500000 0.284443 0.500000
O O12 0.736994 0.208207 0.586290
O O13 0.534195 0.000000 0.476724
O O14 0.346982 0.000000 0.623736
O O15 0.135858 0.500000 0.089330
O O16 0.898563 0.500000 0.007548
#
# Coordination Sequence:
#
# PCOD8094969 Si02
#       7
#     8   8   8   8   8   4   4
#     4   8  15  30  47  63  87 122 162 193 227 275
#     4   8  14  26  41  57  85 120 151 190 225 264
#     4   8  15  26  40  60  84 117 155 187 225 271
#     4  10  20  31  44  66  95 123 148 194 241 283
#     4   9  17  30  47  64  85 120 164 197 224 270
#     4   9  16  24  36  64  91 116 154 178 224 291
#     4   9  16  24  38  60  93 122 142 184 230 279
#
# _framework density 18.794775000000001
#
# number of rings (size 3 to 8) (size 9 to 14) (size 15 to 20)
#    0.000    3.333    0.000    2.500    1.167    1.000 
#    3.000    3.333    0.000    0.000    0.000    0.000 
#    0.000    1.333    0.667    0.000    0.000    0.000 
#
# Total GULP energy -297438.454991 kJ/mol
# GULP energy per Si atom -12393.268958 kJ/mol
# Density = 1.875200 g / cm^3
# Si number density = 18.794775 Si / 1000 Ang^3
#
#
#
# Elastic Constant Matrix: (Units=GPa)
#
#
# Indices 1 2 3 4 5 6 
#
# 1 56.1332 18.7786 41.2899 -0.0001 6.3779 0.0001
# 2 18.7786 84.9772 64.2865 -0.0005 6.6202 0.0010
# 3 41.2899 64.2865 155.1514 0.0001 16.0714 -0.0001
# 4 -0.0001 -0.0005 0.0001 30.0151 -0.0001 6.1275
# 5 6.3779 6.6202 16.0714 -0.0001 4.5690 0.0000
# 6 0.0001 0.0010 -0.0001 6.1275 0.0000 6.2522
#
#
#
# Elastic Compliance Matrix: (Units=1/GPa)
#
#
# Indices 1 2 3 4 5 6 
#
# 1 0.022949 -0.000668 -0.004110 0.000000 -0.016610 -0.000001
# 2 -0.000668 0.017160 -0.007006 0.000001 0.000713 -0.000004
# 3 -0.004110 -0.007006 0.013839 -0.000001 -0.032788 0.000002
# 4 0.000000 0.000001 -0.000001 0.041650 0.000002 -0.040819
# 5 -0.016610 0.000713 -0.032788 0.000002 0.356354 -0.000003
# 6 -0.000001 -0.000004 0.000002 -0.040819 -0.000003 0.199949
#
#
# Mechanical properties :
#
#
# Convention : Reuss Voigt Hill
#
# Bulk Modulus (GPa) = 32.91779 60.55243 46.73511
# Shear Modulus (GPa) = 7.29293 19.62770 13.46031
#
# Velocity S-wave (km/s) = 1.97198 3.23510 2.67904
# Velocity P-wave (km/s) = 4.76837 6.80015 5.87279
#
# Compressibility (1/GPa) = 0.03037871
#
# Stress axis : x y z
#
# Youngs Moduli (GPa) = 43.57572 58.27364 72.26201
#
# Poissons Ratio (x) = 0.03893 0.29699
# Poissons Ratio (y) = 0.02911 0.50630
# Poissons Ratio (z) = 0.17909 0.40829
#
# Static dielectric constant tensor:
#      x y z
#    x 3.019220 0.000000 -0.078070 
#    y 0.000000 3.515910 0.000000 
#    z -0.078070 0.000000 3.629830 
# 
# 
# High freq. dielectric constant tensor:
#      x y z
#    x 1.658630 0.000000 0.005400 
#    y 0.000000 1.723630 0.000000 
#    z 0.005400 0.000000 1.731910 
# 
# From -- ./inp_files/280084.got.cif
#   From: 2010.06.25/outbox.cif.g09.slc.cpg/sg12_141_cif.got.tgz:280084.got - 2010.06.28 00:19:55.
