data_PCOD8094413
_publ_section_title
;
Structure prediction by ZEFSAII (Michael W. Deem and Ramdas Pophale) SiO2 
 PCOD8094413
Probable space group: C 2/M
;
_chemical_formula_sum "Si O2"
_cell_formula_units_Z 64
_cell_length_a 25.559113
_cell_length_b 8.940717
_cell_length_c 31.491763
_cell_angle_alpha 90.000000
_cell_angle_beta 152.409515
_cell_angle_gamma 90.000000
_cell_volume 3333.002957
_symmetry_space_group_name_H-M "C 2/M"
_symmetry_group_IT_number 12
_symmetry_cell_setting 'monoclinic'
loop_
_space_group_symop_operation_xyz
x,y,z
-x,y,-z
-x,-y,-z
x,-y,z
1/2+x,1/2+y,z
1/2-x,1/2+y,-z
1/2-x,1/2-y,-z
1/2+x,1/2-y,z
loop_
_atom_site_type_symbol
_atom_site_label
_atom_site_fract_x
_atom_site_fract_y
_atom_site_fract_z
Si Si1 0.927182 0.670841 0.406755
Si Si2 0.466290 0.326288 0.351234
Si Si3 0.241177 0.828833 0.171396
Si Si4 0.030633 0.322620 0.782545
Si Si5 0.480725 0.823644 0.130038
Si Si6 0.831637 0.169685 0.789543
Si Si7 0.219287 0.827675 0.061133
Si Si8 0.130228 0.676541 0.407120
O O1 0.945561 0.500000 0.404682
O O2 0.972267 0.787942 0.405048
O O3 0.794081 0.697634 0.318848
O O4 0.000000 0.707478 0.500000
O O5 0.492512 0.500000 0.362440
O O6 0.344129 0.285853 0.245082
O O7 0.557938 0.222169 0.395479
O O8 0.161493 0.794300 0.154734
O O9 0.179445 0.808388 0.081729
O O10 0.286765 0.000000 0.208548
O O11 0.029860 0.500000 0.780676
O O12 0.005340 0.262457 0.811808
O O13 0.153260 0.267315 0.854226
O O14 0.932532 0.262262 0.680601
O O15 0.584701 0.775446 0.175689
O O16 0.476125 0.000000 0.127052
O O17 0.362557 0.766508 0.027164
O O18 0.870651 0.000000 0.809523
O O19 0.210254 0.000000 0.040884
O O20 0.145036 0.500000 0.415794
O O21 0.250000 0.750000 0.500000
#
# Coordination Sequence:
#
# PCOD8094413 Si02
#       8
#     8   8   8   8   8   8   8   8
#     4   9  19  37  61  85 110 148 198 243 285 339
#     4  11  21  34  55  85 117 148 184 232 293 350
#     4   9  18  36  62  83 106 147 195 238 280 335
#     4   9  20  39  61  81 112 153 193 234 287 348
#     4  11  23  37  54  83 119 154 187 235 292 345
#     4   9  19  36  56  81 112 149 191 233 282 342
#     4  10  19  37  63  85 106 147 197 241 290 343
#     4  11  22  40  61  85 115 150 195 243 292 345
#
# _framework density 19.201903000000001
#
# number of rings (size 3 to 8) (size 9 to 14) (size 15 to 20)
#    0.000    2.125    1.250    3.000    0.000    4.250 
#    0.000    8.125    0.000    0.000    0.000    0.000 
#    0.000    0.000    0.000    0.000    0.000    0.000 
#
# Total GULP energy -396742.354931 kJ/mol
# GULP energy per Si atom -12398.198592 kJ/mol
# Density = 1.915820 g / cm^3
# Si number density = 19.201903 Si / 1000 Ang^3
#
#
#
# Elastic Constant Matrix: (Units=GPa)
#
#
# Indices 1 2 3 4 5 6 
#
# 1 121.0814 37.8840 67.6187 0.0000 0.4514 -0.0003
# 2 37.8840 63.9026 40.9357 -0.0002 -6.0986 -0.0020
# 3 67.6187 40.9357 132.1303 -0.0018 -9.4758 -0.0005
# 4 0.0000 -0.0002 -0.0018 31.1582 -0.0006 2.7891
# 5 0.4514 -6.0986 -9.4758 -0.0006 20.9762 -0.0001
# 6 -0.0003 -0.0020 -0.0005 2.7891 -0.0001 28.1130
#
#
#
# Elastic Compliance Matrix: (Units=1/GPa)
#
#
# Indices 1 2 3 4 5 6 
#
# 1 0.012678 -0.004439 -0.005400 0.000000 -0.004003 0.000000
# 2 -0.004439 0.021267 -0.003996 0.000000 0.004474 0.000001
# 3 -0.005400 -0.003996 0.011880 0.000001 0.004321 0.000000
# 4 0.000000 0.000000 0.000001 0.032382 0.000001 -0.003213
# 5 -0.004003 0.004474 0.004321 0.000001 0.051012 0.000000
# 6 0.000000 0.000001 0.000000 -0.003213 0.000000 0.035889
#
#
# Mechanical properties :
#
#
# Convention : Reuss Voigt Hill
#
# Bulk Modulus (GPa) = 55.08220 67.77682 61.42951
# Shear Modulus (GPa) = 25.14690 27.42786 26.28738
#
# Velocity S-wave (km/s) = 3.62277 3.78351 3.70401
# Velocity P-wave (km/s) = 6.80054 7.37971 7.09604
#
# Compressibility (1/GPa) = 0.01815468
#
# Stress axis : x y z
#
# Youngs Moduli (GPa) = 78.87413 47.02011 84.17621
#
# Poissons Ratio (x) = 0.20872 0.45456
# Poissons Ratio (y) = 0.35013 0.33640
# Poissons Ratio (z) = 0.42593 0.18791
#
# Static dielectric constant tensor:
#      x y z
#    x 3.049500 0.000000 -0.364590 
#    y 0.000000 3.260020 0.000000 
#    z -0.364590 0.000000 3.477620 
# 
# 
# High freq. dielectric constant tensor:
#      x y z
#    x 1.754790 0.000000 -0.009010 
#    y 0.000000 1.729630 0.000000 
#    z -0.009010 0.000000 1.744960 
# 
# From -- ./inp_files/382472.got.cif
#   From: 2010.06.25/outbox.cif.g09.slc.cpg/sg12_192_cif.got.tgz:382472.got - 2010.06.28 00:19:55.
