data_PCOD8094302
_publ_section_title
;
Structure prediction by ZEFSAII (Michael W. Deem and Ramdas Pophale) SiO2 
 PCOD8094302
Probable space group: C 2/M
;
_chemical_formula_sum "Si O2"
_cell_formula_units_Z 56
_cell_length_a 29.900420
_cell_length_b 11.528748
_cell_length_c 14.726048
_cell_angle_alpha 90.000000
_cell_angle_beta 32.577390
_cell_angle_gamma 90.000000
_cell_volume 2733.264039
_symmetry_space_group_name_H-M "C 2/M"
_symmetry_group_IT_number 12
_symmetry_cell_setting 'monoclinic'
loop_
_space_group_symop_operation_xyz
x,y,z
-x,y,-z
-x,-y,-z
x,-y,z
1/2+x,1/2+y,z
1/2-x,1/2+y,-z
1/2-x,1/2-y,-z
1/2+x,1/2-y,z
loop_
_atom_site_type_symbol
_atom_site_label
_atom_site_fract_x
_atom_site_fract_y
_atom_site_fract_z
Si Si1 0.678029 0.634045 0.373177
Si Si2 0.506089 0.871625 0.239381
Si Si3 0.426617 0.198991 0.557849
Si Si4 0.237382 0.629310 0.077976
Si Si5 0.358558 0.771868 0.391872
Si Si6 0.819767 0.869299 0.288320
Si Si7 0.836711 0.776116 0.066516
O O1 0.673850 0.500000 0.368884
O O2 0.616721 0.683707 0.401797
O O3 0.648297 0.667809 0.524383
O O4 0.771892 0.673733 0.196060
O O5 0.459696 0.872294 0.415244
O O6 0.441634 0.844429 0.268623
O O7 0.542295 0.000000 0.160179
O O8 0.579189 0.778135 0.116171
O O9 0.500000 0.232926 0.500000
O O10 0.358043 0.122231 0.726835
O O11 0.253580 0.500000 0.003334
O O12 0.299778 0.634457 0.056471
O O13 0.250000 0.750000 0.000000
O O14 0.279740 0.856233 0.537567
O O15 0.363864 0.718887 0.282234
O O16 0.855071 0.844372 0.127857
O O17 0.842911 0.000000 0.275777
#
# Coordination Sequence:
#
# PCOD8094302 Si02
#       7
#     8   8   8   8   8   8   8
#     4   9  18  35  56  81 118 155 189 234 291 350
#     4  11  22  39  60  83 116 150 189 242 291 338
#     4  10  22  38  59  88 114 146 196 243 285 340
#     4  11  24  42  64  89 119 155 196 241 292 351
#     4   9  20  35  57  88 110 143 197 239 284 343
#     4  10  19  37  61  81 112 151 189 236 288 345
#     4  10  22  37  57  86 115 150 196 236 285 346
#
# _framework density 20.488323999999999
#
# number of rings (size 3 to 8) (size 9 to 14) (size 15 to 20)
#    0.000    2.000    0.000    3.857    0.000    6.000 
#    0.000   13.571    0.000    0.000    0.000    0.000 
#    0.000    0.000    0.000    0.000    0.000    0.000 
#
# Total GULP energy -347138.800510 kJ/mol
# GULP energy per Si atom -12397.814304 kJ/mol
# Density = 2.044169 g / cm^3
# Si number density = 20.488324 Si / 1000 Ang^3
#
#
#
# Elastic Constant Matrix: (Units=GPa)
#
#
# Indices 1 2 3 4 5 6 
#
# 1 107.4190 19.3962 23.3972 0.0000 1.1885 0.0000
# 2 19.3962 127.5963 23.4574 0.0000 9.5126 0.0000
# 3 23.3972 23.4574 83.6795 0.0000 -3.6066 0.0000
# 4 0.0000 0.0000 0.0000 13.8708 0.0000 1.8444
# 5 1.1885 9.5126 -3.6066 0.0000 32.7804 0.0000
# 6 0.0000 0.0000 0.0000 1.8444 0.0000 16.6518
#
#
#
# Elastic Compliance Matrix: (Units=1/GPa)
#
#
# Indices 1 2 3 4 5 6 
#
# 1 0.010052 -0.001037 -0.002535 0.000000 -0.000343 0.000000
# 2 -0.001037 0.008608 -0.002240 0.000000 -0.002707 0.000000
# 3 -0.002535 -0.002240 0.013382 0.000000 0.002214 0.000000
# 4 0.000000 0.000000 0.000000 0.073171 0.000000 -0.008105
# 5 -0.000343 -0.002707 0.002214 0.000000 0.031548 0.000000
# 6 0.000000 0.000000 0.000000 -0.008105 0.000000 0.060951
#
#
# Mechanical properties :
#
#
# Convention : Reuss Voigt Hill
#
# Bulk Modulus (GPa) = 48.97053 50.13294 49.55174
# Shear Modulus (GPa) = 23.13282 29.49022 26.31152
#
# Velocity S-wave (km/s) = 3.36381 3.79801 3.58749
# Velocity P-wave (km/s) = 6.24824 6.61478 6.43412
#
# Compressibility (1/GPa) = 0.02042044
#
# Stress axis : x y z
#
# Youngs Moduli (GPa) = 99.47844 116.16565 74.72451
#
# Poissons Ratio (x) = 0.12041 0.18942
# Poissons Ratio (y) = 0.10311 0.16738
# Poissons Ratio (z) = 0.25217 0.26021
#
# Static dielectric constant tensor:
#      x y z
#    x 3.853100 0.000000 0.020960 
#    y 0.000000 3.523750 0.000000 
#    z 0.020960 0.000000 3.612220 
# 
# 
# High freq. dielectric constant tensor:
#      x y z
#    x 1.809720 0.000000 -0.000850 
#    y 0.000000 1.796920 0.000000 
#    z -0.000850 0.000000 1.787710 
# 
# From -- ./inp_files/250995.got.cif
#   From: 2010.06.25/outbox.cif.g09.slc.cpg/sg12_126_cif.got.tgz:250995.got - 2010.06.28 00:19:55.
