data_PCOD8094853
_publ_section_title
;
Structure prediction by ZEFSAII (Michael W. Deem and Ramdas Pophale) SiO2 
 PCOD8094853
Probable space group: C 2/M
;
_chemical_formula_sum "Si O2"
_cell_formula_units_Z 40
_cell_length_a 13.579445
_cell_length_b 17.373952
_cell_length_c 11.547604
_cell_angle_alpha 90.000000
_cell_angle_beta 135.697938
_cell_angle_gamma 90.000000
_cell_volume 1902.839997
_symmetry_space_group_name_H-M "C 2/M"
_symmetry_group_IT_number 12
_symmetry_cell_setting 'monoclinic'
loop_
_space_group_symop_operation_xyz
x,y,z
-x,y,-z
-x,-y,-z
x,-y,z
1/2+x,1/2+y,z
1/2-x,1/2+y,-z
1/2-x,1/2-y,-z
1/2+x,1/2-y,z
loop_
_atom_site_type_symbol
_atom_site_label
_atom_site_fract_x
_atom_site_fract_y
_atom_site_fract_z
Si Si1 0.454048 0.778713 0.588941
Si Si2 0.907594 0.000000 0.654143
Si Si3 0.227030 0.000000 0.883099
Si Si4 0.500000 0.242561 0.000000
Si Si5 0.850734 0.162934 0.684086
Si Si6 0.582577 0.126598 0.883942
Si Si7 0.852686 0.500000 0.736136
O O1 0.500000 0.753934 0.500000
O O2 0.316020 0.831375 0.469632
O O3 0.426775 0.700654 0.636811
O O4 0.573403 0.830333 0.752501
O O5 0.892683 0.073681 0.724378
O O6 0.061032 0.000000 0.723152
O O7 0.791754 0.000000 0.456396
O O8 0.315317 0.000000 0.839428
O O9 0.275688 0.075563 0.996032
O O10 0.606227 0.295431 0.161501
O O11 0.406172 0.189952 0.005576
O O12 0.441682 0.076061 0.783418
#
# Coordination Sequence:
#
# PCOD8094853 Si02
#       7
#     8   4   4   4   8   8   4
#     4  10  22  42  68  93 125 173 226 261 315 389
#     4  12  25  41  58  97 143 167 204 268 332 389
#     4  11  23  35  66 103 127 166 218 270 326 378
#     4  10  20  40  70  86 128 174 210 270 320 372
#     4  10  24  42  63  95 133 172 210 269 328 379
#     4  10  19  40  68  96 123 166 225 268 311 379
#     4  11  19  39  65  94 130 167 211 266 329 373
#
# _framework density 21.021211000000001
#
# number of rings (size 3 to 8) (size 9 to 14) (size 15 to 20)
#    0.000    1.600    4.000    0.900    0.000    5.200 
#    0.000    8.500    0.000    0.000    0.000    0.000 
#    0.000    0.000    0.000    0.000    0.000    0.000 
#
# Total GULP energy -248066.742137 kJ/mol
# GULP energy per Si atom -12403.337107 kJ/mol
# Density = 2.097337 g / cm^3
# Si number density = 21.021211 Si / 1000 Ang^3
#
#
#
# Elastic Constant Matrix: (Units=GPa)
#
#
# Indices 1 2 3 4 5 6 
#
# 1 66.3123 38.6036 39.8513 0.0000 -11.7329 0.0000
# 2 38.6036 138.0615 50.3694 0.0000 -7.1004 0.0000
# 3 39.8513 50.3694 120.1158 0.0000 -9.9896 0.0000
# 4 0.0000 0.0000 0.0000 29.8942 0.0000 -2.9705
# 5 -11.7329 -7.1004 -9.9896 0.0000 41.0310 0.0000
# 6 0.0000 0.0000 0.0000 -2.9705 0.0000 11.4963
#
#
#
# Elastic Compliance Matrix: (Units=1/GPa)
#
#
# Indices 1 2 3 4 5 6 
#
# 1 0.021076 -0.003843 -0.005037 0.000000 0.004135 0.000000
# 2 -0.003843 0.009267 -0.002622 0.000000 -0.000134 0.000000
# 3 -0.005037 -0.002622 0.011165 0.000000 0.000824 0.000000
# 4 0.000000 0.000000 0.000000 0.034333 0.000000 0.008871
# 5 0.004135 -0.000134 0.000824 0.000000 0.025732 0.000000
# 6 0.000000 0.000000 0.000000 0.008871 0.000000 0.089277
#
#
# Mechanical properties :
#
#
# Convention : Reuss Voigt Hill
#
# Bulk Modulus (GPa) = 54.04336 64.68202 59.36269
# Shear Modulus (GPa) = 22.72497 29.52866 26.12681
#
# Velocity S-wave (km/s) = 3.29150 3.75201 3.52927
# Velocity P-wave (km/s) = 6.34114 7.04321 6.70137
#
# Compressibility (1/GPa) = 0.01850366
#
# Stress axis : x y z
#
# Youngs Moduli (GPa) = 47.44733 107.90409 89.56793
#
# Poissons Ratio (x) = 0.41464 0.45117
# Poissons Ratio (y) = 0.18233 0.23489
# Poissons Ratio (z) = 0.23900 0.28297
#
# Static dielectric constant tensor:
#      x y z
#    x 3.444510 0.000000 -0.055520 
#    y 0.000000 3.910420 0.000000 
#    z -0.055520 0.000000 3.947120 
# 
# 
# High freq. dielectric constant tensor:
#      x y z
#    x 1.793610 0.000000 -0.001500 
#    y 0.000000 1.831880 0.000000 
#    z -0.001500 0.000000 1.837970 
# 
# From -- ./inp_files/145884.got.cif
#   From: 2010.06.25/outbox.cif.g09.slc.cpg/sg12_73_cif.got.tgz:145884.got - 2010.06.28 00:19:55.
