data_PCOD8094116
_publ_section_title
;
Structure prediction by ZEFSAII (Michael W. Deem and Ramdas Pophale) SiO2 
 PCOD8094116
Probable space group: C 2/M
;
_chemical_formula_sum "Si O2"
_cell_formula_units_Z 56
_cell_length_a 25.298510
_cell_length_b 8.790297
_cell_length_c 12.595031
_cell_angle_alpha 90.000000
_cell_angle_beta 104.763337
_cell_angle_gamma 90.000000
_cell_volume 2708.433710
_symmetry_space_group_name_H-M "C 2/M"
_symmetry_group_IT_number 12
_symmetry_cell_setting 'monoclinic'
loop_
_space_group_symop_operation_xyz
x,y,z
-x,y,-z
-x,-y,-z
x,-y,z
1/2+x,1/2+y,z
1/2-x,1/2+y,-z
1/2-x,1/2-y,-z
1/2+x,1/2-y,z
loop_
_atom_site_type_symbol
_atom_site_label
_atom_site_fract_x
_atom_site_fract_y
_atom_site_fract_z
Si Si1 0.759062 0.823877 0.794460
Si Si2 0.055483 0.819739 0.257265
Si Si3 0.643947 0.320401 0.710849
Si Si4 0.934213 0.819324 0.143784
Si Si5 0.624358 0.679905 0.093981
Si Si6 0.213242 0.331458 0.397919
Si Si7 0.893665 0.667907 0.526503
O O1 0.704437 0.726179 0.782710
O O2 0.811078 0.781769 0.896364
O O3 0.786736 0.787230 0.696944
O O4 0.742515 0.000000 0.793562
O O5 0.099527 0.756195 0.193019
O O6 0.061422 0.758302 0.381484
O O7 0.996259 0.764201 0.186901
O O8 0.058727 0.000000 0.267351
O O9 0.642049 0.500000 0.699056
O O10 0.601040 0.258387 0.774938
O O11 0.627801 0.252813 0.588762
O O12 0.930502 0.000000 0.138580
O O13 0.909608 0.751083 0.021987
O O14 0.616942 0.500000 0.094650
O O15 0.236149 0.500000 0.377864
O O16 0.250000 0.250000 0.500000
O O17 0.153891 0.350773 0.413560
O O18 0.915379 0.500000 0.505061
#
# Coordination Sequence:
#
# PCOD8094116 Si02
#       7
#     8   8   8   8   8   8   8
#     4  11  21  34  56  87 118 148 186 233 286 345
#     4  10  19  36  64  90 112 144 190 241 289 334
#     4  11  23  38  57  82 117 157 194 231 277 340
#     4   9  20  38  59  85 114 149 196 240 277 331
#     4   9  18  34  60  90 115 142 185 241 290 333
#     4  11  21  33  54  82 115 151 187 235 287 341
#     4  11  23  37  56  84 119 151 186 233 287 345
#
# _framework density 20.676158000000001
#
# number of rings (size 3 to 8) (size 9 to 14) (size 15 to 20)
#    0.000    1.714    2.857    2.143    0.000    4.000 
#    0.000    4.286    0.000    7.714    0.000    0.000 
#    0.000    0.000    0.000    0.000    0.000    0.000 
#
# Total GULP energy -346934.831453 kJ/mol
# GULP energy per Si atom -12390.529695 kJ/mol
# Density = 2.062910 g / cm^3
# Si number density = 20.676158 Si / 1000 Ang^3
#
#
#
# Elastic Constant Matrix: (Units=GPa)
#
#
# Indices 1 2 3 4 5 6 
#
# 1 98.5772 26.0764 51.4979 0.0000 8.5201 0.0000
# 2 26.0764 51.5365 19.9535 0.0000 11.6361 0.0000
# 3 51.4979 19.9535 90.8290 0.0000 24.1170 0.0000
# 4 0.0000 0.0000 0.0000 16.0449 0.0000 5.1712
# 5 8.5201 11.6361 24.1170 0.0000 37.9750 0.0000
# 6 0.0000 0.0000 0.0000 5.1712 0.0000 23.6118
#
#
#
# Elastic Compliance Matrix: (Units=1/GPa)
#
#
# Indices 1 2 3 4 5 6 
#
# 1 0.015848 -0.005457 -0.008765 0.000000 0.003683 0.000000
# 2 -0.005457 0.023675 -0.000608 0.000000 -0.005644 0.000000
# 3 -0.008765 -0.000608 0.018693 0.000000 -0.009719 0.000000
# 4 0.000000 0.000000 0.000000 0.067058 0.000000 -0.014686
# 5 0.003683 -0.005644 -0.009719 0.000000 0.033408 0.000000
# 6 0.000000 0.000000 0.000000 -0.014686 0.000000 0.045568
#
#
# Mechanical properties :
#
#
# Convention : Reuss Voigt Hill
#
# Bulk Modulus (GPa) = 35.01878 48.44424 41.73151
# Shear Modulus (GPa) = 20.53982 25.08734 22.81358
#
# Velocity S-wave (km/s) = 3.15525 3.48709 3.32531
# Velocity P-wave (km/s) = 5.49979 6.30031 5.91361
#
# Compressibility (1/GPa) = 0.02855611
#
# Stress axis : x y z
#
# Youngs Moduli (GPa) = 63.09828 42.23933 53.49540
#
# Poissons Ratio (x) = 0.23050 0.46887
# Poissons Ratio (y) = 0.34432 0.03255
# Poissons Ratio (z) = 0.55303 0.02570
#
# Static dielectric constant tensor:
#      x y z
#    x 3.838940 0.000000 0.097490 
#    y 0.000000 3.833140 0.000000 
#    z 0.097490 0.000000 3.891570 
# 
# 
# High freq. dielectric constant tensor:
#      x y z
#    x 1.809700 0.000000 0.014190 
#    y 0.000000 1.780880 0.000000 
#    z 0.014190 0.000000 1.815100 
# 
# From -- ./inp_files/181086.got.cif
#   From: 2010.06.25/outbox.cif.g09.slc.cpg/sg12_91_cif.got.tgz:181086.got - 2010.06.28 00:19:55.
