data_PCOD8094117
_publ_section_title
;
Structure prediction by ZEFSAII (Michael W. Deem and Ramdas Pophale) SiO2 
 PCOD8094117
Probable space group: C 2/M
;
_chemical_formula_sum "Si O2"
_cell_formula_units_Z 64
_cell_length_a 24.812700
_cell_length_b 14.571405
_cell_length_c 17.959576
_cell_angle_alpha 90.000000
_cell_angle_beta 28.291463
_cell_angle_gamma 90.000000
_cell_volume 3077.588056
_symmetry_space_group_name_H-M "C 2/M"
_symmetry_group_IT_number 12
_symmetry_cell_setting 'monoclinic'
loop_
_space_group_symop_operation_xyz
x,y,z
-x,y,-z
-x,-y,-z
x,-y,z
1/2+x,1/2+y,z
1/2-x,1/2+y,-z
1/2-x,1/2-y,-z
1/2+x,1/2-y,z
loop_
_atom_site_type_symbol
_atom_site_label
_atom_site_fract_x
_atom_site_fract_y
_atom_site_fract_z
Si Si1 0.411199 0.740049 0.542606
Si Si2 0.344648 0.896677 0.916223
Si Si3 0.989582 0.398895 0.099224
Si Si4 0.270608 0.107921 0.449284
Si Si5 0.399184 0.107522 0.437478
Si Si6 0.197746 0.283301 0.896475
Si Si7 0.325692 0.602098 0.003335
Si Si8 0.548193 0.392983 0.638339
O O1 0.500000 0.762853 0.500000
O O2 0.383822 0.833587 0.531067
O O3 0.297880 0.697474 0.716798
O O4 0.458953 0.662243 0.429878
O O5 0.478100 0.872652 0.748940
O O6 0.291464 0.887431 0.899243
O O7 0.325779 0.000000 0.969070
O O8 0.277624 0.827173 0.052349
O O9 0.009811 0.500000 0.111818
O O10 0.866413 0.361183 0.273426
O O11 0.000000 0.410345 0.000000
O O12 0.081740 0.326974 0.011546
O O13 0.304615 0.139944 0.491573
O O14 0.149698 0.147154 0.567582
O O15 0.259594 0.000000 0.464278
O O16 0.387085 0.000000 0.472857
O O17 0.179874 0.173700 0.922643
O O18 0.337915 0.500000 0.022401
O O19 0.430683 0.624931 0.822406
O O20 0.566592 0.500000 0.596994
#
# Coordination Sequence:
#
# PCOD8094117 Si02
#       8
#     8   8   8   8   8   8   8   8
#     4  12  26  39  56  88 125 163 201 243 299 357
#     4  10  19  36  64  90 112 146 197 254 303 341
#     4  10  20  36  59  90 121 145 183 245 309 356
#     4   9  18  37  64  90 114 149 198 248 299 351
#     4  10  21  40  64  89 116 153 205 256 299 345
#     4  12  22  36  57  86 119 152 194 240 293 352
#     4  10  22  39  59  84 117 159 200 239 285 350
#     4  10  22  41  62  87 121 160 197 239 298 366
#
# _framework density 20.795506
#
# number of rings (size 3 to 8) (size 9 to 14) (size 15 to 20)
#    0.000    1.625    1.250    3.750    0.000    3.500 
#    2.250    0.000    0.000    0.375    0.000    0.000 
#    0.000    0.000    0.000    0.000    0.000    0.000 
#
# Total GULP energy -396782.130119 kJ/mol
# GULP energy per Si atom -12399.441566 kJ/mol
# Density = 2.074817 g / cm^3
# Si number density = 20.795506 Si / 1000 Ang^3
#
#
#
# Elastic Constant Matrix: (Units=GPa)
#
#
# Indices 1 2 3 4 5 6 
#
# 1 102.0547 18.1447 11.4679 0.0000 -7.1845 0.0000
# 2 18.1447 70.9493 5.0187 0.0000 6.8724 0.0000
# 3 11.4679 5.0187 41.5600 0.0000 -2.2705 0.0000
# 4 0.0000 0.0000 0.0000 17.2880 0.0000 0.4579
# 5 -7.1845 6.8724 -2.2705 0.0000 25.2500 0.0000
# 6 0.0000 0.0000 0.0000 0.4579 0.0000 30.3867
#
#
#
# Elastic Compliance Matrix: (Units=1/GPa)
#
#
# Indices 1 2 3 4 5 6 
#
# 1 0.010858 -0.002960 -0.002438 0.000000 0.003676 0.000000
# 2 -0.002960 0.015446 -0.001331 0.000000 -0.005166 0.000000
# 3 -0.002438 -0.001331 0.025000 0.000000 0.001917 0.000000
# 4 0.000000 0.000000 0.000000 0.057867 0.000000 -0.000872
# 5 0.003676 -0.005166 0.001917 0.000000 0.042228 0.000000
# 6 0.000000 0.000000 0.000000 -0.000872 0.000000 0.032922
#
#
# Mechanical properties :
#
#
# Convention : Reuss Voigt Hill
#
# Bulk Modulus (GPa) = 26.42279 31.53628 28.97953
# Shear Modulus (GPa) = 23.76498 26.58045 25.17272
#
# Velocity S-wave (km/s) = 3.38419 3.57905 3.48298
# Velocity P-wave (km/s) = 5.29187 5.68131 5.49005
#
# Compressibility (1/GPa) = 0.03784612
#
# Stress axis : x y z
#
# Youngs Moduli (GPa) = 92.10043 64.74090 40.00059
#
# Poissons Ratio (x) = 0.19166 0.09751
# Poissons Ratio (y) = 0.27265 0.05322
# Poissons Ratio (z) = 0.22451 0.08614
#
# Static dielectric constant tensor:
#      x y z
#    x 3.728200 0.000000 -0.246010 
#    y 0.000000 3.849230 0.000000 
#    z -0.246010 0.000000 3.694170 
# 
# 
# High freq. dielectric constant tensor:
#      x y z
#    x 1.810870 0.000000 -0.010670 
#    y 0.000000 1.817180 0.000000 
#    z -0.010670 0.000000 1.807840 
# 
# From -- ./inp_files/290088.got.cif
#   From: 2010.06.25/outbox.cif.g09.slc.cpg/sg12_146_cif.got.tgz:290088.got - 2010.06.28 00:19:55.
