data_PCOD8094627
_publ_section_title
;
Structure prediction by ZEFSAII (Michael W. Deem and Ramdas Pophale) SiO2 
 PCOD8094627
Probable space group: C 2/M
;
_chemical_formula_sum "Si O2"
_cell_formula_units_Z 64
_cell_length_a 23.831987
_cell_length_b 8.815762
_cell_length_c 15.227339
_cell_angle_alpha 90.000000
_cell_angle_beta 85.981150
_cell_angle_gamma 90.000000
_cell_volume 3191.353418
_symmetry_space_group_name_H-M "C 2/M"
_symmetry_group_IT_number 12
_symmetry_cell_setting 'monoclinic'
loop_
_space_group_symop_operation_xyz
x,y,z
-x,y,-z
-x,-y,-z
x,-y,z
1/2+x,1/2+y,z
1/2-x,1/2+y,-z
1/2-x,1/2-y,-z
1/2+x,1/2-y,z
loop_
_atom_site_type_symbol
_atom_site_label
_atom_site_fract_x
_atom_site_fract_y
_atom_site_fract_z
Si Si1 0.347547 0.320914 0.349192
Si Si2 0.262025 0.679135 0.699228
Si Si3 0.719177 0.822063 0.126689
Si Si4 0.836420 0.178366 0.027131
Si Si5 0.967564 0.821892 0.593030
Si Si6 0.451724 0.175746 0.071494
Si Si7 0.041006 0.324584 0.728312
Si Si8 0.347297 0.679248 0.545582
O O1 0.338561 0.500000 0.347226
O O2 0.300779 0.242552 0.294734
O O3 0.407109 0.281564 0.301898
O O4 0.343144 0.253035 0.448191
O O5 0.261334 0.500000 0.707046
O O6 0.294551 0.746492 0.778790
O O7 0.294176 0.734484 0.607982
O O8 0.672634 0.758028 0.065363
O O9 0.711087 0.000000 0.134155
O O10 0.782962 0.777642 0.093130
O O11 0.839892 0.000000 0.012030
O O12 0.893728 0.234285 0.065182
O O13 0.903818 0.766694 0.587328
O O14 0.000000 0.781588 0.500000
O O15 0.989300 0.726474 0.673456
O O16 0.973356 0.000000 0.613541
O O17 0.474179 0.201479 0.167932
O O18 0.439031 0.000000 0.054088
O O19 0.500000 0.236231 0.000000
O O20 0.055739 0.500000 0.708744
O O21 0.349673 0.500000 0.536502
#
# Coordination Sequence:
#
# PCOD8094627 Si02
#       8
#     8   8   8   8   8   8   8   8
#     4  11  21  38  60  82 114 155 197 236 287 351
#     4  11  22  36  55  85 121 151 190 240 287 338
#     4  10  21  38  60  86 116 153 191 231 289 352
#     4  10  21  38  62  88 113 146 193 244 288 337
#     4  10  19  38  63  83 111 154 196 237 287 347
#     4  10  23  42  60  82 119 159 193 236 295 356
#     4  11  23  38  60  90 117 149 195 247 294 340
#     4   9  20  37  57  82 114 154 194 236 287 342
#
# _framework density 20.054188
#
# number of rings (size 3 to 8) (size 9 to 14) (size 15 to 20)
#    0.000    1.750    1.250    3.000    0.000    6.000 
#    0.000    5.625    0.000    0.000    0.000    0.000 
#    0.000    0.000    0.000    0.000    0.000    0.000 
#
# Total GULP energy -396914.776363 kJ/mol
# GULP energy per Si atom -12403.586761 kJ/mol
# Density = 2.000854 g / cm^3
# Si number density = 20.054188 Si / 1000 Ang^3
#
#
#
# Elastic Constant Matrix: (Units=GPa)
#
#
# Indices 1 2 3 4 5 6 
#
# 1 56.2195 14.4523 16.0898 0.0000 18.9057 0.0000
# 2 14.4523 58.9188 36.5650 0.0000 11.4250 0.0000
# 3 16.0898 36.5650 125.0165 0.0000 14.6116 0.0000
# 4 0.0000 0.0000 0.0000 32.7132 0.0000 8.3287
# 5 18.9057 11.4250 14.6116 0.0000 26.4638 0.0000
# 6 0.0000 0.0000 0.0000 8.3287 0.0000 29.3544
#
#
#
# Elastic Compliance Matrix: (Units=1/GPa)
#
#
# Indices 1 2 3 4 5 6 
#
# 1 0.023846 -0.002494 -0.000507 0.000000 -0.015679 0.000000
# 2 -0.002494 0.021925 -0.005552 0.000000 -0.004618 0.000000
# 3 -0.000507 -0.005552 0.010012 0.000000 -0.002769 0.000000
# 4 0.000000 0.000000 0.000000 0.032949 0.000000 -0.009349
# 5 -0.015679 -0.004618 -0.002769 0.000000 0.052511 0.000000
# 6 0.000000 0.000000 0.000000 -0.009349 0.000000 0.036719
#
#
# Mechanical properties :
#
#
# Convention : Reuss Voigt Hill
#
# Bulk Modulus (GPa) = 25.85529 41.59655 33.72592
# Shear Modulus (GPa) = 24.04296 29.24279 26.64288
#
# Velocity S-wave (km/s) = 3.46627 3.82277 3.64887
# Velocity P-wave (km/s) = 5.37966 6.34601 5.88271
#
# Compressibility (1/GPa) = 0.03867681
#
# Stress axis : x y z
#
# Youngs Moduli (GPa) = 41.93512 45.60909 99.88379
#
# Poissons Ratio (x) = 0.11376 0.05064
# Poissons Ratio (y) = 0.10460 0.55455
# Poissons Ratio (z) = 0.02126 0.25322
#
# Static dielectric constant tensor:
#      x y z
#    x 3.613150 0.000000 0.048160 
#    y 0.000000 3.478340 0.000000 
#    z 0.048160 0.000000 3.878420 
# 
# 
# High freq. dielectric constant tensor:
#      x y z
#    x 1.779800 0.000000 0.008760 
#    y 0.000000 1.773910 0.000000 
#    z 0.008760 0.000000 1.794720 
# 
# From -- ./inp_files/238793.got.cif
#   From: 2010.06.25/outbox.cif.g09.slc.cpg/sg12_120_cif.got.tgz:238793.got - 2010.06.28 00:19:55.
