data_PCOD8094916
_publ_section_title
;
Structure prediction by ZEFSAII (Michael W. Deem and Ramdas Pophale) SiO2 
 PCOD8094916
Probable space group: C 2/M
;
_chemical_formula_sum "Si O2"
_cell_formula_units_Z 64
_cell_length_a 20.129956
_cell_length_b 9.372874
_cell_length_c 24.084815
_cell_angle_alpha 90.000000
_cell_angle_beta 51.255898
_cell_angle_gamma 90.000000
_cell_volume 3544.255936
_symmetry_space_group_name_H-M "C 2/M"
_symmetry_group_IT_number 12
_symmetry_cell_setting 'monoclinic'
loop_
_space_group_symop_operation_xyz
x,y,z
-x,y,-z
-x,-y,-z
x,-y,z
1/2+x,1/2+y,z
1/2-x,1/2+y,-z
1/2-x,1/2-y,-z
1/2+x,1/2-y,z
loop_
_atom_site_type_symbol
_atom_site_label
_atom_site_fract_x
_atom_site_fract_y
_atom_site_fract_z
Si Si1 0.633543 0.169136 0.925057
Si Si2 0.637863 0.664278 0.655328
Si Si3 0.099205 0.169845 0.343483
Si Si4 0.177403 0.169892 0.188529
Si Si5 0.408458 0.330683 0.441907
Si Si6 0.970685 0.164076 0.813645
Si Si7 0.508403 0.831162 0.084815
Si Si8 0.701981 0.669411 0.397096
O O1 0.728471 0.234073 0.871769
O O2 0.578220 0.218188 0.900808
O O3 0.637250 0.000000 0.923044
O O4 0.588667 0.219387 0.005517
O O5 0.666810 0.500000 0.642770
O O6 0.632153 0.719244 0.594938
O O7 0.546114 0.685149 0.730533
O O8 0.705439 0.759907 0.652633
O O9 0.143049 0.230946 0.264913
O O10 0.152912 0.221872 0.368122
O O11 0.003689 0.232037 0.398572
O O12 0.095845 0.000000 0.342980
O O13 0.115688 0.217924 0.170856
O O14 0.179941 0.000000 0.190416
O O15 0.414214 0.500000 0.440879
O O16 0.350025 0.273566 0.522394
O O17 0.987555 0.257725 0.858319
O O18 0.962776 0.000000 0.836121
O O19 0.509395 0.000000 0.093120
O O20 0.713004 0.500000 0.392386
#
# Coordination Sequence:
#
# PCOD8094916 Si02
#       8
#     8   8   8   8   8   8   8   8
#     4   8  16  31  51  75 101 131 161 194 241 295
#     4  10  20  34  49  67 100 138 164 193 244 303
#     4   9  16  28  48  75 100 124 161 210 249 277
#     4   9  16  29  49  71  97 131 170 200 231 288
#     4   9  16  31  50  70  99 130 162 204 248 289
#     4  10  20  33  50  72  97 132 171 202 235 285
#     4   9  18  33  53  77 104 128 155 198 250 292
#     4  10  20  30  50  80  99 119 163 215 252 283
#
# _framework density 18.057386000000001
#
# number of rings (size 3 to 8) (size 9 to 14) (size 15 to 20)
#    0.000    2.750    1.250    1.500    1.750    2.500 
#    0.000    1.250    0.000    3.750    0.000    0.000 
#    0.000    0.000    0.000    0.000    0.000    0.000 
#
# Total GULP energy -396753.499954 kJ/mol
# GULP energy per Si atom -12398.546874 kJ/mol
# Density = 1.801629 g / cm^3
# Si number density = 18.057386 Si / 1000 Ang^3
#
#
#
# Elastic Constant Matrix: (Units=GPa)
#
#
# Indices 1 2 3 4 5 6 
#
# 1 117.6185 28.8726 34.0117 -0.0001 -2.1278 -0.0004
# 2 28.8726 23.7020 19.5192 -0.0002 2.6935 -0.0007
# 3 34.0117 19.5192 63.1532 0.0001 0.2018 -0.0003
# 4 -0.0001 -0.0002 0.0001 19.6711 0.0000 3.2342
# 5 -2.1278 2.6935 0.2018 0.0000 42.4630 0.0000
# 6 -0.0004 -0.0007 -0.0003 3.2342 0.0000 23.0729
#
#
#
# Elastic Compliance Matrix: (Units=1/GPa)
#
#
# Indices 1 2 3 4 5 6 
#
# 1 0.012557 -0.013269 -0.002666 0.000000 0.001484 0.000000
# 2 -0.013269 0.071145 -0.014827 0.000000 -0.005107 0.000002
# 3 -0.002666 -0.014827 0.021851 0.000000 0.000703 0.000000
# 4 0.000000 0.000000 0.000000 0.052035 0.000000 -0.007294
# 5 0.001484 -0.005107 0.000703 0.000000 0.023945 0.000000
# 6 0.000000 0.000002 0.000000 -0.007294 0.000000 0.044363
#
#
# Mechanical properties :
#
#
# Convention : Reuss Voigt Hill
#
# Bulk Modulus (GPa) = 22.71260 41.03118 31.87189
# Shear Modulus (GPa) = 16.55097 25.17942 20.86520
#
# Velocity S-wave (km/s) = 3.03079 3.73823 3.40294
# Velocity P-wave (km/s) = 4.98526 6.43463 5.75575
#
# Compressibility (1/GPa) = 0.04402843
#
# Stress axis : x y z
#
# Youngs Moduli (GPa) = 79.63526 14.05580 45.76502
#
# Poissons Ratio (x) = 0.18651 0.12202
# Poissons Ratio (y) = 1.05672 0.67854
# Poissons Ratio (z) = 0.21233 0.20840
#
# Static dielectric constant tensor:
#      x y z
#    x 3.510210 0.000000 -0.117260 
#    y 0.000000 2.751370 0.000000 
#    z -0.117260 0.000000 3.589870 
# 
# 
# High freq. dielectric constant tensor:
#      x y z
#    x 1.714040 0.000000 -0.001660 
#    y 0.000000 1.635540 0.000000 
#    z -0.001660 0.000000 1.710880 
# 
# From -- ./inp_files/343056.got.cif
#   From: 2010.06.25/outbox.cif.g09.slc.cpg/sg12_172_cif.got.tgz:343056.got - 2010.06.28 00:19:55.
