data_PCOD8094631
_publ_section_title
;
Structure prediction by ZEFSAII (Michael W. Deem and Ramdas Pophale) SiO2 
 PCOD8094631
Probable space group: C 2/M
;
_chemical_formula_sum "Si O2"
_cell_formula_units_Z 60
_cell_length_a 15.078778
_cell_length_b 24.351002
_cell_length_c 8.565282
_cell_angle_alpha 90.000000
_cell_angle_beta 111.235839
_cell_angle_gamma 90.000000
_cell_volume 2931.473384
_symmetry_space_group_name_H-M "C 2/M"
_symmetry_group_IT_number 12
_symmetry_cell_setting 'monoclinic'
loop_
_space_group_symop_operation_xyz
x,y,z
-x,y,-z
-x,-y,-z
x,-y,z
1/2+x,1/2+y,z
1/2-x,1/2+y,-z
1/2-x,1/2-y,-z
1/2+x,1/2-y,z
loop_
_atom_site_type_symbol
_atom_site_label
_atom_site_fract_x
_atom_site_fract_y
_atom_site_fract_z
Si Si1 0.407810 0.063763 0.363106
Si Si2 0.736655 0.882998 0.517165
Si Si3 0.874899 0.821813 0.827625
Si Si4 0.069198 0.150807 0.809847
Si Si5 0.200023 0.064819 0.738666
Si Si6 0.652728 0.223690 0.384199
Si Si7 0.098108 0.565122 0.986803
Si Si8 0.000000 0.771791 0.500000
O O1 0.500000 0.091635 0.500000
O O2 0.321674 0.071102 0.427959
O O3 0.425952 0.000000 0.349312
O O4 0.390946 0.089735 0.181116
O O5 0.785936 0.847834 0.683670
O O6 0.808425 0.914179 0.445808
O O7 0.669469 0.841479 0.372669
O O8 0.882562 0.756475 0.793101
O O9 0.964718 0.856330 0.817618
O O10 0.864807 0.825395 0.008132
O O11 0.117040 0.093561 0.786834
O O12 0.062595 0.190949 0.657479
O O13 0.306421 0.081969 0.859825
O O14 0.181920 0.000000 0.739111
O O15 0.750000 0.250000 0.500000
O O16 0.573257 0.231778 0.464258
O O17 0.091287 0.500000 0.980570
O O18 0.000000 0.588805 0.000000
#
# Coordination Sequence:
#
# PCOD8094631 Si02
#       8
#     8   8   8   8   8   8   8   4
#     4  10  20  34  54  77 108 151 192 233 285 338
#     4  11  21  36  56  82 118 150 194 234 288 341
#     4   9  20  38  60  85 112 149 189 240 292 349
#     4  10  19  38  63  84 115 152 190 235 294 347
#     4  11  22  36  57  86 118 155 195 237 287 349
#     4   9  19  36  57  82 113 148 187 239 291 342
#     4   9  18  34  53  75 109 151 193 238 282 329
#     4  10  20  38  63  86 113 152 194 240 300 346
#
# _framework density 20.467524999999998
#
# number of rings (size 3 to 8) (size 9 to 14) (size 15 to 20)
#    0.000    2.133    0.000    4.400    0.933    2.133 
#    0.000   13.000    8.800    0.000    0.000    0.000 
#    0.000    0.000    0.000    0.000    0.000    0.000 
#
# Total GULP energy -371752.318866 kJ/mol
# GULP energy per Si atom -12391.743962 kJ/mol
# Density = 2.042094 g / cm^3
# Si number density = 20.467525 Si / 1000 Ang^3
#
#
#
# Elastic Constant Matrix: (Units=GPa)
#
#
# Indices 1 2 3 4 5 6 
#
# 1 77.8064 29.4784 14.2002 0.0000 -8.8912 0.0000
# 2 29.4784 65.0372 32.7162 0.0000 -6.6184 0.0000
# 3 14.2002 32.7162 114.8387 0.0000 -13.7863 0.0000
# 4 0.0000 0.0000 0.0000 18.5734 0.0000 -0.6277
# 5 -8.8912 -6.6184 -13.7863 0.0000 34.2283 0.0000
# 6 0.0000 0.0000 0.0000 -0.6277 0.0000 32.8825
#
#
#
# Elastic Compliance Matrix: (Units=1/GPa)
#
#
# Indices 1 2 3 4 5 6 
#
# 1 0.015786 -0.007066 0.000409 0.000000 0.002899 0.000000
# 2 -0.007066 0.021182 -0.005138 0.000000 0.000191 0.000000
# 3 0.000409 -0.005138 0.010523 0.000000 0.003351 0.000000
# 4 0.000000 0.000000 0.000000 0.053875 0.000000 0.001028
# 5 0.002899 0.000191 0.003351 0.000000 0.031355 0.000000
# 6 0.000000 0.000000 0.000000 0.001028 0.000000 0.030431
#
#
# Mechanical properties :
#
#
# Convention : Reuss Voigt Hill
#
# Bulk Modulus (GPa) = 41.83704 45.60800 43.72252
# Shear Modulus (GPa) = 25.67912 29.22266 27.45089
#
# Velocity S-wave (km/s) = 3.54591 3.78267 3.66620
# Velocity P-wave (km/s) = 6.10326 6.43503 6.27134
#
# Compressibility (1/GPa) = 0.02390227
#
# Stress axis : x y z
#
# Youngs Moduli (GPa) = 63.34692 47.20884 95.02658
#
# Poissons Ratio (x) = 0.33357 -0.03887
# Poissons Ratio (y) = 0.44760 0.48825
# Poissons Ratio (z) = -0.02591 0.24256
#
# Static dielectric constant tensor:
#      x y z
#    x 3.612360 0.000000 -0.020780 
#    y 0.000000 3.646790 0.000000 
#    z -0.020780 0.000000 4.037370 
# 
# 
# High freq. dielectric constant tensor:
#      x y z
#    x 1.801760 0.000000 -0.004570 
#    y 0.000000 1.774850 0.000000 
#    z -0.004570 0.000000 1.806690 
# 
# From -- ./inp_files/65930.got.cif
#   From: 2010.06.25/outbox.cif.g09.slc.cpg/sg12_33_cif.got.tgz:65930.got - 2010.06.28 00:19:55.
