data_PCOD8094719
_publ_section_title
;
Structure prediction by ZEFSAII (Michael W. Deem and Ramdas Pophale) SiO2 
 PCOD8094719
Probable space group: C 2/M
;
_chemical_formula_sum "Si O2"
_cell_formula_units_Z 40
_cell_length_a 5.257325
_cell_length_b 25.369637
_cell_length_c 12.805089
_cell_angle_alpha 90.000000
_cell_angle_beta 81.766094
_cell_angle_gamma 90.000000
_cell_volume 1690.291423
_symmetry_space_group_name_H-M "C 2/M"
_symmetry_group_IT_number 12
_symmetry_cell_setting 'monoclinic'
loop_
_space_group_symop_operation_xyz
x,y,z
-x,y,-z
-x,-y,-z
x,-y,z
1/2+x,1/2+y,z
1/2-x,1/2+y,-z
1/2-x,1/2-y,-z
1/2+x,1/2-y,z
loop_
_atom_site_type_symbol
_atom_site_label
_atom_site_fract_x
_atom_site_fract_y
_atom_site_fract_z
Si Si1 0.041540 0.801427 0.381196
Si Si2 0.067181 0.312495 0.295697
Si Si3 0.728053 0.561964 0.555506
Si Si4 0.456414 0.560478 0.202202
Si Si5 0.501763 0.887118 0.120877
O O1 0.302685 0.834980 0.360756
O O2 0.000000 0.779915 0.500000
O O3 0.076113 0.750932 0.302670
O O4 0.803770 0.835969 0.351260
O O5 0.080135 0.333204 0.176644
O O6 0.500000 0.589361 0.500000
O O7 0.725264 0.500000 0.532111
O O8 0.679727 0.573158 0.679964
O O9 0.000000 0.585385 0.500000
O O10 0.539304 0.500000 0.187804
O O11 0.719768 0.593064 0.172128
O O12 0.234397 0.571988 0.129406
O O13 0.500000 0.873271 0.000000
#
# Coordination Sequence:
#
# PCOD8094719 Si02
#       5
#     8   8   8   8   8
#     4  10  19  38  67  96 131 161 193 241 297 379
#     4  10  20  37  60  91 126 161 196 243 309 370
#     4   9  17  33  57  83 112 143 179 233 304 375
#     4  11  24  43  66  89 118 164 219 269 319 373
#     4  12  26  43  61  87 125 163 215 279 318 354
#
# _framework density 23.664560999999999
#
# number of rings (size 3 to 8) (size 9 to 14) (size 15 to 20)
#    0.000    1.600    0.000    6.600    0.000    5.600 
#    0.000   17.000    0.000    0.000    0.000    0.000 
#    0.000    0.000    0.000    0.000    0.000    0.000 
#
# Total GULP energy -247883.304229 kJ/mol
# GULP energy per Si atom -12394.165211 kJ/mol
# Density = 2.361070 g / cm^3
# Si number density = 23.664561 Si / 1000 Ang^3
#
#
#
# Elastic Constant Matrix: (Units=GPa)
#
#
# Indices 1 2 3 4 5 6 
#
# 1 222.7357 6.8089 48.6130 0.0000 7.3084 0.0000
# 2 6.8089 50.3264 22.1603 0.0000 1.5201 0.0000
# 3 48.6130 22.1603 141.0309 0.0000 22.5971 0.0000
# 4 0.0000 0.0000 0.0000 45.0624 0.0000 3.4169
# 5 7.3084 1.5201 22.5971 0.0000 43.3773 0.0000
# 6 0.0000 0.0000 0.0000 3.4169 0.0000 24.3497
#
#
#
# Elastic Compliance Matrix: (Units=1/GPa)
#
#
# Indices 1 2 3 4 5 6 
#
# 1 0.004855 0.000089 -0.001698 0.000000 0.000063 0.000000
# 2 0.000089 0.021396 -0.003568 0.000000 0.001094 0.000000
# 3 -0.001698 -0.003568 0.008915 0.000000 -0.004233 0.000000
# 4 0.000000 0.000000 0.000000 0.022430 0.000000 -0.003147
# 5 0.000063 0.001094 -0.004233 0.000000 0.025210 0.000000
# 6 0.000000 0.000000 0.000000 -0.003147 0.000000 0.041510
#
#
# Mechanical properties :
#
#
# Convention : Reuss Voigt Hill
#
# Bulk Modulus (GPa) = 40.30200 63.25082 51.77641
# Shear Modulus (GPa) = 34.97956 44.99194 39.98575
#
# Velocity S-wave (km/s) = 3.84883 4.36505 4.11504
# Velocity P-wave (km/s) = 6.06785 7.22433 6.67120
#
# Compressibility (1/GPa) = 0.02481266
#
# Stress axis : x y z
#
# Youngs Moduli (GPa) = 205.95751 46.73708 112.17422
#
# Poissons Ratio (x) = -0.00415 0.19044
# Poissons Ratio (y) = -0.01828 0.40022
# Poissons Ratio (z) = 0.34966 0.16675
#
# Static dielectric constant tensor:
#      x y z
#    x 5.735380 0.000000 0.118040 
#    y 0.000000 4.003850 0.000000 
#    z 0.118040 0.000000 3.969320 
# 
# 
# High freq. dielectric constant tensor:
#      x y z
#    x 1.978740 0.000000 0.005510 
#    y 0.000000 1.936110 0.000000 
#    z 0.005510 0.000000 1.909830 
# 
# From -- ./inp_files/115444.got.cif
#   From: 2010.06.25/outbox.cif.g09.slc.cpg/sg12_58_cif.got.tgz:115444.got - 2010.06.28 00:19:55.
