data_PCOD8094887
_publ_section_title
;
Structure prediction by ZEFSAII (Michael W. Deem and Ramdas Pophale) SiO2 
 PCOD8094887
Probable space group: C 2/M
;
_chemical_formula_sum "Si O2"
_cell_formula_units_Z 44
_cell_length_a 8.537461
_cell_length_b 23.695618
_cell_length_c 15.359929
_cell_angle_alpha 90.000000
_cell_angle_beta 136.255639
_cell_angle_gamma 90.000000
_cell_volume 2148.531428
_symmetry_space_group_name_H-M "C 2/M"
_symmetry_group_IT_number 12
_symmetry_cell_setting 'monoclinic'
loop_
_space_group_symop_operation_xyz
x,y,z
-x,y,-z
-x,-y,-z
x,-y,z
1/2+x,1/2+y,z
1/2-x,1/2+y,-z
1/2-x,1/2-y,-z
1/2+x,1/2-y,z
loop_
_atom_site_type_symbol
_atom_site_label
_atom_site_fract_x
_atom_site_fract_y
_atom_site_fract_z
Si Si1 0.537224 0.796458 0.829388
Si Si2 0.158055 0.000000 0.421532
Si Si3 0.255127 0.698499 0.636319
Si Si4 0.106312 0.618384 0.718803
Si Si5 0.000000 0.733435 0.000000
Si Si6 0.384266 0.619147 0.542520
Si Si7 0.659646 0.000000 0.693686
O O1 0.370193 0.758250 0.703718
O O2 0.544423 0.858374 0.789319
O O3 0.788968 0.773194 0.932251
O O4 0.453157 0.804251 0.895122
O O5 0.018710 0.943022 0.391903
O O6 0.395457 0.000000 0.566230
O O7 0.187541 0.000000 0.330378
O O8 0.264779 0.661974 0.729200
O O9 0.414820 0.666945 0.629051
O O10 0.000000 0.709905 0.500000
O O11 0.220779 0.556534 0.773232
O O12 0.883784 0.611521 0.571389
O O13 0.500000 0.640295 0.500000
#
# Coordination Sequence:
#
# PCOD8094887 Si02
#       7
#     8   4   8   8   4   8   4
#     4  11  22  41  59  86 114 149 198 244 286 347
#     4   9  15  30  50  72 118 156 203 215 268 343
#     4  10  21  36  56  87 123 157 183 230 297 353
#     4  10  20  35  57  81 116 154 193 230 285 346
#     4  10  24  40  62  80 108 158 198 242 288 332
#     4  10  20  29  50  84 120 158 183 233 285 343
#     4   9  16  32  56  78 106 162 191 230 270 350
#
# _framework density 20.479106000000002
#
# number of rings (size 3 to 8) (size 9 to 14) (size 15 to 20)
#    0.000    2.000    3.636    0.273    2.545    3.636 
#    0.000    0.000    0.000    1.091    0.000    0.000 
#    0.000    0.000    0.000    0.000    0.000    0.000 
#
# Total GULP energy -272694.223383 kJ/mol
# GULP energy per Si atom -12395.191972 kJ/mol
# Density = 2.043249 g / cm^3
# Si number density = 20.479106 Si / 1000 Ang^3
#
#
#
# Elastic Constant Matrix: (Units=GPa)
#
#
# Indices 1 2 3 4 5 6 
#
# 1 82.8807 43.3150 22.2174 0.0001 -28.9807 0.0003
# 2 43.3150 116.2625 43.2697 -0.0002 -31.4923 -0.0001
# 3 22.2174 43.2697 60.2831 0.0021 -19.0943 -0.0004
# 4 0.0001 -0.0002 0.0021 31.2166 0.0014 -22.1676
# 5 -28.9807 -31.4923 -19.0943 0.0014 42.6922 -0.0004
# 6 0.0003 -0.0001 -0.0004 -22.1676 -0.0004 38.6567
#
#
#
# Elastic Compliance Matrix: (Units=1/GPa)
#
#
# Indices 1 2 3 4 5 6 
#
# 1 0.017270 -0.003770 -0.000963 -0.000001 0.008512 0.000000
# 2 -0.003770 0.013883 -0.007156 0.000001 0.004481 0.000000
# 3 -0.000963 -0.007156 0.023535 -0.000003 0.004594 -0.000001
# 4 -0.000001 0.000001 -0.000003 0.054041 -0.000003 0.030989
# 5 0.008512 0.004481 0.004594 -0.000003 0.034562 -0.000001
# 6 0.000000 0.000000 -0.000001 0.030989 -0.000001 0.043640
#
#
# Mechanical properties :
#
#
# Convention : Reuss Voigt Hill
#
# Bulk Modulus (GPa) = 32.35208 53.00341 42.67774
# Shear Modulus (GPa) = 22.62332 32.55469 27.58900
#
# Velocity S-wave (km/s) = 3.32731 3.99137 3.67437
# Velocity P-wave (km/s) = 5.53112 6.86872 6.23589
#
# Compressibility (1/GPa) = 0.03090992
#
# Stress axis : x y z
#
# Youngs Moduli (GPa) = 57.90265 72.03087 42.49053
#
# Poissons Ratio (x) = 0.27159 0.04090
# Poissons Ratio (y) = 0.21832 0.30406
# Poissons Ratio (z) = 0.05574 0.51545
#
# Static dielectric constant tensor:
#      x y z
#    x 3.800940 0.000000 -0.291920 
#    y 0.000000 3.957230 0.000000 
#    z -0.291920 0.000000 3.474820 
# 
# 
# High freq. dielectric constant tensor:
#      x y z
#    x 1.806390 0.000000 -0.021150 
#    y 0.000000 1.799580 0.000000 
#    z -0.021150 0.000000 1.750440 
# 
# From -- ./inp_files/120777.got.cif
#   From: 2010.06.25/outbox.cif.g09.slc.cpg/sg12_61_cif.got.tgz:120777.got - 2010.06.28 00:19:55.
