data_PCOD8094460
_publ_section_title
;
Structure prediction by ZEFSAII (Michael W. Deem and Ramdas Pophale) SiO2 
 PCOD8094460
Probable space group: C 2/M
;
_chemical_formula_sum "Si O2"
_cell_formula_units_Z 56
_cell_length_a 17.213158
_cell_length_b 12.408080
_cell_length_c 15.444777
_cell_angle_alpha 90.000000
_cell_angle_beta 62.025272
_cell_angle_gamma 90.000000
_cell_volume 2913.288593
_symmetry_space_group_name_H-M "C 2/M"
_symmetry_group_IT_number 12
_symmetry_cell_setting 'monoclinic'
loop_
_space_group_symop_operation_xyz
x,y,z
-x,y,-z
-x,-y,-z
x,-y,z
1/2+x,1/2+y,z
1/2-x,1/2+y,-z
1/2-x,1/2-y,-z
1/2+x,1/2-y,z
loop_
_atom_site_type_symbol
_atom_site_label
_atom_site_fract_x
_atom_site_fract_y
_atom_site_fract_z
Si Si1 0.057986 0.121966 0.593871
Si Si2 0.727788 0.707973 0.918547
Si Si3 0.691180 0.875506 0.789888
Si Si4 0.890482 0.377645 0.731638
Si Si5 0.123928 0.815990 0.378723
Si Si6 0.050729 0.878548 0.056867
Si Si7 0.462150 0.767895 0.241346
O O1 0.108281 0.180966 0.489316
O O2 0.083075 0.184361 0.668433
O O3 0.952769 0.120112 0.632356
O O4 0.091922 0.000000 0.584166
O O5 0.697243 0.808215 0.875135
O O6 0.808828 0.644106 0.836644
O O7 0.750000 0.750000 0.000000
O O8 0.651343 0.622104 0.974495
O O9 0.782924 0.870003 0.690617
O O10 0.613283 0.827976 0.771996
O O11 0.670261 0.000000 0.823157
O O12 0.891158 0.500000 0.700321
O O13 0.880006 0.307781 0.650057
O O14 0.980808 0.353886 0.735112
O O15 0.029497 0.798436 0.146138
O O16 0.023924 0.000000 0.097881
O O17 0.000000 0.836564 0.000000
#
# Coordination Sequence:
#
# PCOD8094460 Si02
#       7
#     8   8   8   8   8   8   8
#     4  10  19  37  64  88 114 150 190 243 289 329
#     4  11  22  40  59  86 114 145 198 242 278 345
#     4  11  23  39  59  83 117 153 186 234 290 343
#     4  10  21  38  59  84 117 154 190 237 287 336
#     4   9  20  38  60  87 116 144 197 238 281 346
#     4  11  22  39  59  81 116 154 187 238 289 332
#     4  11  22  38  56  86 120 149 197 231 279 353
#
# _framework density 19.222263999999999
#
# number of rings (size 3 to 8) (size 9 to 14) (size 15 to 20)
#    0.000    1.571    2.857    3.000    0.000    1.714 
#    0.000    7.857    0.000    0.000    0.000    0.000 
#    0.000    0.000    0.000    0.000    0.000    0.000 
#
# Total GULP energy -347223.232078 kJ/mol
# GULP energy per Si atom -12400.829717 kJ/mol
# Density = 1.917851 g / cm^3
# Si number density = 19.222264 Si / 1000 Ang^3
#
#
#
# Elastic Constant Matrix: (Units=GPa)
#
#
# Indices 1 2 3 4 5 6 
#
# 1 87.4145 30.8992 32.3983 0.0000 2.3441 0.0000
# 2 30.8992 133.2600 50.7927 0.0000 13.3358 0.0000
# 3 32.3983 50.7927 103.6111 0.0000 4.4276 0.0000
# 4 0.0000 0.0000 0.0000 21.4651 0.0000 -1.3790
# 5 2.3441 13.3358 4.4276 0.0000 28.0098 0.0000
# 6 0.0000 0.0000 0.0000 -1.3790 0.0000 20.0950
#
#
#
# Elastic Compliance Matrix: (Units=1/GPa)
#
#
# Indices 1 2 3 4 5 6 
#
# 1 0.013300 -0.001873 -0.003253 0.000000 0.000293 0.000000
# 2 -0.001873 0.009890 -0.004096 0.000000 -0.003905 0.000000
# 3 -0.003253 -0.004096 0.012667 0.000000 0.000220 0.000000
# 4 0.000000 0.000000 0.000000 0.046794 0.000000 0.003211
# 5 0.000293 -0.003905 0.000220 0.000000 0.037502 0.000000
# 6 0.000000 0.000000 0.000000 0.003211 0.000000 0.049984
#
#
# Mechanical properties :
#
#
# Convention : Reuss Voigt Hill
#
# Bulk Modulus (GPa) = 57.42811 61.38511 59.40661
# Shear Modulus (GPa) = 25.72216 27.92701 26.82458
#
# Velocity S-wave (km/s) = 3.66203 3.81576 3.73969
# Velocity P-wave (km/s) = 6.91530 7.17057 7.04409
#
# Compressibility (1/GPa) = 0.01741308
#
# Stress axis : x y z
#
# Youngs Moduli (GPa) = 75.18982 101.10793 78.94447
#
# Poissons Ratio (x) = 0.18940 0.25680
# Poissons Ratio (y) = 0.14085 0.32335
# Poissons Ratio (z) = 0.24458 0.41413
#
# Static dielectric constant tensor:
#      x y z
#    x 3.640810 0.000000 -0.392360 
#    y 0.000000 3.495390 0.000000 
#    z -0.392360 0.000000 4.339980 
# 
# 
# High freq. dielectric constant tensor:
#      x y z
#    x 1.745910 0.000000 -0.001520 
#    y 0.000000 1.747440 0.000000 
#    z -0.001520 0.000000 1.753400 
# 
# From -- ./inp_files/223712.got.cif
#   From: 2010.06.25/outbox.cif.g09.slc.cpg/sg12_112_cif.got.tgz:223712.got - 2010.06.28 00:19:55.
