data_PCOD8094250
_publ_section_title
;
Structure prediction by ZEFSAII (Michael W. Deem and Ramdas Pophale) SiO2 
 PCOD8094250
Probable space group: C 2/M
;
_chemical_formula_sum "Si O2"
_cell_formula_units_Z 56
_cell_length_a 19.499161
_cell_length_b 9.238948
_cell_length_c 29.162745
_cell_angle_alpha 90.000000
_cell_angle_beta 33.593361
_cell_angle_gamma 90.000000
_cell_volume 2906.856680
_symmetry_space_group_name_H-M "C 2/M"
_symmetry_group_IT_number 12
_symmetry_cell_setting 'monoclinic'
loop_
_space_group_symop_operation_xyz
x,y,z
-x,y,-z
-x,-y,-z
x,-y,z
1/2+x,1/2+y,z
1/2-x,1/2+y,-z
1/2-x,1/2-y,-z
1/2+x,1/2-y,z
loop_
_atom_site_type_symbol
_atom_site_label
_atom_site_fract_x
_atom_site_fract_y
_atom_site_fract_z
Si Si1 0.571079 0.328350 0.006260
Si Si2 0.774649 0.837143 0.685571
Si Si3 0.648954 0.171887 0.139803
Si Si4 0.516669 0.828982 0.387807
Si Si5 0.997832 0.332605 0.865581
Si Si6 0.546925 0.171803 0.678512
Si Si7 0.814789 0.833250 0.558057
O O1 0.564819 0.500000 0.014711
O O2 0.504097 0.260345 0.087318
O O3 0.500000 0.276804 0.000000
O O4 0.712892 0.271936 0.926146
O O5 0.844456 0.725181 0.679633
O O6 0.628620 0.806918 0.767838
O O7 0.825739 0.816289 0.606169
O O8 0.802560 0.000000 0.686987
O O9 0.606825 0.221041 0.112253
O O10 0.555630 0.237759 0.229754
O O11 0.644017 0.000000 0.145253
O O12 0.483560 0.776219 0.355457
O O13 0.422318 0.760456 0.476111
O O14 0.511525 0.000000 0.395434
O O15 0.977762 0.500000 0.889686
O O16 0.682898 0.230435 0.615204
O O17 0.546107 0.000000 0.683702
O O18 0.830595 0.000000 0.534169
#
# Coordination Sequence:
#
# PCOD8094250 Si02
#       7
#     8   8   8   8   8   8   8
#     4  10  22  36  57  88 118 146 175 216 275 338
#     4  10  21  37  57  80 105 145 193 229 268 323
#     4   9  17  35  59  81 108 145 189 225 261 323
#     4  11  23  34  53  84 116 146 177 227 288 329
#     4  10  20  37  61  82 106 144 190 233 267 311
#     4   9  18  34  57  81 106 145 190 227 267 323
#     4  10  19  37  60  78 103 145 195 232 265 322
#
# _framework density 19.264796
#
# number of rings (size 3 to 8) (size 9 to 14) (size 15 to 20)
#    0.000    2.143    1.429    1.714    2.000    3.143 
#    0.000    0.714    0.000    2.571    0.000    0.000 
#    0.000    0.000    0.000    0.000    0.000    0.000 
#
# Total GULP energy -347248.822440 kJ/mol
# GULP energy per Si atom -12401.743659 kJ/mol
# Density = 1.922095 g / cm^3
# Si number density = 19.264796 Si / 1000 Ang^3
#
#
#
# Elastic Constant Matrix: (Units=GPa)
#
#
# Indices 1 2 3 4 5 6 
#
# 1 129.2073 35.6071 42.9354 0.0013 -8.7693 -0.0076
# 2 35.6071 42.4058 26.4881 0.0003 1.8881 -0.0025
# 3 42.9354 26.4881 91.0447 -0.0003 2.5855 0.0001
# 4 0.0013 0.0003 -0.0003 21.2464 0.0006 3.1419
# 5 -8.7693 1.8881 2.5855 0.0006 30.1896 -0.0002
# 6 -0.0076 -0.0025 0.0001 3.1419 -0.0002 23.3219
#
#
#
# Elastic Compliance Matrix: (Units=1/GPa)
#
#
# Indices 1 2 3 4 5 6 
#
# 1 0.011146 -0.007555 -0.003171 -0.000001 0.003982 0.000003
# 2 -0.007555 0.033976 -0.006214 0.000000 -0.003787 0.000001
# 3 -0.003171 -0.006214 0.014337 0.000001 -0.001760 -0.000002
# 4 -0.000001 0.000000 0.000001 0.048023 -0.000001 -0.006470
# 5 0.003982 -0.003787 -0.001760 -0.000001 0.034668 0.000001
# 6 0.000003 0.000001 -0.000002 -0.006470 0.000001 0.043750
#
#
# Mechanical properties :
#
#
# Convention : Reuss Voigt Hill
#
# Bulk Modulus (GPa) = 39.09715 52.52434 45.81074
# Shear Modulus (GPa) = 21.90037 25.46007 23.68022
#
# Velocity S-wave (km/s) = 3.37532 3.63931 3.50979
# Velocity P-wave (km/s) = 5.96062 6.70694 6.34476
#
# Compressibility (1/GPa) = 0.02557731
#
# Stress axis : x y z
#
# Youngs Moduli (GPa) = 89.72194 29.43265 69.74956
#
# Poissons Ratio (x) = 0.22237 0.22118
# Poissons Ratio (y) = 0.67786 0.43345
# Poissons Ratio (z) = 0.28452 0.18290
#
# Static dielectric constant tensor:
#      x y z
#    x 3.712120 0.000000 -0.100670 
#    y 0.000000 3.178530 0.000000 
#    z -0.100670 0.000000 3.603400 
# 
# 
# High freq. dielectric constant tensor:
#      x y z
#    x 1.764680 0.000000 -0.004950 
#    y 0.000000 1.710060 0.000000 
#    z -0.004950 0.000000 1.759780 
# 
# From -- ./inp_files/363137.got.cif
#   From: 2010.06.25/outbox.cif.g09.slc.cpg/sg12_182_cif.got.tgz:363137.got - 2010.06.28 00:19:55.
