data_PCOD8094548
_publ_section_title
;
Structure prediction by ZEFSAII (Michael W. Deem and Ramdas Pophale) SiO2 
 PCOD8094548
Probable space group: C 2/M
;
_chemical_formula_sum "Si O2"
_cell_formula_units_Z 48
_cell_length_a 27.051430
_cell_length_b 14.681692
_cell_length_c 5.262197
_cell_angle_alpha 90.000000
_cell_angle_beta 85.548071
_cell_angle_gamma 90.000000
_cell_volume 2083.632437
_symmetry_space_group_name_H-M "C 2/M"
_symmetry_group_IT_number 12
_symmetry_cell_setting 'monoclinic'
loop_
_space_group_symop_operation_xyz
x,y,z
-x,y,-z
-x,-y,-z
x,-y,z
1/2+x,1/2+y,z
1/2-x,1/2+y,-z
1/2-x,1/2-y,-z
1/2+x,1/2-y,z
loop_
_atom_site_type_symbol
_atom_site_label
_atom_site_fract_x
_atom_site_fract_y
_atom_site_fract_z
Si Si1 0.126570 0.000000 0.967744
Si Si2 0.615524 0.306940 0.003755
Si Si3 0.366349 0.000000 0.289220
Si Si4 0.070458 0.500000 0.238846
Si Si5 0.783797 0.813385 0.760740
Si Si6 0.811098 0.000000 0.556344
Si Si7 0.970353 0.697367 0.762244
Si Si8 0.679826 0.810080 0.683172
O O1 0.169022 0.000000 0.738895
O O2 0.093528 0.906923 0.941837
O O3 0.144818 0.000000 0.252361
O O4 0.672623 0.328818 0.056238
O O5 0.581441 0.253499 0.219551
O O6 0.626796 0.238536 0.766154
O O7 0.408904 0.000000 0.484344
O O8 0.331221 0.915108 0.345869
O O9 0.388021 0.000000 0.995424
O O10 0.036811 0.589235 0.222897
O O11 0.725620 0.797765 0.874671
O O12 0.799602 0.726970 0.587796
O O13 0.779341 0.907474 0.599356
O O14 0.000000 0.726491 0.500000
O O15 0.000000 0.729578 0.000000
#
# Coordination Sequence:
#
# PCOD8094548 Si02
#       8
#     4   8   4   4   8   4   8   8
#     4  10  22  38  67  91 117 173 206 264 325 393
#     4  11  23  43  67  92 135 169 227 274 343 395
#     4  12  25  41  68 104 137 189 212 288 317 404
#     4  12  24  47  71  96 144 173 229 266 353 392
#     4  10  22  38  64  95 131 183 217 278 322 405
#     4  10  19  38  58  91 128 163 223 252 313 385
#     4  12  27  45  73 102 131 177 228 284 341 407
#     4  11  22  39  62  95 137 175 229 262 336 392
#
# _framework density 23.036693
#
# number of rings (size 3 to 8) (size 9 to 14) (size 15 to 20)
#    0.000    1.000    3.333    3.500    2.333    0.000 
#    0.000    2.500    0.000    0.000    0.000    0.000 
#    0.000    0.000    0.000    0.000    0.000    0.000 
#
# Total GULP energy -297387.866431 kJ/mol
# GULP energy per Si atom -12391.161101 kJ/mol
# Density = 2.298426 g / cm^3
# Si number density = 23.036693 Si / 1000 Ang^3
#
#
#
# Elastic Constant Matrix: (Units=GPa)
#
#
# Indices 1 2 3 4 5 6 
#
# 1 78.2247 42.7049 31.8086 0.0000 -22.4652 0.0000
# 2 42.7049 174.0071 17.3870 0.0000 -27.7097 0.0000
# 3 31.8086 17.3870 85.9228 0.0000 -16.3075 0.0000
# 4 0.0000 0.0000 0.0000 67.4730 0.0000 -74.5055
# 5 -22.4652 -27.7097 -16.3075 0.0000 45.8214 0.0000
# 6 0.0000 0.0000 0.0000 -74.5055 0.0000 130.6721
#
#
#
# Elastic Compliance Matrix: (Units=1/GPa)
#
#
# Indices 1 2 3 4 5 6 
#
# 1 0.018013 -0.003093 -0.005063 0.000000 0.005159 0.000000
# 2 -0.003093 0.006919 0.000270 0.000000 0.002764 0.000000
# 3 -0.005063 0.000270 0.013961 0.000000 0.002649 0.000000
# 4 0.000000 0.000000 0.000000 0.040013 0.000000 0.022814
# 5 0.005159 0.002764 0.002649 0.000000 0.026967 0.000000
# 6 0.000000 0.000000 0.000000 0.022814 0.000000 0.020661
#
#
# Mechanical properties :
#
#
# Convention : Reuss Voigt Hill
#
# Bulk Modulus (GPa) = 43.25473 57.99508 50.62491
# Shear Modulus (GPa) = 33.33021 65.21023 49.27022
#
# Velocity S-wave (km/s) = 3.80785 5.32621 4.62970
# Velocity P-wave (km/s) = 6.17658 7.94069 7.11353
#
# Compressibility (1/GPa) = 0.02311886
#
# Stress axis : x y z
#
# Youngs Moduli (GPa) = 55.51611 144.52518 71.62778
#
# Poissons Ratio (x) = 0.44706 0.36267
# Poissons Ratio (y) = 0.17173 -0.01930
# Poissons Ratio (z) = 0.28110 -0.03895
#
# Static dielectric constant tensor:
#      x y z
#    x 4.078260 0.000000 0.010270 
#    y 0.000000 4.973420 0.000000 
#    z 0.010270 0.000000 3.994590 
# 
# 
# High freq. dielectric constant tensor:
#      x y z
#    x 1.887330 0.000000 -0.010530 
#    y 0.000000 1.939100 0.000000 
#    z -0.010530 0.000000 1.902120 
# 
# From -- ./inp_files/28206.got.cif
#   From: 2010.06.25/outbox.cif.g09.slc.cpg/sg12_15_cif.got.tgz:28206.got - 2010.06.28 00:19:55.
