data_PCOD8094603
_publ_section_title
;
Structure prediction by ZEFSAII (Michael W. Deem and Ramdas Pophale) SiO2 
 PCOD8094603
Probable space group: C 2/M
;
_chemical_formula_sum "Si O2"
_cell_formula_units_Z 64
_cell_length_a 20.454949
_cell_length_b 9.073596
_cell_length_c 18.532063
_cell_angle_alpha 90.000000
_cell_angle_beta 96.994661
_cell_angle_gamma 90.000000
_cell_volume 3413.951007
_symmetry_space_group_name_H-M "C 2/M"
_symmetry_group_IT_number 12
_symmetry_cell_setting 'monoclinic'
loop_
_space_group_symop_operation_xyz
x,y,z
-x,y,-z
-x,-y,-z
x,-y,z
1/2+x,1/2+y,z
1/2-x,1/2+y,-z
1/2-x,1/2-y,-z
1/2+x,1/2-y,z
loop_
_atom_site_type_symbol
_atom_site_label
_atom_site_fract_x
_atom_site_fract_y
_atom_site_fract_z
Si Si1 0.984042 0.325975 0.813077
Si Si2 0.141153 0.328421 0.589045
Si Si3 0.990824 0.329970 0.347054
Si Si4 0.946997 0.826788 0.052630
Si Si5 0.191002 0.171432 0.030958
Si Si6 0.609080 0.324897 0.436496
Si Si7 0.781926 0.174324 0.661172
Si Si8 0.653445 0.673199 0.184000
O O1 0.981705 0.500000 0.822017
O O2 0.914639 0.258928 0.826003
O O3 0.001911 0.279198 0.734287
O O4 0.040367 0.260252 0.871844
O O5 0.146583 0.500000 0.568198
O O6 0.084422 0.302639 0.640234
O O7 0.126207 0.234133 0.517008
O O8 0.209290 0.267385 0.631907
O O9 0.010928 0.500000 0.359994
O O10 0.037889 0.233534 0.403713
O O11 0.950382 0.000000 0.068984
O O12 0.876757 0.774831 0.013629
O O13 0.000000 0.780758 0.000000
O O14 0.192242 0.210110 0.115997
O O15 0.200078 0.000000 0.019908
O O16 0.250000 0.250000 0.000000
O O17 0.606732 0.500000 0.437959
O O18 0.664537 0.265371 0.388602
O O19 0.801715 0.229299 0.743635
O O20 0.781710 0.000000 0.659543
O O21 0.636926 0.500000 0.187348
#
# Coordination Sequence:
#
# PCOD8094603 Si02
#       8
#     8   8   8   8   8   8   8   8
#     4  11  22  35  57  89 116 144 189 245 289 325
#     4  10  21  38  56  78 113 150 187 230 280 341
#     4  10  22  38  56  81 113 150 186 228 286 339
#     4  10  20  38  61  84 113 153 194 227 275 341
#     4  10  22  38  60  87 117 152 187 230 281 336
#     4  11  21  35  58  85 110 143 189 236 281 332
#     4   9  19  35  59  84 106 145 193 231 273 331
#     4  10  19  38  62  82 110 154 194 227 278 343
#
# _framework density 18.746608999999999
#
# number of rings (size 3 to 8) (size 9 to 14) (size 15 to 20)
#    0.000    1.875    2.500    1.500    0.000    4.750 
#    0.000    3.750    0.000    0.000    0.000    0.000 
#    0.000    0.000    0.000    0.000    0.000    0.000 
#
# Total GULP energy -396913.398626 kJ/mol
# GULP energy per Si atom -12403.543707 kJ/mol
# Density = 1.870394 g / cm^3
# Si number density = 18.746609 Si / 1000 Ang^3
#
#
#
# Elastic Constant Matrix: (Units=GPa)
#
#
# Indices 1 2 3 4 5 6 
#
# 1 122.2717 32.5304 48.6251 0.0000 -0.6961 0.0000
# 2 32.5304 44.2831 37.2521 0.0000 3.7815 0.0000
# 3 48.6251 37.2521 125.4379 0.0000 8.2109 0.0000
# 4 0.0000 0.0000 0.0000 30.5955 0.0000 -1.8652
# 5 -0.6961 3.7815 8.2109 0.0000 31.8060 0.0000
# 6 0.0000 0.0000 0.0000 -1.8652 0.0000 27.3188
#
#
#
# Elastic Compliance Matrix: (Units=1/GPa)
#
#
# Indices 1 2 3 4 5 6 
#
# 1 0.010765 -0.005927 -0.002517 0.000000 0.001590 0.000000
# 2 -0.005927 0.033417 -0.007485 0.000000 -0.002171 0.000000
# 3 -0.002517 -0.007485 0.011307 0.000000 -0.002084 0.000000
# 4 0.000000 0.000000 0.000000 0.032821 0.000000 0.002241
# 5 0.001590 -0.002171 -0.002084 0.000000 0.032272 0.000000
# 6 0.000000 0.000000 0.000000 0.002241 0.000000 0.036758
#
#
# Mechanical properties :
#
#
# Convention : Reuss Voigt Hill
#
# Bulk Modulus (GPa) = 42.31386 58.75643 50.53515
# Shear Modulus (GPa) = 25.37111 29.51639 27.44375
#
# Velocity S-wave (km/s) = 3.68281 3.97229 3.83029
# Velocity P-wave (km/s) = 6.38002 7.24219 6.82473
#
# Compressibility (1/GPa) = 0.02363292
#
# Stress axis : x y z
#
# Youngs Moduli (GPa) = 92.89077 29.92465 88.44044
#
# Poissons Ratio (x) = 0.17735 0.22262
# Poissons Ratio (y) = 0.55052 0.66195
# Poissons Ratio (z) = 0.23382 0.22398
#
# Static dielectric constant tensor:
#      x y z
#    x 3.731540 0.000000 0.195170 
#    y 0.000000 3.274260 0.000000 
#    z 0.195170 0.000000 3.743290 
# 
# 
# High freq. dielectric constant tensor:
#      x y z
#    x 1.733090 0.000000 0.003360 
#    y 0.000000 1.711330 0.000000 
#    z 0.003360 0.000000 1.742600 
# 
# From -- ./inp_files/281359.got.cif
#   From: 2010.06.25/outbox.cif.g09.slc.cpg/sg12_141_cif.got.tgz:281359.got - 2010.06.28 00:19:55.
