data_PCOD8094049
_publ_section_title
;
Structure prediction by ZEFSAII (Michael W. Deem and Ramdas Pophale) SiO2 
 PCOD8094049
Probable space group: C 2/M
;
_chemical_formula_sum "Si O2"
_cell_formula_units_Z 40
_cell_length_a 20.452369
_cell_length_b 12.947895
_cell_length_c 14.433989
_cell_angle_alpha 90.000000
_cell_angle_beta 26.283225
_cell_angle_gamma 90.000000
_cell_volume 1692.564793
_symmetry_space_group_name_H-M "C 2/M"
_symmetry_group_IT_number 12
_symmetry_cell_setting 'monoclinic'
loop_
_space_group_symop_operation_xyz
x,y,z
-x,y,-z
-x,-y,-z
x,-y,z
1/2+x,1/2+y,z
1/2-x,1/2+y,-z
1/2-x,1/2-y,-z
1/2+x,1/2-y,z
loop_
_atom_site_type_symbol
_atom_site_label
_atom_site_fract_x
_atom_site_fract_y
_atom_site_fract_z
Si Si1 0.040810 0.225251 0.764776
Si Si2 0.209115 0.382836 0.649573
Si Si3 0.271347 0.828151 0.811744
Si Si4 0.672474 0.389536 0.297524
Si Si5 0.471541 0.116370 0.387372
O O1 0.071920 0.302245 0.813124
O O2 0.176742 0.146770 0.577515
O O3 0.021855 0.300192 0.701046
O O4 0.902741 0.147405 0.959030
O O5 0.151474 0.500000 0.709620
O O6 0.293372 0.369838 0.638642
O O7 0.264936 0.704480 0.841342
O O8 0.370005 0.885173 0.762254
O O9 0.338594 0.852795 0.625808
O O10 0.500000 0.390784 0.500000
O O11 0.740559 0.500000 0.178621
O O12 0.443047 0.000000 0.386532
#
# Coordination Sequence:
#
# PCOD8094049 Si02
#       5
#     8   8   8   8   8
#     4  11  23  40  65  91 129 170 216 264 319 385
#     4  10  22  41  61  89 128 168 212 265 320 380
#     4  11  21  39  64  93 125 166 215 262 317 386
#     4  10  19  36  62  88 121 162 208 263 320 375
#     4  11  23  42  65  96 133 168 211 269 324 385
#
# _framework density 23.632771000000002
#
# number of rings (size 3 to 8) (size 9 to 14) (size 15 to 20)
#    0.000    1.400    4.000    2.400    0.000    4.000 
#    0.000    4.000    0.000    3.600    0.000    0.000 
#    0.000    0.000    0.000    0.000    0.000    0.000 
#
# Total GULP energy -247840.685196 kJ/mol
# GULP energy per Si atom -12392.034260 kJ/mol
# Density = 2.357898 g / cm^3
# Si number density = 23.632771 Si / 1000 Ang^3
#
#
#
# Elastic Constant Matrix: (Units=GPa)
#
#
# Indices 1 2 3 4 5 6 
#
# 1 99.0349 -3.4404 17.8915 0.0000 -6.2814 0.0000
# 2 -3.4404 85.8595 -2.7675 0.0000 1.5044 0.0000
# 3 17.8915 -2.7675 93.2262 0.0000 -19.7073 0.0000
# 4 0.0000 0.0000 0.0000 -45.8124 0.0000 51.8297
# 5 -6.2814 1.5044 -19.7073 0.0000 22.6946 0.0000
# 6 0.0000 0.0000 0.0000 51.8297 0.0000 -16.1855
#
#
#
# Elastic Compliance Matrix: (Units=1/GPa)
#
#
# Indices 1 2 3 4 5 6 
#
# 1 0.010507 0.000341 -0.001710 0.000000 0.001400 0.000000
# 2 0.000341 0.011675 0.000168 0.000000 -0.000533 0.000000
# 3 -0.001710 0.000168 0.013421 0.000000 0.011170 0.000000
# 4 0.000000 0.000000 0.000000 0.008322 0.000000 0.026650
# 5 0.001400 -0.000533 0.011170 0.000000 0.054186 0.000000
# 6 0.000000 0.000000 0.000000 0.026650 0.000000 0.023556
#
#
# Mechanical properties :
#
#
# Convention : Reuss Voigt Hill
#
# Bulk Modulus (GPa) = 30.11836 33.49864 31.80850
# Shear Modulus (GPa) = 36.99965 9.90183 23.45074
#
# Velocity S-wave (km/s) = 3.96107 2.04914 3.15349
# Velocity P-wave (km/s) = 5.80449 4.45017 5.17185
#
# Compressibility (1/GPa) = 0.03320234
#
# Stress axis : x y z
#
# Youngs Moduli (GPa) = 95.17366 85.65026 74.50982
#
# Poissons Ratio (x) = -0.02924 0.12744
# Poissons Ratio (y) = -0.03249 -0.01254
# Poissons Ratio (z) = 0.16278 -0.01442
#
# Static dielectric constant tensor:
#      x y z
#    x 4.287950 0.000000 -0.252520 
#    y 0.000000 4.788480 0.000000 
#    z -0.252520 0.000000 4.638330 
# 
# 
# High freq. dielectric constant tensor:
#      x y z
#    x 1.935460 0.000000 -0.017320 
#    y 0.000000 1.943310 0.000000 
#    z -0.017320 0.000000 1.916630 
# 
# From -- ./inp_files/233305.got.cif
#   From: 2010.06.25/outbox.cif.g09.slc.cpg/sg12_117_cif.got.tgz:233305.got - 2010.06.28 00:19:55.
