data_PCOD8094941
_publ_section_title
;
Structure prediction by ZEFSAII (Michael W. Deem and Ramdas Pophale) SiO2 
 PCOD8094941
Probable space group: C 2/M
;
_chemical_formula_sum "Si O2"
_cell_formula_units_Z 64
_cell_length_a 12.385868
_cell_length_b 22.070728
_cell_length_c 19.066299
_cell_angle_alpha 90.000000
_cell_angle_beta 46.435045
_cell_angle_gamma 90.000000
_cell_volume 3776.625823
_symmetry_space_group_name_H-M "C 2/M"
_symmetry_group_IT_number 12
_symmetry_cell_setting 'monoclinic'
loop_
_space_group_symop_operation_xyz
x,y,z
-x,y,-z
-x,-y,-z
x,-y,z
1/2+x,1/2+y,z
1/2-x,1/2+y,-z
1/2-x,1/2-y,-z
1/2+x,1/2-y,z
loop_
_atom_site_type_symbol
_atom_site_label
_atom_site_fract_x
_atom_site_fract_y
_atom_site_fract_z
Si Si1 0.956597 0.336171 0.596477
Si Si2 0.221427 0.570983 0.764248
Si Si3 0.211554 0.570891 0.502275
Si Si4 0.829619 0.862123 0.581742
Si Si5 0.635298 0.571086 0.150745
Si Si6 0.636564 0.759987 0.613594
Si Si7 0.644334 0.363266 0.687196
Si Si8 0.572500 0.933166 0.043398
O O1 0.782316 0.351252 0.677360
O O2 0.000000 0.309507 0.500000
O O3 0.051967 0.396720 0.567244
O O4 0.988586 0.288059 0.644118
O O5 0.210944 0.500000 0.751746
O O6 0.307024 0.604563 0.664887
O O7 0.316787 0.581963 0.790915
O O8 0.051233 0.598034 0.850474
O O9 0.182153 0.500000 0.517775
O O10 0.295928 0.591340 0.534357
O O11 0.313510 0.587276 0.390182
O O12 0.717228 0.805328 0.631422
O O13 0.000000 0.839700 0.500000
O O14 0.607082 0.500000 0.149016
O O15 0.486318 0.610133 0.205416
O O16 0.763855 0.597363 0.039877
O O17 0.750000 0.750000 0.500000
O O18 0.592810 0.698615 0.672349
O O19 0.601900 0.000000 0.060403
O O20 0.500000 0.939484 0.000000
#
# Coordination Sequence:
#
# PCOD8094941 Si02
#       8
#     8   8   8   8   8   8   8   8
#     4   9  19  32  45  61  85 122 160 191 224 270
#     4   9  17  29  47  73 100 127 152 181 236 292
#     4  10  20  31  41  62  95 125 149 182 230 278
#     4  11  22  30  47  68  95 126 158 194 228 272
#     4   9  17  29  46  74 100 119 152 196 237 277
#     4  11  21  35  46  62  90 125 163 196 226 275
#     4  11  20  30  48  66  89 119 159 200 229 270
#     4   7  12  26  46  66  96 126 148 184 231 282
#
# _framework density 16.946344
#
# number of rings (size 3 to 8) (size 9 to 14) (size 15 to 20)
#    0.000    2.375    3.750    3.000    1.750    4.750 
#    0.000    0.000    0.000    0.750    0.000    3.500 
#    0.000   13.000    0.000    0.000    0.000    0.000 
#
# Total GULP energy -396548.644507 kJ/mol
# GULP energy per Si atom -12392.145141 kJ/mol
# Density = 1.690777 g / cm^3
# Si number density = 16.946344 Si / 1000 Ang^3
#
#
#
# Elastic Constant Matrix: (Units=GPa)
#
#
# Indices 1 2 3 4 5 6 
#
# 1 80.9437 27.4872 27.8829 0.0002 -20.8991 -0.0012
# 2 27.4872 64.3461 7.9812 0.0000 -9.0410 -0.0003
# 3 27.8829 7.9812 67.5558 0.0001 -27.4212 -0.0003
# 4 0.0002 0.0000 0.0001 11.0513 -0.0002 -2.8441
# 5 -20.8991 -9.0410 -27.4212 -0.0002 28.9254 0.0003
# 6 -0.0012 -0.0003 -0.0003 -2.8441 0.0003 14.2914
#
#
#
# Elastic Compliance Matrix: (Units=1/GPa)
#
#
# Indices 1 2 3 4 5 6 
#
# 1 0.017526 -0.006003 -0.003488 0.000000 0.007479 0.000001
# 2 -0.006003 0.018313 0.001426 0.000000 0.002738 0.000000
# 3 -0.003488 0.001426 0.024759 0.000000 0.021397 0.000000
# 4 0.000000 0.000000 0.000000 0.095371 0.000001 0.018980
# 5 0.007479 0.002738 0.021397 0.000001 0.061115 0.000000
# 6 0.000001 0.000000 0.000000 0.018980 0.000000 0.073749
#
#
# Mechanical properties :
#
#
# Convention : Reuss Voigt Hill
#
# Bulk Modulus (GPa) = 22.48912 37.72757 30.10835
# Shear Modulus (GPa) = 15.53821 20.81991 18.17906
#
# Velocity S-wave (km/s) = 3.03133 3.50891 3.27883
# Velocity P-wave (km/s) = 5.05485 6.22317 5.66919
#
# Compressibility (1/GPa) = 0.04446595
#
# Stress axis : x y z
#
# Youngs Moduli (GPa) = 57.05961 54.60541 40.38945
#
# Poissons Ratio (x) = 0.32779 0.14090
# Poissons Ratio (y) = 0.34253 -0.05758
# Poissons Ratio (z) = 0.19905 -0.07784
#
# Static dielectric constant tensor:
#      x y z
#    x 3.409950 0.000000 -0.169180 
#    y 0.000000 5.190220 0.000010 
#    z -0.169180 0.000010 3.167170 
# 
# 
# High freq. dielectric constant tensor:
#      x y z
#    x 1.647270 0.000000 -0.018960 
#    y 0.000000 1.637190 0.000000 
#    z -0.018960 0.000000 1.625760 
# 
# From -- ./inp_files/265519.got.cif
#   From: 2010.06.25/outbox.cif.g09.slc.cpg/sg12_133_cif.got.tgz:265519.got - 2010.06.28 00:19:55.
