data_PCOD8094164
_publ_section_title
;
Structure prediction by ZEFSAII (Michael W. Deem and Ramdas Pophale) SiO2 
 PCOD8094164
Probable space group: C 2/M
;
_chemical_formula_sum "Si O2"
_cell_formula_units_Z 60
_cell_length_a 21.526033
_cell_length_b 19.277706
_cell_length_c 14.718542
_cell_angle_alpha 90.000000
_cell_angle_beta 32.034516
_cell_angle_gamma 90.000000
_cell_volume 3239.755706
_symmetry_space_group_name_H-M "C 2/M"
_symmetry_group_IT_number 12
_symmetry_cell_setting 'monoclinic'
loop_
_space_group_symop_operation_xyz
x,y,z
-x,y,-z
-x,-y,-z
x,-y,z
1/2+x,1/2+y,z
1/2-x,1/2+y,-z
1/2-x,1/2-y,-z
1/2+x,1/2-y,z
loop_
_atom_site_type_symbol
_atom_site_label
_atom_site_fract_x
_atom_site_fract_y
_atom_site_fract_z
Si Si1 0.500000 0.290157 0.500000
Si Si2 0.716042 0.370167 0.692261
Si Si3 0.046496 0.921612 0.756478
Si Si4 0.646346 0.332864 0.471706
Si Si5 0.782188 0.081113 0.112269
Si Si6 0.074598 0.305592 0.650074
Si Si7 0.652882 0.798011 0.169352
Si Si8 0.384082 0.779737 0.193687
O O1 0.578441 0.344166 0.461371
O O2 0.411828 0.243071 0.669218
O O3 0.620389 0.414779 0.756897
O O4 0.751747 0.408155 0.740691
O O5 0.834536 0.367761 0.484018
O O6 0.658240 0.295731 0.785534
O O7 0.103781 0.882926 0.602048
O O8 0.041205 0.000000 0.732081
O O9 0.915959 0.894097 0.935085
O O10 0.617824 0.253996 0.530135
O O11 0.787043 0.337871 0.288484
O O12 0.706461 0.130842 0.141637
O O13 0.762103 0.000000 0.111355
O O14 0.088628 0.278084 0.733874
O O15 0.940160 0.322793 0.792234
O O16 0.750000 0.750000 0.000000
O O17 0.500000 0.803817 0.000000
#
# Coordination Sequence:
#
# PCOD8094164 Si02
#       8
#     4   8   8   8   8   8   8   8
#     4  10  22  36  58  86 112 144 198 234 286 350
#     4  11  20  35  58  84 119 147 180 231 292 349
#     4  11  21  36  56  81 112 149 188 228 282 347
#     4  10  19  37  53  81 115 143 179 239 286 331
#     4  11  23  37  56  88 122 153 190 233 287 355
#     4  10  20  36  55  85 112 148 190 236 285 346
#     4  11  23  38  61  84 119 156 195 240 290 338
#     4  11  20  31  59  86 114 139 184 241 291 333
#
# _framework density 18.519914
#
# number of rings (size 3 to 8) (size 9 to 14) (size 15 to 20)
#    0.000    1.333    2.667    6.400    3.733    1.067 
#    0.000    4.000    0.000    1.200    0.000    0.000 
#    0.000    0.000    0.000    0.000    0.000    0.000 
#
# Total GULP energy -371918.606126 kJ/mol
# GULP energy per Si atom -12397.286871 kJ/mol
# Density = 1.847776 g / cm^3
# Si number density = 18.519914 Si / 1000 Ang^3
#
#
#
# Elastic Constant Matrix: (Units=GPa)
#
#
# Indices 1 2 3 4 5 6 
#
# 1 103.6930 25.4483 30.3882 0.0001 -16.9847 0.0000
# 2 25.4483 55.5131 31.1363 0.0000 -3.5889 0.0000
# 3 30.3882 31.1363 122.4942 0.0001 -10.8692 -0.0001
# 4 0.0001 0.0000 0.0001 18.6787 -0.0001 -4.9612
# 5 -16.9847 -3.5889 -10.8692 -0.0001 32.9923 0.0000
# 6 0.0000 0.0000 -0.0001 -4.9612 0.0000 17.6556
#
#
#
# Elastic Compliance Matrix: (Units=1/GPa)
#
#
# Indices 1 2 3 4 5 6 
#
# 1 0.011983 -0.004371 -0.001397 0.000000 0.005233 0.000000
# 2 -0.004371 0.022613 -0.004785 0.000000 -0.001367 0.000000
# 3 -0.001397 -0.004785 0.009906 0.000000 0.002024 0.000000
# 4 0.000000 0.000000 0.000000 0.057855 0.000000 0.016257
# 5 0.005233 -0.001367 0.002024 0.000000 0.033522 0.000000
# 6 0.000000 0.000000 0.000000 0.016257 0.000000 0.061207
#
#
# Mechanical properties :
#
#
# Convention : Reuss Voigt Hill
#
# Bulk Modulus (GPa) = 42.74311 50.62733 46.68522
# Shear Modulus (GPa) = 22.12461 26.84713 24.48587
#
# Velocity S-wave (km/s) = 3.46010 3.81154 3.64007
# Velocity P-wave (km/s) = 6.25242 6.83860 6.55207
#
# Compressibility (1/GPa) = 0.02339558
#
# Stress axis : x y z
#
# Youngs Moduli (GPa) = 83.44895 44.22233 100.94803
#
# Poissons Ratio (x) = 0.19331 0.14106
# Poissons Ratio (y) = 0.36479 0.48301
# Poissons Ratio (z) = 0.11660 0.21159
#
# Static dielectric constant tensor:
#      x y z
#    x 3.870270 0.000000 -0.293490 
#    y 0.000000 3.224150 0.000000 
#    z -0.293490 0.000000 3.698900 
# 
# 
# High freq. dielectric constant tensor:
#      x y z
#    x 1.732530 0.000000 -0.010870 
#    y 0.000000 1.679380 0.000000 
#    z -0.010870 0.000000 1.728620 
# 
# From -- ./inp_files/235179.got.cif
#   From: 2010.06.25/outbox.cif.g09.slc.cpg/sg12_118_cif.got.tgz:235179.got - 2010.06.28 00:19:55.
