data_PCOD8094059
_publ_section_title
;
Structure prediction by ZEFSAII (Michael W. Deem and Ramdas Pophale) SiO2 
 PCOD8094059
Probable space group: C 2/M
;
_chemical_formula_sum "Si O2"
_cell_formula_units_Z 56
_cell_length_a 21.624502
_cell_length_b 12.629395
_cell_length_c 10.267248
_cell_angle_alpha 90.000000
_cell_angle_beta 82.997218
_cell_angle_gamma 90.000000
_cell_volume 2783.112960
_symmetry_space_group_name_H-M "C 2/M"
_symmetry_group_IT_number 12
_symmetry_cell_setting 'monoclinic'
loop_
_space_group_symop_operation_xyz
x,y,z
-x,y,-z
-x,-y,-z
x,-y,z
1/2+x,1/2+y,z
1/2-x,1/2+y,-z
1/2-x,1/2-y,-z
1/2+x,1/2-y,z
loop_
_atom_site_type_symbol
_atom_site_label
_atom_site_fract_x
_atom_site_fract_y
_atom_site_fract_z
Si Si1 0.452364 0.117420 0.289060
Si Si2 0.254152 0.624715 0.368606
Si Si3 0.378273 0.378776 0.727036
Si Si4 0.866818 0.385396 0.070422
Si Si5 0.854932 0.746207 0.481376
Si Si6 0.454831 0.751622 0.888202
Si Si7 0.255280 0.282264 0.851247
O O1 0.420864 0.100569 0.159251
O O2 0.412773 0.190660 0.395855
O O3 0.515997 0.175936 0.233347
O O4 0.464903 0.000000 0.347425
O O5 0.256563 0.500000 0.352844
O O6 0.197892 0.657462 0.478941
O O7 0.321380 0.663557 0.403531
O O8 0.239335 0.675415 0.232915
O O9 0.385713 0.500000 0.680749
O O10 0.383447 0.301671 0.601559
O O11 0.432245 0.354276 0.819830
O O12 0.311003 0.363102 0.810107
O O13 0.851132 0.500000 0.011862
O O14 0.808422 0.342213 0.167092
O O15 0.890889 0.308095 0.950591
O O16 0.500000 0.724823 0.000000
O O17 0.250000 0.250000 0.000000
#
# Coordination Sequence:
#
# PCOD8094059 Si02
#       7
#     8   8   8   8   8   8   8
#     4  10  20  38  65  89 115 157 199 246 297 350
#     4  10  21  37  59  88 125 161 190 239 298 353
#     4  11  24  41  61  87 121 161 201 248 301 351
#     4  10  19  36  62  90 119 153 190 241 304 356
#     4  10  21  39  60  87 123 153 206 245 287 359
#     4  10  22  41  61  87 122 152 202 250 294 358
#     4  11  21  38  59  93 123 151 194 244 294 366
#
# _framework density 20.121354
#
# number of rings (size 3 to 8) (size 9 to 14) (size 15 to 20)
#    0.000    1.714    2.857    1.714    0.000    3.714 
#    0.000    5.000    0.000    0.000    0.000    0.000 
#    0.000    0.000    0.000    0.000    0.000    0.000 
#
# Total GULP energy -347107.083740 kJ/mol
# GULP energy per Si atom -12396.681562 kJ/mol
# Density = 2.007556 g / cm^3
# Si number density = 20.121354 Si / 1000 Ang^3
#
#
#
# Elastic Constant Matrix: (Units=GPa)
#
#
# Indices 1 2 3 4 5 6 
#
# 1 78.1176 43.5602 30.2346 0.0000 -10.6486 0.0000
# 2 43.5602 132.8432 36.9135 0.0000 -5.2070 0.0000
# 3 30.2346 36.9135 96.3249 0.0000 -13.3601 0.0000
# 4 0.0000 0.0000 0.0000 23.0102 0.0000 1.5658
# 5 -10.6486 -5.2070 -13.3601 0.0000 37.5050 0.0000
# 6 0.0000 0.0000 0.0000 1.5658 0.0000 23.5273
#
#
#
# Elastic Compliance Matrix: (Units=1/GPa)
#
#
# Indices 1 2 3 4 5 6 
#
# 1 0.016991 -0.004575 -0.003155 0.000000 0.003065 0.000000
# 2 -0.004575 0.009656 -0.002376 0.000000 -0.000805 0.000000
# 3 -0.003155 -0.002376 0.012742 0.000000 0.003313 0.000000
# 4 0.000000 0.000000 0.000000 0.043657 0.000000 -0.002905
# 5 0.003065 -0.000805 0.003313 0.000000 0.028602 0.000000
# 6 0.000000 0.000000 0.000000 -0.002905 0.000000 0.042697
#
#
# Mechanical properties :
#
#
# Convention : Reuss Voigt Hill
#
# Bulk Modulus (GPa) = 52.14360 58.74472 55.44416
# Shear Modulus (GPa) = 27.63198 29.91365 28.77282
#
# Velocity S-wave (km/s) = 3.70978 3.85991 3.78559
# Velocity P-wave (km/s) = 6.65739 7.00884 6.83537
#
# Compressibility (1/GPa) = 0.01917781
#
# Stress axis : x y z
#
# Youngs Moduli (GPa) = 58.85448 103.55733 78.48071
#
# Poissons Ratio (x) = 0.47374 0.24760
# Poissons Ratio (y) = 0.26924 0.18649
# Poissons Ratio (z) = 0.18568 0.24608
#
# Static dielectric constant tensor:
#      x y z
#    x 3.995650 0.000000 -0.302870 
#    y 0.000000 3.749490 0.000000 
#    z -0.302870 0.000000 3.806400 
# 
# 
# High freq. dielectric constant tensor:
#      x y z
#    x 1.784150 0.000000 -0.004120 
#    y 0.000000 1.778390 0.000000 
#    z -0.004120 0.000000 1.787510 
# 
# From -- ./inp_files/165631.got.cif
#   From: 2010.06.25/outbox.cif.g09.slc.cpg/sg12_83_cif.got.tgz:165631.got - 2010.06.28 00:19:55.
