data_PCOD8094465
_publ_section_title
;
Structure prediction by ZEFSAII (Michael W. Deem and Ramdas Pophale) SiO2 
 PCOD8094465
Probable space group: C 2/M
;
_chemical_formula_sum "Si O2"
_cell_formula_units_Z 64
_cell_length_a 30.800941
_cell_length_b 8.703000
_cell_length_c 12.053340
_cell_angle_alpha 90.000000
_cell_angle_beta 90.860436
_cell_angle_gamma 90.000000
_cell_volume 3230.661097
_symmetry_space_group_name_H-M "C 2/M"
_symmetry_group_IT_number 12
_symmetry_cell_setting 'monoclinic'
loop_
_space_group_symop_operation_xyz
x,y,z
-x,y,-z
-x,-y,-z
x,-y,z
1/2+x,1/2+y,z
1/2-x,1/2+y,-z
1/2-x,1/2-y,-z
1/2+x,1/2-y,z
loop_
_atom_site_type_symbol
_atom_site_label
_atom_site_fract_x
_atom_site_fract_y
_atom_site_fract_z
Si Si1 0.826751 0.177576 0.266776
Si Si2 0.949640 0.830703 0.985609
Si Si3 0.501394 0.317836 0.374688
Si Si4 0.424957 0.177369 0.766397
Si Si5 0.673565 0.180486 0.267113
Si Si6 0.203636 0.822825 0.488175
Si Si7 0.077308 0.817170 0.777619
Si Si8 0.750418 0.181588 0.876908
O O1 0.820009 0.198310 0.396612
O O2 0.875005 0.244034 0.250893
O O3 0.792417 0.270797 0.192455
O O4 0.822712 0.000000 0.230869
O O5 0.941183 0.708161 0.890389
O O6 0.929159 0.000000 0.958202
O O7 0.930899 0.760115 0.098046
O O8 0.000000 0.855319 0.000000
O O9 0.500000 0.253408 0.500000
O O10 0.499233 0.500000 0.374374
O O11 0.546841 0.270865 0.321203
O O12 0.459902 0.249788 0.305765
O O13 0.375051 0.229548 0.764841
O O14 0.429981 0.000000 0.736536
O O15 0.678170 0.229970 0.394240
O O16 0.706863 0.264730 0.186798
O O17 0.682142 0.000000 0.255544
O O18 0.250000 0.750000 0.500000
O O19 0.207263 0.000000 0.453025
O O20 0.075271 0.000000 0.770959
O O21 0.751335 0.000000 0.887254
O O22 0.750000 0.250000 0.000000
#
# Coordination Sequence:
#
# PCOD8094465 Si02
#       8
#     8   8   8   8   8   8   8   8
#     4  10  22  40  63  92 126 161 204 253 305 367
#     4  10  19  37  64  89 118 155 203 257 303 359
#     4  10  21  39  65  91 121 161 208 254 298 362
#     4  11  25  41  60  89 127 164 203 256 312 364
#     4  11  25  44  63  89 126 165 211 259 306 368
#     4  11  22  38  65  93 123 161 204 258 311 365
#     4   9  19  37  60  91 122 156 201 251 301 354
#     4  12  26  44  66  91 124 163 206 254 314 374
#
# _framework density 19.810186000000002
#
# number of rings (size 3 to 8) (size 9 to 14) (size 15 to 20)
#    0.000    1.500    2.500    2.250    3.500    3.000 
#    0.000    0.625    0.000    0.000    0.000    0.000 
#    0.000    0.000    0.000    0.000    0.000    0.000 
#
# Total GULP energy -396824.369274 kJ/mol
# GULP energy per Si atom -12400.761540 kJ/mol
# Density = 1.976510 g / cm^3
# Si number density = 19.810186 Si / 1000 Ang^3
#
#
#
# Elastic Constant Matrix: (Units=GPa)
#
#
# Indices 1 2 3 4 5 6 
#
# 1 140.5904 44.7374 66.4945 0.0000 -12.5100 0.0000
# 2 44.7374 64.6511 39.1278 0.0000 0.1456 0.0000
# 3 66.4945 39.1278 143.5683 0.0000 -7.5088 0.0000
# 4 0.0000 0.0000 0.0000 33.7402 0.0000 5.3044
# 5 -12.5100 0.1456 -7.5088 0.0000 35.4634 0.0000
# 6 0.0000 0.0000 0.0000 5.3044 0.0000 29.7553
#
#
#
# Elastic Compliance Matrix: (Units=1/GPa)
#
#
# Indices 1 2 3 4 5 6 
#
# 1 0.010667 -0.005384 -0.003312 0.000000 0.003084 0.000000
# 2 -0.005384 0.021287 -0.003450 0.000000 -0.002717 0.000000
# 3 -0.003312 -0.003450 0.009484 0.000000 0.000854 0.000000
# 4 0.000000 0.000000 0.000000 0.030493 0.000000 -0.005436
# 5 0.003084 -0.002717 0.000854 0.000000 0.029478 0.000000
# 6 0.000000 0.000000 0.000000 -0.005436 0.000000 0.034577
#
#
# Mechanical properties :
#
#
# Convention : Reuss Voigt Hill
#
# Bulk Modulus (GPa) = 58.32019 72.16992 65.24505
# Shear Modulus (GPa) = 30.12179 33.02179 31.57179
#
# Velocity S-wave (km/s) = 3.90362 4.08721 3.99647
# Velocity P-wave (km/s) = 7.05840 7.66704 7.36901
#
# Compressibility (1/GPa) = 0.01714672
#
# Stress axis : x y z
#
# Youngs Moduli (GPa) = 93.74859 46.97625 105.43864
#
# Poissons Ratio (x) = 0.25291 0.34919
# Poissons Ratio (y) = 0.50473 0.36378
# Poissons Ratio (z) = 0.31048 0.16208
#
# Static dielectric constant tensor:
#      x y z
#    x 3.768380 0.000000 -0.023810 
#    y 0.000000 3.327340 0.000000 
#    z -0.023810 0.000000 3.739960 
# 
# 
# High freq. dielectric constant tensor:
#      x y z
#    x 1.784370 0.000000 -0.003140 
#    y 0.000000 1.757000 0.000000 
#    z -0.003140 0.000000 1.787630 
# 
# From -- ./inp_files/187551.got.cif
#   From: 2010.06.25/outbox.cif.g09.slc.cpg/sg12_94_cif.got.tgz:187551.got - 2010.06.28 00:19:55.
