data_PCOD8094708
_publ_section_title
;
Structure prediction by ZEFSAII (Michael W. Deem and Ramdas Pophale) SiO2 
 PCOD8094708
Probable space group: C 2/M
;
_chemical_formula_sum "Si O2"
_cell_formula_units_Z 56
_cell_length_a 21.095326
_cell_length_b 8.684228
_cell_length_c 28.038973
_cell_angle_alpha 90.000000
_cell_angle_beta 33.340192
_cell_angle_gamma 90.000000
_cell_volume 2823.146313
_symmetry_space_group_name_H-M "C 2/M"
_symmetry_group_IT_number 12
_symmetry_cell_setting 'monoclinic'
loop_
_space_group_symop_operation_xyz
x,y,z
-x,y,-z
-x,-y,-z
x,-y,z
1/2+x,1/2+y,z
1/2-x,1/2+y,-z
1/2-x,1/2-y,-z
1/2+x,1/2-y,z
loop_
_atom_site_type_symbol
_atom_site_label
_atom_site_fract_x
_atom_site_fract_y
_atom_site_fract_z
Si Si1 0.716702 0.181682 0.970029
Si Si2 0.458014 0.180643 0.576007
Si Si3 0.126966 0.681904 0.208155
Si Si4 0.740229 0.817447 0.234584
Si Si5 0.840338 0.169411 0.501350
Si Si6 0.003493 0.817889 0.942613
Si Si7 0.382143 0.329470 0.365569
O O1 0.815527 0.231275 0.871730
O O2 0.712062 0.000000 0.977566
O O3 0.750000 0.250000 0.000000
O O4 0.592950 0.238966 0.028991
O O5 0.500000 0.258343 0.500000
O O6 0.335285 0.245576 0.673042
O O7 0.554150 0.217654 0.554374
O O8 0.446108 0.000000 0.576539
O O9 0.144582 0.500000 0.191144
O O10 0.186349 0.745405 0.219089
O O11 0.992879 0.721927 0.292227
O O12 0.872813 0.765999 0.156626
O O13 0.731201 0.000000 0.238152
O O14 0.722746 0.244939 0.596094
O O15 0.837072 0.150018 0.447120
O O16 0.855950 0.000000 0.515003
O O17 0.984274 0.000000 0.951940
O O18 0.000000 0.764026 0.000000
O O19 0.405800 0.500000 0.328779
#
# Coordination Sequence:
#
# PCOD8094708 Si02
#       7
#     8   8   8   8   8   8   8
#     4  12  26  44  64  91 127 166 206 255 314 375
#     4  10  20  36  57  82 116 158 202 250 303 365
#     4  11  20  37  64  90 118 155 198 250 310 371
#     4   9  18  34  60  89 117 155 201 248 306 370
#     4  10  20  34  54  80 113 153 195 245 298 351
#     4  10  19  38  66  94 123 161 207 256 314 381
#     4  10  20  34  55  85 114 148 194 246 297 354
#
# _framework density 19.836026
#
# number of rings (size 3 to 8) (size 9 to 14) (size 15 to 20)
#    0.000    1.714    2.857    2.571    0.000    1.714 
#    2.571    0.714    0.000    0.000    0.000    0.000 
#    0.000    0.000    0.000    0.000    0.000    0.000 
#
# Total GULP energy -347097.685417 kJ/mol
# GULP energy per Si atom -12396.345908 kJ/mol
# Density = 1.979088 g / cm^3
# Si number density = 19.836026 Si / 1000 Ang^3
#
#
#
# Elastic Constant Matrix: (Units=GPa)
#
#
# Indices 1 2 3 4 5 6 
#
# 1 94.4257 40.8338 71.8760 -0.0381 -2.5840 0.0733
# 2 40.8338 63.4210 42.7401 -0.0358 1.5957 0.0215
# 3 71.8760 42.7401 153.1901 0.0101 -13.1651 -0.0201
# 4 -0.0381 -0.0358 0.0101 25.3502 0.0082 -3.6941
# 5 -2.5840 1.5957 -13.1651 0.0082 36.5813 -0.0258
# 6 0.0733 0.0215 -0.0201 -3.6941 -0.0258 23.6420
#
#
#
# Elastic Compliance Matrix: (Units=1/GPa)
#
#
# Indices 1 2 3 4 5 6 
#
# 1 0.019137 -0.007640 -0.006917 0.000013 -0.000804 -0.000057
# 2 -0.007640 0.022769 -0.002992 0.000023 -0.002610 0.000001
# 3 -0.006917 -0.002992 0.010915 -0.000015 0.003570 0.000035
# 4 0.000013 0.000023 -0.000015 0.040367 -0.000010 0.006307
# 5 -0.000804 -0.002610 0.003570 -0.000010 0.028678 0.000038
# 6 -0.000057 0.000001 0.000035 0.006307 0.000038 0.043283
#
#
# Mechanical properties :
#
#
# Convention : Reuss Voigt Hill
#
# Bulk Modulus (GPa) = 56.42354 69.10406 62.76380
# Shear Modulus (GPa) = 24.25371 27.48716 25.87043
#
# Velocity S-wave (km/s) = 3.50052 3.72656 3.61531
# Velocity P-wave (km/s) = 6.69664 7.30956 7.00980
#
# Compressibility (1/GPa) = 0.01772310
#
# Stress axis : x y z
#
# Youngs Moduli (GPa) = 52.25455 43.91975 91.61995
#
# Poissons Ratio (x) = 0.33555 0.63369
# Poissons Ratio (y) = 0.39923 0.27414
# Poissons Ratio (z) = 0.36142 0.13141
#
# Static dielectric constant tensor:
#      x y z
#    x 3.484570 -0.000020 0.017110 
#    y -0.000020 3.596150 -0.000010 
#    z 0.017110 -0.000010 3.954770 
# 
# 
# High freq. dielectric constant tensor:
#      x y z
#    x 1.754160 0.000000 -0.012560 
#    y 0.000000 1.761240 0.000000 
#    z -0.012560 0.000000 1.787450 
# 
# From -- ./inp_files/380637.got.cif
#   From: 2010.06.25/outbox.cif.g09.slc.cpg/sg12_191_cif.got.tgz:380637.got - 2010.06.28 00:19:55.
