data_PCOD8094531
_publ_section_title
;
Structure prediction by ZEFSAII (Michael W. Deem and Ramdas Pophale) SiO2 
 PCOD8094531
Probable space group: C 2/M
;
_chemical_formula_sum "Si O2"
_cell_formula_units_Z 60
_cell_length_a 22.818221
_cell_length_b 29.819653
_cell_length_c 8.628453
_cell_angle_alpha 90.000000
_cell_angle_beta 149.398920
_cell_angle_gamma 90.000000
_cell_volume 2988.713362
_symmetry_space_group_name_H-M "C 2/M"
_symmetry_group_IT_number 12
_symmetry_cell_setting 'monoclinic'
loop_
_space_group_symop_operation_xyz
x,y,z
-x,y,-z
-x,-y,-z
x,-y,z
1/2+x,1/2+y,z
1/2-x,1/2+y,-z
1/2-x,1/2-y,-z
1/2+x,1/2-y,z
loop_
_atom_site_type_symbol
_atom_site_label
_atom_site_fract_x
_atom_site_fract_y
_atom_site_fract_z
Si Si1 0.156081 0.364357 0.073338
Si Si2 0.160337 0.122463 0.764431
Si Si3 0.000000 0.589284 0.500000
Si Si4 0.631760 0.112937 0.344386
Si Si5 0.988276 0.163259 0.808476
Si Si6 0.298182 0.948446 0.230467
Si Si7 0.212776 0.814949 0.149312
Si Si8 0.231139 0.224939 0.620971
O O1 0.242271 0.380496 0.140378
O O2 0.190867 0.390877 0.309712
O O3 0.165638 0.311129 0.125897
O O4 0.031753 0.378952 0.720506
O O5 0.041159 0.127512 0.396864
O O6 0.179800 0.078430 0.915697
O O7 0.170337 0.167560 0.887269
O O8 0.896133 0.557949 0.322500
O O9 0.654725 0.067999 0.495082
O O10 0.680789 0.155220 0.549550
O O11 0.500000 0.122244 0.000000
O O12 0.891397 0.201395 0.620526
O O13 0.000000 0.137323 0.000000
O O14 0.109896 0.185184 0.041821
O O15 0.264250 0.000000 0.167337
O O16 0.254490 0.764073 0.218779
O O17 0.250000 0.250000 0.500000
#
# Coordination Sequence:
#
# PCOD8094531 Si02
#       8
#     8   8   4   8   8   8   8   8
#     4  10  20  37  54  82 120 163 200 243 304 366
#     4   9  22  40  60  85 122 158 204 251 312 373
#     4  10  19  38  54  84 124 162 192 244 319 370
#     4  11  21  37  60  87 122 162 198 252 310 377
#     4  11  21  38  61  85 119 167 207 254 302 365
#     4  10  21  38  63  92 120 155 201 254 317 387
#     4  11  22  39  59  88 119 166 212 250 308 353
#     4  11  21  37  56  88 123 160 214 256 298 351
#
# _framework density 20.075527000000001
#
# number of rings (size 3 to 8) (size 9 to 14) (size 15 to 20)
#    0.000    1.600    4.000    1.400    0.000    4.000 
#    2.400    0.667    0.000    6.800    0.000    0.000 
#    0.000    0.000    0.000    0.000    0.000    0.000 
#
# Total GULP energy -371684.602164 kJ/mol
# GULP energy per Si atom -12389.486739 kJ/mol
# Density = 2.002983 g / cm^3
# Si number density = 20.075527 Si / 1000 Ang^3
#
#
#
# Elastic Constant Matrix: (Units=GPa)
#
#
# Indices 1 2 3 4 5 6 
#
# 1 64.6724 21.6718 17.1670 0.0000 -12.5155 0.0000
# 2 21.6718 127.6586 52.9098 0.0000 -8.8816 0.0000
# 3 17.1670 52.9098 112.4323 0.0000 -17.4408 0.0000
# 4 0.0000 0.0000 0.0000 19.5298 0.0000 -2.3935
# 5 -12.5155 -8.8816 -17.4408 0.0000 40.6645 0.0000
# 6 0.0000 0.0000 0.0000 -2.3935 0.0000 24.9161
#
#
#
# Elastic Compliance Matrix: (Units=1/GPa)
#
#
# Indices 1 2 3 4 5 6 
#
# 1 0.017319 -0.002262 -0.000889 0.000000 0.004455 0.000000
# 2 -0.002262 0.010028 -0.004437 0.000000 -0.000409 0.000000
# 3 -0.000889 -0.004437 0.011704 0.000000 0.003777 0.000000
# 4 0.000000 0.000000 0.000000 0.051814 0.000000 0.004977
# 5 0.004455 -0.000409 0.003777 0.000000 0.027493 0.000000
# 6 0.000000 0.000000 0.000000 0.004977 0.000000 0.040613
#
#
# Mechanical properties :
#
#
# Convention : Reuss Voigt Hill
#
# Bulk Modulus (GPa) = 41.88506 54.25116 48.06811
# Shear Modulus (GPa) = 27.45680 31.22306 29.33993
#
# Velocity S-wave (km/s) = 3.70222 3.94798 3.82707
# Velocity P-wave (km/s) = 6.25974 6.91840 6.59729
#
# Compressibility (1/GPa) = 0.02387486
#
# Stress axis : x y z
#
# Youngs Moduli (GPa) = 57.74167 99.72134 85.44102
#
# Poissons Ratio (x) = 0.22554 0.07595
# Poissons Ratio (y) = 0.13059 0.37912
# Poissons Ratio (z) = 0.05133 0.44248
#
# Static dielectric constant tensor:
#      x y z
#    x 3.863990 0.000000 -0.349400 
#    y 0.000000 3.564250 0.000000 
#    z -0.349400 0.000000 4.724970 
# 
# 
# High freq. dielectric constant tensor:
#      x y z
#    x 1.795280 0.000000 -0.016680 
#    y 0.000000 1.743170 0.000000 
#    z -0.016680 0.000000 1.793490 
# 
# From -- ./inp_files/106994.got.cif
#   From: 2010.06.25/outbox.cif.g09.slc.cpg/sg12_54_cif.got.tgz:106994.got - 2010.06.28 00:19:55.
