data_PCOD8094613
_publ_section_title
;
Structure prediction by ZEFSAII (Michael W. Deem and Ramdas Pophale) SiO2 
 PCOD8094613
Probable space group: C 2/M
;
_chemical_formula_sum "Si O2"
_cell_formula_units_Z 44
_cell_length_a 20.504738
_cell_length_b 21.987305
_cell_length_c 15.741466
_cell_angle_alpha 90.000000
_cell_angle_beta 18.098253
_cell_angle_gamma 90.000000
_cell_volume 2204.647653
_symmetry_space_group_name_H-M "C 2/M"
_symmetry_group_IT_number 12
_symmetry_cell_setting 'monoclinic'
loop_
_space_group_symop_operation_xyz
x,y,z
-x,y,-z
-x,-y,-z
x,-y,z
1/2+x,1/2+y,z
1/2-x,1/2+y,-z
1/2-x,1/2-y,-z
1/2+x,1/2-y,z
loop_
_atom_site_type_symbol
_atom_site_label
_atom_site_fract_x
_atom_site_fract_y
_atom_site_fract_z
Si Si1 0.761351 0.930472 0.782983
Si Si2 0.500000 0.152540 0.000000
Si Si3 0.471999 0.763389 0.189595
Si Si4 0.970287 0.371839 0.779222
Si Si5 0.671556 0.929676 0.216521
Si Si6 0.467972 0.633198 0.139266
O O1 0.692183 0.889878 0.789313
O O2 0.000000 0.911156 0.500000
O O3 0.741139 0.000000 0.780726
O O4 0.620370 0.920067 0.041308
O O5 0.422956 0.194522 0.170641
O O6 0.250000 0.750000 0.500000
O O7 0.600224 0.803566 0.101167
O O8 0.570389 0.698839 0.039299
O O9 0.223539 0.375363 0.464248
O O10 0.872578 0.385939 0.808762
O O11 0.500000 0.914547 0.500000
O O12 0.658877 0.000000 0.203562
O O13 0.901859 0.916925 0.969463
O O14 0.500000 0.622623 0.000000
#
# Coordination Sequence:
#
# PCOD8094613 Si02
#       6
#     8   4   8   8   8   8
#     4  10  22  39  61  88 122 161 204 253 298 355
#     4  10  19  38  62  88 117 158 200 248 308 362
#     4   9  20  37  63  89 122 157 201 249 303 364
#     4  10  22  41  62  93 124 159 204 254 302 364
#     4  11  24  39  60  91 126 165 206 247 302 367
#     4  11  21  40  65  90 122 163 200 250 308 365
#
# _framework density 19.957837000000001
#
# number of rings (size 3 to 8) (size 9 to 14) (size 15 to 20)
#    0.000    1.818    2.727    0.818    0.000    6.909 
#    0.000    9.091    0.000    0.000    0.000    0.000 
#    0.000    0.000    0.000    0.000    0.000    0.000 
#
# Total GULP energy -272678.398109 kJ/mol
# GULP energy per Si atom -12394.472641 kJ/mol
# Density = 1.991241 g / cm^3
# Si number density = 19.957837 Si / 1000 Ang^3
#
#
#
# Elastic Constant Matrix: (Units=GPa)
#
#
# Indices 1 2 3 4 5 6 
#
# 1 134.5238 61.7195 40.8039 -1.1165 -0.4170 -0.7251
# 2 61.7195 95.4236 35.5575 -7.4643 -5.8391 -4.7338
# 3 40.8039 35.5575 101.9683 7.2548 -1.0699 4.6722
# 4 -1.1165 -7.4643 7.2548 2826.2546 2.6864 1790.7907
# 5 -0.4170 -5.8391 -1.0699 2.6864 26.2262 1.7781
# 6 -0.7251 -4.7338 4.6722 1790.7907 1.7781 1174.9719
#
#
#
# Elastic Compliance Matrix: (Units=1/GPa)
#
#
# Indices 1 2 3 4 5 6 
#
# 1 0.011032 -0.006399 -0.002197 -0.000012 -0.001338 0.000011
# 2 -0.006399 0.015929 -0.002962 0.000045 0.003319 -0.000002
# 3 -0.002197 -0.002962 0.011719 -0.000024 -0.000212 -0.000023
# 4 -0.000012 0.000045 -0.000024 0.010322 0.000018 -0.015731
# 5 -0.001338 0.003319 -0.000212 0.000018 0.038842 -0.000073
# 6 0.000011 -0.000002 -0.000023 -0.015731 -0.000073 0.024827
#
#
# Mechanical properties :
#
#
# Convention : Reuss Voigt Hill
#
# Bulk Modulus (GPa) = 64.25037 67.56416 65.90727
# Shear Modulus (GPa) = 35.46749 818.41285 426.94017
#
# Velocity S-wave (km/s) = 4.22016 20.27218 14.64191
# Velocity P-wave (km/s) = 7.48394 24.12209 17.85895
#
# Compressibility (1/GPa) = 0.01556411
#
# Stress axis : x y z
#
# Youngs Moduli (GPa) = 90.64886 62.77949 85.32792
#
# Poissons Ratio (x) = 0.40172 0.18744
# Poissons Ratio (y) = 0.58006 0.25276
# Poissons Ratio (z) = 0.19913 0.18597
#
# Static dielectric constant tensor:
#      x y z
#    x 3.754250 -0.015320 0.195840 
#    y -0.015320 4.037420 0.023760 
#    z 0.195840 0.023760 3.326960 
# 
# 
# High freq. dielectric constant tensor:
#      x y z
#    x 1.786650 -0.000010 0.012980 
#    y -0.000010 1.789690 0.000050 
#    z 0.012980 0.000050 1.767800 
# 
# From -- ./inp_files/228050.got.cif
#   From: 2010.06.25/outbox.cif.g09.slc.cpg/sg12_115_cif.got.tgz:228050.got - 2010.06.28 00:19:55.
