data_PCOD8094632
_publ_section_title
;
Structure prediction by ZEFSAII (Michael W. Deem and Ramdas Pophale) SiO2 
 PCOD8094632
Probable space group: C 2/M
;
_chemical_formula_sum "Si O2"
_cell_formula_units_Z 64
_cell_length_a 23.794501
_cell_length_b 9.073404
_cell_length_c 15.406404
_cell_angle_alpha 90.000000
_cell_angle_beta 90.171899
_cell_angle_gamma 90.000000
_cell_volume 3326.183292
_symmetry_space_group_name_H-M "C 2/M"
_symmetry_group_IT_number 12
_symmetry_cell_setting 'monoclinic'
loop_
_space_group_symop_operation_xyz
x,y,z
-x,y,-z
-x,-y,-z
x,-y,z
1/2+x,1/2+y,z
1/2-x,1/2+y,-z
1/2-x,1/2-y,-z
1/2+x,1/2-y,z
loop_
_atom_site_type_symbol
_atom_site_label
_atom_site_fract_x
_atom_site_fract_y
_atom_site_fract_z
Si Si1 0.879622 0.834530 0.839324
Si Si2 0.992500 0.674625 0.596304
Si Si3 0.123977 0.667044 0.328864
Si Si4 0.759925 0.334687 0.587327
Si Si5 0.193986 0.823539 0.756137
Si Si6 0.488563 0.173862 0.903395
Si Si7 0.240198 0.168479 0.088841
Si Si8 0.573467 0.825368 0.751703
O O1 0.857615 0.771679 0.748638
O O2 0.929065 0.734735 0.874749
O O3 0.826778 0.828959 0.902256
O O4 0.902174 0.000000 0.827866
O O5 0.991627 0.500000 0.589849
O O6 0.932701 0.731866 0.630010
O O7 0.000000 0.743178 0.500000
O O8 0.040995 0.723758 0.663701
O O9 0.114406 0.500000 0.294795
O O10 0.173425 0.671774 0.398579
O O11 0.739034 0.500000 0.572674
O O12 0.750000 0.250000 0.500000
O O13 0.724943 0.269386 0.668324
O O14 0.227433 0.754849 0.836097
O O15 0.130680 0.765061 0.755421
O O16 0.195010 0.000000 0.765027
O O17 0.536933 0.221192 0.835800
O O18 0.483231 0.000000 0.904635
O O19 0.500000 0.235989 0.000000
O O20 0.262421 0.000000 0.086502
O O21 0.250000 0.250000 0.000000
O O22 0.585588 0.000000 0.751780
#
# Coordination Sequence:
#
# PCOD8094632 Si02
#       8
#     8   8   8   8   8   8   8   8
#     4  11  23  39  62  91 120 152 194 251 306 349
#     4   9  18  33  58  88 114 147 196 245 290 346
#     4  10  19  38  63  85 114 155 201 247 294 354
#     4  10  23  39  61  89 120 161 204 249 303 358
#     4  11  24  42  61  87 125 164 202 250 306 362
#     4  10  22  40  62  88 118 158 201 241 290 355
#     4  11  25  43  64  92 122 159 204 250 304 363
#     4  10  21  38  60  87 119 158 201 245 295 355
#
# _framework density 19.241273
#
# number of rings (size 3 to 8) (size 9 to 14) (size 15 to 20)
#    0.000    1.750    2.500    1.125    3.500    3.750 
#    0.000    0.000    0.000    0.750    0.000    0.000 
#    0.000    0.000    0.000    0.000    0.000    0.000 
#
# Total GULP energy -396804.195297 kJ/mol
# GULP energy per Si atom -12400.131103 kJ/mol
# Density = 1.919748 g / cm^3
# Si number density = 19.241273 Si / 1000 Ang^3
#
#
#
# Elastic Constant Matrix: (Units=GPa)
#
#
# Indices 1 2 3 4 5 6 
#
# 1 120.3004 41.4748 53.1105 0.0000 0.4415 0.0000
# 2 41.4748 44.3321 49.5202 0.0000 -5.1778 0.0000
# 3 53.1105 49.5202 161.4928 0.0000 -1.3164 0.0000
# 4 0.0000 0.0000 0.0000 26.0233 0.0000 3.1751
# 5 0.4415 -5.1778 -1.3164 0.0000 27.5778 0.0000
# 6 0.0000 0.0000 0.0000 3.1751 0.0000 31.8679
#
#
#
# Elastic Compliance Matrix: (Units=1/GPa)
#
#
# Indices 1 2 3 4 5 6 
#
# 1 0.012479 -0.011166 -0.000699 0.000000 -0.002330 0.000000
# 2 -0.011166 0.045301 -0.010152 0.000000 0.008200 0.000000
# 3 -0.000699 -0.010152 0.009523 0.000000 -0.001440 0.000000
# 4 0.000000 0.000000 0.000000 0.038900 0.000000 -0.003876
# 5 -0.002330 0.008200 -0.001440 0.000000 0.037769 0.000000
# 6 0.000000 0.000000 0.000000 -0.003876 0.000000 0.031766
#
#
# Mechanical properties :
#
#
# Convention : Reuss Voigt Hill
#
# Bulk Modulus (GPa) = 42.97500 68.25958 55.61729
# Shear Modulus (GPa) = 21.97507 29.22844 25.60176
#
# Velocity S-wave (km/s) = 3.38313 3.90173 3.65165
# Velocity P-wave (km/s) = 6.13548 7.47332 6.83720
#
# Compressibility (1/GPa) = 0.02326934
#
# Stress axis : x y z
#
# Youngs Moduli (GPa) = 80.13218 22.07435 105.00395
#
# Poissons Ratio (x) = 0.24649 0.07341
# Poissons Ratio (y) = 0.89477 1.06602
# Poissons Ratio (z) = 0.05602 0.22410
#
# Static dielectric constant tensor:
#      x y z
#    x 3.404530 0.000000 0.016370 
#    y 0.000000 3.407070 0.000000 
#    z 0.016370 0.000000 3.816870 
# 
# 
# High freq. dielectric constant tensor:
#      x y z
#    x 1.760630 0.000000 -0.000970 
#    y 0.000000 1.733200 0.000000 
#    z -0.000970 0.000000 1.759140 
# 
# From -- ./inp_files/238634.got.cif
#   From: 2010.06.25/outbox.cif.g09.slc.cpg/sg12_120_cif.got.tgz:238634.got - 2010.06.28 00:19:55.
