data_PCOD8094306
_publ_section_title
;
Structure prediction by ZEFSAII (Michael W. Deem and Ramdas Pophale) SiO2 
 PCOD8094306
Probable space group: C 2/M
;
_chemical_formula_sum "Si O2"
_cell_formula_units_Z 48
_cell_length_a 14.515961
_cell_length_b 18.492452
_cell_length_c 14.499176
_cell_angle_alpha 90.000000
_cell_angle_beta 139.935514
_cell_angle_gamma 90.000000
_cell_volume 2505.145585
_symmetry_space_group_name_H-M "C 2/M"
_symmetry_group_IT_number 12
_symmetry_cell_setting 'monoclinic'
loop_
_space_group_symop_operation_xyz
x,y,z
-x,y,-z
-x,-y,-z
x,-y,z
1/2+x,1/2+y,z
1/2-x,1/2+y,-z
1/2-x,1/2-y,-z
1/2+x,1/2-y,z
loop_
_atom_site_type_symbol
_atom_site_label
_atom_site_fract_x
_atom_site_fract_y
_atom_site_fract_z
Si Si1 0.357419 0.081504 0.841483
Si Si2 0.868359 0.419236 0.463647
Si Si3 0.689853 0.280748 0.357398
Si Si4 0.999029 0.422257 0.762229
Si Si5 0.354672 0.699418 0.332889
Si Si6 0.614926 0.230404 0.836852
O O1 0.378430 0.085956 0.747885
O O2 0.214707 0.125651 0.760212
O O3 0.331242 0.000000 0.856389
O O4 0.500000 0.113231 0.000000
O O5 0.818132 0.500000 0.392022
O O6 0.739410 0.361507 0.366373
O O7 0.000000 0.391873 0.500000
O O8 0.916568 0.423544 0.604393
O O9 0.750000 0.250000 0.500000
O O10 0.737372 0.229194 0.312277
O O11 0.518655 0.276853 0.228164
O O12 0.080251 0.500000 0.838129
O O13 0.106565 0.355586 0.845673
O O14 0.500000 0.684432 0.500000
O O15 0.375369 0.754895 0.264840
O O16 0.750000 0.250000 0.000000
#
# Coordination Sequence:
#
# PCOD8094306 Si02
#       6
#     8   8   8   8   8   8
#     4  10  21  38  59  84 118 158 195 242 303 361
#     4  10  20  36  61  92 120 157 205 251 302 361
#     4  12  21  39  61  88 124 155 204 255 302 360
#     4  10  19  37  61  82 114 157 199 241 294 357
#     4  12  23  37  62  89 120 158 202 253 301 357
#     4  12  25  39  60  94 123 159 206 251 312 368
#
# _framework density 19.160563
#
# number of rings (size 3 to 8) (size 9 to 14) (size 15 to 20)
#    0.000    1.000    5.000    2.500    0.000    0.333 
#    0.000    1.667    0.000    0.000    0.000    5.833 
#    0.000    0.000    0.000    0.000    0.000    0.000 
#
# Total GULP energy -297471.189339 kJ/mol
# GULP energy per Si atom -12394.632889 kJ/mol
# Density = 1.911695 g / cm^3
# Si number density = 19.160563 Si / 1000 Ang^3
#
#
#
# Elastic Constant Matrix: (Units=GPa)
#
#
# Indices 1 2 3 4 5 6 
#
# 1 99.9500 35.9431 33.6830 0.0000 4.0183 0.0000
# 2 35.9431 152.4033 45.1824 0.0000 21.1017 0.0000
# 3 33.6830 45.1824 105.4309 0.0000 19.8360 0.0001
# 4 0.0000 0.0000 0.0000 24.2477 0.0000 5.1197
# 5 4.0183 21.1017 19.8360 0.0000 28.9253 0.0000
# 6 0.0000 0.0000 0.0001 5.1197 0.0000 32.1248
#
#
#
# Elastic Compliance Matrix: (Units=1/GPa)
#
#
# Indices 1 2 3 4 5 6 
#
# 1 0.011776 -0.002106 -0.003262 0.000000 0.002137 0.000000
# 2 -0.002106 0.008267 -0.002056 0.000000 -0.004329 0.000000
# 3 -0.003262 -0.002056 0.012676 0.000000 -0.006740 0.000000
# 4 0.000000 0.000000 0.000000 0.042677 0.000000 -0.006801
# 5 0.002137 -0.004329 -0.006740 0.000000 0.042055 0.000000
# 6 0.000000 0.000000 0.000000 -0.006801 0.000000 0.032213
#
#
# Mechanical properties :
#
#
# Convention : Reuss Voigt Hill
#
# Bulk Modulus (GPa) = 55.95359 65.26681 60.61020
# Shear Modulus (GPa) = 29.33119 33.25794 31.29457
#
# Velocity S-wave (km/s) = 3.91680 4.17075 4.04577
# Velocity P-wave (km/s) = 7.05131 7.57170 7.31613
#
# Compressibility (1/GPa) = 0.01787195
#
# Stress axis : x y z
#
# Youngs Moduli (GPa) = 84.92112 120.96260 78.88998
#
# Poissons Ratio (x) = 0.25477 0.25731
# Poissons Ratio (y) = 0.17886 0.16216
# Poissons Ratio (z) = 0.27698 0.24864
#
# Static dielectric constant tensor:
#      x y z
#    x 3.549750 0.000000 -0.066420 
#    y 0.000000 4.720680 0.000000 
#    z -0.066420 0.000000 3.423750 
# 
# 
# High freq. dielectric constant tensor:
#      x y z
#    x 1.750420 0.000000 -0.021990 
#    y 0.000000 1.760080 0.000000 
#    z -0.021990 0.000000 1.725130 
# 
# From -- ./inp_files/63601.got.cif
#   From: 2010.06.25/outbox.cif.g09.slc.cpg/sg12_32_cif.got.tgz:63601.got - 2010.06.28 00:19:55.
