data_PCOD8094157
_publ_section_title
;
Structure prediction by ZEFSAII (Michael W. Deem and Ramdas Pophale) SiO2 
 PCOD8094157
Probable space group: C 2/M
;
_chemical_formula_sum "Si O2"
_cell_formula_units_Z 56
_cell_length_a 8.953193
_cell_length_b 29.376480
_cell_length_c 19.390274
_cell_angle_alpha 90.000000
_cell_angle_beta 149.746970
_cell_angle_gamma 90.000000
_cell_volume 2569.429807
_symmetry_space_group_name_H-M "C 2/M"
_symmetry_group_IT_number 12
_symmetry_cell_setting 'monoclinic'
loop_
_space_group_symop_operation_xyz
x,y,z
-x,y,-z
-x,-y,-z
x,-y,z
1/2+x,1/2+y,z
1/2-x,1/2+y,-z
1/2-x,1/2-y,-z
1/2+x,1/2-y,z
loop_
_atom_site_type_symbol
_atom_site_label
_atom_site_fract_x
_atom_site_fract_y
_atom_site_fract_z
Si Si1 0.156972 0.913387 0.630244
Si Si2 0.212343 0.835727 0.302210
Si Si3 0.712765 0.162203 0.212804
Si Si4 0.052394 0.575110 0.446767
Si Si5 0.059529 0.857781 0.947080
Si Si6 0.748136 0.050186 0.807680
Si Si7 0.435884 0.737354 0.400804
O O1 0.286699 0.873014 0.725351
O O2 0.436150 0.945194 0.723948
O O3 0.000000 0.892761 0.500000
O O4 0.891453 0.938450 0.564843
O O5 0.492400 0.869672 0.426152
O O6 0.265937 0.784425 0.347224
O O7 0.936895 0.851116 0.240662
O O8 0.152921 0.836758 0.196090
O O9 0.765466 0.209825 0.273055
O O10 0.383845 0.157321 0.050696
O O11 0.000000 0.552841 0.500000
O O12 0.820877 0.553615 0.301156
O O13 0.997246 0.912434 0.926480
O O14 0.000000 0.837070 0.000000
O O15 0.878951 0.000000 0.875834
O O16 0.500000 0.712016 0.500000
O O17 0.750000 0.750000 0.500000
#
# Coordination Sequence:
#
# PCOD8094157 Si02
#       7
#     8   8   8   8   8   8   8
#     4  10  20  36  63  95 126 170 206 264 328 391
#     4  11  24  43  63  94 135 174 215 271 319 378
#     4  12  23  42  65  91 132 173 221 262 323 376
#     4  10  19  36  67  94 132 171 211 256 332 400
#     4  11  25  43  68  93 119 176 226 264 318 386
#     4  10  23  43  65  96 129 162 218 279 327 386
#     4  12  25  41  66 102 135 168 210 270 322 379
#
# _framework density 21.794719000000001
#
# number of rings (size 3 to 8) (size 9 to 14) (size 15 to 20)
#    0.000    1.143    4.286    2.143    2.000    3.714 
#    0.000    0.000    0.000    6.857    0.000    0.000 
#    0.000    0.000    0.000    0.000    0.000    0.000 
#
# Total GULP energy -346955.481227 kJ/mol
# GULP energy per Si atom -12391.267187 kJ/mol
# Density = 2.174511 g / cm^3
# Si number density = 21.794719 Si / 1000 Ang^3
#
#
#
# Elastic Constant Matrix: (Units=GPa)
#
#
# Indices 1 2 3 4 5 6 
#
# 1 138.9485 11.0507 30.6144 0.0022 -6.7031 0.0038
# 2 11.0507 81.3581 17.2700 0.0025 0.9913 0.0028
# 3 30.6144 17.2700 88.9279 0.0085 5.5110 0.0124
# 4 0.0022 0.0025 0.0085 22.2096 0.0047 7.5249
# 5 -6.7031 0.9913 5.5110 0.0047 39.5183 0.0045
# 6 0.0038 0.0028 0.0124 7.5249 0.0045 18.1643
#
#
#
# Elastic Compliance Matrix: (Units=1/GPa)
#
#
# Indices 1 2 3 4 5 6 
#
# 1 0.007925 -0.000517 -0.002735 0.000000 0.001739 0.000000
# 2 -0.000517 0.012854 -0.002313 0.000000 -0.000088 0.000000
# 3 -0.002735 -0.002313 0.012771 -0.000002 -0.002187 -0.000007
# 4 0.000000 0.000000 -0.000002 0.052377 -0.000004 -0.021698
# 5 0.001739 -0.000088 -0.002187 -0.000004 0.025907 -0.000004
# 6 0.000000 0.000000 -0.000007 -0.021698 -0.000004 0.064042
#
#
# Mechanical properties :
#
#
# Convention : Reuss Voigt Hill
#
# Bulk Modulus (GPa) = 44.60456 47.45606 46.03031
# Shear Modulus (GPa) = 25.70969 32.66508 29.18739
#
# Velocity S-wave (km/s) = 3.43830 3.87558 3.66347
# Velocity P-wave (km/s) = 6.02268 6.46902 6.24984
#
# Compressibility (1/GPa) = 0.02241923
#
# Stress axis : x y z
#
# Youngs Moduli (GPa) = 126.18925 77.79945 78.29949
#
# Poissons Ratio (x) = 0.04021 0.21419
# Poissons Ratio (y) = 0.06523 0.18109
# Poissons Ratio (z) = 0.34519 0.17994
#
# Static dielectric constant tensor:
#      x y z
#    x 4.159300 0.000000 -0.185290 
#    y 0.000000 3.453240 0.000000 
#    z -0.185290 0.000000 4.710030 
# 
# 
# High freq. dielectric constant tensor:
#      x y z
#    x 1.877490 0.000000 -0.011010 
#    y 0.000000 1.825490 0.000000 
#    z -0.011010 0.000000 1.855160 
# 
# From -- ./inp_files/303082.got.cif
#   From: 2010.06.25/outbox.cif.g09.slc.cpg/sg12_152_cif.got.tgz:303082.got - 2010.06.28 00:19:55.
