data_PCOD8094391
_publ_section_title
;
Structure prediction by ZEFSAII (Michael W. Deem and Ramdas Pophale) SiO2 
 PCOD8094391
Probable space group: C 2/M
;
_chemical_formula_sum "Si O2"
_cell_formula_units_Z 56
_cell_length_a 28.216130
_cell_length_b 8.692427
_cell_length_c 11.896883
_cell_angle_alpha 90.000000
_cell_angle_beta 106.797049
_cell_angle_gamma 90.000000
_cell_volume 2793.414269
_symmetry_space_group_name_H-M "C 2/M"
_symmetry_group_IT_number 12
_symmetry_cell_setting 'monoclinic'
loop_
_space_group_symop_operation_xyz
x,y,z
-x,y,-z
-x,-y,-z
x,-y,z
1/2+x,1/2+y,z
1/2-x,1/2+y,-z
1/2-x,1/2-y,-z
1/2+x,1/2-y,z
loop_
_atom_site_type_symbol
_atom_site_label
_atom_site_fract_x
_atom_site_fract_y
_atom_site_fract_z
Si Si1 0.101247 0.180591 0.834775
Si Si2 0.517067 0.182972 0.635778
Si Si3 0.258783 0.818247 0.332760
Si Si4 0.558037 0.173409 0.022130
Si Si5 0.709334 0.182864 0.889056
Si Si6 0.427313 0.182407 0.723056
Si Si7 0.177897 0.681539 0.416474
O O1 0.069901 0.245331 0.707175
O O2 0.154860 0.257393 0.879487
O O3 0.107592 0.000000 0.824251
O O4 0.072952 0.215964 0.931180
O O5 0.500000 0.235542 0.500000
O O6 0.475951 0.247744 0.694654
O O7 0.522634 0.000000 0.644828
O O8 0.275960 0.756801 0.224290
O O9 0.204926 0.752556 0.326285
O O10 0.298011 0.756945 0.451923
O O11 0.255999 0.000000 0.331455
O O12 0.579690 0.240691 0.153857
O O13 0.577214 0.000000 0.009256
O O14 0.500000 0.170310 0.000000
O O15 0.709662 0.000000 0.897378
O O16 0.750000 0.250000 0.000000
O O17 0.379065 0.234960 0.620885
O O18 0.432866 0.000000 0.729594
O O19 0.182308 0.500000 0.409195
#
# Coordination Sequence:
#
# PCOD8094391 Si02
#       7
#     8   8   8   8   8   8   8
#     4  12  26  42  61  89 127 165 204 252 311 370
#     4  10  21  39  66  93 122 163 211 254 301 365
#     4   9  20  38  59  84 116 150 195 248 296 357
#     4  10  19  37  62  87 118 154 201 250 296 355
#     4  11  25  44  65  89 120 160 208 256 308 364
#     4   9  18  33  58  91 117 149 198 248 298 355
#     4   9  18  34  59  88 117 150 191 242 299 356
#
# _framework density 20.047153000000002
#
# number of rings (size 3 to 8) (size 9 to 14) (size 15 to 20)
#    0.000    2.000    1.429    1.714    4.000    1.714 
#    0.000    0.714    0.000    0.000    0.000    0.000 
#    0.000    0.000    0.000    0.000    0.000    0.000 
#
# Total GULP energy -347179.907277 kJ/mol
# GULP energy per Si atom -12399.282403 kJ/mol
# Density = 2.000152 g / cm^3
# Si number density = 20.047153 Si / 1000 Ang^3
#
#
#
# Elastic Constant Matrix: (Units=GPa)
#
#
# Indices 1 2 3 4 5 6 
#
# 1 112.0299 27.3890 61.2815 0.0000 11.4072 0.0000
# 2 27.3890 50.3950 35.2539 0.0000 -0.4607 0.0000
# 3 61.2815 35.2539 140.7457 0.0000 3.8292 0.0000
# 4 0.0000 0.0000 0.0000 24.2373 0.0000 4.3415
# 5 11.4072 -0.4607 3.8292 0.0000 36.9784 0.0000
# 6 0.0000 0.0000 0.0000 4.3415 0.0000 24.5560
#
#
#
# Elastic Compliance Matrix: (Units=1/GPa)
#
#
# Indices 1 2 3 4 5 6 
#
# 1 0.012648 -0.003783 -0.004465 0.000000 -0.003487 0.000000
# 2 -0.003783 0.025222 -0.004724 0.000000 0.001970 0.000000
# 3 -0.004465 -0.004724 0.010225 0.000000 0.000260 0.000000
# 4 0.000000 0.000000 0.000000 0.042608 0.000000 -0.007533
# 5 -0.003487 0.001970 0.000260 0.000000 0.028116 0.000000
# 6 0.000000 0.000000 0.000000 -0.007533 0.000000 0.042055
#
#
# Mechanical properties :
#
#
# Convention : Reuss Voigt Hill
#
# Bulk Modulus (GPa) = 45.14238 61.22436 53.18337
# Shear Modulus (GPa) = 25.74638 29.10408 27.42523
#
# Velocity S-wave (km/s) = 3.58759 3.81436 3.70271
# Velocity P-wave (km/s) = 6.30302 7.07146 6.69827
#
# Compressibility (1/GPa) = 0.02215213
#
# Stress axis : x y z
#
# Youngs Moduli (GPa) = 79.06219 39.64813 97.79707
#
# Poissons Ratio (x) = 0.14998 0.43664
# Poissons Ratio (y) = 0.29907 0.46201
# Poissons Ratio (z) = 0.35300 0.18730
#
# Static dielectric constant tensor:
#      x y z
#    x 3.753250 0.000000 -0.021060 
#    y 0.000000 3.389100 0.000000 
#    z -0.021060 0.000000 4.189640 
# 
# 
# High freq. dielectric constant tensor:
#      x y z
#    x 1.788120 0.000000 0.004200 
#    y 0.000000 1.752720 0.000000 
#    z 0.004200 0.000000 1.796810 
# 
# From -- ./inp_files/181120.got.cif
#   From: 2010.06.25/outbox.cif.g09.slc.cpg/sg12_91_cif.got.tgz:181120.got - 2010.06.28 00:19:55.
