data_PCOD8094009
_publ_section_title
;
Structure prediction by ZEFSAII (Michael W. Deem and Ramdas Pophale) SiO2 
 PCOD8094009
Probable space group: C 2/M
;
_chemical_formula_sum "Si O2"
_cell_formula_units_Z 64
_cell_length_a 19.525627
_cell_length_b 8.913492
_cell_length_c 18.957976
_cell_angle_alpha 90.000000
_cell_angle_beta 91.775759
_cell_angle_gamma 90.000000
_cell_volume 3297.890422
_symmetry_space_group_name_H-M "C 2/M"
_symmetry_group_IT_number 12
_symmetry_cell_setting 'monoclinic'
loop_
_space_group_symop_operation_xyz
x,y,z
-x,y,-z
-x,-y,-z
x,-y,z
1/2+x,1/2+y,z
1/2-x,1/2+y,-z
1/2-x,1/2-y,-z
1/2+x,1/2-y,z
loop_
_atom_site_type_symbol
_atom_site_label
_atom_site_fract_x
_atom_site_fract_y
_atom_site_fract_z
Si Si1 0.050078 0.327264 0.566601
Si Si2 0.979385 0.827795 0.292573
Si Si3 0.343193 0.326797 0.202240
Si Si4 0.294221 0.823843 0.440676
Si Si5 0.395273 0.823081 0.773868
Si Si6 0.233518 0.823063 0.289720
Si Si7 0.580368 0.323127 0.930425
Si Si8 0.925722 0.822764 0.913511
O O1 0.051218 0.500000 0.592058
O O2 0.126591 0.275396 0.548127
O O3 0.000000 0.303318 0.500000
O O4 0.020028 0.224696 0.627025
O O5 0.029917 0.727010 0.248290
O O6 0.903879 0.806141 0.259835
O O7 0.003403 0.000000 0.288656
O O8 0.320299 0.500000 0.196560
O O9 0.279567 0.228535 0.225397
O O10 0.366581 0.262499 0.126431
O O11 0.250000 0.750000 0.500000
O O12 0.267296 0.768535 0.363857
O O13 0.285529 0.000000 0.448087
O O14 0.340388 0.753289 0.718537
O O15 0.382107 0.763677 0.852973
O O16 0.388567 0.000000 0.771914
O O17 0.224718 0.000000 0.286854
O O18 0.574698 0.500000 0.921661
O O19 0.503898 0.262500 0.913336
O O20 0.605125 0.281545 0.010253
O O21 0.921393 0.000000 0.899082
#
# Coordination Sequence:
#
# PCOD8094009 Si02
#       8
#     8   8   8   8   8   8   8   8
#     4  10  22  41  62  89 123 156 192 241 295 347
#     4  11  22  38  63  90 119 154 198 246 290 348
#     4  10  19  36  61  90 117 152 195 239 291 349
#     4  10  23  41  61  86 119 156 194 236 289 351
#     4  12  25  39  58  86 121 158 198 249 299 347
#     4  11  24  42  61  84 117 157 200 244 289 349
#     4   8  15  30  58  88 118 153 192 237 291 351
#     4   9  16  33  58  86 118 155 195 239 292 349
#
# _framework density 19.406344000000001
#
# number of rings (size 3 to 8) (size 9 to 14) (size 15 to 20)
#    0.000    1.875    2.500    2.625    1.750    2.250 
#    0.000    2.500    0.000    0.000    0.000    0.000 
#    0.000    0.000    0.000    0.000    0.000    0.000 
#
# Total GULP energy -396853.986128 kJ/mol
# GULP energy per Si atom -12401.687066 kJ/mol
# Density = 1.936217 g / cm^3
# Si number density = 19.406344 Si / 1000 Ang^3
#
#
#
# Elastic Constant Matrix: (Units=GPa)
#
#
# Indices 1 2 3 4 5 6 
#
# 1 59.5326 29.1487 34.0367 0.0000 5.2565 0.0000
# 2 29.1487 71.5260 37.3680 0.0000 2.8553 0.0000
# 3 34.0367 37.3680 118.4117 0.0000 -8.1406 0.0000
# 4 0.0000 0.0000 0.0000 23.3746 0.0000 -6.1440
# 5 5.2565 2.8553 -8.1406 0.0000 33.1102 0.0000
# 6 0.0000 0.0000 0.0000 -6.1440 0.0000 29.8301
#
#
#
# Elastic Compliance Matrix: (Units=1/GPa)
#
#
# Indices 1 2 3 4 5 6 
#
# 1 0.023266 -0.006779 -0.004844 0.000000 -0.004300 0.000000
# 2 -0.006779 0.018974 -0.004148 0.000000 -0.001580 0.000000
# 3 -0.004844 -0.004148 0.011417 0.000000 0.003934 0.000000
# 4 0.000000 0.000000 0.000000 0.045230 0.000000 0.009316
# 5 -0.004300 -0.001580 0.003934 0.000000 0.031988 0.000000
# 6 0.000000 0.000000 0.000000 0.009316 0.000000 0.035442
#
#
# Mechanical properties :
#
#
# Convention : Reuss Voigt Hill
#
# Bulk Modulus (GPa) = 45.21837 50.06411 47.64124
# Shear Modulus (GPa) = 24.36299 27.19077 25.77688
#
# Velocity S-wave (km/s) = 3.54703 3.74723 3.64850
# Velocity P-wave (km/s) = 6.33456 6.67653 6.50779
#
# Compressibility (1/GPa) = 0.02211491
#
# Stress axis : x y z
#
# Youngs Moduli (GPa) = 42.98149 52.70503 87.59045
#
# Poissons Ratio (x) = 0.35729 0.42428
# Poissons Ratio (y) = 0.29138 0.36329
# Poissons Ratio (z) = 0.20820 0.21860
#
# Static dielectric constant tensor:
#      x y z
#    x 3.453470 0.000000 -0.046330 
#    y 0.000000 3.355110 0.000000 
#    z -0.046330 0.000000 3.799980 
# 
# 
# High freq. dielectric constant tensor:
#      x y z
#    x 1.746370 0.000000 -0.002920 
#    y 0.000000 1.737710 0.000000 
#    z -0.002920 0.000000 1.768710 
# 
# From -- ./inp_files/314064.got.cif
#   From: 2010.06.25/outbox.cif.g09.slc.cpg/sg12_158_cif.got.tgz:314064.got - 2010.06.28 00:19:55.
