data_PCOD8094255
_publ_section_title
;
Structure prediction by ZEFSAII (Michael W. Deem and Ramdas Pophale) SiO2 
 PCOD8094255
Probable space group: C 2/M
;
_chemical_formula_sum "Si O2"
_cell_formula_units_Z 56
_cell_length_a 15.254090
_cell_length_b 8.806305
_cell_length_c 29.336583
_cell_angle_alpha 90.000000
_cell_angle_beta 129.402544
_cell_angle_gamma 90.000000
_cell_volume 3045.113584
_symmetry_space_group_name_H-M "C 2/M"
_symmetry_group_IT_number 12
_symmetry_cell_setting 'monoclinic'
loop_
_space_group_symop_operation_xyz
x,y,z
-x,y,-z
-x,-y,-z
x,-y,z
1/2+x,1/2+y,z
1/2-x,1/2+y,-z
1/2-x,1/2-y,-z
1/2+x,1/2-y,z
loop_
_atom_site_type_symbol
_atom_site_label
_atom_site_fract_x
_atom_site_fract_y
_atom_site_fract_z
Si Si1 0.156527 0.827913 0.334138
Si Si2 0.706150 0.180105 0.938898
Si Si3 0.612946 0.821509 0.064926
Si Si4 0.474576 0.179813 0.327200
Si Si5 0.242203 0.320586 0.275109
Si Si6 0.049059 0.679461 0.143265
Si Si7 0.166218 0.828429 0.437611
O O1 0.232346 0.735917 0.323616
O O2 0.220865 0.826996 0.404571
O O3 0.034469 0.744813 0.300964
O O4 0.137267 0.000000 0.310649
O O5 0.780384 0.234266 0.920878
O O6 0.577613 0.238945 0.888538
O O7 0.711200 0.000000 0.944818
O O8 0.750000 0.250000 0.000000
O O9 0.596140 0.759094 0.110595
O O10 0.638523 0.000000 0.071436
O O11 0.500000 0.781139 0.000000
O O12 0.348378 0.242584 0.286282
O O13 0.545687 0.238852 0.395055
O O14 0.473637 0.000000 0.325980
O O15 0.259137 0.500000 0.279757
O O16 0.130838 0.266692 0.210943
O O17 0.046570 0.500000 0.138997
O O18 0.250000 0.750000 0.500000
O O19 0.142598 0.000000 0.446146
#
# Coordination Sequence:
#
# PCOD8094255 Si02
#       7
#     8   8   8   8   8   8   8
#     4   9  20  37  57  83 116 152 190 234 282 332
#     4  11  21  37  58  83 112 143 183 230 284 340
#     4  10  19  37  60  80 110 147 181 225 286 341
#     4  10  20  36  58  83 116 154 190 234 286 332
#     4  11  21  37  59  83 114 151 194 237 283 340
#     4   9  21  38  56  80 112 148 184 229 284 341
#     4   9  18  34  59  87 118 150 191 236 283 337
#
# _framework density 18.390118999999999
#
# number of rings (size 3 to 8) (size 9 to 14) (size 15 to 20)
#    0.857    1.286    1.429    2.571    0.000    1.429 
#    0.000    7.857    0.000    4.286    0.000    0.000 
#    0.000    0.000    0.000    0.000    0.000    0.000 
#
# Total GULP energy -347079.808642 kJ/mol
# GULP energy per Si atom -12395.707452 kJ/mol
# Density = 1.834826 g / cm^3
# Si number density = 18.390119 Si / 1000 Ang^3
#
#
#
# Elastic Constant Matrix: (Units=GPa)
#
#
# Indices 1 2 3 4 5 6 
#
# 1 100.3871 31.3011 15.5517 0.0000 1.6078 0.0000
# 2 31.3011 100.4409 27.2188 0.0000 5.8692 0.0000
# 3 15.5517 27.2188 70.3769 0.0000 4.3993 0.0000
# 4 0.0000 0.0000 0.0000 21.0766 0.0000 1.4464
# 5 1.6078 5.8692 4.3993 0.0000 28.7974 0.0000
# 6 0.0000 0.0000 0.0000 1.4464 0.0000 36.4591
#
#
#
# Elastic Compliance Matrix: (Units=1/GPa)
#
#
# Indices 1 2 3 4 5 6 
#
# 1 0.011132 -0.003140 -0.001259 0.000000 0.000211 0.000000
# 2 -0.003140 0.012084 -0.003873 0.000000 -0.001696 0.000000
# 3 -0.001259 -0.003873 0.016085 0.000000 -0.001598 0.000000
# 4 0.000000 0.000000 0.000000 0.047575 0.000000 -0.001887
# 5 0.000211 -0.001696 -0.001598 0.000000 0.035303 0.000000
# 6 0.000000 0.000000 0.000000 -0.001887 0.000000 0.027503
#
#
# Mechanical properties :
#
#
# Convention : Reuss Voigt Hill
#
# Bulk Modulus (GPa) = 43.94415 46.59422 45.26918
# Shear Modulus (GPa) = 28.76656 30.40884 29.58770
#
# Velocity S-wave (km/s) = 3.95934 4.07079 4.01545
# Velocity P-wave (km/s) = 6.69695 6.89106 6.79470
#
# Compressibility (1/GPa) = 0.02275616
#
# Stress axis : x y z
#
# Youngs Moduli (GPa) = 89.82908 82.75715 62.16871
#
# Poissons Ratio (x) = 0.25990 0.07824
# Poissons Ratio (y) = 0.28211 0.24081
# Poissons Ratio (z) = 0.11305 0.32055
#
# Static dielectric constant tensor:
#      x y z
#    x 3.423070 0.000000 0.031950 
#    y 0.000000 3.338880 0.000000 
#    z 0.031950 0.000000 3.335810 
# 
# 
# High freq. dielectric constant tensor:
#      x y z
#    x 1.710520 0.000000 0.000240 
#    y 0.000000 1.714010 0.000000 
#    z 0.000240 0.000000 1.701090 
# 
# From -- ./inp_files/375135.got.cif
#   From: 2010.06.25/outbox.cif.g09.slc.cpg/sg12_188_cif.got.tgz:375135.got - 2010.06.28 00:19:55.
