data_PCOD8094095
_publ_section_title
;
Structure prediction by ZEFSAII (Michael W. Deem and Ramdas Pophale) SiO2 
 PCOD8094095
Probable space group: C 2/M
;
_chemical_formula_sum "Si O2"
_cell_formula_units_Z 56
_cell_length_a 19.140770
_cell_length_b 14.280415
_cell_length_c 13.977388
_cell_angle_alpha 90.000000
_cell_angle_beta 43.339379
_cell_angle_gamma 90.000000
_cell_volume 2622.115916
_symmetry_space_group_name_H-M "C 2/M"
_symmetry_group_IT_number 12
_symmetry_cell_setting 'monoclinic'
loop_
_space_group_symop_operation_xyz
x,y,z
-x,y,-z
-x,-y,-z
x,-y,z
1/2+x,1/2+y,z
1/2-x,1/2+y,-z
1/2-x,1/2-y,-z
1/2+x,1/2-y,z
loop_
_atom_site_type_symbol
_atom_site_label
_atom_site_fract_x
_atom_site_fract_y
_atom_site_fract_z
Si Si1 0.926404 0.895562 0.831434
Si Si2 0.397776 0.266764 0.044393
Si Si3 0.239802 0.770537 0.650195
Si Si4 0.285533 0.845869 0.010445
Si Si5 0.468605 0.286084 0.434499
Si Si6 0.823459 0.606585 0.409169
Si Si7 0.963182 0.600885 0.701914
O O1 0.820063 0.903133 0.877669
O O2 0.010448 0.845012 0.681794
O O3 0.964742 0.000000 0.815514
O O4 0.919479 0.841426 0.939051
O O5 0.317075 0.311031 0.199770
O O6 0.343674 0.174124 0.052964
O O7 0.500000 0.239621 0.000000
O O8 0.351954 0.737173 0.561239
O O9 0.179308 0.677428 0.677225
O O10 0.244035 0.853816 0.567786
O O11 0.250000 0.750000 0.000000
O O12 0.362048 0.900663 0.865895
O O13 0.500000 0.341403 0.500000
O O14 0.536302 0.189891 0.368611
O O15 0.791717 0.500000 0.413923
O O16 0.939066 0.610753 0.328009
O O17 0.967095 0.500000 0.643433
#
# Coordination Sequence:
#
# PCOD8094095 Si02
#       7
#     8   8   8   8   8   8   8
#     4  11  25  43  66  96 133 176 219 268 323 392
#     4  11  23  40  67  98 129 169 216 272 332 389
#     4  10  22  37  63  90 123 168 208 262 320 380
#     4  10  19  38  64  87 125 170 208 261 322 384
#     4  11  23  41  63  90 126 172 217 264 318 382
#     4   9  20  38  60  88 122 163 211 259 315 381
#     4  10  19  36  63  91 119 155 206 267 323 373
#
# _framework density 21.356798000000001
#
# number of rings (size 3 to 8) (size 9 to 14) (size 15 to 20)
#    0.000    1.714    2.857    2.143    6.000    2.000 
#    0.000    2.857    0.000    3.857    0.000    0.000 
#    0.000    0.000    0.000    0.000    0.000    0.000 
#
# Total GULP energy -346987.018057 kJ/mol
# GULP energy per Si atom -12392.393502 kJ/mol
# Density = 2.130819 g / cm^3
# Si number density = 21.356798 Si / 1000 Ang^3
#
#
#
# Elastic Constant Matrix: (Units=GPa)
#
#
# Indices 1 2 3 4 5 6 
#
# 1 92.5489 19.7235 29.9252 0.0000 5.7780 0.0000
# 2 19.7235 101.2755 17.1079 0.0000 10.6821 0.0000
# 3 29.9252 17.1079 119.1606 0.0000 9.5484 0.0000
# 4 0.0000 0.0000 0.0000 10.2757 0.0000 -5.6241
# 5 5.7780 10.6821 9.5484 0.0000 35.9347 0.0000
# 6 0.0000 0.0000 0.0000 -5.6241 0.0000 15.6909
#
#
#
# Elastic Compliance Matrix: (Units=1/GPa)
#
#
# Indices 1 2 3 4 5 6 
#
# 1 0.012119 -0.001828 -0.002726 0.000000 -0.000681 0.000000
# 2 -0.001828 0.010654 -0.000859 0.000000 -0.002645 0.000000
# 3 -0.002726 -0.000859 0.009343 0.000000 -0.001789 0.000000
# 4 0.000000 0.000000 0.000000 0.121068 0.000000 0.043394
# 5 -0.000681 -0.002645 -0.001789 0.000000 0.029199 0.000000
# 6 0.000000 0.000000 0.000000 0.043394 0.000000 0.079285
#
#
# Mechanical properties :
#
#
# Convention : Reuss Voigt Hill
#
# Bulk Modulus (GPa) = 46.96947 49.61092 48.29019
# Shear Modulus (GPa) = 17.88329 28.79549 23.33939
#
# Velocity S-wave (km/s) = 2.89685 3.67591 3.30939
# Velocity P-wave (km/s) = 5.76450 6.42623 6.10434
#
# Compressibility (1/GPa) = 0.02129043
#
# Stress axis : x y z
#
# Youngs Moduli (GPa) = 82.51707 93.86100 107.02778
#
# Poissons Ratio (x) = 0.17156 0.29181
# Poissons Ratio (y) = 0.15082 0.09190
# Poissons Ratio (z) = 0.22498 0.08059
#
# Static dielectric constant tensor:
#      x y z
#    x 4.159150 0.000000 -0.177470 
#    y 0.000000 3.956000 0.000000 
#    z -0.177470 0.000000 3.955660 
# 
# 
# High freq. dielectric constant tensor:
#      x y z
#    x 1.834260 0.000000 -0.013820 
#    y 0.000000 1.820480 0.000000 
#    z -0.013820 0.000000 1.842820 
# 
# From -- ./inp_files/233674.got.cif
#   From: 2010.06.25/outbox.cif.g09.slc.cpg/sg12_117_cif.got.tgz:233674.got - 2010.06.28 00:19:55.
