data_PCOD8094473
_publ_section_title
;
Structure prediction by ZEFSAII (Michael W. Deem and Ramdas Pophale) SiO2 
 PCOD8094473
Probable space group: C 2/M
;
_chemical_formula_sum "Si O2"
_cell_formula_units_Z 40
_cell_length_a 19.093290
_cell_length_b 8.889630
_cell_length_c 24.800896
_cell_angle_alpha 90.000000
_cell_angle_beta 29.074696
_cell_angle_gamma 90.000000
_cell_volume 2045.610354
_symmetry_space_group_name_H-M "C 2/M"
_symmetry_group_IT_number 12
_symmetry_cell_setting 'monoclinic'
loop_
_space_group_symop_operation_xyz
x,y,z
-x,y,-z
-x,-y,-z
x,-y,z
1/2+x,1/2+y,z
1/2-x,1/2+y,-z
1/2-x,1/2-y,-z
1/2+x,1/2-y,z
loop_
_atom_site_type_symbol
_atom_site_label
_atom_site_fract_x
_atom_site_fract_y
_atom_site_fract_z
Si Si1 0.657613 0.668981 0.917912
Si Si2 0.671907 0.677107 0.717744
Si Si3 0.186147 0.322748 0.489554
Si Si4 0.873810 0.323559 0.951075
Si Si5 0.867014 0.321847 0.683299
O O1 0.701984 0.500000 0.906911
O O2 0.767269 0.732787 0.799536
O O3 0.500000 0.662822 0.000000
O O4 0.660876 0.785763 0.964056
O O5 0.645535 0.500000 0.743180
O O6 0.713348 0.717816 0.628760
O O7 0.526821 0.761497 0.829819
O O8 0.798895 0.733334 0.672458
O O9 0.178270 0.500000 0.504063
O O10 0.250000 0.250000 0.500000
O O11 0.027166 0.256066 0.584081
O O12 0.872273 0.500000 0.943429
O O13 0.750000 0.250000 0.000000
O O14 0.874903 0.500000 0.676534
#
# Coordination Sequence:
#
# PCOD8094473 Si02
#       5
#     8   8   8   8   8
#     4  10  19  37  64  92 122 156 195 242 298 362
#     4  10  20  40  64  87 116 157 207 248 293 355
#     4  10  22  38  60  89 120 156 200 249 298 353
#     4  12  26  41  60  88 124 160 200 249 302 360
#     4   9  18  36  63  89 117 156 200 241 289 352
#
# _framework density 19.554067
#
# number of rings (size 3 to 8) (size 9 to 14) (size 15 to 20)
#    0.000    1.800    2.000    2.400    2.800    3.600 
#    0.000    1.000    0.000    2.400    0.000    0.000 
#    0.000    0.000    0.000    0.000    0.000    0.000 
#
# Total GULP energy -248019.342468 kJ/mol
# GULP energy per Si atom -12400.967123 kJ/mol
# Density = 1.950956 g / cm^3
# Si number density = 19.554067 Si / 1000 Ang^3
#
#
#
# Elastic Constant Matrix: (Units=GPa)
#
#
# Indices 1 2 3 4 5 6 
#
# 1 170.8831 55.7723 77.8263 0.0000 1.9086 -0.0001
# 2 55.7723 67.7588 44.8874 -0.0002 4.0297 -0.0005
# 3 77.8263 44.8874 89.3280 -0.0014 10.9778 -0.0002
# 4 0.0000 -0.0002 -0.0014 21.5297 -0.0006 2.9709
# 5 1.9086 4.0297 10.9778 -0.0006 36.9811 0.0002
# 6 -0.0001 -0.0005 -0.0002 2.9709 0.0002 33.1785
#
#
#
# Elastic Compliance Matrix: (Units=1/GPa)
#
#
# Indices 1 2 3 4 5 6 
#
# 1 0.010470 -0.003791 -0.007474 0.000000 0.002091 0.000000
# 2 -0.003791 0.023526 -0.008539 0.000000 0.000167 0.000000
# 3 -0.007474 -0.008539 0.022662 0.000001 -0.005411 0.000000
# 4 0.000000 0.000000 0.000001 0.047028 0.000000 -0.004211
# 5 0.002091 0.000167 -0.005411 0.000000 0.028521 0.000000
# 6 0.000000 0.000000 0.000000 -0.004211 0.000000 0.030517
#
#
# Mechanical properties :
#
#
# Convention : Reuss Voigt Hill
#
# Bulk Modulus (GPa) = 58.65297 76.10465 67.37881
# Shear Modulus (GPa) = 24.03676 28.30347 26.17012
#
# Velocity S-wave (km/s) = 3.50986 3.80866 3.66231
# Velocity P-wave (km/s) = 6.81806 7.63844 7.23988
#
# Compressibility (1/GPa) = 0.01704944
#
# Stress axis : x y z
#
# Youngs Moduli (GPa) = 95.51435 42.50688 44.12667
#
# Poissons Ratio (x) = 0.16114 0.32979
# Poissons Ratio (y) = 0.36209 0.37681
# Poissons Ratio (z) = 0.71384 0.36298
#
# Static dielectric constant tensor:
#      x y z
#    x 3.737210 0.000000 -0.025710 
#    y 0.000000 3.372270 0.000000 
#    z -0.025710 0.000000 3.812050 
# 
# 
# High freq. dielectric constant tensor:
#      x y z
#    x 1.775450 0.000000 0.001530 
#    y 0.000000 1.728110 0.000000 
#    z 0.001530 0.000000 1.778860 
# 
# From -- ./inp_files/151840.got.cif
#   From: 2010.06.25/outbox.cif.g09.slc.cpg/sg12_76_cif.got.tgz:151840.got - 2010.06.28 00:19:55.
