data_PCOD8094955
_publ_section_title
;
Structure prediction by ZEFSAII (Michael W. Deem and Ramdas Pophale) SiO2 
 PCOD8094955
Probable space group: C 2/M
;
_chemical_formula_sum "Si O2"
_cell_formula_units_Z 64
_cell_length_a 27.960496
_cell_length_b 8.811157
_cell_length_c 20.685769
_cell_angle_alpha 90.000000
_cell_angle_beta 53.435146
_cell_angle_gamma 90.000000
_cell_volume 4093.209937
_symmetry_space_group_name_H-M "C 2/M"
_symmetry_group_IT_number 12
_symmetry_cell_setting 'monoclinic'
loop_
_space_group_symop_operation_xyz
x,y,z
-x,y,-z
-x,-y,-z
x,-y,z
1/2+x,1/2+y,z
1/2-x,1/2+y,-z
1/2-x,1/2-y,-z
1/2+x,1/2-y,z
loop_
_atom_site_type_symbol
_atom_site_label
_atom_site_fract_x
_atom_site_fract_y
_atom_site_fract_z
Si Si1 0.989324 0.822192 0.856955
Si Si2 0.362980 0.318241 0.766225
Si Si3 0.119475 0.679173 0.981859
Si Si4 0.056874 0.667029 0.908727
Si Si5 0.536457 0.671397 0.568595
Si Si6 0.519707 0.178718 0.270997
Si Si7 0.246023 0.321026 0.933312
Si Si8 0.910662 0.169016 0.599783
O O1 0.002690 0.736045 0.779949
O O2 0.044213 0.784201 0.861092
O O3 0.987170 0.000000 0.845982
O O4 0.926355 0.769063 0.936243
O O5 0.369315 0.500000 0.761606
O O6 0.416357 0.252076 0.765895
O O7 0.300947 0.262036 0.845939
O O8 0.365769 0.256375 0.688902
O O9 0.108900 0.500000 0.001524
O O10 0.110513 0.720609 0.912930
O O11 0.185524 0.731389 0.947422
O O12 0.070389 0.500000 0.868445
O O13 0.000000 0.656030 0.000000
O O14 0.555730 0.500000 0.572616
O O15 0.531532 0.775149 0.636071
O O16 0.472978 0.664392 0.586134
O O17 0.582072 0.745065 0.477687
O O18 0.527279 0.000000 0.264781
O O19 0.248591 0.500000 0.938901
O O20 0.250000 0.250000 0.000000
O O21 0.888583 0.000000 0.602355
#
# Coordination Sequence:
#
# PCOD8094955 Si02
#       8
#     8   8   8   8   8   8   8   8
#     4  11  20  29  43  62  82 106 138 172 205 246
#     4   9  17  30  44  59  80 110 146 176 201 234
#     4   9  18  32  46  61  83 110 138 170 209 245
#     4   8  15  29  46  61  80 105 131 164 208 252
#     4   8  13  24  40  57  77 104 135 165 200 242
#     4  11  20  28  39  58  85 113 138 167 206 248
#     4  10  20  31  44  61  83 112 145 176 202 233
#     4   7  11  22  41  58  75 102 135 169 202 236
#
# _framework density 15.63565
#
# number of rings (size 3 to 8) (size 9 to 14) (size 15 to 20)
#    0.000    2.875    0.000    5.250    0.000    5.250 
#    0.000    5.000    0.000    0.000    0.000    0.000 
#    0.000    1.000    0.000    1.750    0.000    2.750 
#
# Total GULP energy -396420.190702 kJ/mol
# GULP energy per Si atom -12388.130959 kJ/mol
# Density = 1.560006 g / cm^3
# Si number density = 15.635650 Si / 1000 Ang^3
#
#
#
# Elastic Constant Matrix: (Units=GPa)
#
#
# Indices 1 2 3 4 5 6 
#
# 1 84.8629 18.1728 48.3111 -0.0019 11.1686 0.0000
# 2 18.1728 48.1750 29.1227 0.0020 5.9622 -0.0020
# 3 48.3111 29.1227 129.1887 -0.0022 13.0746 0.0005
# 4 -0.0019 0.0020 -0.0022 17.1933 0.0012 6.0576
# 5 11.1686 5.9622 13.0746 0.0012 16.0912 -0.0004
# 6 0.0000 -0.0020 0.0005 6.0576 -0.0004 16.6867
#
#
#
# Elastic Compliance Matrix: (Units=1/GPa)
#
#
# Indices 1 2 3 4 5 6 
#
# 1 0.015811 -0.002314 -0.004758 0.000002 -0.006250 -0.000001
# 2 -0.002314 0.024732 -0.004299 -0.000005 -0.004065 0.000005
# 3 -0.004758 -0.004299 0.010889 0.000002 -0.003952 -0.000002
# 4 0.000002 -0.000005 0.000002 0.066692 -0.000007 -0.024210
# 5 -0.006250 -0.004065 -0.003952 -0.000007 0.071202 0.000004
# 6 -0.000001 0.000005 -0.000002 -0.024210 0.000004 0.068717
#
#
# Mechanical properties :
#
#
# Convention : Reuss Voigt Hill
#
# Bulk Modulus (GPa) = 34.85543 50.38221 42.61882
# Shear Modulus (GPa) = 17.22074 21.10224 19.16149
#
# Velocity S-wave (km/s) = 3.32230 3.67771 3.50451
# Velocity P-wave (km/s) = 6.08749 7.09413 6.61000
#
# Compressibility (1/GPa) = 0.02868994
#
# Stress axis : x y z
#
# Youngs Moduli (GPa) = 63.24841 40.43305 91.83566
#
# Poissons Ratio (x) = 0.09357 0.43698
# Poissons Ratio (y) = 0.14637 0.39476
# Poissons Ratio (z) = 0.30095 0.17380
#
# Static dielectric constant tensor:
#      x y z
#    x 7.657180 -0.000010 4.353040 
#    y -0.000010 2.847700 0.000000 
#    z 4.353040 0.000000 7.215760 
# 
# 
# High freq. dielectric constant tensor:
#      x y z
#    x 1.561230 0.000000 0.023320 
#    y 0.000000 1.585160 0.000000 
#    z 0.023320 0.000000 1.599350 
# 
# From -- ./inp_files/326570.got.cif
#   From: 2010.06.25/outbox.cif.g09.slc.cpg/sg12_164_cif.got.tgz:326570.got - 2010.06.28 00:19:55.
