data_PCOD8094008
_publ_section_title
;
Structure prediction by ZEFSAII (Michael W. Deem and Ramdas Pophale) SiO2 
 PCOD8094008
Probable space group: C 2/M
;
_chemical_formula_sum "Si O2"
_cell_formula_units_Z 64
_cell_length_a 20.075814
_cell_length_b 14.551781
_cell_length_c 12.163330
_cell_angle_alpha 90.000000
_cell_angle_beta 112.889482
_cell_angle_gamma 90.000000
_cell_volume 3273.576696
_symmetry_space_group_name_H-M "C 2/M"
_symmetry_group_IT_number 12
_symmetry_cell_setting 'monoclinic'
loop_
_space_group_symop_operation_xyz
x,y,z
-x,y,-z
-x,-y,-z
x,-y,z
1/2+x,1/2+y,z
1/2-x,1/2+y,-z
1/2-x,1/2-y,-z
1/2+x,1/2-y,z
loop_
_atom_site_type_symbol
_atom_site_label
_atom_site_fract_x
_atom_site_fract_y
_atom_site_fract_z
Si Si1 0.402575 0.215835 0.114957
Si Si2 0.839066 0.104052 0.761010
Si Si3 0.710116 0.395935 0.707660
Si Si4 0.213360 0.397320 0.850239
Si Si5 0.178736 0.807629 0.465402
Si Si6 0.066703 0.737156 0.243005
Si Si7 0.866950 0.391214 0.876278
Si Si8 0.663651 0.400360 0.913400
O O1 0.352664 0.175178 0.182453
O O2 0.482014 0.234346 0.213226
O O3 0.377161 0.316103 0.056612
O O4 0.399060 0.147819 0.010163
O O5 0.771667 0.133282 0.795588
O O6 0.813883 0.108310 0.617106
O O7 0.905941 0.176771 0.817321
O O8 0.863866 0.000000 0.805715
O O9 0.722324 0.500000 0.675953
O O10 0.670910 0.341586 0.584846
O O11 0.787063 0.353611 0.794148
O O12 0.657314 0.391175 0.778147
O O13 0.183742 0.500000 0.804774
O O14 0.252497 0.397586 0.994755
O O15 0.250000 0.750000 0.500000
O O16 0.109094 0.744968 0.387082
O O17 0.082939 0.641900 0.191542
O O18 0.869375 0.500000 0.887669
O O19 0.630937 0.500000 0.929175
#
# Coordination Sequence:
#
# PCOD8094008 Si02
#       8
#     8   8   8   8   8   8   8   8
#     4  12  23  36  59  88 131 160 196 252 322 378
#     4   9  20  38  63  90 118 161 212 257 304 368
#     4  10  19  36  61  90 115 152 210 261 298 349
#     4  10  20  36  60  89 120 157 205 252 310 376
#     4  10  20  36  63  85 120 159 213 260 296 363
#     4  10  24  38  55  92 121 165 204 251 315 372
#     4  11  22  38  61  90 123 162 206 254 312 373
#     4  10  22  36  58  91 121 160 205 251 308 370
#
# _framework density 19.550481999999999
#
# number of rings (size 3 to 8) (size 9 to 14) (size 15 to 20)
#    0.750    1.000    2.500    2.250    3.500    2.000 
#    0.000    0.625    0.000    5.250    0.000    1.750 
#    0.000    0.000    0.000    0.000    0.000    0.000 
#
# Total GULP energy -396506.553793 kJ/mol
# GULP energy per Si atom -12390.829806 kJ/mol
# Density = 1.950598 g / cm^3
# Si number density = 19.550482 Si / 1000 Ang^3
#
#
#
# Elastic Constant Matrix: (Units=GPa)
#
#
# Indices 1 2 3 4 5 6 
#
# 1 92.9910 45.0164 35.1194 0.0000 17.7701 0.0000
# 2 45.0164 106.9071 28.3454 0.0000 8.8035 0.0000
# 3 35.1194 28.3454 103.6181 0.0000 2.7570 0.0000
# 4 0.0000 0.0000 0.0000 29.3840 0.0000 -3.7140
# 5 17.7701 8.8035 2.7570 0.0000 31.4665 0.0000
# 6 0.0000 0.0000 0.0000 -3.7140 0.0000 17.2360
#
#
#
# Elastic Compliance Matrix: (Units=1/GPa)
#
#
# Indices 1 2 3 4 5 6 
#
# 1 0.016103 -0.005157 -0.003852 0.000000 -0.007313 0.000000
# 2 -0.005157 0.011951 -0.001514 0.000000 -0.000299 0.000000
# 3 -0.003852 -0.001514 0.011328 0.000000 0.001607 0.000000
# 4 0.000000 0.000000 0.000000 0.034985 0.000000 0.007538
# 5 -0.007313 -0.000299 0.001607 0.000000 0.035853 0.000000
# 6 0.000000 0.000000 0.000000 0.007538 0.000000 0.059642
#
#
# Mechanical properties :
#
#
# Convention : Reuss Voigt Hill
#
# Bulk Modulus (GPa) = 54.53732 57.83096 56.18414
# Shear Modulus (GPa) = 25.37823 28.61964 26.99894
#
# Velocity S-wave (km/s) = 3.60681 3.83022 3.72019
# Velocity P-wave (km/s) = 6.73065 7.01465 6.87412
#
# Compressibility (1/GPa) = 0.01833607
#
# Stress axis : x y z
#
# Youngs Moduli (GPa) = 62.10195 83.67319 88.27816
#
# Poissons Ratio (x) = 0.43149 0.34008
# Poissons Ratio (y) = 0.32025 0.13362
# Poissons Ratio (z) = 0.23924 0.12665
#
# Static dielectric constant tensor:
#      x y z
#    x 3.318870 0.000000 -0.119530 
#    y 0.000000 3.806750 0.000000 
#    z -0.119530 0.000000 3.598760 
# 
# 
# High freq. dielectric constant tensor:
#      x y z
#    x 1.730610 0.000000 -0.010190 
#    y 0.000000 1.771860 0.000000 
#    z -0.010190 0.000000 1.746390 
# 
# From -- ./inp_files/167321.got.cif
#   From: 2010.06.25/outbox.cif.g09.slc.cpg/sg12_84_cif.got.tgz:167321.got - 2010.06.28 00:19:55.
