data_PCOD8094573
_publ_section_title
;
Structure prediction by ZEFSAII (Michael W. Deem and Ramdas Pophale) SiO2 
 PCOD8094573
Probable space group: C 2/M
;
_chemical_formula_sum "Si O2"
_cell_formula_units_Z 64
_cell_length_a 9.352194
_cell_length_b 18.680918
_cell_length_c 30.171080
_cell_angle_alpha 90.000000
_cell_angle_beta 142.441341
_cell_angle_gamma 90.000000
_cell_volume 3213.131811
_symmetry_space_group_name_H-M "C 2/M"
_symmetry_group_IT_number 12
_symmetry_cell_setting 'monoclinic'
loop_
_space_group_symop_operation_xyz
x,y,z
-x,y,-z
-x,-y,-z
x,-y,z
1/2+x,1/2+y,z
1/2-x,1/2+y,-z
1/2-x,1/2-y,-z
1/2+x,1/2-y,z
loop_
_atom_site_type_symbol
_atom_site_label
_atom_site_fract_x
_atom_site_fract_y
_atom_site_fract_z
Si Si1 0.230143 0.810834 0.082879
Si Si2 0.349774 0.222540 0.699298
Si Si3 0.336518 0.420338 0.303235
Si Si4 0.512010 0.789048 0.451425
Si Si5 0.089406 0.419836 0.150908
Si Si6 0.449661 0.362501 0.773357
Si Si7 0.693655 0.078281 0.632692
Si Si8 0.865986 0.803374 0.837152
O O1 0.330480 0.884512 0.086712
O O2 0.162565 0.820290 0.118052
O O3 0.429346 0.752336 0.123903
O O4 0.000000 0.787254 0.000000
O O5 0.247771 0.144653 0.686883
O O6 0.211589 0.244549 0.620869
O O7 0.338098 0.284346 0.733876
O O8 0.623141 0.221065 0.755424
O O9 0.329571 0.500000 0.324608
O O10 0.160718 0.423079 0.219278
O O11 0.599343 0.403807 0.351264
O O12 0.500000 0.802722 0.500000
O O13 0.514393 0.865597 0.426763
O O14 0.750000 0.750000 0.500000
O O15 0.077799 0.500000 0.127584
O O16 0.273105 0.370250 0.169260
O O17 0.301851 0.420304 0.709009
O O18 0.427805 0.372867 0.821438
O O19 0.587524 0.000000 0.598778
#
# Coordination Sequence:
#
# PCOD8094573 Si02
#       8
#     8   8   8   8   8   8   8   8
#     4  12  24  39  59  92 129 162 204 255 315 375
#     4  11  21  35  65  84 125 154 205 258 297 365
#     4   9  17  34  61  93 116 151 204 259 306 358
#     4  11  25  38  59  91 124 161 204 247 308 361
#     4  10  19  38  60  85 122 160 203 257 313 371
#     4  10  20  34  62  93 116 151 208 262 306 352
#     4   9  20  38  64  90 122 160 205 256 308 363
#     4  12  22  38  64  91 119 160 210 256 310 360
#
# _framework density 19.918261999999999
#
# number of rings (size 3 to 8) (size 9 to 14) (size 15 to 20)
#    0.000    1.500    3.750    2.250    7.000    0.500 
#    0.000    3.125    0.000    1.500    0.000    0.000 
#    0.000    0.000    0.000    0.000    0.000    0.000 
#
# Total GULP energy -396440.157537 kJ/mol
# GULP energy per Si atom -12388.754923 kJ/mol
# Density = 1.987293 g / cm^3
# Si number density = 19.918262 Si / 1000 Ang^3
#
#
#
# Elastic Constant Matrix: (Units=GPa)
#
#
# Indices 1 2 3 4 5 6 
#
# 1 101.2023 40.3388 58.4558 -0.0015 -10.5733 -0.0014
# 2 40.3388 121.6645 43.1580 -0.0005 7.1183 -0.0004
# 3 58.4558 43.1580 115.0833 -0.0012 9.1696 -0.0015
# 4 -0.0015 -0.0005 -0.0012 18.7182 -0.0012 3.5703
# 5 -10.5733 7.1183 9.1696 -0.0012 23.7498 -0.0014
# 6 -0.0014 -0.0004 -0.0015 3.5703 -0.0014 27.0235
#
#
#
# Elastic Compliance Matrix: (Units=1/GPa)
#
#
# Indices 1 2 3 4 5 6 
#
# 1 0.017456 -0.003470 -0.008530 0.000001 0.012105 0.000001
# 2 -0.003470 0.010223 -0.001758 0.000000 -0.003930 0.000000
# 3 -0.008530 -0.001758 0.014384 0.000000 -0.008824 0.000000
# 4 0.000001 0.000000 0.000000 0.054805 0.000003 -0.007241
# 5 0.012105 -0.003930 -0.008824 0.000003 0.052079 0.000002
# 6 0.000001 0.000000 0.000000 -0.007241 0.000002 0.037962
#
#
# Mechanical properties :
#
#
# Convention : Reuss Voigt Hill
#
# Bulk Modulus (GPa) = 68.73918 69.09504 68.91711
# Shear Modulus (GPa) = 22.80239 26.96479 24.88359
#
# Velocity S-wave (km/s) = 3.38716 3.68336 3.53836
# Velocity P-wave (km/s) = 7.06277 7.27008 7.16717
#
# Compressibility (1/GPa) = 0.01454775
#
# Stress axis : x y z
#
# Youngs Moduli (GPa) = 57.28714 97.81398 69.51956
#
# Poissons Ratio (x) = 0.33942 0.59299
# Poissons Ratio (y) = 0.19879 0.12223
# Poissons Ratio (z) = 0.48865 0.17198
#
# Static dielectric constant tensor:
#      x y z
#    x 3.551780 0.000000 0.052270 
#    y 0.000000 3.914450 0.000000 
#    z 0.052270 0.000000 3.636320 
# 
# 
# High freq. dielectric constant tensor:
#      x y z
#    x 1.766330 0.000000 0.007500 
#    y 0.000000 1.772750 0.000000 
#    z 0.007500 0.000000 1.763480 
# 
# From -- ./inp_files/372982.got.cif
#   From: 2010.06.25/outbox.cif.g09.slc.cpg/sg12_187_cif.got.tgz:372982.got - 2010.06.28 00:19:55.
