data_PCOD8094245
_publ_section_title
;
Structure prediction by ZEFSAII (Michael W. Deem and Ramdas Pophale) SiO2 
 PCOD8094245
Probable space group: C 2/M
;
_chemical_formula_sum "Si O2"
_cell_formula_units_Z 56
_cell_length_a 29.913363
_cell_length_b 8.826564
_cell_length_c 16.689542
_cell_angle_alpha 90.000000
_cell_angle_beta 133.409240
_cell_angle_gamma 90.000000
_cell_volume 3201.218707
_symmetry_space_group_name_H-M "C 2/M"
_symmetry_group_IT_number 12
_symmetry_cell_setting 'monoclinic'
loop_
_space_group_symop_operation_xyz
x,y,z
-x,y,-z
-x,-y,-z
x,-y,z
1/2+x,1/2+y,z
1/2-x,1/2+y,-z
1/2-x,1/2-y,-z
1/2+x,1/2-y,z
loop_
_atom_site_type_symbol
_atom_site_label
_atom_site_fract_x
_atom_site_fract_y
_atom_site_fract_z
Si Si1 0.494194 0.177566 0.208850
Si Si2 0.372626 0.679752 0.632141
Si Si3 0.596125 0.675789 0.585172
Si Si4 0.028148 0.176223 0.659605
Si Si5 0.830316 0.178831 0.751020
Si Si6 0.192459 0.677955 0.598990
Si Si7 0.555179 0.677346 0.007035
O O1 0.557700 0.266923 0.286343
O O2 0.458184 0.222294 0.245818
O O3 0.452896 0.226745 0.083233
O O4 0.506785 0.000000 0.221987
O O5 0.372488 0.500000 0.627741
O O6 0.342569 0.742951 0.676991
O O7 0.333236 0.741287 0.510717
O O8 0.613149 0.500000 0.599822
O O9 0.578340 0.719119 0.654022
O O10 0.539772 0.713407 0.456845
O O11 0.654957 0.773653 0.631709
O O12 0.033221 0.000000 0.688132
O O13 0.763113 0.229010 0.698430
O O14 0.836956 0.000000 0.754703
O O15 0.881788 0.238964 0.875874
O O16 0.187022 0.500000 0.579154
O O17 0.557920 0.500000 0.988742
O O18 0.500000 0.710791 0.000000
#
# Coordination Sequence:
#
# PCOD8094245 Si02
#       7
#     8   8   8   8   8   8   8
#     4  12  23  33  51  83 114 135 167 224 278 309
#     4  11  20  35  54  74 105 148 186 210 247 316
#     4   9  18  33  54  78 104 138 178 212 253 315
#     4   9  18  34  55  77 103 138 178 215 254 314
#     4   9  20  36  54  76 104 142 185 218 254 308
#     4  11  21  33  51  81 114 139 169 218 270 311
#     4  10  19  37  60  75  97 143 189 219 252 308
#
# _framework density 17.493338000000001
#
# number of rings (size 3 to 8) (size 9 to 14) (size 15 to 20)
#    0.000    1.857    2.857    3.429    0.000    0.857 
#    0.000    5.000    0.000    0.857    0.000    0.000 
#    0.000    0.000    0.000    0.000    0.000    0.000 
#
# Total GULP energy -347244.547725 kJ/mol
# GULP energy per Si atom -12401.590990 kJ/mol
# Density = 1.745352 g / cm^3
# Si number density = 17.493338 Si / 1000 Ang^3
#
#
#
# Elastic Constant Matrix: (Units=GPa)
#
#
# Indices 1 2 3 4 5 6 
#
# 1 123.6972 44.6801 72.2630 0.0000 -3.2623 0.0000
# 2 44.6801 64.2788 37.2966 0.0000 -2.5320 0.0000
# 3 72.2630 37.2966 106.8344 0.0000 4.8914 0.0000
# 4 0.0000 0.0000 0.0000 21.3624 0.0000 0.0353
# 5 -3.2623 -2.5320 4.8914 0.0000 30.4837 0.0000
# 6 0.0000 0.0000 0.0000 0.0353 0.0000 20.5384
#
#
#
# Elastic Compliance Matrix: (Units=1/GPa)
#
#
# Indices 1 2 3 4 5 6 
#
# 1 0.015012 -0.005491 -0.008351 0.000000 0.002491 0.000000
# 2 -0.005491 0.021746 -0.003962 0.000000 0.001854 0.000000
# 3 -0.008351 -0.003962 0.016570 0.000000 -0.003882 0.000000
# 4 0.000000 0.000000 0.000000 0.046811 0.000000 -0.000081
# 5 0.002491 0.001854 -0.003882 0.000000 0.033848 0.000000
# 6 0.000000 0.000000 0.000000 -0.000081 0.000000 0.048689
#
#
# Mechanical properties :
#
#
# Convention : Reuss Voigt Hill
#
# Bulk Modulus (GPa) = 56.43711 67.03219 61.73465
# Shear Modulus (GPa) = 22.30219 23.84828 23.07523
#
# Velocity S-wave (km/s) = 3.57444 3.69626 3.63586
# Velocity P-wave (km/s) = 7.02621 7.52452 7.27963
#
# Compressibility (1/GPa) = 0.01771884
#
# Stress axis : x y z
#
# Youngs Moduli (GPa) = 66.61286 45.98482 60.34948
#
# Poissons Ratio (x) = 0.25251 0.50399
# Poissons Ratio (y) = 0.36578 0.23913
# Poissons Ratio (z) = 0.55630 0.18221
#
# Static dielectric constant tensor:
#      x y z
#    x 3.396730 0.000000 -0.059460 
#    y 0.000000 3.095710 0.000000 
#    z -0.059460 0.000000 3.426420 
# 
# 
# High freq. dielectric constant tensor:
#      x y z
#    x 1.677730 0.000000 -0.010860 
#    y 0.000000 1.665160 0.000000 
#    z -0.010860 0.000000 1.663170 
# 
# From -- ./inp_files/249307.got.cif
#   From: 2010.06.25/outbox.cif.g09.slc.cpg/sg12_125_cif.got.tgz:249307.got - 2010.06.28 00:19:55.
