data_PCOD8094135
_publ_section_title
;
Structure prediction by ZEFSAII (Michael W. Deem and Ramdas Pophale) SiO2 
 PCOD8094135
Probable space group: C 2/M
;
_chemical_formula_sum "Si O2"
_cell_formula_units_Z 40
_cell_length_a 17.575614
_cell_length_b 16.841213
_cell_length_c 12.882967
_cell_angle_alpha 90.000000
_cell_angle_beta 29.185700
_cell_angle_gamma 90.000000
_cell_volume 1859.519236
_symmetry_space_group_name_H-M "C 2/M"
_symmetry_group_IT_number 12
_symmetry_cell_setting 'monoclinic'
loop_
_space_group_symop_operation_xyz
x,y,z
-x,y,-z
-x,-y,-z
x,-y,z
1/2+x,1/2+y,z
1/2-x,1/2+y,-z
1/2-x,1/2-y,-z
1/2+x,1/2-y,z
loop_
_atom_site_type_symbol
_atom_site_label
_atom_site_fract_x
_atom_site_fract_y
_atom_site_fract_z
Si Si1 0.640077 0.837691 0.774952
Si Si2 0.522843 0.653881 0.594275
Si Si3 0.169556 0.164183 0.822748
Si Si4 0.950189 0.671285 0.352283
Si Si5 0.242417 0.090525 0.951598
O O1 0.806293 0.882244 0.579662
O O2 0.662519 0.758668 0.817542
O O3 0.595796 0.814623 0.711485
O O4 0.500000 0.886287 0.000000
O O5 0.500000 0.648125 0.500000
O O6 0.504695 0.744436 0.652663
O O7 0.395200 0.599910 0.801798
O O8 0.303661 0.130728 0.586424
O O9 0.215711 0.147188 0.885595
O O10 0.000000 0.125376 0.000000
O O11 0.095386 0.612287 0.186490
O O12 0.249158 0.000000 0.905547
#
# Coordination Sequence:
#
# PCOD8094135 Si02
#       5
#     8   8   8   8   8
#     4  10  19  36  64  95 121 149 199 261 310 354
#     4  11  21  38  64  90 118 158 209 260 303 354
#     4  10  20  38  61  90 123 154 197 251 307 361
#     4  11  21  38  64  93 123 157 206 258 305 359
#     4  12  26  41  59  89 131 170 202 244 304 373
#
# _framework density 21.510936000000001
#
# number of rings (size 3 to 8) (size 9 to 14) (size 15 to 20)
#    0.000    1.200    0.000   10.800    0.000    2.400 
#    0.000    3.000    0.000    2.400    0.000    0.000 
#    0.000    0.000    0.000    0.000    0.000    0.000 
#
# Total GULP energy -248006.221081 kJ/mol
# GULP energy per Si atom -12400.311054 kJ/mol
# Density = 2.146198 g / cm^3
# Si number density = 21.510936 Si / 1000 Ang^3
#
#
#
# Elastic Constant Matrix: (Units=GPa)
#
#
# Indices 1 2 3 4 5 6 
#
# 1 124.4871 25.8090 48.0388 0.0022 2.0162 -0.0021
# 2 25.8090 42.2369 17.9637 0.0012 -4.7502 -0.0012
# 3 48.0388 17.9637 180.0283 0.0015 -25.2176 -0.0018
# 4 0.0022 0.0012 0.0015 3.1713 -0.0015 2.3186
# 5 2.0162 -4.7502 -25.2176 -0.0015 55.3727 0.0016
# 6 -0.0021 -0.0012 -0.0018 2.3186 0.0016 9.7122
#
#
#
# Elastic Compliance Matrix: (Units=1/GPa)
#
#
# Indices 1 2 3 4 5 6 
#
# 1 0.010116 -0.005364 -0.002436 -0.000007 -0.001938 0.000003
# 2 -0.005364 0.027628 -0.001032 -0.000008 0.002095 0.000004
# 3 -0.002436 -0.001032 0.006737 0.000000 0.003068 0.000000
# 4 -0.000007 -0.000008 0.000000 0.382001 0.000013 -0.091196
# 5 -0.001938 0.002095 0.003068 0.000013 0.019707 -0.000006
# 6 0.000003 0.000004 0.000000 -0.091196 -0.000006 0.124735
#
#
# Mechanical properties :
#
#
# Convention : Reuss Voigt Hill
#
# Bulk Modulus (GPa) = 37.28686 58.93058 48.10872
# Shear Modulus (GPa) = 8.36783 30.64730 19.50757
#
# Velocity S-wave (km/s) = 1.97446 3.77866 3.01469
# Velocity P-wave (km/s) = 4.75074 6.81856 5.87632
#
# Compressibility (1/GPa) = 0.02681910
#
# Stress axis : x y z
#
# Youngs Moduli (GPa) = 98.85097 36.19511 148.42492
#
# Poissons Ratio (x) = 0.19414 0.36151
# Poissons Ratio (y) = 0.53020 0.15318
# Poissons Ratio (z) = 0.24077 0.03736
#
# Static dielectric constant tensor:
#      x y z
#    x 3.980780 0.000000 -0.404370 
#    y 0.000000 3.228250 0.000000 
#    z -0.404370 0.000000 4.871510 
# 
# 
# High freq. dielectric constant tensor:
#      x y z
#    x 1.861250 0.000000 -0.007540 
#    y 0.000000 1.779460 0.000000 
#    z -0.007540 0.000000 1.881300 
# 
# From -- ./inp_files/63151.got.cif
#   From: 2010.06.25/outbox.cif.g09.slc.cpg/sg12_32_cif.got.tgz:63151.got - 2010.06.28 00:19:55.
