data_PCOD8094767
_publ_section_title
;
Structure prediction by ZEFSAII (Michael W. Deem and Ramdas Pophale) SiO2 
 PCOD8094767
Probable space group: C 2/M
;
_chemical_formula_sum "Si O2"
_cell_formula_units_Z 56
_cell_length_a 16.464679
_cell_length_b 22.468465
_cell_length_c 9.805142
_cell_angle_alpha 90.000000
_cell_angle_beta 50.669543
_cell_angle_gamma 90.000000
_cell_volume 2805.710078
_symmetry_space_group_name_H-M "C 2/M"
_symmetry_group_IT_number 12
_symmetry_cell_setting 'monoclinic'
loop_
_space_group_symop_operation_xyz
x,y,z
-x,y,-z
-x,-y,-z
x,-y,z
1/2+x,1/2+y,z
1/2-x,1/2+y,-z
1/2-x,1/2-y,-z
1/2+x,1/2-y,z
loop_
_atom_site_type_symbol
_atom_site_label
_atom_site_fract_x
_atom_site_fract_y
_atom_site_fract_z
Si Si1 0.447439 0.065932 0.909920
Si Si2 0.266510 0.147518 0.184512
Si Si3 0.011589 0.137137 0.839152
Si Si4 0.417148 0.566859 0.706122
Si Si5 0.957807 0.346367 0.392031
Si Si6 0.242269 0.179660 0.517960
Si Si7 0.566577 0.763964 0.064681
O O1 0.517068 0.093768 0.716366
O O2 0.425092 0.000000 0.884634
O O3 0.500000 0.069543 0.000000
O O4 0.337940 0.097593 0.042525
O O5 0.154849 0.124782 0.248369
O O6 0.264290 0.148498 0.349877
O O7 0.313432 0.211010 0.080093
O O8 0.129256 0.160594 0.691930
O O9 0.980763 0.083726 0.773595
O O10 0.931129 0.193261 0.916296
O O11 0.000000 0.108578 0.000000
O O12 0.500000 0.561606 0.500000
O O13 0.365092 0.500000 0.778271
O O14 0.831503 0.340626 0.530035
O O15 0.000000 0.348879 0.500000
O O16 0.010309 0.291052 0.257256
O O17 0.250000 0.250000 0.500000
O O18 0.500000 0.782439 0.000000
#
# Coordination Sequence:
#
# PCOD8094767 Si02
#       7
#     8   8   8   8   8   8   8
#     4  10  20  38  65  90 122 167 218 267 311 373
#     4  11  20  39  68  91 123 173 220 257 318 381
#     4  11  24  41  64  94 131 170 213 265 338 378
#     4  11  25  43  64  93 127 167 229 279 298 371
#     4  11  22  36  60  98 136 163 207 260 328 382
#     4  12  21  39  64  91 129 173 207 255 318 398
#     4  10  19  39  63  93 128 167 211 264 311 396
#
# _framework density 19.959296999999999
#
# number of rings (size 3 to 8) (size 9 to 14) (size 15 to 20)
#    0.000    1.143    5.714    2.143    0.000    5.143 
#    0.000    0.714    0.000    0.000    0.000    0.000 
#    0.000    0.000    0.000    0.000    0.000    0.000 
#
# Total GULP energy -346991.691270 kJ/mol
# GULP energy per Si atom -12392.560402 kJ/mol
# Density = 1.991387 g / cm^3
# Si number density = 19.959297 Si / 1000 Ang^3
#
#
#
# Elastic Constant Matrix: (Units=GPa)
#
#
# Indices 1 2 3 4 5 6 
#
# 1 103.6936 41.1367 49.0806 0.0000 2.9299 0.0000
# 2 41.1367 95.5790 39.9732 0.0000 8.9937 0.0000
# 3 49.0806 39.9732 101.0076 0.0000 11.1962 0.0000
# 4 0.0000 0.0000 0.0000 -77.2643 0.0000 -179.3925
# 5 2.9299 8.9937 11.1962 0.0000 35.0694 0.0000
# 6 0.0000 0.0000 0.0000 -179.3925 0.0000 -313.4462
#
#
#
# Elastic Compliance Matrix: (Units=1/GPa)
#
#
# Indices 1 2 3 4 5 6 
#
# 1 0.013603 -0.003790 -0.005278 0.000000 0.001521 0.000000
# 2 -0.003790 0.013691 -0.003341 0.000000 -0.002128 0.000000
# 3 -0.005278 -0.003341 0.014144 0.000000 -0.003218 0.000000
# 4 0.000000 0.000000 0.000000 0.039361 0.000000 -0.022527
# 5 0.001521 -0.002128 -0.003218 0.000000 0.029961 0.000000
# 6 0.000000 0.000000 0.000000 -0.022527 0.000000 0.009702
#
#
# Mechanical properties :
#
#
# Convention : Reuss Voigt Hill
#
# Bulk Modulus (GPa) = 60.17058 62.29568 61.23313
# Shear Modulus (GPa) = 33.15217 -59.78890 -13.31836
#
# Velocity S-wave (km/s) = 4.07994 -5.47909 -2.58597
# Velocity P-wave (km/s) = 7.23925 2.95773 4.67218
#
# Compressibility (1/GPa) = 0.01661942
#
# Stress axis : x y z
#
# Youngs Moduli (GPa) = 73.51418 73.03974 70.70243
#
# Poissons Ratio (x) = 0.27683 0.37319
# Poissons Ratio (y) = 0.27863 0.23619
# Poissons Ratio (z) = 0.38804 0.24400
#
# Static dielectric constant tensor:
#      x y z
#    x 3.588700 0.000000 -0.101170 
#    y 0.000000 3.872720 0.000000 
#    z -0.101170 0.000000 3.778750 
# 
# 
# High freq. dielectric constant tensor:
#      x y z
#    x 1.768200 0.000000 -0.003480 
#    y 0.000000 1.773760 0.000000 
#    z -0.003480 0.000000 1.786820 
# 
# From -- ./inp_files/79045.got.cif
#   From: 2010.06.25/outbox.cif.g09.slc.cpg/sg12_40_cif.got.tgz:79045.got - 2010.06.28 00:19:55.
