data_PCOD8094125
_publ_section_title
;
Structure prediction by ZEFSAII (Michael W. Deem and Ramdas Pophale) SiO2 
 PCOD8094125
Probable space group: C 2/M
;
_chemical_formula_sum "Si O2"
_cell_formula_units_Z 64
_cell_length_a 22.163162
_cell_length_b 13.261883
_cell_length_c 30.497931
_cell_angle_alpha 90.000000
_cell_angle_beta 159.690607
_cell_angle_gamma 90.000000
_cell_volume 3111.348403
_symmetry_space_group_name_H-M "C 2/M"
_symmetry_group_IT_number 12
_symmetry_cell_setting 'monoclinic'
loop_
_space_group_symop_operation_xyz
x,y,z
-x,y,-z
-x,-y,-z
x,-y,z
1/2+x,1/2+y,z
1/2-x,1/2+y,-z
1/2-x,1/2-y,-z
1/2+x,1/2-y,z
loop_
_atom_site_type_symbol
_atom_site_label
_atom_site_fract_x
_atom_site_fract_y
_atom_site_fract_z
Si Si1 0.070558 0.113820 0.596130
Si Si2 0.827179 0.819603 0.505099
Si Si3 0.426511 0.381595 0.996920
Si Si4 0.464231 0.384111 0.782171
Si Si5 0.053318 0.618294 0.774002
Si Si6 0.794799 0.886318 0.575285
Si Si7 0.646057 0.118530 0.935268
Si Si8 0.384512 0.252591 0.802827
O O1 0.215685 0.195895 0.706315
O O2 0.000000 0.135852 0.500000
O O3 0.914042 0.124266 0.523868
O O4 0.144653 0.000000 0.649367
O O5 0.617202 0.828499 0.361091
O O6 0.893648 0.868864 0.596066
O O7 0.859067 0.697790 0.525528
O O8 0.442070 0.500000 0.016586
O O9 0.547982 0.328948 0.115016
O O10 0.500000 0.350123 0.000000
O O11 0.224964 0.348075 0.863920
O O12 0.441017 0.500000 0.780372
O O13 0.429376 0.370187 0.706880
O O14 0.338452 0.315791 0.726994
O O15 0.656722 0.343236 0.924662
O O16 0.023142 0.500000 0.749099
O O17 0.076799 0.650244 0.840443
O O18 0.716018 0.000000 0.523394
O O19 0.527082 0.167059 0.891255
O O20 0.639731 0.000000 0.938289
#
# Coordination Sequence:
#
# PCOD8094125 Si02
#       8
#     8   8   8   8   8   8   8   8
#     4  11  24  42  62  89 127 167 210 254 299 362
#     4  11  23  40  63  88 121 167 210 252 305 358
#     4  10  23  41  60  89 126 161 199 253 316 372
#     4  10  20  36  59  89 122 154 195 249 311 367
#     4  10  19  36  64  92 117 154 209 256 300 359
#     4  10  22  38  59  89 121 154 202 257 306 362
#     4  10  20  34  58  91 119 151 198 253 303 357
#     4  12  22  37  61  89 122 160 203 251 307 367
#
# _framework density 20.569859999999998
#
# number of rings (size 3 to 8) (size 9 to 14) (size 15 to 20)
#    0.000    1.500    1.250    4.500    1.750    4.000 
#    0.000    2.500    0.000    4.125    0.000    0.000 
#    0.000    0.000    0.000    0.000    0.000    0.000 
#
# Total GULP energy -396792.161597 kJ/mol
# GULP energy per Si atom -12399.755050 kJ/mol
# Density = 2.052304 g / cm^3
# Si number density = 20.569860 Si / 1000 Ang^3
#
#
#
# Elastic Constant Matrix: (Units=GPa)
#
#
# Indices 1 2 3 4 5 6 
#
# 1 132.5506 39.8861 49.5214 0.0342 -6.7167 0.0079
# 2 39.8861 74.2436 37.5750 0.1393 -4.5839 -0.0366
# 3 49.5214 37.5750 84.7684 0.0521 0.2142 -0.0023
# 4 0.0342 0.1393 0.0521 21.0181 -0.0593 -2.9567
# 5 -6.7167 -4.5839 0.2142 -0.0593 33.0458 0.0111
# 6 0.0079 -0.0366 -0.0023 -2.9567 0.0111 33.0829
#
#
#
# Elastic Compliance Matrix: (Units=1/GPa)
#
#
# Indices 1 2 3 4 5 6 
#
# 1 0.010294 -0.003068 -0.004658 0.000019 0.001697 -0.000005
# 2 -0.003068 0.018481 -0.006405 -0.000094 0.001981 0.000012
# 3 -0.004658 -0.006405 0.017362 0.000001 -0.001948 -0.000004
# 4 0.000019 -0.000094 0.000001 0.048185 0.000076 0.004306
# 5 0.001697 0.001981 -0.001948 0.000076 0.030894 -0.000002
# 6 -0.000005 0.000012 -0.000004 0.004306 -0.000002 0.030612
#
#
# Mechanical properties :
#
#
# Convention : Reuss Voigt Hill
#
# Bulk Modulus (GPa) = 55.94214 60.61416 58.27815
# Shear Modulus (GPa) = 26.30926 28.40136 27.35531
#
# Velocity S-wave (km/s) = 3.58022 3.71984 3.65070
# Velocity P-wave (km/s) = 6.65927 6.92684 6.79437
#
# Compressibility (1/GPa) = 0.01787561
#
# Stress axis : x y z
#
# Youngs Moduli (GPa) = 97.14711 54.10834 57.59725
#
# Poissons Ratio (x) = 0.16600 0.26828
# Poissons Ratio (y) = 0.29805 0.36890
# Poissons Ratio (z) = 0.45250 0.34656
#
# Static dielectric constant tensor:
#      x y z
#    x 3.780040 0.000140 -0.073310 
#    y 0.000140 3.992300 -0.000430 
#    z -0.073310 -0.000430 3.520000 
# 
# 
# High freq. dielectric constant tensor:
#      x y z
#    x 1.803250 0.000000 -0.015120 
#    y 0.000000 1.830640 -0.000020 
#    z -0.015120 -0.000020 1.778420 
# 
# From -- ./inp_files/381503.got.cif
#   From: 2010.06.25/outbox.cif.g09.slc.cpg/sg12_191_cif.got.tgz:381503.got - 2010.06.28 00:19:55.
