data_PCOD8094606
_publ_section_title
;
Structure prediction by ZEFSAII (Michael W. Deem and Ramdas Pophale) SiO2 
 PCOD8094606
Probable space group: C 2/M
;
_chemical_formula_sum "Si O2"
_cell_formula_units_Z 32
_cell_length_a 5.307004
_cell_length_b 13.963094
_cell_length_c 22.543166
_cell_angle_alpha 90.000000
_cell_angle_beta 118.340336
_cell_angle_gamma 90.000000
_cell_volume 1470.277842
_symmetry_space_group_name_H-M "C 2/M"
_symmetry_group_IT_number 12
_symmetry_cell_setting 'monoclinic'
loop_
_space_group_symop_operation_xyz
x,y,z
-x,y,-z
-x,-y,-z
x,-y,z
1/2+x,1/2+y,z
1/2-x,1/2+y,-z
1/2-x,1/2-y,-z
1/2+x,1/2-y,z
loop_
_atom_site_type_symbol
_atom_site_label
_atom_site_fract_x
_atom_site_fract_y
_atom_site_fract_z
Si Si1 0.733472 0.135873 0.868241
Si Si2 0.515923 0.000000 0.748090
Si Si3 0.341166 0.500000 0.661620
Si Si4 0.838738 0.692874 0.420756
Si Si5 0.156698 0.343668 0.077290
O O1 0.580459 0.096886 0.792269
O O2 0.743245 0.251079 0.873387
O O3 0.559060 0.095292 0.905794
O O4 0.059545 0.095363 0.906192
O O5 0.726191 0.000000 0.715628
O O6 0.183553 0.000000 0.694710
O O7 0.220027 0.591875 0.615224
O O8 0.538848 0.746658 0.398563
O O9 0.000000 0.673640 0.500000
O O10 0.000000 0.309374 0.000000
#
# Coordination Sequence:
#
# PCOD8094606 Si02
#       5
#     8   4   4   8   8
#     4  10  20  37  55  81 116 155 199 258 314 377
#     4  12  26  42  56  88 136 174 214 248 320 408
#     4  12  25  46  64  98 141 182 220 268 320 382
#     4  10  22  44  73 106 135 170 225 277 326 376
#     4  10  19  38  62  84 108 151 215 266 330 389
#
# _framework density 21.764593999999999
#
# number of rings (size 3 to 8) (size 9 to 14) (size 15 to 20)
#    0.000    1.500    0.000    7.125    0.000    0.000 
#   27.000   11.875    0.000    0.000    0.000    0.000 
#    0.000    0.000    0.000    0.000    0.000    0.000 
#
# Total GULP energy -198286.835226 kJ/mol
# GULP energy per Si atom -12392.927202 kJ/mol
# Density = 2.171506 g / cm^3
# Si number density = 21.764594 Si / 1000 Ang^3
#
#
#
# Elastic Constant Matrix: (Units=GPa)
#
#
# Indices 1 2 3 4 5 6 
#
# 1 215.8647 23.4830 35.0423 0.0001 -14.3746 0.0000
# 2 23.4830 120.6470 59.5331 0.0000 -7.8038 0.0000
# 3 35.0423 59.5331 75.2805 0.0000 -5.2577 0.0000
# 4 0.0001 0.0000 0.0000 -83.1700 0.0000 -0.6132
# 5 -14.3746 -7.8038 -5.2577 0.0000 30.1791 0.0000
# 6 0.0000 0.0000 0.0000 -0.6132 0.0000 13.0745
#
#
#
# Elastic Compliance Matrix: (Units=1/GPa)
#
#
# Indices 1 2 3 4 5 6 
#
# 1 0.005146 0.000400 -0.002565 0.000000 0.002108 0.000000
# 2 0.000400 0.013707 -0.010898 0.000000 0.001836 0.000000
# 3 -0.002565 -0.010898 0.023094 0.000000 -0.000016 0.000000
# 4 0.000000 0.000000 0.000000 -0.012019 0.000000 -0.000564
# 5 0.002108 0.001836 -0.000016 0.000000 0.034612 0.000000
# 6 0.000000 0.000000 0.000000 -0.000564 0.000000 0.076458
#
#
# Mechanical properties :
#
#
# Convention : Reuss Voigt Hill
#
# Bulk Modulus (GPa) = 63.19949 71.98989 67.59469
# Shear Modulus (GPa) = 29.00296 11.59896 20.30096
#
# Velocity S-wave (km/s) = 3.65441 2.31103 3.05741
# Velocity P-wave (km/s) = 6.84887 6.34583 6.60214
#
# Compressibility (1/GPa) = 0.01582291
#
# Stress axis : x y z
#
# Youngs Moduli (GPa) = 194.33853 72.95535 43.30048
#
# Poissons Ratio (x) = -0.02920 0.11105
# Poissons Ratio (y) = -0.07778 0.47188
# Poissons Ratio (z) = 0.49840 0.79505
#
# Static dielectric constant tensor:
#      x y z
#    x 5.415440 0.000000 -0.084080 
#    y 0.000000 3.607890 0.000000 
#    z -0.084080 0.000000 3.708690 
# 
# 
# High freq. dielectric constant tensor:
#      x y z
#    x 1.900410 0.000000 -0.003490 
#    y 0.000000 1.845670 0.000000 
#    z -0.003490 0.000000 1.837100 
# 
# From -- ./inp_files/297436.got.cif
#   From: 2010.06.25/outbox.cif.g09.slc.cpg/sg12_149_cif.got.tgz:297436.got - 2010.06.28 00:19:55.
