data_PCOD8094523
_publ_section_title
;
Structure prediction by ZEFSAII (Michael W. Deem and Ramdas Pophale) SiO2 
 PCOD8094523
Probable space group: C 2/M
;
_chemical_formula_sum "Si O2"
_cell_formula_units_Z 44
_cell_length_a 18.558757
_cell_length_b 13.870665
_cell_length_c 8.459589
_cell_angle_alpha 90.000000
_cell_angle_beta 84.907110
_cell_angle_gamma 90.000000
_cell_volume 2169.089553
_symmetry_space_group_name_H-M "C 2/M"
_symmetry_group_IT_number 12
_symmetry_cell_setting 'monoclinic'
loop_
_space_group_symop_operation_xyz
x,y,z
-x,y,-z
-x,-y,-z
x,-y,z
1/2+x,1/2+y,z
1/2-x,1/2+y,-z
1/2-x,1/2-y,-z
1/2+x,1/2-y,z
loop_
_atom_site_type_symbol
_atom_site_label
_atom_site_fract_x
_atom_site_fract_y
_atom_site_fract_z
Si Si1 0.850985 0.795043 0.332717
Si Si2 0.061224 0.500000 0.283079
Si Si3 0.198676 0.000000 0.134355
Si Si4 0.134801 0.500000 0.943650
Si Si5 0.803425 0.500000 0.545391
Si Si6 0.961661 0.658237 0.172146
Si Si7 0.228522 0.840271 0.353765
Si Si8 0.824684 0.000000 0.212880
O O1 0.928209 0.747190 0.276163
O O2 0.833198 0.791835 0.524140
O O3 0.780832 0.741430 0.265032
O O4 0.861122 0.904716 0.276141
O O5 0.110072 0.500000 0.433242
O O6 0.013738 0.597503 0.279098
O O7 0.114892 0.500000 0.128126
O O8 0.281508 0.000000 0.080329
O O9 0.182899 0.902076 0.234961
O O10 0.157470 0.000000 0.977033
O O11 0.106112 0.593370 0.860702
O O12 0.782434 0.406841 0.447283
O O13 0.759686 0.500000 0.719909
O O14 0.000000 0.691113 0.000000
#
# Coordination Sequence:
#
# PCOD8094523 Si02
#       8
#     8   4   4   4   4   8   8   4
#     4  10  19  38  50  79 108 150 190 215 272 324
#     4   9  17  30  56  89 116 138 169 221 273 339
#     4  11  17  33  55  87 103 143 168 231 296 315
#     4   9  15  29  52  82 115 130 169 218 278 330
#     4   9  17  34  52  90 114 138 176 221 284 333
#     4   9  18  32  55  81 111 150 178 219 272 326
#     4   9  20  32  56  76 119 147 167 224 287 338
#     4  10  22  32  58  79 109 140 190 243 254 313
#
# _framework density 20.285008000000001
#
# number of rings (size 3 to 8) (size 9 to 14) (size 15 to 20)
#    0.000    2.545    2.727    1.636    0.000    0.727 
#    0.000    4.091    0.000    0.000    0.000    3.818 
#    0.000    0.000    0.000    0.000    0.000    0.000 
#
# Total GULP energy -272583.027093 kJ/mol
# GULP energy per Si atom -12390.137595 kJ/mol
# Density = 2.023884 g / cm^3
# Si number density = 20.285008 Si / 1000 Ang^3
#
#
#
# Elastic Constant Matrix: (Units=GPa)
#
#
# Indices 1 2 3 4 5 6 
#
# 1 66.7079 35.5905 26.3891 0.0000 -13.0321 0.0000
# 2 35.5905 98.1893 39.0715 0.0000 -23.7433 0.0000
# 3 26.3891 39.0715 77.3598 0.0000 -10.5951 0.0000
# 4 0.0000 0.0000 0.0000 31.0882 0.0000 -16.2430
# 5 -13.0321 -23.7433 -10.5951 0.0000 28.5782 0.0000
# 6 0.0000 0.0000 0.0000 -16.2430 0.0000 26.5830
#
#
#
# Elastic Compliance Matrix: (Units=1/GPa)
#
#
# Indices 1 2 3 4 5 6 
#
# 1 0.019757 -0.004754 -0.003841 0.000000 0.003636 0.000000
# 2 -0.004754 0.016299 -0.005323 0.000000 0.009400 0.000000
# 3 -0.003841 -0.005323 0.016940 0.000000 0.000107 0.000000
# 4 0.000000 0.000000 0.000000 0.047252 0.000000 0.028872
# 5 0.003636 0.009400 0.000107 0.000000 0.044499 0.000000
# 6 0.000000 0.000000 0.000000 0.028872 0.000000 0.055260
#
#
# Mechanical properties :
#
#
# Convention : Reuss Voigt Hill
#
# Bulk Modulus (GPa) = 39.74439 49.37325 44.55882
# Shear Modulus (GPa) = 21.16617 26.66362 23.91489
#
# Velocity S-wave (km/s) = 3.23374 3.62947 3.43730
# Velocity P-wave (km/s) = 5.79467 6.47740 6.14552
#
# Compressibility (1/GPa) = 0.02516079
#
# Stress axis : x y z
#
# Youngs Moduli (GPa) = 50.61618 61.35531 59.03320
#
# Poissons Ratio (x) = 0.29166 0.22672
# Poissons Ratio (y) = 0.24061 0.31422
# Poissons Ratio (z) = 0.19439 0.32658
#
# Static dielectric constant tensor:
#      x y z
#    x 3.308810 0.000000 -1.058550 
#    y 0.000000 3.805520 0.000000 
#    z -1.058550 0.000000 10.351020 
# 
# 
# High freq. dielectric constant tensor:
#      x y z
#    x 1.743850 0.000000 -0.025660 
#    y 0.000000 1.793520 0.000000 
#    z -0.025660 0.000000 1.792140 
# 
# From -- ./inp_files/73105.got.cif
#   From: 2010.06.25/outbox.cif.g09.slc.cpg/sg12_37_cif.got.tgz:73105.got - 2010.06.28 00:19:55.
