data_PCOD8094525
_publ_section_title
;
Structure prediction by ZEFSAII (Michael W. Deem and Ramdas Pophale) SiO2 
 PCOD8094525
Probable space group: C 2/M
;
_chemical_formula_sum "Si O2"
_cell_formula_units_Z 56
_cell_length_a 10.617213
_cell_length_b 17.209831
_cell_length_c 16.523392
_cell_angle_alpha 90.000000
_cell_angle_beta 57.106484
_cell_angle_gamma 90.000000
_cell_volume 2535.133523
_symmetry_space_group_name_H-M "C 2/M"
_symmetry_group_IT_number 12
_symmetry_cell_setting 'monoclinic'
loop_
_space_group_symop_operation_xyz
x,y,z
-x,y,-z
-x,-y,-z
x,-y,z
1/2+x,1/2+y,z
1/2-x,1/2+y,-z
1/2-x,1/2-y,-z
1/2+x,1/2-y,z
loop_
_atom_site_type_symbol
_atom_site_label
_atom_site_fract_x
_atom_site_fract_y
_atom_site_fract_z
Si Si1 0.027326 0.359403 0.899794
Si Si2 0.897361 0.797487 0.926527
Si Si3 0.689689 0.830940 0.278636
Si Si4 0.349159 0.661161 0.759547
Si Si5 0.234752 0.909496 0.910852
Si Si6 0.151645 0.909298 0.628362
Si Si7 0.574957 0.085764 0.561629
O O1 0.192786 0.386823 0.814082
O O2 0.031632 0.263868 0.896088
O O3 0.902418 0.396881 0.886432
O O4 0.000000 0.389330 0.000000
O O5 0.900332 0.821744 0.832845
O O6 0.750000 0.750000 0.000000
O O7 0.893801 0.874033 0.984715
O O8 0.675996 0.738861 0.282494
O O9 0.775826 0.865460 0.170847
O O10 0.789670 0.856680 0.318952
O O11 0.516793 0.860199 0.344711
O O12 0.477946 0.610173 0.671406
O O13 0.200791 0.000000 0.911784
O O14 0.250630 0.889627 0.513237
O O15 0.171760 0.000000 0.643932
O O16 0.500000 0.087595 0.500000
O O17 0.566210 0.000000 0.602547
#
# Coordination Sequence:
#
# PCOD8094525 Si02
#       7
#     8   8   8   8   8   8   8
#     4  11  20  38  57  76 112 160 196 232 290 354
#     4  10  19  38  53  80 109 153 191 239 291 338
#     4  11  20  37  65  90 120 150 199 251 296 356
#     4  12  22  36  63  86 119 159 200 243 297 356
#     4  11  22  36  59  90 114 151 205 248 292 352
#     4  10  23  41  62  91 122 155 199 248 305 360
#     4   8  16  35  61  87 119 156 189 241 309 358
#
# _framework density 22.089566000000001
#
# number of rings (size 3 to 8) (size 9 to 14) (size 15 to 20)
#    0.000    1.571    5.714    3.000    0.000    2.000 
#    0.000    0.000    0.000    3.000    0.000    3.000 
#    0.000    0.000    0.000    0.000    0.000    0.000 
#
# Total GULP energy -347119.065493 kJ/mol
# GULP energy per Si atom -12397.109482 kJ/mol
# Density = 2.203929 g / cm^3
# Si number density = 22.089566 Si / 1000 Ang^3
#
#
#
# Elastic Constant Matrix: (Units=GPa)
#
#
# Indices 1 2 3 4 5 6 
#
# 1 37.2481 -0.5684 3.3080 0.0000 -18.2659 0.0000
# 2 -0.5684 68.9744 7.2245 0.0000 -1.3248 0.0000
# 3 3.3080 7.2245 73.6049 0.0000 -31.4863 0.0000
# 4 0.0000 0.0000 0.0000 31.2747 0.0000 -6.7742
# 5 -18.2659 -1.3248 -31.4863 0.0000 45.1409 0.0000
# 6 0.0000 0.0000 0.0000 -6.7742 0.0000 21.7947
#
#
#
# Elastic Compliance Matrix: (Units=1/GPa)
#
#
# Indices 1 2 3 4 5 6 
#
# 1 0.035544 -0.000024 0.006495 0.000000 0.018913 0.000000
# 2 -0.000024 0.014670 -0.001794 0.000000 -0.000831 0.000000
# 3 0.006495 -0.001794 0.020769 0.000000 0.017062 0.000000
# 4 0.000000 0.000000 0.000000 0.034283 0.000000 0.010656
# 5 0.018913 -0.000831 0.017062 0.000000 0.041682 0.000000
# 6 0.000000 0.000000 0.000000 0.010656 0.000000 0.049195
#
#
# Mechanical properties :
#
#
# Convention : Reuss Voigt Hill
#
# Bulk Modulus (GPa) = 12.44757 22.19505 17.32131
# Shear Modulus (GPa) = 23.41173 30.96629 27.18901
#
# Velocity S-wave (km/s) = 3.25907 3.74819 3.51216
# Velocity P-wave (km/s) = 4.45077 5.36670 4.93005
#
# Compressibility (1/GPa) = 0.08033697
#
# Stress axis : x y z
#
# Youngs Moduli (GPa) = 28.13394 68.16681 48.14864
#
# Poissons Ratio (x) = 0.00165 -0.31274
# Poissons Ratio (y) = 0.00068 0.08639
# Poissons Ratio (z) = -0.18274 0.12230
#
# Static dielectric constant tensor:
#      x y z
#    x 3.951640 0.000000 -0.535830 
#    y 0.000000 4.083190 0.000000 
#    z -0.535830 0.000000 4.530650 
# 
# 
# High freq. dielectric constant tensor:
#      x y z
#    x 1.854810 0.000000 -0.029440 
#    y 0.000000 1.851430 0.000000 
#    z -0.029440 0.000000 1.874820 
# 
# From -- ./inp_files/264175.got.cif
#   From: 2010.06.25/outbox.cif.g09.slc.cpg/sg12_133_cif.got.tgz:264175.got - 2010.06.28 00:19:55.
