data_PCOD8094277
_publ_section_title
;
Structure prediction by ZEFSAII (Michael W. Deem and Ramdas Pophale) SiO2 
 PCOD8094277
Probable space group: C 2/M
;
_chemical_formula_sum "Si O2"
_cell_formula_units_Z 64
_cell_length_a 29.872113
_cell_length_b 9.049559
_cell_length_c 17.239360
_cell_angle_alpha 90.000000
_cell_angle_beta 44.773610
_cell_angle_gamma 90.000000
_cell_volume 3282.288080
_symmetry_space_group_name_H-M "C 2/M"
_symmetry_group_IT_number 12
_symmetry_cell_setting 'monoclinic'
loop_
_space_group_symop_operation_xyz
x,y,z
-x,y,-z
-x,-y,-z
x,-y,z
1/2+x,1/2+y,z
1/2-x,1/2+y,-z
1/2-x,1/2-y,-z
1/2+x,1/2-y,z
loop_
_atom_site_type_symbol
_atom_site_label
_atom_site_fract_x
_atom_site_fract_y
_atom_site_fract_z
Si Si1 0.198886 0.665693 0.258652
Si Si2 0.843276 0.829294 0.108136
Si Si3 0.388683 0.163535 0.196637
Si Si4 0.752039 0.840537 0.573884
Si Si5 0.543912 0.175037 0.731475
Si Si6 0.810662 0.175655 0.886166
Si Si7 0.399699 0.823616 0.891715
Si Si8 0.358441 0.167849 0.516120
O O1 0.198466 0.500000 0.222965
O O2 0.267689 0.689968 0.215783
O O3 0.187836 0.787421 0.206608
O O4 0.139071 0.678014 0.392945
O O5 0.888248 0.772171 0.123271
O O6 0.861005 0.000000 0.071888
O O7 0.858894 0.731465 0.014209
O O8 0.316929 0.140803 0.307788
O O9 0.426795 0.234696 0.223051
O O10 0.416645 0.000000 0.140184
O O11 0.750000 0.750000 0.500000
O O12 0.795801 0.760871 0.580924
O O13 0.781542 0.000000 0.518779
O O14 0.472157 0.230301 0.811984
O O15 0.582446 0.231295 0.607120
O O16 0.547247 0.000000 0.730322
O O17 0.873676 0.244798 0.846674
O O18 0.808381 0.000000 0.901027
O O19 0.750000 0.250000 0.000000
O O20 0.393859 0.000000 0.891316
O O21 0.346854 0.000000 0.503415
#
# Coordination Sequence:
#
# PCOD8094277 Si02
#       8
#     8   8   8   8   8   8   8   8
#     4  10  21  36  60  92 123 151 187 240 299 350
#     4  11  22  36  57  88 123 154 192 242 299 351
#     4  10  20  35  56  83 119 158 202 245 288 342
#     4  11  20  30  51  81 115 152 195 243 290 339
#     4   9  20  39  61  84 114 161 207 242 281 342
#     4  12  24  40  65  92 120 149 188 240 299 355
#     4  11  23  41  64  86 114 154 201 243 291 350
#     4  10  19  37  60  85 119 154 195 245 289 339
#
# _framework density 19.498595000000002
#
# number of rings (size 3 to 8) (size 9 to 14) (size 15 to 20)
#    0.000    1.500    3.750    2.250    0.000    2.000 
#    0.000    5.625    0.000    3.750    0.000    0.000 
#    0.000    0.000    0.000    0.000    0.000    0.000 
#
# Total GULP energy -396574.002239 kJ/mol
# GULP energy per Si atom -12392.937570 kJ/mol
# Density = 1.945422 g / cm^3
# Si number density = 19.498595 Si / 1000 Ang^3
#
#
#
# Elastic Constant Matrix: (Units=GPa)
#
#
# Indices 1 2 3 4 5 6 
#
# 1 105.8743 43.5709 36.1417 0.0009 2.4694 -0.0011
# 2 43.5709 100.4503 27.7743 -0.0107 6.6834 0.0082
# 3 36.1417 27.7743 68.3433 0.0001 6.3050 0.0018
# 4 0.0009 -0.0107 0.0001 21.7048 -0.0007 4.5514
# 5 2.4694 6.6834 6.3050 -0.0007 28.9761 0.0001
# 6 -0.0011 0.0082 0.0018 4.5514 0.0001 27.2394
#
#
#
# Elastic Compliance Matrix: (Units=1/GPa)
#
#
# Indices 1 2 3 4 5 6 
#
# 1 0.012948 -0.004241 -0.005217 -0.000003 0.001010 0.000003
# 2 -0.004241 0.012680 -0.002729 0.000007 -0.001970 -0.000005
# 3 -0.005217 -0.002729 0.018778 -0.000001 -0.003012 0.000000
# 4 -0.000003 0.000007 -0.000001 0.047746 0.000000 -0.007978
# 5 0.001010 -0.001970 -0.003012 0.000000 0.035535 0.000001
# 6 0.000003 -0.000005 0.000000 -0.007978 0.000001 0.038045
#
#
# Mechanical properties :
#
#
# Convention : Reuss Voigt Hill
#
# Bulk Modulus (GPa) = 49.91855 54.40464 52.16159
# Shear Modulus (GPa) = 25.40897 26.72946 26.06922
#
# Velocity S-wave (km/s) = 3.61379 3.70650 3.66044
# Velocity P-wave (km/s) = 6.56272 6.80294 6.68391
#
# Compressibility (1/GPa) = 0.02003263
#
# Stress axis : x y z
#
# Youngs Moduli (GPa) = 77.23377 78.86295 53.25500
#
# Poissons Ratio (x) = 0.33445 0.27782
# Poissons Ratio (y) = 0.32754 0.14532
# Poissons Ratio (z) = 0.40291 0.21520
#
# Static dielectric constant tensor:
#      x y z
#    x 3.692900 -0.000010 0.043390 
#    y -0.000010 3.594000 0.000010 
#    z 0.043390 0.000010 3.537240 
# 
# 
# High freq. dielectric constant tensor:
#      x y z
#    x 1.750760 0.000000 0.013760 
#    y 0.000000 1.752550 0.000000 
#    z 0.013760 0.000000 1.753980 
# 
# From -- ./inp_files/295511.got.cif
#   From: 2010.06.25/outbox.cif.g09.slc.cpg/sg12_148_cif.got.tgz:295511.got - 2010.06.28 00:19:55.
