data_PCOD8094590
_publ_section_title
;
Structure prediction by ZEFSAII (Michael W. Deem and Ramdas Pophale) SiO2 
 PCOD8094590
Probable space group: C 2/M
;
_chemical_formula_sum "Si O2"
_cell_formula_units_Z 44
_cell_length_a 16.037573
_cell_length_b 17.090669
_cell_length_c 8.034805
_cell_angle_alpha 90.000000
_cell_angle_beta 112.437594
_cell_angle_gamma 90.000000
_cell_volume 2035.560571
_symmetry_space_group_name_H-M "C 2/M"
_symmetry_group_IT_number 12
_symmetry_cell_setting 'monoclinic'
loop_
_space_group_symop_operation_xyz
x,y,z
-x,y,-z
-x,-y,-z
x,-y,z
1/2+x,1/2+y,z
1/2-x,1/2+y,-z
1/2-x,1/2-y,-z
1/2+x,1/2-y,z
loop_
_atom_site_type_symbol
_atom_site_label
_atom_site_fract_x
_atom_site_fract_y
_atom_site_fract_z
Si Si1 0.815542 0.909442 0.367508
Si Si2 0.227245 0.824144 0.321463
Si Si3 0.721111 0.159711 0.981115
Si Si4 0.027709 0.411943 0.832807
Si Si5 0.000000 0.834969 0.500000
Si Si6 0.599924 0.783100 0.376171
O O1 0.792422 0.875614 0.531192
O O2 0.916862 0.890228 0.389004
O O3 0.800522 0.000000 0.373709
O O4 0.749789 0.881137 0.172324
O O5 0.227782 0.872642 0.148323
O O6 0.327679 0.786728 0.417235
O O7 0.154590 0.751815 0.257182
O O8 0.615500 0.141725 0.877131
O O9 0.750000 0.250000 0.000000
O O10 0.040299 0.500000 0.767083
O O11 0.943625 0.368145 0.681163
O O12 0.000000 0.420191 0.000000
O O13 0.022787 0.779644 0.360968
#
# Coordination Sequence:
#
# PCOD8094590 Si02
#       6
#     8   8   8   8   4   8
#     4  11  24  42  63  90 126 162 203 258 314 369
#     4  10  22  39  64  92 120 162 210 253 303 366
#     4  12  23  40  66  93 125 167 211 255 307 373
#     4  11  23  37  57  90 129 164 201 252 315 374
#     4  10  21  40  65  86 114 160 208 256 309 364
#     4  10  19  38  61  87 122 158 205 256 301 364
#
# _framework density 21.615666999999998
#
# number of rings (size 3 to 8) (size 9 to 14) (size 15 to 20)
#    0.000    1.273    0.000    8.455    0.000    3.636 
#    0.000    5.909    0.000    5.455    0.000    0.000 
#    0.000    0.000    0.000    0.000    0.000    0.000 
#
# Total GULP energy -272619.635506 kJ/mol
# GULP energy per Si atom -12391.801614 kJ/mol
# Density = 2.156647 g / cm^3
# Si number density = 21.615667 Si / 1000 Ang^3
#
#
#
# Elastic Constant Matrix: (Units=GPa)
#
#
# Indices 1 2 3 4 5 6 
#
# 1 128.7191 55.6745 50.9996 0.0000 2.3793 0.0000
# 2 55.6745 146.2100 46.6246 0.0000 4.3491 0.0000
# 3 50.9996 46.6246 79.9813 0.0000 -7.0443 0.0000
# 4 0.0000 0.0000 0.0000 28.7755 0.0000 9.6548
# 5 2.3793 4.3491 -7.0443 0.0000 35.9252 0.0000
# 6 0.0000 0.0000 0.0000 9.6548 0.0000 29.9136
#
#
#
# Elastic Compliance Matrix: (Units=1/GPa)
#
#
# Indices 1 2 3 4 5 6 
#
# 1 0.011134 -0.002312 -0.005894 0.000000 -0.001613 0.000000
# 2 -0.002312 0.009027 -0.003939 0.000000 -0.001712 0.000000
# 3 -0.005894 -0.003939 0.018961 0.000000 0.004585 0.000000
# 4 0.000000 0.000000 0.000000 0.038972 0.000000 -0.012578
# 5 -0.001613 -0.001712 0.004585 0.000000 0.029049 0.000000
# 6 0.000000 0.000000 0.000000 -0.012578 0.000000 0.037489
#
#
# Mechanical properties :
#
#
# Convention : Reuss Voigt Hill
#
# Bulk Modulus (GPa) = 67.41881 73.50087 70.45984
# Shear Modulus (GPa) = 28.75804 32.36367 30.56086
#
# Velocity S-wave (km/s) = 3.65146 3.87361 3.76417
# Velocity P-wave (km/s) = 7.00250 7.35417 7.18049
#
# Compressibility (1/GPa) = 0.01483265
#
# Stress axis : x y z
#
# Youngs Moduli (GPa) = 89.81597 110.78126 52.74068
#
# Poissons Ratio (x) = 0.25615 0.31083
# Poissons Ratio (y) = 0.20767 0.20772
# Poissons Ratio (z) = 0.52934 0.43631
#
# Static dielectric constant tensor:
#      x y z
#    x 4.043430 0.000000 0.202850 
#    y 0.000000 4.072160 0.000000 
#    z 0.202850 0.000000 3.669020 
# 
# 
# High freq. dielectric constant tensor:
#      x y z
#    x 1.871800 0.000000 -0.002920 
#    y 0.000000 1.841980 0.000000 
#    z -0.002920 0.000000 1.834870 
# 
# From -- ./inp_files/61819.got.cif
#   From: 2010.06.25/outbox.cif.g09.slc.cpg/sg12_31_cif.got.tgz:61819.got - 2010.06.28 00:19:55.
