data_PCOD8094599
_publ_section_title
;
Structure prediction by ZEFSAII (Michael W. Deem and Ramdas Pophale) SiO2 
 PCOD8094599
Probable space group: C 2/M
;
_chemical_formula_sum "Si O2"
_cell_formula_units_Z 52
_cell_length_a 20.808974
_cell_length_b 26.886644
_cell_length_c 6.565167
_cell_angle_alpha 90.000000
_cell_angle_beta 45.465275
_cell_angle_gamma 90.000000
_cell_volume 2618.281171
_symmetry_space_group_name_H-M "C 2/M"
_symmetry_group_IT_number 12
_symmetry_cell_setting 'monoclinic'
loop_
_space_group_symop_operation_xyz
x,y,z
-x,y,-z
-x,-y,-z
x,-y,z
1/2+x,1/2+y,z
1/2-x,1/2+y,-z
1/2-x,1/2-y,-z
1/2+x,1/2-y,z
loop_
_atom_site_type_symbol
_atom_site_label
_atom_site_fract_x
_atom_site_fract_y
_atom_site_fract_z
Si Si1 0.098228 0.115752 0.835243
Si Si2 0.238836 0.058571 0.250181
Si Si3 0.000000 0.367628 0.000000
Si Si4 0.324112 0.297677 0.562288
Si Si5 0.693385 0.364850 0.017442
Si Si6 0.324091 0.189351 0.436991
Si Si7 0.948387 0.553847 0.821666
O O1 0.178362 0.080686 0.568722
O O2 0.101800 0.170241 0.723872
O O3 0.108914 0.123016 0.055590
O O4 0.000000 0.092643 0.000000
O O5 0.220879 0.000000 0.269587
O O6 0.210932 0.084789 0.101852
O O7 0.343934 0.071107 0.047894
O O8 0.083595 0.332510 0.842744
O O9 0.008890 0.404194 0.789732
O O10 0.347083 0.239486 0.511626
O O11 0.229344 0.302397 0.654301
O O12 0.322328 0.317946 0.797620
O O13 0.776338 0.350420 0.688846
O O14 0.949606 0.500000 0.931768
O O15 0.000000 0.546133 0.500000
#
# Coordination Sequence:
#
# PCOD8094599 Si02
#       7
#     8   8   4   8   8   8   8
#     4  10  22  38  60  84 118 151 195 246 297 350
#     4  10  22  39  59  85 117 153 196 242 298 359
#     4  12  21  32  56  86 116 146 187 238 290 342
#     4   9  20  38  57  79 114 154 196 237 294 350
#     4  10  19  38  62  80 109 156 195 239 295 350
#     4  10  21  35  56  84 117 150 192 246 291 350
#     4  10  21  37  56  81 116 154 193 239 289 348
#
# _framework density 19.860355999999999
#
# number of rings (size 3 to 8) (size 9 to 14) (size 15 to 20)
#    0.000    2.000    0.000    4.385    1.077    3.385 
#    0.000    4.615    6.769    0.000    0.000    0.000 
#    0.000    0.000    0.000    0.000    0.000    0.000 
#
# Total GULP energy -322229.762312 kJ/mol
# GULP energy per Si atom -12393.452397 kJ/mol
# Density = 1.981515 g / cm^3
# Si number density = 19.860356 Si / 1000 Ang^3
#
#
#
# Elastic Constant Matrix: (Units=GPa)
#
#
# Indices 1 2 3 4 5 6 
#
# 1 77.9800 34.1291 40.5036 0.0000 7.3933 0.0000
# 2 34.1291 115.6174 28.6851 0.0000 3.4692 0.0000
# 3 40.5036 28.6851 74.5503 0.0000 2.8066 0.0000
# 4 0.0000 0.0000 0.0000 29.3192 0.0000 1.4223
# 5 7.3933 3.4692 2.8066 0.0000 38.2767 0.0000
# 6 0.0000 0.0000 0.0000 1.4223 0.0000 32.6479
#
#
#
# Elastic Compliance Matrix: (Units=1/GPa)
#
#
# Indices 1 2 3 4 5 6 
#
# 1 0.019265 -0.003353 -0.009073 0.000000 -0.002752 0.000000
# 2 -0.003353 0.010159 -0.002083 0.000000 -0.000120 0.000000
# 3 -0.009073 -0.002083 0.019124 0.000000 0.000539 0.000000
# 4 0.000000 0.000000 0.000000 0.034180 0.000000 -0.001489
# 5 -0.002752 -0.000120 0.000539 0.000000 0.026628 0.000000
# 6 0.000000 0.000000 0.000000 -0.001489 0.000000 0.030695
#
#
# Mechanical properties :
#
#
# Convention : Reuss Voigt Hill
#
# Bulk Modulus (GPa) = 51.20114 52.75371 51.97742
# Shear Modulus (GPa) = 28.47719 31.03742 29.75730
#
# Velocity S-wave (km/s) = 3.79076 3.95749 3.87502
# Velocity P-wave (km/s) = 6.70793 6.89219 6.80069
#
# Compressibility (1/GPa) = 0.01953082
#
# Stress axis : x y z
#
# Youngs Moduli (GPa) = 51.90809 98.43114 52.28979
#
# Poissons Ratio (x) = 0.33006 0.47442
# Poissons Ratio (y) = 0.17406 0.10891
# Poissons Ratio (z) = 0.47096 0.20501
#
# Static dielectric constant tensor:
#      x y z
#    x 3.613350 0.000000 0.065000 
#    y 0.000000 3.784770 0.000000 
#    z 0.065000 0.000000 3.454000 
# 
# 
# High freq. dielectric constant tensor:
#      x y z
#    x 1.768730 0.000000 0.005360 
#    y 0.000000 1.784710 0.000000 
#    z 0.005360 0.000000 1.767300 
# 
# From -- ./inp_files/22418.got.cif
#   From: 2010.06.25/outbox.cif.g09.slc.cpg/sg12_12_cif.got.tgz:22418.got - 2010.06.28 00:19:55.
