data_PCOD8094427
_publ_section_title
;
Structure prediction by ZEFSAII (Michael W. Deem and Ramdas Pophale) SiO2 
 PCOD8094427
Probable space group: C 2/M
;
_chemical_formula_sum "Si O2"
_cell_formula_units_Z 56
_cell_length_a 19.383978
_cell_length_b 8.890034
_cell_length_c 17.121679
_cell_angle_alpha 90.000000
_cell_angle_beta 97.953442
_cell_angle_gamma 90.000000
_cell_volume 2922.098877
_symmetry_space_group_name_H-M "C 2/M"
_symmetry_group_IT_number 12
_symmetry_cell_setting 'monoclinic'
loop_
_space_group_symop_operation_xyz
x,y,z
-x,y,-z
-x,-y,-z
x,-y,z
1/2+x,1/2+y,z
1/2-x,1/2+y,-z
1/2-x,1/2-y,-z
1/2+x,1/2-y,z
loop_
_atom_site_type_symbol
_atom_site_label
_atom_site_fract_x
_atom_site_fract_y
_atom_site_fract_z
Si Si1 0.416265 0.823303 0.373710
Si Si2 0.183838 0.825771 0.952810
Si Si3 0.060173 0.822730 0.367748
Si Si4 0.077898 0.331599 0.040879
Si Si5 0.325973 0.821952 0.508777
Si Si6 0.040190 0.329069 0.205378
Si Si7 0.881470 0.670876 0.196765
O O1 0.489740 0.738957 0.397177
O O2 0.362598 0.779100 0.432781
O O3 0.381110 0.773372 0.286541
O O4 0.433769 0.000000 0.375216
O O5 0.171124 0.769532 0.862527
O O6 0.197453 0.000000 0.950190
O O7 0.250000 0.750000 0.000000
O O8 0.119511 0.791126 0.999038
O O9 0.127729 0.745762 0.415145
O O10 0.062721 0.785477 0.276272
O O11 0.063963 0.000000 0.381024
O O12 0.108201 0.500000 0.031378
O O13 0.082608 0.291272 0.133560
O O14 0.000000 0.325981 0.000000
O O15 0.250000 0.750000 0.500000
O O16 0.319612 0.000000 0.518088
O O17 0.054506 0.500000 0.235945
O O18 0.958552 0.311761 0.173361
O O19 0.855388 0.500000 0.187500
#
# Coordination Sequence:
#
# PCOD8094427 Si02
#       7
#     8   8   8   8   8   8   8
#     4   9  20  39  64  88 113 151 193 236 288 344
#     4  12  25  39  56  82 117 157 198 241 288 343
#     4  11  22  36  59  90 122 153 192 238 282 337
#     4  10  19  37  63  87 114 151 192 238 291 344
#     4  11  23  41  62  86 118 155 193 236 292 349
#     4   9  18  35  61  88 116 151 190 236 290 341
#     4   9  17  36  61  85 113 148 190 238 291 342
#
# _framework density 19.164306
#
# number of rings (size 3 to 8) (size 9 to 14) (size 15 to 20)
#    0.000    1.857    1.429    4.286    0.000    6.000 
#    2.571    0.000    0.000    0.000    0.000    0.000 
#    0.000    0.000    0.000    0.000    0.000    0.000 
#
# Total GULP energy -347241.272697 kJ/mol
# GULP energy per Si atom -12401.474025 kJ/mol
# Density = 1.912069 g / cm^3
# Si number density = 19.164306 Si / 1000 Ang^3
#
#
#
# Elastic Constant Matrix: (Units=GPa)
#
#
# Indices 1 2 3 4 5 6 
#
# 1 84.7676 45.0994 55.8474 0.0000 11.8406 0.0000
# 2 45.0994 109.2513 49.6925 0.0000 15.7066 0.0000
# 3 55.8474 49.6925 104.4630 0.0000 13.5088 0.0000
# 4 0.0000 0.0000 0.0000 31.2065 0.0000 3.7433
# 5 11.8406 15.7066 13.5088 0.0000 29.2869 0.0000
# 6 0.0000 0.0000 0.0000 3.7433 0.0000 30.9178
#
#
#
# Elastic Compliance Matrix: (Units=1/GPa)
#
#
# Indices 1 2 3 4 5 6 
#
# 1 0.019746 -0.004064 -0.008372 0.000000 -0.001942 0.000000
# 2 -0.004064 0.012960 -0.003516 0.000000 -0.003686 0.000000
# 3 -0.008372 -0.003516 0.015993 0.000000 -0.002107 0.000000
# 4 0.000000 0.000000 0.000000 0.032517 0.000000 -0.003937
# 5 -0.001942 -0.003686 -0.002107 0.000000 0.037879 0.000000
# 6 0.000000 0.000000 0.000000 -0.003937 0.000000 0.032820
#
#
# Mechanical properties :
#
#
# Convention : Reuss Voigt Hill
#
# Bulk Modulus (GPa) = 59.53875 66.64004 63.08939
# Shear Modulus (GPa) = 26.39663 28.13841 27.26752
#
# Velocity S-wave (km/s) = 3.71534 3.83596 3.77613
# Velocity P-wave (km/s) = 7.03846 7.38024 7.21138
#
# Compressibility (1/GPa) = 0.01679578
#
# Stress axis : x y z
#
# Youngs Moduli (GPa) = 50.64217 77.16168 62.52540
#
# Poissons Ratio (x) = 0.31359 0.52348
# Poissons Ratio (y) = 0.20581 0.21981
# Poissons Ratio (z) = 0.42399 0.27127
#
# Static dielectric constant tensor:
#      x y z
#    x 3.273370 0.000000 -0.047650 
#    y 0.000000 3.557520 0.000000 
#    z -0.047650 0.000000 3.685920 
# 
# 
# High freq. dielectric constant tensor:
#      x y z
#    x 1.727490 0.000000 -0.003570 
#    y 0.000000 1.739510 0.000000 
#    z -0.003570 0.000000 1.761370 
# 
# From -- ./inp_files/275603.got.cif
#   From: 2010.06.25/outbox.cif.g09.slc.cpg/sg12_138_cif.got.tgz:275603.got - 2010.06.28 00:19:55.
