data_PCOD8094827
_publ_section_title
;
Structure prediction by ZEFSAII (Michael W. Deem and Ramdas Pophale) SiO2 
 PCOD8094827
Probable space group: C 2/M
;
_chemical_formula_sum "Si O2"
_cell_formula_units_Z 44
_cell_length_a 14.189822
_cell_length_b 14.307455
_cell_length_c 11.100747
_cell_angle_alpha 90.000000
_cell_angle_beta 108.861120
_cell_angle_gamma 90.000000
_cell_volume 2132.665046
_symmetry_space_group_name_H-M "C 2/M"
_symmetry_group_IT_number 12
_symmetry_cell_setting 'monoclinic'
loop_
_space_group_symop_operation_xyz
x,y,z
-x,y,-z
-x,-y,-z
x,-y,z
1/2+x,1/2+y,z
1/2-x,1/2+y,-z
1/2-x,1/2-y,-z
1/2+x,1/2-y,z
loop_
_atom_site_type_symbol
_atom_site_label
_atom_site_fract_x
_atom_site_fract_y
_atom_site_fract_z
Si Si1 0.656499 0.601368 0.752992
Si Si2 0.389270 0.396101 0.998676
Si Si3 0.690372 0.737478 0.229700
Si Si4 0.049641 0.689983 0.364696
Si Si5 0.145763 0.392352 0.619705
Si Si6 0.000000 0.850538 0.500000
O O1 0.708291 0.500000 0.784626
O O2 0.606302 0.629493 0.858714
O O3 0.739468 0.675244 0.759030
O O4 0.572007 0.590247 0.615516
O O5 0.340732 0.500000 0.957646
O O6 0.500000 0.399698 0.000000
O O7 0.333082 0.313111 0.905894
O O8 0.592439 0.784847 0.250669
O O9 0.747629 0.659500 0.332484
O O10 0.108902 0.610674 0.465086
O O11 0.932483 0.659270 0.319487
O O12 0.068947 0.785119 0.445845
O O13 0.157824 0.500000 0.663555
#
# Coordination Sequence:
#
# PCOD8094827 Si02
#       6
#     8   8   8   8   8   4
#     4  11  23  39  60  91 125 162 205 258 315 373
#     4  10  23  42  64  89 119 160 212 258 314 379
#     4  12  22  39  65  92 125 165 212 264 307 374
#     4  10  20  37  59  88 131 159 206 257 312 369
#     4  10  21  38  62  92 130 172 209 255 314 380
#     4  10  19  40  61  86 124 164 201 256 313 370
#
# _framework density 20.631463
#
# number of rings (size 3 to 8) (size 9 to 14) (size 15 to 20)
#    0.000    1.636    3.636    4.091    0.000    1.455 
#    0.000    1.818    0.000    0.545    0.000    0.000 
#    0.000    0.000    0.000    0.000    0.000    0.000 
#
# Total GULP energy -272557.010975 kJ/mol
# GULP energy per Si atom -12388.955044 kJ/mol
# Density = 2.058450 g / cm^3
# Si number density = 20.631463 Si / 1000 Ang^3
#
#
#
# Elastic Constant Matrix: (Units=GPa)
#
#
# Indices 1 2 3 4 5 6 
#
# 1 68.6720 38.4623 27.1716 0.0000 -9.2945 0.0000
# 2 38.4623 117.1296 39.9045 0.0000 -5.5949 0.0000
# 3 27.1716 39.9045 93.6622 0.0000 -6.3732 0.0000
# 4 0.0000 0.0000 0.0000 24.4920 0.0000 -7.5831
# 5 -9.2945 -5.5949 -6.3732 0.0000 32.1360 0.0000
# 6 0.0000 0.0000 0.0000 -7.5831 0.0000 2.3044
#
#
#
# Elastic Compliance Matrix: (Units=1/GPa)
#
#
# Indices 1 2 3 4 5 6 
#
# 1 0.019171 -0.005031 -0.003143 0.000000 0.004046 0.000000
# 2 -0.005031 0.011334 -0.003379 0.000000 -0.000152 0.000000
# 3 -0.003143 -0.003379 0.013103 0.000000 0.001101 0.000000
# 4 0.000000 0.000000 0.000000 -2.165292 0.000000 -7.125384
# 5 0.004046 -0.000152 0.001101 0.000000 0.032480 0.000000
# 6 0.000000 0.000000 0.000000 -7.125384 0.000000-23.013730
#
#
# Mechanical properties :
#
#
# Convention : Reuss Voigt Hill
#
# Bulk Modulus (GPa) = 48.77835 54.50450 51.64143
# Shear Modulus (GPa) = -0.19942 23.38149 11.59104
#
# Velocity S-wave (km/s) = -0.31123 3.37009 2.37283
# Velocity P-wave (km/s) = 4.85437 6.45127 5.70893
#
# Compressibility (1/GPa) = 0.02050090
#
# Stress axis : x y z
#
# Youngs Moduli (GPa) = 52.16213 88.23176 76.31771
#
# Poissons Ratio (x) = 0.44392 0.23984
# Poissons Ratio (y) = 0.26245 0.25791
# Poissons Ratio (z) = 0.16393 0.29818
#
# Static dielectric constant tensor:
#      x y z
#    x 3.662150 0.000000 -0.282860 
#    y 0.000000 3.937060 0.000000 
#    z -0.282860 0.000000 5.024490 
# 
# 
# High freq. dielectric constant tensor:
#      x y z
#    x 1.792550 0.000000 -0.004160 
#    y 0.000000 1.819010 0.000000 
#    z -0.004160 0.000000 1.788720 
# 
# From -- ./inp_files/142105.got.cif
#   From: 2010.06.25/outbox.cif.g09.slc.cpg/sg12_72_cif.got.tgz:142105.got - 2010.06.28 00:19:55.
