data_PCOD8094546
_publ_section_title
;
Structure prediction by ZEFSAII (Michael W. Deem and Ramdas Pophale) SiO2 
 PCOD8094546
Probable space group: C 2/M
;
_chemical_formula_sum "Si O2"
_cell_formula_units_Z 52
_cell_length_a 11.811003
_cell_length_b 23.979100
_cell_length_c 9.596951
_cell_angle_alpha 90.000000
_cell_angle_beta 79.886179
_cell_angle_gamma 90.000000
_cell_volume 2675.786051
_symmetry_space_group_name_H-M "C 2/M"
_symmetry_group_IT_number 12
_symmetry_cell_setting 'monoclinic'
loop_
_space_group_symop_operation_xyz
x,y,z
-x,y,-z
-x,-y,-z
x,-y,z
1/2+x,1/2+y,z
1/2-x,1/2+y,-z
1/2-x,1/2-y,-z
1/2+x,1/2-y,z
loop_
_atom_site_type_symbol
_atom_site_label
_atom_site_fract_x
_atom_site_fract_y
_atom_site_fract_z
Si Si1 0.874175 0.695076 0.568027
Si Si2 0.658805 0.000000 0.850941
Si Si3 0.276195 0.892448 0.802001
Si Si4 0.029927 0.937295 0.792101
Si Si5 0.289370 0.607293 0.879197
Si Si6 0.090325 0.500000 0.186135
Si Si7 0.000000 0.900119 0.500000
Si Si8 0.811342 0.816918 0.621604
O O1 0.822863 0.658936 0.704263
O O2 0.877622 0.758421 0.622535
O O3 0.804211 0.690894 0.440191
O O4 0.000000 0.673942 0.500000
O O5 0.734065 0.944794 0.806536
O O6 0.548428 0.000000 0.772039
O O7 0.624017 0.000000 0.018583
O O8 0.144291 0.902398 0.791750
O O9 0.355842 0.945919 0.750463
O O10 0.281665 0.878527 0.965711
O O11 0.002383 0.939163 0.633967
O O12 0.921104 0.908561 0.892839
O O13 0.046072 0.000000 0.845215
O O14 0.283006 0.661469 0.782978
O O15 0.111761 0.861228 0.476662
#
# Coordination Sequence:
#
# PCOD8094546 Si02
#       8
#     8   4   8   8   8   4   4   8
#     4  11  24  42  63  83 114 162 199 242 292 350
#     4   9  18  37  54  86 120 160 189 224 291 354
#     4  11  22  38  60  90 121 151 198 242 292 344
#     4  11  20  35  60  92 123 154 191 238 297 353
#     4  10  22  36  62  92 118 154 192 245 291 351
#     4   9  20  35  57  79 123 161 189 231 284 345
#     4  10  19  38  58  86 118 157 190 246 282 352
#     4  10  22  41  62  84 116 152 201 240 295 346
#
# _framework density 19.433541000000002
#
# number of rings (size 3 to 8) (size 9 to 14) (size 15 to 20)
#    0.000    1.692    3.846    0.692    2.154    1.231 
#    0.000    1.154    0.000    0.000    0.000    0.000 
#    0.000    0.000    0.000    0.000    0.000    0.000 
#
# Total GULP energy -322465.031201 kJ/mol
# GULP energy per Si atom -12402.501200 kJ/mol
# Density = 1.938931 g / cm^3
# Si number density = 19.433541 Si / 1000 Ang^3
#
#
#
# Elastic Constant Matrix: (Units=GPa)
#
#
# Indices 1 2 3 4 5 6 
#
# 1 118.2125 29.9529 17.4692 0.0000 -9.7083 0.0000
# 2 29.9529 96.3558 38.4993 0.0000 -7.9032 0.0000
# 3 17.4692 38.4993 76.6059 0.0000 -15.0195 0.0000
# 4 0.0000 0.0000 0.0000 9.9621 0.0000 1.9505
# 5 -9.7083 -7.9032 -15.0195 0.0000 19.8414 0.0000
# 6 0.0000 0.0000 0.0000 1.9505 0.0000 26.5590
#
#
#
# Elastic Compliance Matrix: (Units=1/GPa)
#
#
# Indices 1 2 3 4 5 6 
#
# 1 0.009421 -0.002575 -0.000178 0.000000 0.003449 0.000000
# 2 -0.002575 0.013691 -0.006425 0.000000 -0.000670 0.000000
# 3 -0.000178 -0.006425 0.018559 0.000000 0.011402 0.000000
# 4 0.000000 0.000000 0.000000 0.101844 0.000000 -0.007479
# 5 0.003449 -0.000670 0.011402 0.000000 0.060452 0.000000
# 6 0.000000 0.000000 0.000000 -0.007479 0.000000 0.038201
#
#
# Mechanical properties :
#
#
# Convention : Reuss Voigt Hill
#
# Bulk Modulus (GPa) = 42.88921 51.44633 47.16777
# Shear Modulus (GPa) = 18.63618 24.95602 21.79610
#
# Velocity S-wave (km/s) = 3.10008 3.58742 3.35262
# Velocity P-wave (km/s) = 5.91030 6.60983 6.26983
#
# Compressibility (1/GPa) = 0.02331589
#
# Stress axis : x y z
#
# Youngs Moduli (GPa) = 106.14227 73.04304 53.88266
#
# Poissons Ratio (x) = 0.18805 0.00961
# Poissons Ratio (y) = 0.27327 0.34618
# Poissons Ratio (z) = 0.01892 0.46927
#
# Static dielectric constant tensor:
#      x y z
#    x 3.647380 0.000000 -0.032820 
#    y 0.000000 3.482840 0.000000 
#    z -0.032820 0.000000 3.392070 
# 
# 
# High freq. dielectric constant tensor:
#      x y z
#    x 1.765220 0.000000 -0.001200 
#    y 0.000000 1.749470 0.000000 
#    z -0.001200 0.000000 1.747370 
# 
# From -- ./inp_files/52576.got.cif
#   From: 2010.06.25/outbox.cif.g09.slc.cpg/sg12_27_cif.got.tgz:52576.got - 2010.06.28 00:19:55.
