data_PCOD8094319
_publ_section_title
;
Structure prediction by ZEFSAII (Michael W. Deem and Ramdas Pophale) SiO2 
 PCOD8094319
Probable space group: C 2/M
;
_chemical_formula_sum "Si O2"
_cell_formula_units_Z 56
_cell_length_a 9.471572
_cell_length_b 20.295336
_cell_length_c 22.003717
_cell_angle_alpha 90.000000
_cell_angle_beta 140.289464
_cell_angle_gamma 90.000000
_cell_volume 2702.424467
_symmetry_space_group_name_H-M "C 2/M"
_symmetry_group_IT_number 12
_symmetry_cell_setting 'monoclinic'
loop_
_space_group_symop_operation_xyz
x,y,z
-x,y,-z
-x,-y,-z
x,-y,z
1/2+x,1/2+y,z
1/2-x,1/2+y,-z
1/2-x,1/2-y,-z
1/2+x,1/2-y,z
loop_
_atom_site_type_symbol
_atom_site_label
_atom_site_fract_x
_atom_site_fract_y
_atom_site_fract_z
Si Si1 0.538335 0.873973 0.155842
Si Si2 0.047764 0.575204 0.583965
Si Si3 0.989238 0.671823 0.661131
Si Si4 0.200882 0.925598 0.957597
Si Si5 0.154498 0.257589 0.274779
Si Si6 0.721385 0.927292 0.822249
Si Si7 0.461607 0.381517 0.226286
O O1 0.540863 0.800665 0.184543
O O2 0.432857 0.923517 0.169784
O O3 0.787726 0.896509 0.222741
O O4 0.385340 0.875781 0.044977
O O5 0.973338 0.500000 0.568983
O O6 0.898080 0.621942 0.578960
O O7 0.308238 0.582824 0.683088
O O8 0.000000 0.598859 0.500000
O O9 0.104341 0.733437 0.665651
O O10 0.174341 0.629271 0.757566
O O11 0.813657 0.699461 0.652034
O O12 0.145484 0.908596 0.870259
O O13 0.978815 0.919415 0.924781
O O14 0.294855 0.000000 0.991716
O O15 0.990654 0.197186 0.232632
O O16 0.681752 0.000000 0.779891
#
# Coordination Sequence:
#
# PCOD8094319 Si02
#       7
#     8   8   8   8   8   8   8
#     4  11  23  35  56  85 120 157 193 245 284 340
#     4  10  21  39  66  93 116 148 193 239 293 355
#     4  10  19  37  61  84 115 154 193 241 285 347
#     4  11  22  37  56  82 116 159 202 238 286 348
#     4  10  20  37  58  80 120 154 199 235 284 344
#     4  10  20  36  57  82 116 157 198 242 289 341
#     4  11  22  39  59  85 118 155 192 245 291 343
#
# _framework density 20.722134
#
# number of rings (size 3 to 8) (size 9 to 14) (size 15 to 20)
#    0.000    1.571    4.286    2.143    0.000    4.571 
#    0.000    4.286    0.000    2.571    0.000    9.000 
#    0.000    0.000    0.000    0.000    0.000    0.000 
#
# Total GULP energy -347063.790632 kJ/mol
# GULP energy per Si atom -12395.135380 kJ/mol
# Density = 2.067497 g / cm^3
# Si number density = 20.722134 Si / 1000 Ang^3
#
#
#
# Elastic Constant Matrix: (Units=GPa)
#
#
# Indices 1 2 3 4 5 6 
#
# 1 105.4935 21.6507 16.1187 -0.0009 -14.4281 -0.0004
# 2 21.6507 90.9614 20.8649 -0.0001 -17.8707 0.0001
# 3 16.1187 20.8649 70.6515 -0.0005 -33.1670 -0.0003
# 4 -0.0009 -0.0001 -0.0005 26.9713 -0.0004 -14.1346
# 5 -14.4281 -17.8707 -33.1670 -0.0004 25.4590 -0.0002
# 6 -0.0004 0.0001 -0.0003 -14.1346 -0.0002 24.5933
#
#
#
# Elastic Compliance Matrix: (Units=1/GPa)
#
#
# Indices 1 2 3 4 5 6 
#
# 1 0.010479 -0.001512 0.000889 0.000001 0.006036 0.000001
# 2 -0.001512 0.013005 0.000998 0.000000 0.009571 0.000000
# 3 0.000889 0.000998 0.036614 0.000003 0.048903 0.000002
# 4 0.000001 0.000000 0.000003 0.053057 0.000005 0.030494
# 5 0.006036 0.009571 0.048903 0.000005 0.113127 0.000005
# 6 0.000001 0.000000 0.000002 0.030494 0.000005 0.058187
#
#
# Mechanical properties :
#
#
# Convention : Reuss Voigt Hill
#
# Bulk Modulus (GPa) = 16.43459 42.70833 29.57146
# Shear Modulus (GPa) = 16.44718 29.30287 22.87503
#
# Velocity S-wave (km/s) = 2.82033 3.76451 3.32609
# Velocity P-wave (km/s) = 4.30741 6.28889 5.38999
#
# Compressibility (1/GPa) = 0.06084726
#
# Stress axis : x y z
#
# Youngs Moduli (GPa) = 95.42659 76.89176 27.31200
#
# Poissons Ratio (x) = 0.11630 -0.02429
# Poissons Ratio (y) = 0.14433 -0.02725
# Poissons Ratio (z) = -0.08486 -0.07670
#
# Static dielectric constant tensor:
#      x y z
#    x 3.991650 0.000000 -0.265280 
#    y 0.000000 3.859970 0.000000 
#    z -0.265280 0.000000 3.505830 
# 
# 
# High freq. dielectric constant tensor:
#      x y z
#    x 1.820440 0.000000 -0.025210 
#    y 0.000000 1.816610 0.000000 
#    z -0.025210 0.000000 1.776050 
# 
# From -- ./inp_files/301789.got.cif
#   From: 2010.06.25/outbox.cif.g09.slc.cpg/sg12_151_cif.got.tgz:301789.got - 2010.06.28 00:19:55.
