data_PCOD8094656
_publ_section_title
;
Structure prediction by ZEFSAII (Michael W. Deem and Ramdas Pophale) SiO2 
 PCOD8094656
Probable space group: C 2/M
;
_chemical_formula_sum "Si O2"
_cell_formula_units_Z 40
_cell_length_a 8.364170
_cell_length_b 23.199287
_cell_length_c 11.062156
_cell_angle_alpha 90.000000
_cell_angle_beta 128.970290
_cell_angle_gamma 90.000000
_cell_volume 1668.868537
_symmetry_space_group_name_H-M "C 2/M"
_symmetry_group_IT_number 12
_symmetry_cell_setting 'monoclinic'
loop_
_space_group_symop_operation_xyz
x,y,z
-x,y,-z
-x,-y,-z
x,-y,z
1/2+x,1/2+y,z
1/2-x,1/2+y,-z
1/2-x,1/2-y,-z
1/2+x,1/2-y,z
loop_
_atom_site_type_symbol
_atom_site_label
_atom_site_fract_x
_atom_site_fract_y
_atom_site_fract_z
Si Si1 0.415795 0.284797 0.180782
Si Si2 0.308059 0.064108 0.064816
Si Si3 0.405004 0.395184 0.798995
Si Si4 0.798766 0.676135 0.479495
Si Si5 0.065734 0.670471 0.187893
O O1 0.491065 0.332312 0.118799
O O2 0.614411 0.276616 0.369280
O O3 0.220549 0.307600 0.160257
O O4 0.384587 0.220203 0.110129
O O5 0.474471 0.110128 0.097062
O O6 0.250269 0.083264 0.173161
O O7 0.405273 0.000000 0.109694
O O8 0.101343 0.062165 0.883805
O O9 0.281951 0.385681 0.615476
O O10 0.829881 0.661462 0.633619
O O11 0.000000 0.695635 0.500000
#
# Coordination Sequence:
#
# PCOD8094656 Si02
#       5
#     8   8   8   8   8
#     4  10  23  37  68  98 132 166 197 271 318 382
#     4  11  23  43  67  90 124 172 217 263 306 375
#     4   9  21  40  62  92 123 160 212 254 319 369
#     4  10  19  38  63  99 125 163 202 256 322 377
#     4  12  21  40  65  97 133 162 215 249 326 376
#
# _framework density 23.968335
#
# number of rings (size 3 to 8) (size 9 to 14) (size 15 to 20)
#    1.200    0.400    2.000    4.800    0.000    1.600 
#    0.000    6.000    0.000    1.200    0.000    0.000 
#    0.000    0.000    0.000    0.000    0.000    0.000 
#
# Total GULP energy -247784.611547 kJ/mol
# GULP energy per Si atom -12389.230577 kJ/mol
# Density = 2.391378 g / cm^3
# Si number density = 23.968335 Si / 1000 Ang^3
#
#
#
# Elastic Constant Matrix: (Units=GPa)
#
#
# Indices 1 2 3 4 5 6 
#
# 1 133.5852 66.3605 45.1391 0.0000 14.6236 0.0000
# 2 66.3605 183.1423 43.1786 0.0000 13.7395 0.0000
# 3 45.1391 43.1786 56.6015 0.0000 -9.1189 0.0000
# 4 0.0000 0.0000 0.0000 16.1117 0.0000 2.3943
# 5 14.6236 13.7395 -9.1189 0.0000 40.5275 0.0000
# 6 0.0000 0.0000 0.0000 2.3943 0.0000 26.4594
#
#
#
# Elastic Compliance Matrix: (Units=1/GPa)
#
#
# Indices 1 2 3 4 5 6 
#
# 1 0.012144 -0.001773 -0.009278 0.000000 -0.005869 0.000000
# 2 -0.001773 0.007441 -0.004738 0.000000 -0.002949 0.000000
# 3 -0.009278 -0.004738 0.030587 0.000000 0.011836 0.000000
# 4 0.000000 0.000000 0.000000 0.062913 0.000000 -0.005693
# 5 -0.005869 -0.002949 0.011836 0.000000 0.030455 0.000000
# 6 0.000000 0.000000 0.000000 -0.005693 0.000000 0.038309
#
#
# Mechanical properties :
#
#
# Convention : Reuss Voigt Hill
#
# Bulk Modulus (GPa) = 53.77558 75.85396 64.81477
# Shear Modulus (GPa) = 22.76624 31.19643 26.98133
#
# Velocity S-wave (km/s) = 3.08530 3.61164 3.35880
# Velocity P-wave (km/s) = 5.93101 7.00772 6.49173
#
# Compressibility (1/GPa) = 0.01859580
#
# Stress axis : x y z
#
# Youngs Moduli (GPa) = 82.34599 134.39538 32.69327
#
# Poissons Ratio (x) = 0.23823 0.30332
# Poissons Ratio (y) = 0.14597 0.15489
# Poissons Ratio (z) = 0.76399 0.63672
#
# Static dielectric constant tensor:
#      x y z
#    x 4.094480 0.000000 0.156180 
#    y 0.000000 4.185530 0.000000 
#    z 0.156180 0.000000 4.737760 
# 
# 
# High freq. dielectric constant tensor:
#      x y z
#    x 1.945460 0.000000 0.007710 
#    y 0.000000 1.926880 0.000000 
#    z 0.007710 0.000000 1.967550 
# 
# From -- ./inp_files/197321.got.cif
#   From: 2010.06.25/outbox.cif.g09.slc.cpg/sg12_99_cif.got.tgz:197321.got - 2010.06.28 00:19:55.
