data_PCOD8094668
_publ_section_title
;
Structure prediction by ZEFSAII (Michael W. Deem and Ramdas Pophale) SiO2 
 PCOD8094668
Probable space group: C 2/M
;
_chemical_formula_sum "Si O2"
_cell_formula_units_Z 48
_cell_length_a 18.578776
_cell_length_b 8.783587
_cell_length_c 29.546228
_cell_angle_alpha 90.000000
_cell_angle_beta 30.049146
_cell_angle_gamma 90.000000
_cell_volume 2414.380087
_symmetry_space_group_name_H-M "C 2/M"
_symmetry_group_IT_number 12
_symmetry_cell_setting 'monoclinic'
loop_
_space_group_symop_operation_xyz
x,y,z
-x,y,-z
-x,-y,-z
x,-y,z
1/2+x,1/2+y,z
1/2-x,1/2+y,-z
1/2-x,1/2-y,-z
1/2+x,1/2-y,z
loop_
_atom_site_type_symbol
_atom_site_label
_atom_site_fract_x
_atom_site_fract_y
_atom_site_fract_z
Si Si1 0.168058 0.678020 0.908477
Si Si2 0.647571 0.832452 0.444163
Si Si3 0.321373 0.680080 0.917360
Si Si4 0.645774 0.319179 0.745913
Si Si5 0.312073 0.819663 0.743464
Si Si6 0.390606 0.677485 0.443870
O O1 0.196330 0.500000 0.884847
O O2 0.236853 0.732676 0.918452
O O3 0.241070 0.772309 0.829033
O O4 0.000000 0.716579 0.000000
O O5 0.500000 0.861924 0.500000
O O6 0.763902 0.761537 0.346368
O O7 0.617819 0.708829 0.498454
O O8 0.698581 0.000000 0.435068
O O9 0.317381 0.500000 0.924146
O O10 0.484426 0.741837 0.827240
O O11 0.250000 0.750000 0.000000
O O12 0.650534 0.500000 0.744768
O O13 0.714857 0.255831 0.754902
O O14 0.470755 0.751636 0.654575
O O15 0.324913 0.000000 0.733927
O O16 0.395915 0.500000 0.431145
O O17 0.250000 0.750000 0.500000
#
# Coordination Sequence:
#
# PCOD8094668 Si02
#       6
#     8   8   8   8   8   8
#     4  10  22  39  59  88 126 163 200 252 311 362
#     4  10  19  38  64  88 120 161 202 248 305 364
#     4  10  21  38  60  86 117 155 199 245 301 361
#     4   9  19  36  60  87 117 156 200 246 301 358
#     4  11  22  40  63  89 119 158 207 254 306 368
#     4  12  26  42  61  89 125 163 206 254 307 366
#
# _framework density 19.880880000000001
#
# number of rings (size 3 to 8) (size 9 to 14) (size 15 to 20)
#    0.000    1.667    1.667    3.000    2.333    1.333 
#    0.000    1.667    0.000    0.000    0.000    0.000 
#    0.000    0.000    0.000    0.000    0.000    0.000 
#
# Total GULP energy -297628.552900 kJ/mol
# GULP energy per Si atom -12401.189704 kJ/mol
# Density = 1.983563 g / cm^3
# Si number density = 19.880880 Si / 1000 Ang^3
#
#
#
# Elastic Constant Matrix: (Units=GPa)
#
#
# Indices 1 2 3 4 5 6 
#
# 1 115.4943 44.7741 67.8310 0.0044 -9.7330 0.0446
# 2 44.7741 72.4949 49.7982 -0.0008 0.8993 0.0158
# 3 67.8310 49.7982 176.1646 0.0003 -4.7534 0.0010
# 4 0.0044 -0.0008 0.0003 39.1008 -0.0016 19.8707
# 5 -9.7330 0.8993 -4.7534 -0.0016 43.1534 -0.0027
# 6 0.0446 0.0158 0.0010 19.8707 -0.0027 60.4586
#
#
#
# Elastic Compliance Matrix: (Units=1/GPa)
#
#
# Indices 1 2 3 4 5 6 
#
# 1 0.013103 -0.005846 -0.003319 0.000003 0.002711 -0.000009
# 2 -0.005846 0.019761 -0.003392 0.000002 -0.002104 -0.000001
# 3 -0.003319 -0.003392 0.007919 -0.000002 0.000194 0.000004
# 4 0.000003 0.000002 -0.000002 0.030703 0.000001 -0.010091
# 5 0.002711 -0.002104 0.000194 0.000001 0.023850 -0.000001
# 6 -0.000009 -0.000001 0.000004 -0.010091 -0.000001 0.019857
#
#
# Mechanical properties :
#
#
# Convention : Reuss Voigt Hill
#
# Bulk Modulus (GPa) = 63.82536 76.55116 70.18826
# Shear Modulus (GPa) = 34.35744 41.99259 38.17502
#
# Velocity S-wave (km/s) = 4.16163 4.60086 4.38675
# Velocity P-wave (km/s) = 7.43410 8.17389 7.81275
#
# Compressibility (1/GPa) = 0.01566775
#
# Stress axis : x y z
#
# Youngs Moduli (GPa) = 76.31943 50.60579 126.28402
#
# Poissons Ratio (x) = 0.29584 0.41919
# Poissons Ratio (y) = 0.44616 0.42832
# Poissons Ratio (z) = 0.25334 0.17164
#
# Static dielectric constant tensor:
#      x y z
#    x 3.835780 0.000080 -0.241470 
#    y 0.000080 7.419190 -0.000010 
#    z -0.241470 -0.000010 3.989190 
# 
# 
# High freq. dielectric constant tensor:
#      x y z
#    x 1.786360 0.000000 -0.001730 
#    y 0.000000 1.752880 0.000000 
#    z -0.001730 0.000000 1.794160 
# 
# From -- ./inp_files/244692.got.cif
#   From: 2010.06.25/outbox.cif.g09.slc.cpg/sg12_123_cif.got.tgz:244692.got - 2010.06.28 00:19:55.
