data_PCOD8094276
_publ_section_title
;
Structure prediction by ZEFSAII (Michael W. Deem and Ramdas Pophale) SiO2 
 PCOD8094276
Probable space group: C 2/M
;
_chemical_formula_sum "Si O2"
_cell_formula_units_Z 64
_cell_length_a 17.180440
_cell_length_b 15.415476
_cell_length_c 18.743652
_cell_angle_alpha 90.000000
_cell_angle_beta 142.049800
_cell_angle_gamma 90.000000
_cell_volume 3052.838503
_symmetry_space_group_name_H-M "C 2/M"
_symmetry_group_IT_number 12
_symmetry_cell_setting 'monoclinic'
loop_
_space_group_symop_operation_xyz
x,y,z
-x,y,-z
-x,-y,-z
x,-y,z
1/2+x,1/2+y,z
1/2-x,1/2+y,-z
1/2-x,1/2-y,-z
1/2+x,1/2-y,z
loop_
_atom_site_type_symbol
_atom_site_label
_atom_site_fract_x
_atom_site_fract_y
_atom_site_fract_z
Si Si1 0.935980 0.596817 0.650814
Si Si2 0.140268 0.341773 0.704332
Si Si3 0.464217 0.686705 0.551099
Si Si4 0.999017 0.255784 0.082349
Si Si5 0.826685 0.099621 0.959629
Si Si6 0.101508 0.599196 0.898183
Si Si7 0.335145 0.398567 0.582126
Si Si8 0.270208 0.703381 0.665640
O O1 0.909286 0.500000 0.654999
O O2 0.800667 0.640757 0.541337
O O3 0.022711 0.597217 0.642046
O O4 0.010056 0.639523 0.770392
O O5 0.254493 0.354290 0.842048
O O6 0.192964 0.362056 0.663075
O O7 0.082796 0.244285 0.662861
O O8 0.500000 0.643455 0.500000
O O9 0.440719 0.617615 0.597566
O O10 0.333853 0.739375 0.449775
O O11 0.909083 0.333537 0.045058
O O12 0.138277 0.262252 0.218378
O O13 0.948578 0.158683 0.062956
O O14 0.000000 0.273019 0.000000
O O15 0.743528 0.099179 0.971021
O O16 0.864017 0.000000 0.966909
O O17 0.065605 0.500000 0.894630
O O18 0.329733 0.500000 0.595048
O O19 0.358963 0.348988 0.673958
#
# Coordination Sequence:
#
# PCOD8094276 Si02
#       8
#     8   8   8   8   8   8   8   8
#     4   9  18  34  60  90 120 154 195 249 307 365
#     4  10  19  37  60  85 117 156 199 250 299 359
#     4  10  22  39  63  89 119 157 198 250 305 362
#     4  12  24  40  61  88 124 166 205 250 312 363
#     4  10  22  41  62  86 118 163 207 247 304 367
#     4   9  20  39  65  91 115 155 210 260 303 356
#     4  11  23  37  58  91 125 159 198 245 307 368
#     4  11  23  38  58  90 123 158 203 249 302 368
#
# _framework density 20.964096000000001
#
# number of rings (size 3 to 8) (size 9 to 14) (size 15 to 20)
#    0.000    1.750    2.500    2.625    3.500    2.250 
#    0.000    1.250    0.000    0.750    0.000    0.000 
#    0.000    0.000    0.000    0.000    0.000    0.000 
#
# Total GULP energy -396521.429947 kJ/mol
# GULP energy per Si atom -12391.294686 kJ/mol
# Density = 2.091638 g / cm^3
# Si number density = 20.964096 Si / 1000 Ang^3
#
#
#
# Elastic Constant Matrix: (Units=GPa)
#
#
# Indices 1 2 3 4 5 6 
#
# 1 129.7790 40.5589 22.4077 0.0000 -29.6075 0.0000
# 2 40.5589 66.3107 22.8481 0.0000 -15.6210 0.0000
# 3 22.4077 22.8481 49.8605 0.0000 -4.2274 0.0000
# 4 0.0000 0.0000 0.0000 16.0291 0.0000 -1.9544
# 5 -29.6075 -15.6210 -4.2274 0.0000 26.4935 0.0000
# 6 0.0000 0.0000 0.0000 -1.9544 0.0000 25.4366
#
#
#
# Elastic Compliance Matrix: (Units=1/GPa)
#
#
# Indices 1 2 3 4 5 6 
#
# 1 0.011735 -0.003805 -0.002644 0.000000 0.010449 0.000000
# 2 -0.003805 0.021778 -0.007645 0.000000 0.007368 0.000000
# 3 -0.002644 -0.007645 0.024445 0.000000 -0.003562 0.000000
# 4 0.000000 0.000000 0.000000 0.062976 0.000000 0.004839
# 5 0.010449 0.007368 -0.003562 0.000000 0.053198 0.000000
# 6 0.000000 0.000000 0.000000 0.004839 0.000000 0.039685
#
#
# Mechanical properties :
#
#
# Convention : Reuss Voigt Hill
#
# Bulk Modulus (GPa) = 33.59080 46.39773 39.99426
# Shear Modulus (GPa) = 19.84688 24.26755 22.05722
#
# Velocity S-wave (km/s) = 3.08020 3.40601 3.24719
# Velocity P-wave (km/s) = 5.35798 6.13579 5.76003
#
# Compressibility (1/GPa) = 0.02977006
#
# Stress axis : x y z
#
# Youngs Moduli (GPa) = 85.21605 45.91845 40.90749
#
# Poissons Ratio (x) = 0.17473 0.10817
# Poissons Ratio (y) = 0.32426 0.31272
# Poissons Ratio (z) = 0.22533 0.35103
#
# Static dielectric constant tensor:
#      x y z
#    x 3.985190 0.000000 0.000080 
#    y 0.000000 3.489020 0.000000 
#    z 0.000080 0.000000 3.747830 
# 
# 
# High freq. dielectric constant tensor:
#      x y z
#    x 1.831120 0.000000 -0.001740 
#    y 0.000000 1.791480 0.000000 
#    z -0.001740 0.000000 1.810480 
# 
# From -- ./inp_files/278210.got.cif
#   From: 2010.06.25/outbox.cif.g09.slc.cpg/sg12_140_cif.got.tgz:278210.got - 2010.06.28 00:19:55.
