data_PCOD8094551
_publ_section_title
;
Structure prediction by ZEFSAII (Michael W. Deem and Ramdas Pophale) SiO2 
 PCOD8094551
Probable space group: C 2/M
;
_chemical_formula_sum "Si O2"
_cell_formula_units_Z 60
_cell_length_a 27.649707
_cell_length_b 14.872664
_cell_length_c 7.900712
_cell_angle_alpha 90.000000
_cell_angle_beta 112.417325
_cell_angle_gamma 90.000000
_cell_volume 3003.446642
_symmetry_space_group_name_H-M "C 2/M"
_symmetry_group_IT_number 12
_symmetry_cell_setting 'monoclinic'
loop_
_space_group_symop_operation_xyz
x,y,z
-x,y,-z
-x,-y,-z
x,-y,z
1/2+x,1/2+y,z
1/2-x,1/2+y,-z
1/2-x,1/2-y,-z
1/2+x,1/2-y,z
loop_
_atom_site_type_symbol
_atom_site_label
_atom_site_fract_x
_atom_site_fract_y
_atom_site_fract_z
Si Si1 0.592134 0.754897 0.785875
Si Si2 0.077291 0.402006 0.331913
Si Si3 0.220898 0.105611 0.139026
Si Si4 0.838267 0.395324 0.292430
Si Si5 0.345566 0.397424 0.271717
Si Si6 0.853191 0.896228 0.661337
Si Si7 0.500000 0.847409 0.500000
Si Si8 0.940211 0.225718 0.893694
O O1 0.632417 0.837015 0.810937
O O2 0.605581 0.668612 0.689036
O O3 0.533320 0.783004 0.665405
O O4 0.593405 0.725478 0.980830
O O5 0.077415 0.500000 0.241730
O O6 0.134249 0.381212 0.487980
O O7 0.059967 0.326772 0.178026
O O8 0.037037 0.408757 0.434771
O O9 0.279665 0.143718 0.230758
O O10 0.185738 0.143742 0.246954
O O11 0.223960 0.000000 0.166664
O O12 0.198670 0.131381 0.923675
O O13 0.839770 0.500000 0.238659
O O14 0.363479 0.500000 0.261579
O O15 0.325976 0.386389 0.439692
O O16 0.908605 0.842977 0.731446
O O17 0.866476 0.000000 0.717695
O O18 0.000000 0.193346 0.000000
#
# Coordination Sequence:
#
# PCOD8094551 Si02
#       8
#     8   8   8   8   8   8   4   8
#     4  11  22  38  60  84 118 155 199 249 298 350
#     4  10  21  38  58  83 115 153 198 244 296 350
#     4   9  18  38  63  89 120 154 195 242 295 354
#     4   9  20  39  62  87 118 155 195 244 296 351
#     4  10  21  39  63  88 118 156 195 241 297 355
#     4  10  21  40  64  89 120 156 196 243 298 355
#     4  10  19  38  59  80 110 154 197 250 297 352
#     4  12  24  40  57  86 121 157 199 250 296 345
#
# _framework density 19.977049000000001
#
# number of rings (size 3 to 8) (size 9 to 14) (size 15 to 20)
#    0.000    1.867    2.667    1.800    0.000    2.133 
#    2.400    1.667    0.000    0.000    0.000    0.000 
#    0.000    0.000    0.000    0.000    0.000    0.000 
#
# Total GULP energy -371923.953960 kJ/mol
# GULP energy per Si atom -12397.465132 kJ/mol
# Density = 1.993158 g / cm^3
# Si number density = 19.977049 Si / 1000 Ang^3
#
#
#
# Elastic Constant Matrix: (Units=GPa)
#
#
# Indices 1 2 3 4 5 6 
#
# 1 104.6237 34.4103 56.6165 0.0000 10.7814 0.0000
# 2 34.4103 74.0592 26.2769 0.0000 2.5006 0.0000
# 3 56.6165 26.2769 105.8750 0.0000 -1.1305 0.0000
# 4 0.0000 0.0000 0.0000 27.2511 0.0000 -0.1393
# 5 10.7814 2.5006 -1.1305 0.0000 36.4856 0.0000
# 6 0.0000 0.0000 0.0000 -0.1393 0.0000 15.5587
#
#
#
# Elastic Compliance Matrix: (Units=1/GPa)
#
#
# Indices 1 2 3 4 5 6 
#
# 1 0.015349 -0.004443 -0.007153 0.000000 -0.004453 0.000000
# 2 -0.004443 0.016140 -0.001628 0.000000 0.000156 0.000000
# 3 -0.007153 -0.001628 0.013702 0.000000 0.002650 0.000000
# 4 0.000000 0.000000 0.000000 0.036697 0.000000 0.000329
# 5 -0.004453 0.000156 0.002650 0.000000 0.028795 0.000000
# 6 0.000000 0.000000 0.000000 0.000329 0.000000 0.064276
#
#
# Mechanical properties :
#
#
# Convention : Reuss Voigt Hill
#
# Bulk Modulus (GPa) = 53.35323 57.68504 55.51913
# Shear Modulus (GPa) = 24.07846 27.00934 25.54390
#
# Velocity S-wave (km/s) = 3.47552 3.68097 3.57972
# Velocity P-wave (km/s) = 6.54759 6.85597 6.70355
#
# Compressibility (1/GPa) = 0.01874301
#
# Stress axis : x y z
#
# Youngs Moduli (GPa) = 65.15129 61.95950 72.98097
#
# Poissons Ratio (x) = 0.27532 0.52200
# Poissons Ratio (y) = 0.28950 0.11880
# Poissons Ratio (z) = 0.46600 0.10086
#
# Static dielectric constant tensor:
#      x y z
#    x 3.654520 0.000000 0.064510 
#    y 0.000000 3.526420 0.000000 
#    z 0.064510 0.000000 3.650300 
# 
# 
# High freq. dielectric constant tensor:
#      x y z
#    x 1.769380 0.000000 0.003360 
#    y 0.000000 1.775680 0.000000 
#    z 0.003360 0.000000 1.780370 
# 
# From -- ./inp_files/96937.got.cif
#   From: 2010.06.25/outbox.cif.g09.slc.cpg/sg12_49_cif.got.tgz:96937.got - 2010.06.28 00:19:55.
