data_PCOD8094168
_publ_section_title
;
Structure prediction by ZEFSAII (Michael W. Deem and Ramdas Pophale) SiO2 
 PCOD8094168
Probable space group: C 2/M
;
_chemical_formula_sum "Si O2"
_cell_formula_units_Z 56
_cell_length_a 14.054355
_cell_length_b 18.584471
_cell_length_c 12.162090
_cell_angle_alpha 90.000000
_cell_angle_beta 60.950949
_cell_angle_gamma 90.000000
_cell_volume 2777.041016
_symmetry_space_group_name_H-M "C 2/M"
_symmetry_group_IT_number 12
_symmetry_cell_setting 'monoclinic'
loop_
_space_group_symop_operation_xyz
x,y,z
-x,y,-z
-x,-y,-z
x,-y,z
1/2+x,1/2+y,z
1/2-x,1/2+y,-z
1/2-x,1/2-y,-z
1/2+x,1/2-y,z
loop_
_atom_site_type_symbol
_atom_site_label
_atom_site_fract_x
_atom_site_fract_y
_atom_site_fract_z
Si Si1 0.273315 0.153330 0.865900
Si Si2 0.995301 0.583447 0.770928
Si Si3 0.419527 0.822743 0.456866
Si Si4 0.489789 0.337114 0.381267
Si Si5 0.316739 0.678964 0.312273
Si Si6 0.415252 0.805433 0.129716
Si Si7 0.694674 0.318238 0.137417
O O1 0.369391 0.095071 0.808181
O O2 0.201997 0.140790 0.795286
O O3 0.327740 0.232514 0.845397
O O4 0.193082 0.147501 0.015808
O O5 0.020762 0.500000 0.767981
O O6 0.082349 0.618530 0.638261
O O7 0.018420 0.623962 0.871463
O O8 0.500000 0.859234 0.500000
O O9 0.475597 0.748249 0.392697
O O10 0.299340 0.805084 0.567941
O O11 0.500000 0.369360 0.500000
O O12 0.389797 0.366341 0.359653
O O13 0.601497 0.358157 0.258457
O O14 0.379531 0.754095 0.251241
O O15 0.310710 0.834396 0.124809
O O16 0.500000 0.764010 0.000000
#
# Coordination Sequence:
#
# PCOD8094168 Si02
#       7
#     8   8   8   8   8   8   8
#     4  10  19  37  54  85 115 154 203 245 302 357
#     4  12  24  39  58  87 130 169 200 242 299 371
#     4  11  20  37  55  84 126 153 200 248 304 367
#     4  11  21  33  54  89 122 150 188 244 313 372
#     4  11  22  33  60  86 123 157 196 260 312 357
#     4  11  21  36  58  88 124 159 198 252 312 368
#     4  10  20  34  59  82 125 156 189 260 311 353
#
# _framework density 20.165348999999999
#
# number of rings (size 3 to 8) (size 9 to 14) (size 15 to 20)
#    0.000    1.143    5.714    3.000    6.000    0.571 
#    0.000    0.000    0.000    0.000    0.000    6.000 
#    0.000    0.000    0.000    0.000    0.000    0.000 
#
# Total GULP energy -346979.266955 kJ/mol
# GULP energy per Si atom -12392.116677 kJ/mol
# Density = 2.011945 g / cm^3
# Si number density = 20.165349 Si / 1000 Ang^3
#
#
#
# Elastic Constant Matrix: (Units=GPa)
#
#
# Indices 1 2 3 4 5 6 
#
# 1 139.7860 7.6979 62.2827 0.0000 3.3093 0.0000
# 2 7.6979 42.4635 13.3794 0.0000 -3.5755 0.0000
# 3 62.2827 13.3794 155.2504 0.0000 -9.0816 0.0000
# 4 0.0000 0.0000 0.0000 10.3567 0.0000 -2.0989
# 5 3.3093 -3.5755 -9.0816 0.0000 43.4535 0.0000
# 6 0.0000 0.0000 0.0000 -2.0989 0.0000 16.2615
#
#
#
# Elastic Compliance Matrix: (Units=1/GPa)
#
#
# Indices 1 2 3 4 5 6 
#
# 1 0.008812 -0.000596 -0.003569 0.000000 -0.001466 0.000000
# 2 -0.000596 0.024354 -0.001761 0.000000 0.001681 0.000000
# 3 -0.003569 -0.001761 0.008132 0.000000 0.001826 0.000000
# 4 0.000000 0.000000 0.000000 0.099149 0.000000 0.012797
# 5 -0.001466 0.001681 0.001826 0.000000 0.023645 0.000000
# 6 0.000000 0.000000 0.000000 0.012797 0.000000 0.063147
#
#
# Mechanical properties :
#
#
# Convention : Reuss Voigt Hill
#
# Bulk Modulus (GPa) = 33.96295 56.02444 44.99369
# Shear Modulus (GPa) = 20.08785 30.95702 25.52244
#
# Velocity S-wave (km/s) = 3.15962 3.92236 3.56147
# Velocity P-wave (km/s) = 5.49452 6.95385 6.26681
#
# Compressibility (1/GPa) = 0.02944385
#
# Stress axis : x y z
#
# Youngs Moduli (GPa) = 113.48525 41.06066 122.97394
#
# Poissons Ratio (x) = 0.02448 0.43895
# Poissons Ratio (y) = 0.06766 0.21659
# Poissons Ratio (z) = 0.40508 0.07232
#
# Static dielectric constant tensor:
#      x y z
#    x 3.992250 0.000000 0.320840 
#    y 0.000000 2.856380 0.000000 
#    z 0.320840 0.000000 4.075990 
# 
# 
# High freq. dielectric constant tensor:
#      x y z
#    x 1.805350 0.000000 0.009740 
#    y 0.000000 1.688910 0.000000 
#    z 0.009740 0.000000 1.816490 
# 
# From -- ./inp_files/146022.got.cif
#   From: 2010.06.25/outbox.cif.g09.slc.cpg/sg12_74_cif.got.tgz:146022.got - 2010.06.28 00:19:55.
