data_PCOD8094934
_publ_section_title
;
Structure prediction by ZEFSAII (Michael W. Deem and Ramdas Pophale) SiO2 
 PCOD8094934
Probable space group: C 2/M
;
_chemical_formula_sum "Si O2"
_cell_formula_units_Z 44
_cell_length_a 23.516280
_cell_length_b 13.063328
_cell_length_c 14.889243
_cell_angle_alpha 90.000000
_cell_angle_beta 152.236664
_cell_angle_gamma 90.000000
_cell_volume 2130.657604
_symmetry_space_group_name_H-M "C 2/M"
_symmetry_group_IT_number 12
_symmetry_cell_setting 'monoclinic'
loop_
_space_group_symop_operation_xyz
x,y,z
-x,y,-z
-x,-y,-z
x,-y,z
1/2+x,1/2+y,z
1/2-x,1/2+y,-z
1/2-x,1/2-y,-z
1/2+x,1/2-y,z
loop_
_atom_site_type_symbol
_atom_site_label
_atom_site_fract_x
_atom_site_fract_y
_atom_site_fract_z
Si Si1 0.395711 0.381064 0.979090
Si Si2 0.267767 0.883423 0.081970
Si Si3 0.000000 0.734479 0.000000
Si Si4 0.444649 0.704276 0.325773
Si Si5 0.648201 0.115691 0.341020
Si Si6 0.116984 0.193011 0.403774
O O1 0.388369 0.500000 0.941124
O O2 0.388990 0.308893 0.880799
O O3 0.526398 0.354924 0.204080
O O4 0.290886 0.352805 0.904110
O O5 0.392188 0.819506 0.245232
O O6 0.309123 0.000000 0.137773
O O7 0.169608 0.866850 0.864184
O O8 0.033470 0.658223 0.126442
O O9 0.500000 0.675819 0.500000
O O10 0.559394 0.688945 0.421404
O O11 0.764424 0.121262 0.436941
O O12 0.659290 0.189932 0.442769
O O13 0.625212 0.000000 0.341463
#
# Coordination Sequence:
#
# PCOD8094934 Si02
#       6
#     8   8   4   8   8   8
#     4   9  17  33  55  78 109 146 186 229 274 330
#     4   9  20  38  57  83 118 154 191 235 287 339
#     4  10  20  30  54  84 112 140 184 224 284 334
#     4  10  21  37  62  84 117 153 191 240 285 338
#     4  10  20  36  55  79 111 145 181 230 281 333
#     4   9  20  36  56  79 108 146 188 228 278 336
#
# _framework density 20.650901999999999
#
# number of rings (size 3 to 8) (size 9 to 14) (size 15 to 20)
#    0.000    2.545    0.000    1.091    2.545    2.182 
#    0.000    0.909    0.000    0.000    0.000    0.000 
#    0.000    0.000    0.000    0.000    0.000    0.000 
#
# Total GULP energy -272662.327234 kJ/mol
# GULP energy per Si atom -12393.742147 kJ/mol
# Density = 2.060390 g / cm^3
# Si number density = 20.650902 Si / 1000 Ang^3
#
#
#
# Elastic Constant Matrix: (Units=GPa)
#
#
# Indices 1 2 3 4 5 6 
#
# 1 59.2275 -4.8445 7.6645 0.0000 -9.2363 0.0000
# 2 -4.8445 83.7318 -10.0352 0.0000 -4.6527 0.0000
# 3 7.6645 -10.0352 28.0123 0.0000 -2.9565 0.0000
# 4 0.0000 0.0000 0.0000 18.8084 0.0000 0.1208
# 5 -9.2363 -4.6527 -2.9565 0.0000 28.8566 0.0000
# 6 0.0000 0.0000 0.0000 0.1208 0.0000 24.9112
#
#
#
# Elastic Compliance Matrix: (Units=1/GPa)
#
#
# Indices 1 2 3 4 5 6 
#
# 1 0.018362 0.000880 -0.004118 0.000000 0.005597 0.000000
# 2 0.000880 0.012701 0.004605 0.000000 0.002801 0.000000
# 3 -0.004118 0.004605 0.038834 0.000000 0.003403 0.000000
# 4 0.000000 0.000000 0.000000 0.053169 0.000000 -0.000258
# 5 0.005597 0.002801 0.003403 0.000000 0.037246 0.000000
# 6 0.000000 0.000000 0.000000 -0.000258 0.000000 0.040144
#
#
# Mechanical properties :
#
#
# Convention : Reuss Voigt Hill
#
# Bulk Modulus (GPa) = 13.76820 17.39347 15.58084
# Shear Modulus (GPa) = 22.52929 26.39436 24.46182
#
# Velocity S-wave (km/s) = 3.30655 3.57896 3.44545
# Velocity P-wave (km/s) = 4.61078 5.05168 4.83626
#
# Compressibility (1/GPa) = 0.07263113
#
# Stress axis : x y z
#
# Youngs Moduli (GPa) = 54.46094 78.73165 25.75045
#
# Poissons Ratio (x) = -0.06927 0.10604
# Poissons Ratio (y) = -0.04792 -0.11858
# Poissons Ratio (z) = 0.22427 -0.36257
#
# Static dielectric constant tensor:
#      x y z
#    x 3.836850 0.000000 -0.013060 
#    y 0.000000 3.751730 0.000000 
#    z -0.013060 0.000000 3.516740 
# 
# 
# High freq. dielectric constant tensor:
#      x y z
#    x 1.804430 0.000000 0.003260 
#    y 0.000000 1.805210 0.000000 
#    z 0.003260 0.000000 1.790570 
# 
# From -- ./inp_files/214666.got.cif
#   From: 2010.06.25/outbox.cif.g09.slc.cpg/sg12_108_cif.got.tgz:214666.got - 2010.06.28 00:19:55.
