data_PCOD8094252
_publ_section_title
;
Structure prediction by ZEFSAII (Michael W. Deem and Ramdas Pophale) SiO2 
 PCOD8094252
Probable space group: C 2/M
;
_chemical_formula_sum "Si O2"
_cell_formula_units_Z 64
_cell_length_a 30.225604
_cell_length_b 8.974947
_cell_length_c 19.083518
_cell_angle_alpha 90.000000
_cell_angle_beta 139.742345
_cell_angle_gamma 90.000000
_cell_volume 3345.412770
_symmetry_space_group_name_H-M "C 2/M"
_symmetry_group_IT_number 12
_symmetry_cell_setting 'monoclinic'
loop_
_space_group_symop_operation_xyz
x,y,z
-x,y,-z
-x,-y,-z
x,-y,z
1/2+x,1/2+y,z
1/2-x,1/2+y,-z
1/2-x,1/2-y,-z
1/2+x,1/2-y,z
loop_
_atom_site_type_symbol
_atom_site_label
_atom_site_fract_x
_atom_site_fract_y
_atom_site_fract_z
Si Si1 0.022014 0.823044 0.948785
Si Si2 0.900630 0.826017 0.322240
Si Si3 0.603094 0.824210 0.263074
Si Si4 0.356713 0.175317 0.534457
Si Si5 0.770047 0.678154 0.097728
Si Si6 0.945359 0.826914 0.528717
Si Si7 0.786186 0.174477 0.695917
Si Si8 0.826723 0.173830 0.896705
O O1 0.971744 0.747236 0.832504
O O2 0.017979 0.000000 0.936652
O O3 0.097198 0.759115 0.020777
O O4 0.000000 0.773088 0.000000
O O5 0.844729 0.729488 0.213609
O O6 0.905942 0.777303 0.410143
O O7 0.974111 0.792638 0.376820
O O8 0.881970 0.000000 0.293041
O O9 0.633917 0.774239 0.374527
O O10 0.650098 0.761874 0.258401
O O11 0.597518 0.000000 0.249366
O O12 0.417089 0.239421 0.560634
O O13 0.283348 0.237533 0.421391
O O14 0.358688 0.000000 0.527787
O O15 0.769895 0.500000 0.091365
O O16 0.713799 0.738666 0.085529
O O17 0.750000 0.750000 0.000000
O O18 0.932572 0.000000 0.525099
O O19 0.782348 0.207907 0.773898
O O20 0.797699 0.000000 0.694727
O O21 0.835470 0.000000 0.918409
#
# Coordination Sequence:
#
# PCOD8094252 Si02
#       8
#     8   8   8   8   8   8   8   8
#     4  10  19  37  62  81 102 142 193 234 273 334
#     4   9  19  38  60  84 114 147 188 237 285 337
#     4  11  23  36  51  81 118 148 179 229 287 333
#     4  10  22  36  53  81 118 150 185 230 278 336
#     4  11  23  39  59  85 118 153 190 236 287 341
#     4   9  19  36  60  85 112 148 189 234 283 338
#     4  10  19  37  60  79 105 146 191 232 273 331
#     4   9  19  36  60  85 105 137 190 238 277 327
#
# _framework density 19.130673000000002
#
# number of rings (size 3 to 8) (size 9 to 14) (size 15 to 20)
#    0.000    2.125    1.250    2.625    0.000    4.750 
#    0.000    7.500    0.000    0.000    0.000    0.000 
#    0.000    0.000    0.000    0.000    0.000    0.000 
#
# Total GULP energy -396831.095449 kJ/mol
# GULP energy per Si atom -12400.971733 kJ/mol
# Density = 1.908713 g / cm^3
# Si number density = 19.130673 Si / 1000 Ang^3
#
#
#
# Elastic Constant Matrix: (Units=GPa)
#
#
# Indices 1 2 3 4 5 6 
#
# 1 96.8141 25.1475 60.2612 0.0000 -0.2620 0.0000
# 2 25.1475 37.8873 39.5161 0.0000 -0.1728 0.0000
# 3 60.2612 39.5161 145.4640 0.0000 8.7400 0.0000
# 4 0.0000 0.0000 0.0000 34.5090 0.0000 -0.1725
# 5 -0.2620 -0.1728 8.7400 0.0000 27.1139 0.0000
# 6 0.0000 0.0000 0.0000 -0.1725 0.0000 27.4485
#
#
#
# Elastic Compliance Matrix: (Units=1/GPa)
#
#
# Indices 1 2 3 4 5 6 
#
# 1 0.014565 -0.004550 -0.004900 0.000000 0.001691 0.000000
# 2 -0.004550 0.038584 -0.008779 0.000000 0.003032 0.000000
# 3 -0.004900 -0.008779 0.011518 0.000000 -0.003816 0.000000
# 4 0.000000 0.000000 0.000000 0.028979 0.000000 0.000182
# 5 0.001691 0.003032 -0.003816 0.000000 0.038147 0.000000
# 6 0.000000 0.000000 0.000000 0.000182 0.000000 0.036433
#
#
# Mechanical properties :
#
#
# Convention : Reuss Voigt Hill
#
# Bulk Modulus (GPa) = 35.44675 58.89058 47.16866
# Shear Modulus (GPa) = 23.35503 28.16367 25.75935
#
# Velocity S-wave (km/s) = 3.49781 3.84105 3.67344
# Velocity P-wave (km/s) = 5.90609 7.10787 6.53466
#
# Compressibility (1/GPa) = 0.02821133
#
# Stress axis : x y z
#
# Youngs Moduli (GPa) = 68.65731 25.91744 86.81733
#
# Poissons Ratio (x) = 0.11791 0.42537
# Poissons Ratio (y) = 0.31236 0.76217
# Poissons Ratio (z) = 0.33639 0.22753
#
# Static dielectric constant tensor:
#      x y z
#    x 3.632980 0.000000 0.066160 
#    y 0.000000 3.260600 0.000000 
#    z 0.066160 0.000000 3.681360 
# 
# 
# High freq. dielectric constant tensor:
#      x y z
#    x 1.749590 0.000000 0.004050 
#    y 0.000000 1.723990 0.000000 
#    z 0.004050 0.000000 1.755750 
# 
# From -- ./inp_files/295785.got.cif
#   From: 2010.06.25/outbox.cif.g09.slc.cpg/sg12_148_cif.got.tgz:295785.got - 2010.06.28 00:19:55.
