data_PCOD8094585
_publ_section_title
;
Structure prediction by ZEFSAII (Michael W. Deem and Ramdas Pophale) SiO2 
 PCOD8094585
Probable space group: C 2/M
;
_chemical_formula_sum "Si O2"
_cell_formula_units_Z 56
_cell_length_a 20.261594
_cell_length_b 9.000168
_cell_length_c 29.697810
_cell_angle_alpha 90.000000
_cell_angle_beta 33.858022
_cell_angle_gamma 90.000000
_cell_volume 3017.244690
_symmetry_space_group_name_H-M "C 2/M"
_symmetry_group_IT_number 12
_symmetry_cell_setting 'monoclinic'
loop_
_space_group_symop_operation_xyz
x,y,z
-x,y,-z
-x,-y,-z
x,-y,z
1/2+x,1/2+y,z
1/2-x,1/2+y,-z
1/2-x,1/2-y,-z
1/2+x,1/2-y,z
loop_
_atom_site_type_symbol
_atom_site_label
_atom_site_fract_x
_atom_site_fract_y
_atom_site_fract_z
Si Si1 0.913069 0.328224 0.431370
Si Si2 0.903475 0.170273 0.176507
Si Si3 0.959095 0.675598 0.236046
Si Si4 0.166991 0.672843 0.258817
Si Si5 0.918994 0.170748 0.004463
Si Si6 0.787965 0.674043 0.411168
Si Si7 0.678072 0.675965 0.157309
O O1 0.886165 0.500000 0.453246
O O2 0.866919 0.273634 0.408796
O O3 0.843236 0.244602 0.510867
O O4 0.052987 0.293820 0.354717
O O5 0.782588 0.218899 0.220773
O O6 0.921678 0.280794 0.207277
O O7 0.011670 0.190789 0.081182
O O8 0.895319 0.000000 0.197825
O O9 0.979741 0.500000 0.227978
O O10 0.079956 0.757456 0.179896
O O11 0.854150 0.728786 0.328786
O O12 0.170445 0.500000 0.242460
O O13 0.158184 0.768847 0.219046
O O14 0.880549 0.000000 0.034143
O O15 0.804510 0.273505 0.066727
O O16 0.000000 0.224189 0.000000
O O17 0.770837 0.500000 0.419990
O O18 0.669874 0.500000 0.160606
#
# Coordination Sequence:
#
# PCOD8094585 Si02
#       7
#     8   8   8   8   8   8   8
#     4   9  17  31  56  85 112 144 189 237 282 336
#     4  10  22  39  62  87 114 150 194 238 285 344
#     4  11  23  41  60  81 118 160 193 233 291 348
#     4  10  19  38  61  85 117 154 193 234 288 347
#     4  10  20  39  64  86 114 154 191 233 291 344
#     4   9  18  33  54  81 113 149 189 233 284 340
#     4  12  24  36  59  90 118 148 194 245 283 336
#
# _framework density 18.559979999999999
#
# number of rings (size 3 to 8) (size 9 to 14) (size 15 to 20)
#    0.000    1.857    2.857    1.714    0.000    3.714 
#    0.000    0.714    0.000    4.286    0.000    0.000 
#    0.000    0.000    0.000    0.000    0.000    0.000 
#
# Total GULP energy -347283.930317 kJ/mol
# GULP energy per Si atom -12402.997511 kJ/mol
# Density = 1.851774 g / cm^3
# Si number density = 18.559980 Si / 1000 Ang^3
#
#
#
# Elastic Constant Matrix: (Units=GPa)
#
#
# Indices 1 2 3 4 5 6 
#
# 1 59.5518 24.4801 20.8401 0.0001 0.5026 0.0028
# 2 24.4801 63.8499 27.9199 -0.0030 -2.1323 0.0046
# 3 20.8401 27.9199 99.8025 0.0012 -4.5115 0.0016
# 4 0.0001 -0.0030 0.0012 33.3937 0.0000 1.3361
# 5 0.5026 -2.1323 -4.5115 0.0000 28.2610 0.0000
# 6 0.0028 0.0046 0.0016 1.3361 0.0000 29.9967
#
#
#
# Elastic Compliance Matrix: (Units=1/GPa)
#
#
# Indices 1 2 3 4 5 6 
#
# 1 0.020456 -0.006827 -0.002419 -0.000001 -0.001265 -0.000001
# 2 -0.006827 0.020132 -0.004162 0.000002 0.000976 -0.000002
# 3 -0.002419 -0.004162 0.011762 -0.000001 0.001607 0.000000
# 4 -0.000001 0.000002 -0.000001 0.029999 0.000000 -0.001336
# 5 -0.001265 0.000976 0.001607 0.000000 0.035737 0.000000
# 6 -0.000001 -0.000002 0.000000 -0.001336 0.000000 0.033396
#
#
# Mechanical properties :
#
#
# Convention : Reuss Voigt Hill
#
# Bulk Modulus (GPa) = 39.16482 41.07603 40.12042
# Shear Modulus (GPa) = 26.76521 28.32789 27.54655
#
# Velocity S-wave (km/s) = 3.80161 3.91101 3.85670
# Velocity P-wave (km/s) = 6.35745 6.52489 6.44172
#
# Compressibility (1/GPa) = 0.02553312
#
# Stress axis : x y z
#
# Youngs Moduli (GPa) = 48.88610 49.67232 85.02081
#
# Poissons Ratio (x) = 0.33913 0.20563
# Poissons Ratio (y) = 0.33376 0.35387
# Poissons Ratio (z) = 0.11824 0.20674
#
# Static dielectric constant tensor:
#      x y z
#    x 3.299790 0.000000 -0.137400 
#    y 0.000000 3.316420 0.000000 
#    z -0.137400 0.000000 3.650400 
# 
# 
# High freq. dielectric constant tensor:
#      x y z
#    x 1.700920 0.000000 -0.007480 
#    y 0.000000 1.713130 0.000000 
#    z -0.007480 0.000000 1.737340 
# 
# From -- ./inp_files/380574.got.cif
#   From: 2010.06.25/outbox.cif.g09.slc.cpg/sg12_191_cif.got.tgz:380574.got - 2010.06.28 00:19:55.
