data_PCOD8094902
_publ_section_title
;
Structure prediction by ZEFSAII (Michael W. Deem and Ramdas Pophale) SiO2 
 PCOD8094902
Probable space group: C 2/M
;
_chemical_formula_sum "Si O2"
_cell_formula_units_Z 64
_cell_length_a 16.771248
_cell_length_b 25.344144
_cell_length_c 9.181211
_cell_angle_alpha 90.000000
_cell_angle_beta 79.217825
_cell_angle_gamma 90.000000
_cell_volume 3833.603882
_symmetry_space_group_name_H-M "C 2/M"
_symmetry_group_IT_number 12
_symmetry_cell_setting 'monoclinic'
loop_
_space_group_symop_operation_xyz
x,y,z
-x,y,-z
-x,-y,-z
x,-y,z
1/2+x,1/2+y,z
1/2-x,1/2+y,-z
1/2-x,1/2-y,-z
1/2+x,1/2-y,z
loop_
_atom_site_type_symbol
_atom_site_label
_atom_site_fract_x
_atom_site_fract_y
_atom_site_fract_z
Si Si1 0.967657 0.870170 0.162333
Si Si2 0.811204 0.805610 0.246033
Si Si3 0.580615 0.288871 0.269196
Si Si4 0.656146 0.806590 0.114776
Si Si5 0.841661 0.315973 0.223589
Si Si6 0.503645 0.815567 0.335658
Si Si7 0.081609 0.940213 0.562939
Si Si8 0.692371 0.349222 0.439171
O O1 0.896079 0.828287 0.158770
O O2 0.935738 0.918172 0.270037
O O3 0.042983 0.840544 0.210723
O O4 0.000000 0.893923 0.000000
O O5 0.743234 0.820718 0.151012
O O6 0.817865 0.743543 0.268462
O O7 0.783889 0.830710 0.407879
O O8 0.509240 0.248602 0.342187
O O9 0.630402 0.306304 0.394202
O O10 0.640165 0.257137 0.135711
O O11 0.585008 0.837258 0.227943
O O12 0.651770 0.825007 0.950530
O O13 0.772323 0.353977 0.312537
O O14 0.925747 0.332582 0.269841
O O15 0.500000 0.839138 0.500000
O O16 0.151019 0.906687 0.458780
O O17 0.000000 0.936401 0.500000
O O18 0.112747 0.000000 0.566053
#
# Coordination Sequence:
#
# PCOD8094902 Si02
#       8
#     8   8   8   8   8   8   8   8
#     4  11  22  32  53  72 100 134 176 204 251 300
#     4  11  20  31  44  69 102 132 169 206 237 295
#     4  10  20  30  46  71 105 136 175 202 233 293
#     4  10  22  29  44  69 106 142 165 200 240 281
#     4  12  19  31  47  69 104 135 174 202 240 295
#     4  10  20  31  46  64 103 144 167 200 232 281
#     4  10  22  39  55  71  94 125 169 225 267 299
#     4  11  22  32  52  72  94 131 178 206 254 299
#
# _framework density 16.694472999999999
#
# number of rings (size 3 to 8) (size 9 to 14) (size 15 to 20)
#    0.750    0.625    3.750    3.375    3.500    0.250 
#    0.000    0.000    0.000    0.000    0.000    0.000 
#    0.000   14.500    0.000    0.000    0.000    1.500 
#
# Total GULP energy -396752.740072 kJ/mol
# GULP energy per Si atom -12398.523127 kJ/mol
# Density = 1.665648 g / cm^3
# Si number density = 16.694473 Si / 1000 Ang^3
#
#
#
# Elastic Constant Matrix: (Units=GPa)
#
#
# Indices 1 2 3 4 5 6 
#
# 1 108.4507 21.5911 43.5638 0.0000 10.2943 0.0000
# 2 21.5911 48.6664 24.7680 0.0000 -7.4733 0.0000
# 3 43.5638 24.7680 118.4209 0.0000 0.8138 0.0000
# 4 0.0000 0.0000 0.0000 12.9051 0.0000 0.0935
# 5 10.2943 -7.4733 0.8138 0.0000 31.4183 0.0000
# 6 0.0000 0.0000 0.0000 0.0935 0.0000 14.2913
#
#
#
# Elastic Compliance Matrix: (Units=1/GPa)
#
#
# Indices 1 2 3 4 5 6 
#
# 1 0.011919 -0.004270 -0.003458 0.000000 -0.004831 0.000000
# 2 -0.004270 0.025553 -0.003826 0.000000 0.007576 0.000000
# 3 -0.003458 -0.003826 0.010517 0.000000 -0.000049 0.000000
# 4 0.000000 0.000000 0.000000 0.077492 0.000000 -0.000507
# 5 -0.004831 0.007576 -0.000049 0.000000 0.035215 0.000000
# 6 0.000000 0.000000 0.000000 -0.000507 0.000000 0.069976
#
#
# Mechanical properties :
#
#
# Convention : Reuss Voigt Hill
#
# Bulk Modulus (GPa) = 40.19112 50.59819 45.39466
# Shear Modulus (GPa) = 19.07868 24.09729 21.58799
#
# Velocity S-wave (km/s) = 3.38422 3.80337 3.59990
# Velocity P-wave (km/s) = 6.27673 7.04710 6.67304
#
# Compressibility (1/GPa) = 0.02488112
#
# Stress axis : x y z
#
# Youngs Moduli (GPa) = 83.90285 39.13470 95.08234
#
# Poissons Ratio (x) = 0.16709 0.32883
# Poissons Ratio (y) = 0.35823 0.36377
# Poissons Ratio (z) = 0.29016 0.14972
#
# Static dielectric constant tensor:
#      x y z
#    x 3.240190 0.000000 -0.014770 
#    y 0.000000 2.674510 0.000000 
#    z -0.014770 0.000000 3.179950 
# 
# 
# High freq. dielectric constant tensor:
#      x y z
#    x 1.656180 0.000000 0.002870 
#    y 0.000000 1.570290 0.000000 
#    z 0.002870 0.000000 1.657990 
# 
# From -- ./inp_files/66898.got.cif
#   From: 2010.06.25/outbox.cif.g09.slc.cpg/sg12_34_cif.got.tgz:66898.got - 2010.06.28 00:19:55.
