data_PCOD8094241
_publ_section_title
;
Structure prediction by ZEFSAII (Michael W. Deem and Ramdas Pophale) SiO2 
 PCOD8094241
Probable space group: C 2/M
;
_chemical_formula_sum "Si O2"
_cell_formula_units_Z 64
_cell_length_a 9.153450
_cell_length_b 29.098680
_cell_length_c 17.645717
_cell_angle_alpha 90.000000
_cell_angle_beta 140.504272
_cell_angle_gamma 90.000000
_cell_volume 2989.294154
_symmetry_space_group_name_H-M "C 2/M"
_symmetry_group_IT_number 12
_symmetry_cell_setting 'monoclinic'
loop_
_space_group_symop_operation_xyz
x,y,z
-x,y,-z
-x,-y,-z
x,-y,z
1/2+x,1/2+y,z
1/2-x,1/2+y,-z
1/2-x,1/2-y,-z
1/2+x,1/2-y,z
loop_
_atom_site_type_symbol
_atom_site_label
_atom_site_fract_x
_atom_site_fract_y
_atom_site_fract_z
Si Si1 0.668211 0.050923 0.777906
Si Si2 0.057375 0.885393 0.935545
Si Si3 0.128650 0.296664 0.472701
Si Si4 0.150012 0.729821 0.880344
Si Si5 0.314058 0.296024 0.793098
Si Si6 0.518506 0.374285 0.417090
Si Si7 0.505400 0.874905 0.174752
Si Si8 0.644277 0.050668 0.490637
O O1 0.926412 0.067802 0.860005
O O2 0.543480 0.090512 0.775781
O O3 0.527209 0.046088 0.646423
O O4 0.680718 0.000000 0.822096
O O5 0.969681 0.841675 0.853529
O O6 0.000000 0.874274 0.000000
O O7 0.336277 0.892446 0.038347
O O8 0.250000 0.250000 0.500000
O O9 0.320301 0.335713 0.554112
O O10 0.000000 0.292058 0.500000
O O11 0.944514 0.309396 0.333685
O O12 0.320464 0.732206 0.876153
O O13 0.923824 0.761089 0.775152
O O14 0.079283 0.676846 0.848781
O O15 0.250000 0.750000 0.000000
O O16 0.500000 0.366589 0.500000
O O17 0.278949 0.373827 0.274336
O O18 0.626876 0.423303 0.442034
O O19 0.500000 0.075530 0.500000
O O20 0.724217 0.000000 0.549599
#
# Coordination Sequence:
#
# PCOD8094241 Si02
#       8
#     8   8   8   8   8   8   8   8
#     4  10  20  38  67  98 134 174 222 284 346 407
#     4  10  19  37  59  91 126 168 215 272 331 398
#     4  12  26  45  65  95 131 181 232 284 344 419
#     4  12  22  39  63  93 125 172 217 277 338 395
#     4  12  22  40  67  89 126 172 223 281 335 401
#     4  12  23  40  65  97 138 179 215 284 352 408
#     4  11  22  38  60  95 135 165 223 278 332 411
#     4  10  22  42  69 101 133 177 230 275 338 421
#
# _framework density 21.409737
#
# number of rings (size 3 to 8) (size 9 to 14) (size 15 to 20)
#    0.000    0.875    5.000    4.125    0.000    3.000 
#    0.000    0.000    0.000    0.000    0.000    2.625 
#    0.000    0.000    0.000    0.000    0.000    0.000 
#
# Total GULP energy -396429.094534 kJ/mol
# GULP energy per Si atom -12388.409204 kJ/mol
# Density = 2.136101 g / cm^3
# Si number density = 21.409737 Si / 1000 Ang^3
#
#
#
# Elastic Constant Matrix: (Units=GPa)
#
#
# Indices 1 2 3 4 5 6 
#
# 1 95.2620 49.6032 38.1463 0.0000 10.8387 0.0000
# 2 49.6032 141.9051 42.9447 0.0000 10.0533 0.0000
# 3 38.1463 42.9447 140.5343 -0.0001 35.5669 -0.0001
# 4 0.0000 0.0000 -0.0001 13.7357 0.0000 -7.4946
# 5 10.8387 10.0533 35.5669 0.0000 34.6759 0.0000
# 6 0.0000 0.0000 -0.0001 -7.4946 0.0000 16.9833
#
#
#
# Elastic Compliance Matrix: (Units=1/GPa)
#
#
# Indices 1 2 3 4 5 6 
#
# 1 0.013578 -0.004006 -0.002271 0.000000 -0.000754 0.000000
# 2 -0.004006 0.008948 -0.001766 0.000000 0.000469 0.000000
# 3 -0.002271 -0.001766 0.010754 0.000000 -0.009809 0.000000
# 4 0.000000 0.000000 0.000000 0.095892 0.000000 0.042316
# 5 -0.000754 0.000469 -0.009809 0.000000 0.038999 0.000000
# 6 0.000000 0.000000 0.000000 0.042316 0.000000 0.077555
#
#
# Mechanical properties :
#
#
# Convention : Reuss Voigt Hill
#
# Bulk Modulus (GPa) = 58.15327 71.00998 64.58163
# Shear Modulus (GPa) = 18.68854 29.54612 24.11733
#
# Velocity S-wave (km/s) = 2.95769 3.71891 3.35993
# Velocity P-wave (km/s) = 6.23578 7.18885 6.72921
#
# Compressibility (1/GPa) = 0.01719594
#
# Stress axis : x y z
#
# Youngs Moduli (GPa) = 73.64748 111.75269 92.98765
#
# Poissons Ratio (x) = 0.44764 0.21116
# Poissons Ratio (y) = 0.29501 0.16420
# Poissons Ratio (z) = 0.16724 0.19734
#
# Static dielectric constant tensor:
#      x y z
#    x 4.285000 0.000000 0.887550 
#    y 0.000000 3.950480 0.000000 
#    z 0.887550 0.000000 5.068440 
# 
# 
# High freq. dielectric constant tensor:
#      x y z
#    x 1.809840 0.000000 0.018500 
#    y 0.000000 1.848110 0.000000 
#    z 0.018500 0.000000 1.856540 
# 
# From -- ./inp_files/260394.got.cif
#   From: 2010.06.25/outbox.cif.g09.slc.cpg/sg12_131_cif.got.tgz:260394.got - 2010.06.28 00:19:55.
