data_PCOD8094692
_publ_section_title
;
Structure prediction by ZEFSAII (Michael W. Deem and Ramdas Pophale) SiO2 
 PCOD8094692
Probable space group: C 2/M
;
_chemical_formula_sum "Si O2"
_cell_formula_units_Z 56
_cell_length_a 19.051298
_cell_length_b 23.047460
_cell_length_c 9.752421
_cell_angle_alpha 90.000000
_cell_angle_beta 139.143896
_cell_angle_gamma 90.000000
_cell_volume 2801.206260
_symmetry_space_group_name_H-M "C 2/M"
_symmetry_group_IT_number 12
_symmetry_cell_setting 'monoclinic'
loop_
_space_group_symop_operation_xyz
x,y,z
-x,y,-z
-x,-y,-z
x,-y,z
1/2+x,1/2+y,z
1/2-x,1/2+y,-z
1/2-x,1/2-y,-z
1/2+x,1/2-y,z
loop_
_atom_site_type_symbol
_atom_site_label
_atom_site_fract_x
_atom_site_fract_y
_atom_site_fract_z
Si Si1 0.256223 0.637039 0.392969
Si Si2 0.426868 0.066493 0.760739
Si Si3 0.961324 0.663111 0.597346
Si Si4 0.093435 0.065243 0.035125
Si Si5 0.911022 0.282240 0.984881
Si Si6 0.780437 0.825787 0.716227
Si Si7 0.949869 0.065630 0.566941
O O1 0.192784 0.585103 0.374639
O O2 0.184691 0.671819 0.178629
O O3 0.293078 0.680471 0.569649
O O4 0.356501 0.610266 0.463812
O O5 0.468537 0.102966 0.692240
O O6 0.429197 0.000000 0.719317
O O7 0.500000 0.079109 0.000000
O O8 0.840706 0.688283 0.416856
O O9 0.000000 0.653152 0.500000
O O10 0.037355 0.709180 0.788555
O O11 0.192777 0.108723 0.196201
O O12 0.133060 0.000000 0.129711
O O13 0.000000 0.085111 0.000000
O O14 0.047927 0.068232 0.816095
O O15 0.863503 0.217681 0.910387
O O16 0.000000 0.292805 0.000000
O O17 0.000000 0.086782 0.500000
O O18 0.903360 0.000000 0.489404
#
# Coordination Sequence:
#
# PCOD8094692 Si02
#       7
#     8   8   8   8   8   8   8
#     4  11  20  38  64  94 117 167 206 263 302 372
#     4  10  19  38  65  92 121 164 210 252 304 367
#     4  11  25  44  61  92 132 162 204 264 317 370
#     4  10  20  38  61  90 122 156 205 260 304 368
#     4  12  23  42  66  91 124 158 216 265 298 370
#     4  11  24  38  68  93 115 168 212 254 318 368
#     4  10  22  38  59  92 130 162 201 256 314 371
#
# _framework density 19.991388000000001
#
# number of rings (size 3 to 8) (size 9 to 14) (size 15 to 20)
#    0.000    1.286    5.714    1.286    0.000    4.286 
#    0.000    1.429    0.000    0.000    0.000    0.000 
#    0.000    0.000    0.000    0.000    0.000    0.000 
#
# Total GULP energy -347278.207385 kJ/mol
# GULP energy per Si atom -12402.793121 kJ/mol
# Density = 1.994589 g / cm^3
# Si number density = 19.991388 Si / 1000 Ang^3
#
#
#
# Elastic Constant Matrix: (Units=GPa)
#
#
# Indices 1 2 3 4 5 6 
#
# 1 126.9518 40.1226 51.7742 0.0000 -15.6618 0.0000
# 2 40.1226 99.5694 52.4249 0.0000 7.6872 0.0000
# 3 51.7742 52.4249 109.5518 0.0000 -2.3659 0.0000
# 4 0.0000 0.0000 0.0000 38.7855 0.0000 8.8905
# 5 -15.6618 7.6872 -2.3659 0.0000 34.7543 0.0000
# 6 0.0000 0.0000 0.0000 8.8905 0.0000 28.9060
#
#
#
# Elastic Compliance Matrix: (Units=1/GPa)
#
#
# Indices 1 2 3 4 5 6 
#
# 1 0.010945 -0.002885 -0.003677 0.000000 0.005320 0.000000
# 2 -0.002885 0.014603 -0.005731 0.000000 -0.004920 0.000000
# 3 -0.003677 -0.005731 0.013620 0.000000 0.000538 0.000000
# 4 0.000000 0.000000 0.000000 0.027738 0.000000 -0.008531
# 5 0.005320 -0.004920 0.000538 0.000000 0.032296 0.000000
# 6 0.000000 0.000000 0.000000 -0.008531 0.000000 0.037219
#
#
# Mechanical properties :
#
#
# Convention : Reuss Voigt Hill
#
# Bulk Modulus (GPa) = 68.57853 69.41293 68.99573
# Shear Modulus (GPa) = 30.14459 33.27257 31.70858
#
# Velocity S-wave (km/s) = 3.88735 4.08406 3.98692
# Velocity P-wave (km/s) = 7.38425 7.55223 7.46872
#
# Compressibility (1/GPa) = 0.01458182
#
# Stress axis : x y z
#
# Youngs Moduli (GPa) = 91.36853 68.47853 73.42175
#
# Poissons Ratio (x) = 0.19756 0.26997
# Poissons Ratio (y) = 0.26360 0.42078
# Poissons Ratio (z) = 0.33596 0.39245
#
# Static dielectric constant tensor:
#      x y z
#    x 3.647460 0.000000 0.577680 
#    y 0.000000 3.617380 0.000000 
#    z 0.577680 0.000000 4.982750 
# 
# 
# High freq. dielectric constant tensor:
#      x y z
#    x 1.753250 0.000000 0.003040 
#    y 0.000000 1.781980 0.000000 
#    z 0.003040 0.000000 1.795310 
# 
# From -- ./inp_files/80089.got.cif
#   From: 2010.06.25/outbox.cif.g09.slc.cpg/sg12_41_cif.got.tgz:80089.got - 2010.06.28 00:19:55.
