data_PCOD8094884
_publ_section_title
;
Structure prediction by ZEFSAII (Michael W. Deem and Ramdas Pophale) SiO2 
 PCOD8094884
Probable space group: C 2/M
;
_chemical_formula_sum "Si O2"
_cell_formula_units_Z 56
_cell_length_a 9.590466
_cell_length_b 21.991905
_cell_length_c 14.276074
_cell_angle_alpha 90.000000
_cell_angle_beta 96.226004
_cell_angle_gamma 90.000000
_cell_volume 2993.244763
_symmetry_space_group_name_H-M "C 2/M"
_symmetry_group_IT_number 12
_symmetry_cell_setting 'monoclinic'
loop_
_space_group_symop_operation_xyz
x,y,z
-x,y,-z
-x,-y,-z
x,-y,z
1/2+x,1/2+y,z
1/2-x,1/2+y,-z
1/2-x,1/2-y,-z
1/2+x,1/2-y,z
loop_
_atom_site_type_symbol
_atom_site_label
_atom_site_fract_x
_atom_site_fract_y
_atom_site_fract_z
Si Si1 0.124450 0.068728 0.229713
Si Si2 0.305188 0.143273 0.666608
Si Si3 0.499753 0.320392 0.890872
Si Si4 0.259284 0.256593 0.192284
Si Si5 0.153575 0.695033 0.520591
Si Si6 0.617008 0.141335 0.718283
Si Si7 0.953088 0.068553 0.396975
O O1 0.035104 0.116292 0.162720
O O2 0.288897 0.085837 0.237571
O O3 0.082746 0.072470 0.335696
O O4 0.103347 0.000000 0.189349
O O5 0.269641 0.207923 0.712328
O O6 0.323248 0.144677 0.556506
O O7 0.455697 0.119541 0.715513
O O8 0.175688 0.098101 0.670188
O O9 0.657420 0.300598 0.872931
O O10 0.387912 0.267228 0.859627
O O11 0.500000 0.333940 0.000000
O O12 0.362807 0.200218 0.215710
O O13 0.250000 0.750000 0.500000
O O14 0.174211 0.662161 0.620858
O O15 0.000000 0.723650 0.500000
O O16 0.000000 0.099597 0.500000
O O17 0.906846 0.000000 0.415802
#
# Coordination Sequence:
#
# PCOD8094884 Si02
#       7
#     8   8   8   8   8   8   8
#     4  10  22  39  60  83 112 151 195 235 278 338
#     4  11  20  34  54  80 115 149 188 230 277 337
#     4  11  23  39  61  86 116 149 184 236 293 343
#     4  11  20  36  57  86 114 145 183 231 286 346
#     4  10  20  29  46  77 112 149 184 220 274 330
#     4  10  21  35  53  83 119 150 187 230 284 333
#     4  10  21  37  57  81 110 150 196 236 276 326
#
# _framework density 18.708794000000001
#
# number of rings (size 3 to 8) (size 9 to 14) (size 15 to 20)
#    0.000    1.571    4.286    1.286    0.000    2.571 
#    0.000    0.000    0.000    5.143    0.000    1.000 
#    0.000    0.000    0.000    0.000    0.000    0.000 
#
# Total GULP energy -347017.356808 kJ/mol
# GULP energy per Si atom -12393.477029 kJ/mol
# Density = 1.866621 g / cm^3
# Si number density = 18.708794 Si / 1000 Ang^3
#
#
#
# Elastic Constant Matrix: (Units=GPa)
#
#
# Indices 1 2 3 4 5 6 
#
# 1 93.6088 44.1312 9.7363 0.0000 1.8971 0.0000
# 2 44.1312 96.2264 27.4719 0.0000 3.6692 0.0000
# 3 9.7363 27.4719 80.8561 0.0000 -1.0407 0.0000
# 4 0.0000 0.0000 0.0000 18.6515 0.0000 -0.0917
# 5 1.8971 3.6692 -1.0407 0.0000 22.7486 0.0000
# 6 0.0000 0.0000 0.0000 -0.0917 0.0000 17.7859
#
#
#
# Elastic Compliance Matrix: (Units=1/GPa)
#
#
# Indices 1 2 3 4 5 6 
#
# 1 0.013651 -0.006410 0.000533 0.000000 -0.000080 0.000000
# 2 -0.006410 0.014613 -0.004219 0.000000 -0.002016 0.000000
# 3 0.000533 -0.004219 0.013753 0.000000 0.001265 0.000000
# 4 0.000000 0.000000 0.000000 0.053616 0.000000 0.000276
# 5 -0.000080 -0.002016 0.001265 0.000000 0.044348 0.000000
# 6 0.000000 0.000000 0.000000 0.000276 0.000000 0.056226
#
#
# Mechanical properties :
#
#
# Convention : Reuss Voigt Hill
#
# Bulk Modulus (GPa) = 45.81778 48.15222 46.98500
# Shear Modulus (GPa) = 22.35394 24.46066 23.40730
#
# Velocity S-wave (km/s) = 3.46039 3.61978 3.54098
# Velocity P-wave (km/s) = 6.36466 6.57754 6.47197
#
# Compressibility (1/GPa) = 0.02182559
#
# Stress axis : x y z
#
# Youngs Moduli (GPa) = 73.25640 68.43183 72.71003
#
# Poissons Ratio (x) = 0.43862 -0.03875
# Poissons Ratio (y) = 0.46954 0.30677
# Poissons Ratio (z) = -0.03904 0.28872
#
# Static dielectric constant tensor:
#      x y z
#    x 4.024680 0.000000 0.000980 
#    y 0.000000 3.252080 0.000000 
#    z 0.000980 0.000000 3.259980 
# 
# 
# High freq. dielectric constant tensor:
#      x y z
#    x 1.738800 0.000000 -0.002560 
#    y 0.000000 1.706800 0.000000 
#    z -0.002560 0.000000 1.709870 
# 
# From -- ./inp_files/197540.got.cif
#   From: 2010.06.25/outbox.cif.g09.slc.cpg/sg12_99_cif.got.tgz:197540.got - 2010.06.28 00:19:55.
