data_PCOD8094280
_publ_section_title
;
Structure prediction by ZEFSAII (Michael W. Deem and Ramdas Pophale) SiO2 
 PCOD8094280
Probable space group: C 2/M
;
_chemical_formula_sum "Si O2"
_cell_formula_units_Z 56
_cell_length_a 14.883808
_cell_length_b 22.939338
_cell_length_c 9.306308
_cell_angle_alpha 90.000000
_cell_angle_beta 62.274930
_cell_angle_gamma 90.000000
_cell_volume 2812.606219
_symmetry_space_group_name_H-M "C 2/M"
_symmetry_group_IT_number 12
_symmetry_cell_setting 'monoclinic'
loop_
_space_group_symop_operation_xyz
x,y,z
-x,y,-z
-x,-y,-z
x,-y,z
1/2+x,1/2+y,z
1/2-x,1/2+y,-z
1/2-x,1/2-y,-z
1/2+x,1/2-y,z
loop_
_atom_site_type_symbol
_atom_site_label
_atom_site_fract_x
_atom_site_fract_y
_atom_site_fract_z
Si Si1 0.992999 0.934548 0.673872
Si Si2 0.901914 0.433460 0.994228
Si Si3 0.576758 0.268865 0.313583
Si Si4 0.738668 0.168069 0.210098
Si Si5 0.899250 0.434004 0.658803
Si Si6 0.200403 0.872976 0.142185
Si Si7 0.055343 0.170838 0.810948
O O1 0.875383 0.927991 0.809383
O O2 0.000000 0.921822 0.500000
O O3 0.060222 0.887398 0.709314
O O4 0.029801 0.000000 0.683847
O O5 0.882112 0.500000 0.055437
O O6 0.808494 0.394498 0.119368
O O7 0.920183 0.427887 0.811900
O O8 0.000000 0.407841 0.000000
O O9 0.500000 0.260829 0.500000
O O10 0.647641 0.212728 0.249278
O O11 0.650421 0.324532 0.283989
O O12 0.507979 0.277998 0.221650
O O13 0.691971 0.109292 0.315098
O O14 0.828009 0.191301 0.248598
O O15 0.791562 0.155299 0.020007
O O16 0.867500 0.500000 0.641616
O O17 0.000000 0.415140 0.500000
O O18 0.000000 0.155017 0.000000
#
# Coordination Sequence:
#
# PCOD8094280 Si02
#       7
#     8   8   8   8   8   8   8
#     4  10  21  39  62  91 129 164 195 244 309 364
#     4   9  18  34  55  83 115 150 199 242 284 353
#     4  11  24  43  60  84 124 158 197 262 314 361
#     4  11  22  40  63  89 117 160 207 253 303 368
#     4   9  19  38  59  83 119 153 187 246 306 354
#     4  10  19  37  60  86 115 162 197 249 303 354
#     4  11  22  40  63  90 122 157 208 258 296 363
#
# _framework density 19.910359
#
# number of rings (size 3 to 8) (size 9 to 14) (size 15 to 20)
#    0.000    1.857    2.857    3.000    0.000    2.000 
#   10.286    0.000    0.000    0.000    0.000    0.000 
#    0.000    0.000    0.000    0.000    0.000    0.000 
#
# Total GULP energy -347104.560297 kJ/mol
# GULP energy per Si atom -12396.591439 kJ/mol
# Density = 1.986504 g / cm^3
# Si number density = 19.910359 Si / 1000 Ang^3
#
#
#
# Elastic Constant Matrix: (Units=GPa)
#
#
# Indices 1 2 3 4 5 6 
#
# 1 166.3176 60.7538 36.0016 0.0000 -13.8698 0.0000
# 2 60.7538 91.9461 36.8813 0.0000 -4.9203 0.0000
# 3 36.0016 36.8813 94.8458 0.0000 -11.6023 0.0000
# 4 0.0000 0.0000 0.0000 -6.2333 0.0000 -2.3570
# 5 -13.8698 -4.9203 -11.6023 0.0000 27.5338 0.0000
# 6 0.0000 0.0000 0.0000 -2.3570 0.0000 33.6596
#
#
#
# Elastic Compliance Matrix: (Units=1/GPa)
#
#
# Indices 1 2 3 4 5 6 
#
# 1 0.008249 -0.004954 -0.000848 0.000000 0.002912 0.000000
# 2 -0.004954 0.015863 -0.004477 0.000000 -0.001548 0.000000
# 3 -0.000848 -0.004477 0.013133 0.000000 0.004307 0.000000
# 4 0.000000 0.000000 0.000000 -0.156291 0.000000 -0.010944
# 5 0.002912 -0.001548 0.004307 0.000000 0.039324 0.000000
# 6 0.000000 0.000000 0.000000 -0.010944 0.000000 0.028943
#
#
# Mechanical properties :
#
#
# Convention : Reuss Voigt Hill
#
# Bulk Modulus (GPa) = 59.93299 68.93143 64.43221
# Shear Modulus (GPa) = -202.76810 25.62356 -88.57227
#
# Velocity S-wave (km/s) = -10.10255 3.59130 -6.67698
# Velocity P-wave (km/s) = 10.29152 7.20365 5.19725
#
# Compressibility (1/GPa) = 0.01668530
#
# Stress axis : x y z
#
# Youngs Moduli (GPa) = 121.22889 63.04169 76.14316
#
# Poissons Ratio (x) = 0.31233 0.06459
# Poissons Ratio (y) = 0.60061 0.34089
# Poissons Ratio (z) = 0.10284 0.28224
#
# Static dielectric constant tensor:
#      x y z
#    x 3.722060 0.000000 -0.147750 
#    y 0.000000 3.646960 0.000000 
#    z -0.147750 0.000000 3.632680 
# 
# 
# High freq. dielectric constant tensor:
#      x y z
#    x 1.769090 0.000000 -0.017170 
#    y 0.000000 1.771920 0.000000 
#    z -0.017170 0.000000 1.779280 
# 
# From -- ./inp_files/65742.got.cif
#   From: 2010.06.25/outbox.cif.g09.slc.cpg/sg12_33_cif.got.tgz:65742.got - 2010.06.28 00:19:55.
