data_PCOD8094750
_publ_section_title
;
Structure prediction by ZEFSAII (Michael W. Deem and Ramdas Pophale) SiO2 
 PCOD8094750
Probable space group: C 2/M
;
_chemical_formula_sum "Si O2"
_cell_formula_units_Z 56
_cell_length_a 18.663850
_cell_length_b 25.918421
_cell_length_c 9.028288
_cell_angle_alpha 90.000000
_cell_angle_beta 142.049773
_cell_angle_gamma 90.000000
_cell_volume 2685.801047
_symmetry_space_group_name_H-M "C 2/M"
_symmetry_group_IT_number 12
_symmetry_cell_setting 'monoclinic'
loop_
_space_group_symop_operation_xyz
x,y,z
-x,y,-z
-x,-y,-z
x,-y,z
1/2+x,1/2+y,z
1/2-x,1/2+y,-z
1/2-x,1/2-y,-z
1/2+x,1/2-y,z
loop_
_atom_site_type_symbol
_atom_site_label
_atom_site_fract_x
_atom_site_fract_y
_atom_site_fract_z
Si Si1 0.334279 0.057295 0.071654
Si Si2 0.400739 0.589234 0.433545
Si Si3 0.847035 0.180718 0.145392
Si Si4 0.019798 0.375961 0.206337
Si Si5 0.054888 0.888177 0.942576
Si Si6 0.919874 0.703751 0.238848
Si Si7 0.215632 0.440274 0.670575
O O1 0.220036 0.059796 0.782030
O O2 0.384771 0.000000 0.150098
O O3 0.431646 0.092622 0.163379
O O4 0.306778 0.073925 0.194151
O O5 0.500000 0.559701 0.500000
O O6 0.394711 0.648272 0.362357
O O7 0.443158 0.589743 0.671565
O O8 0.871390 0.153329 0.029019
O O9 0.912709 0.234716 0.235943
O O10 0.709705 0.182382 0.952454
O O11 0.146500 0.399067 0.454233
O O12 0.987565 0.316650 0.200150
O O13 0.000000 0.382861 0.000000
O O14 0.146271 0.933354 0.134276
O O15 0.000000 0.862851 0.000000
O O16 0.000000 0.682148 0.500000
O O17 0.182033 0.500000 0.580496
#
# Coordination Sequence:
#
# PCOD8094750 Si02
#       7
#     8   8   8   8   8   8   8
#     4  11  22  40  66  89 116 164 215 262 308 370
#     4  10  19  39  61  91 125 157 209 260 310 371
#     4  10  21  40  65  95 124 164 215 265 312 377
#     4  12  26  42  61  91 133 165 207 267 325 379
#     4  11  23  38  61  90 133 165 202 258 324 378
#     4  11  21  39  69  92 121 168 219 261 314 379
#     4  11  24  43  66  92 122 169 223 263 312 379
#
# _framework density 20.850389
#
# number of rings (size 3 to 8) (size 9 to 14) (size 15 to 20)
#    0.000    1.143    4.286    3.857    2.000    4.000 
#    0.000    0.000    0.000    6.000    0.000    0.000 
#    0.000    0.000    0.000    0.000    0.000    0.000 
#
# Total GULP energy -346996.040697 kJ/mol
# GULP energy per Si atom -12392.715739 kJ/mol
# Density = 2.080293 g / cm^3
# Si number density = 20.850389 Si / 1000 Ang^3
#
#
#
# Elastic Constant Matrix: (Units=GPa)
#
#
# Indices 1 2 3 4 5 6 
#
# 1 79.8266 30.0253 31.4560 0.0000 -18.6005 0.0000
# 2 30.0253 75.7263 22.3795 0.0000 -0.5277 0.0000
# 3 31.4560 22.3795 129.9540 0.0000 -6.4477 0.0000
# 4 0.0000 0.0000 0.0000 -104.2523 0.0000 -7.4169
# 5 -18.6005 -0.5277 -6.4477 0.0000 32.3572 0.0000
# 6 0.0000 0.0000 0.0000 -7.4169 0.0000 14.8870
#
#
#
# Elastic Compliance Matrix: (Units=1/GPa)
#
#
# Indices 1 2 3 4 5 6 
#
# 1 0.018346 -0.006361 -0.002855 0.000000 0.009873 0.000000
# 2 -0.006361 0.016121 -0.001419 0.000000 -0.003677 0.000000
# 3 -0.002855 -0.001419 0.008633 0.000000 0.000056 0.000000
# 4 0.000000 0.000000 0.000000 -0.009264 0.000000 -0.004615
# 5 0.009873 -0.003677 0.000056 0.000000 0.036532 0.000000
# 6 0.000000 0.000000 0.000000 -0.004615 0.000000 0.064873
#
#
# Mechanical properties :
#
#
# Convention : Reuss Voigt Hill
#
# Bulk Modulus (GPa) = 45.81014 50.35870 48.08442
# Shear Modulus (GPa) = 30.52706 2.04146 16.28426
#
# Velocity S-wave (km/s) = 3.83051 0.99057 2.79768
# Velocity P-wave (km/s) = 6.44843 5.05105 5.79204
#
# Compressibility (1/GPa) = 0.02182923
#
# Stress axis : x y z
#
# Youngs Moduli (GPa) = 54.50906 62.02928 115.83078
#
# Poissons Ratio (x) = 0.39459 0.33073
# Poissons Ratio (y) = 0.34675 0.16435
# Poissons Ratio (z) = 0.15564 0.08801
#
# Static dielectric constant tensor:
#      x y z
#    x 3.708820 0.000000 0.332040 
#    y 0.000000 3.908160 0.000000 
#    z 0.332040 0.000000 4.285430 
# 
# 
# High freq. dielectric constant tensor:
#      x y z
#    x 1.800540 0.000000 0.016610 
#    y 0.000000 1.810780 0.000000 
#    z 0.016610 0.000000 1.833970 
# 
# From -- ./inp_files/80075.got.cif
#   From: 2010.06.25/outbox.cif.g09.slc.cpg/sg12_41_cif.got.tgz:80075.got - 2010.06.28 00:19:55.
