data_PCOD8094670
_publ_section_title
;
Structure prediction by ZEFSAII (Michael W. Deem and Ramdas Pophale) SiO2 
 PCOD8094670
Probable space group: C 2/M
;
_chemical_formula_sum "Si O2"
_cell_formula_units_Z 64
_cell_length_a 25.822935
_cell_length_b 8.703272
_cell_length_c 16.208251
_cell_angle_alpha 90.000000
_cell_angle_beta 117.650473
_cell_angle_gamma 90.000000
_cell_volume 3226.692577
_symmetry_space_group_name_H-M "C 2/M"
_symmetry_group_IT_number 12
_symmetry_cell_setting 'monoclinic'
loop_
_space_group_symop_operation_xyz
x,y,z
-x,y,-z
-x,-y,-z
x,-y,z
1/2+x,1/2+y,z
1/2-x,1/2+y,-z
1/2-x,1/2-y,-z
1/2+x,1/2-y,z
loop_
_atom_site_type_symbol
_atom_site_label
_atom_site_fract_x
_atom_site_fract_y
_atom_site_fract_z
Si Si1 0.227836 0.183354 0.208297
Si Si2 0.346580 0.331500 0.999857
Si Si3 0.140478 0.317849 0.686336
Si Si4 0.444003 0.174124 0.515956
Si Si5 0.581803 0.181227 0.809333
Si Si6 0.366443 0.177225 0.749822
Si Si7 0.562137 0.330769 0.066786
Si Si8 0.542333 0.320508 0.301155
O O1 0.293640 0.246747 0.261676
O O2 0.194261 0.244813 0.265089
O O3 0.222283 0.000000 0.206403
O O4 0.200942 0.240385 0.099961
O O5 0.325212 0.500000 0.016065
O O6 0.364405 0.223560 0.089492
O O7 0.406099 0.353680 0.995320
O O8 0.142478 0.500000 0.693616
O O9 0.111155 0.266650 0.578597
O O10 0.102204 0.256990 0.734810
O O11 0.500000 0.178972 0.500000
O O12 0.453560 0.285965 0.599174
O O13 0.433990 0.000000 0.540717
O O14 0.518020 0.253055 0.782293
O O15 0.573424 0.000000 0.804674
O O16 0.410159 0.198587 0.857894
O O17 0.398003 0.253668 0.694574
O O18 0.354630 0.000000 0.721739
O O19 0.559633 0.500000 0.109674
O O20 0.500000 0.263190 0.000000
O O21 0.540875 0.500000 0.284853
#
# Coordination Sequence:
#
# PCOD8094670 Si02
#       8
#     8   8   8   8   8   8   8   8
#     4   9  19  39  61  80 112 157 198 230 276 339
#     4   9  18  31  49  78 115 154 191 232 279 330
#     4   9  19  37  62  86 112 152 191 230 284 344
#     4  10  19  38  64  89 118 147 183 231 288 342
#     4  11  21  35  56  86 118 151 193 238 287 337
#     4  11  22  36  56  82 111 146 190 238 287 332
#     4   9  17  31  51  74 107 148 188 230 284 341
#     4  12  24  38  58  86 119 151 188 233 288 346
#
# _framework density 19.834551999999999
#
# number of rings (size 3 to 8) (size 9 to 14) (size 15 to 20)
#    0.000    2.000    1.250    4.125    0.000    4.000 
#    0.000    2.500    0.000    0.000    0.000    0.000 
#    0.000    0.000    0.000    0.000    0.000    0.000 
#
# Total GULP energy -396533.117970 kJ/mol
# GULP energy per Si atom -12391.659937 kJ/mol
# Density = 1.978941 g / cm^3
# Si number density = 19.834552 Si / 1000 Ang^3
#
#
#
# Elastic Constant Matrix: (Units=GPa)
#
#
# Indices 1 2 3 4 5 6 
#
# 1 84.1000 22.9762 40.2621 0.0000 13.5786 0.0000
# 2 22.9762 80.3631 26.5634 0.0000 -3.9724 0.0000
# 3 40.2621 26.5634 87.4813 0.0000 9.4111 0.0000
# 4 0.0000 0.0000 0.0000 27.9383 0.0000 -1.0951
# 5 13.5786 -3.9724 9.4111 0.0000 35.8677 0.0000
# 6 0.0000 0.0000 0.0000 -1.0951 0.0000 17.9204
#
#
#
# Elastic Compliance Matrix: (Units=1/GPa)
#
#
# Indices 1 2 3 4 5 6 
#
# 1 0.016422 -0.002907 -0.006145 0.000000 -0.004927 0.000000
# 2 -0.002907 0.014607 -0.003488 0.000000 0.003634 0.000000
# 3 -0.006145 -0.003488 0.015549 0.000000 -0.002140 0.000000
# 4 0.000000 0.000000 0.000000 0.035879 0.000000 0.002192
# 5 -0.004927 0.003634 -0.002140 0.000000 0.030709 0.000000
# 6 0.000000 0.000000 0.000000 0.002192 0.000000 0.055936
#
#
# Mechanical properties :
#
#
# Convention : Reuss Voigt Hill
#
# Bulk Modulus (GPa) = 46.51954 47.94973 47.23464
# Shear Modulus (GPa) = 24.83230 27.15481 25.99355
#
# Velocity S-wave (km/s) = 3.54216 3.70410 3.62404
# Velocity P-wave (km/s) = 6.34302 6.52083 6.43254
#
# Compressibility (1/GPa) = 0.02149634
#
# Stress axis : x y z
#
# Youngs Moduli (GPa) = 60.89238 68.45828 64.31400
#
# Poissons Ratio (x) = 0.19904 0.39523
# Poissons Ratio (y) = 0.17704 0.22435
# Poissons Ratio (z) = 0.37420 0.23880
#
# Static dielectric constant tensor:
#      x y z
#    x 4.964650 0.000000 -0.520510 
#    y 0.000000 3.469230 0.000000 
#    z -0.520510 0.000000 3.948420 
# 
# 
# High freq. dielectric constant tensor:
#      x y z
#    x 1.774800 0.000000 0.000610 
#    y 0.000000 1.751110 0.000000 
#    z 0.000610 0.000000 1.766130 
# 
# From -- ./inp_files/244147.got.cif
#   From: 2010.06.25/outbox.cif.g09.slc.cpg/sg12_123_cif.got.tgz:244147.got - 2010.06.28 00:19:55.
