data_PCOD8094400
_publ_section_title
;
Structure prediction by ZEFSAII (Michael W. Deem and Ramdas Pophale) SiO2 
 PCOD8094400
Probable space group: C 2/M
;
_chemical_formula_sum "Si O2"
_cell_formula_units_Z 64
_cell_length_a 32.361694
_cell_length_b 8.858188
_cell_length_c 24.725082
_cell_angle_alpha 90.000000
_cell_angle_beta 26.749412
_cell_angle_gamma 90.000000
_cell_volume 3190.160600
_symmetry_space_group_name_H-M "C 2/M"
_symmetry_group_IT_number 12
_symmetry_cell_setting 'monoclinic'
loop_
_space_group_symop_operation_xyz
x,y,z
-x,y,-z
-x,-y,-z
x,-y,z
1/2+x,1/2+y,z
1/2-x,1/2+y,-z
1/2-x,1/2-y,-z
1/2+x,1/2-y,z
loop_
_atom_site_type_symbol
_atom_site_label
_atom_site_fract_x
_atom_site_fract_y
_atom_site_fract_z
Si Si1 0.954408 0.822319 0.683697
Si Si2 0.820063 0.325225 0.763463
Si Si3 0.618924 0.823375 0.425904
Si Si4 0.971434 0.819888 0.092157
Si Si5 0.321952 0.176920 0.455020
Si Si6 0.768189 0.822503 0.332129
Si Si7 0.972599 0.678623 0.779268
Si Si8 0.609937 0.676513 0.022135
O O1 0.859894 0.777292 0.764663
O O2 0.951660 0.748314 0.745676
O O3 0.038466 0.767913 0.548543
O O4 0.960193 0.000000 0.684159
O O5 0.835534 0.500000 0.760259
O O6 0.875175 0.285178 0.644242
O O7 0.712555 0.290672 0.881529
O O8 0.717850 0.776888 0.335373
O O9 0.599386 0.000000 0.458901
O O10 0.869473 0.751629 0.220762
O O11 0.039998 0.758704 0.058487
O O12 0.974308 0.000000 0.089597
O O13 0.000000 0.759132 0.000000
O O14 0.250000 0.250000 0.500000
O O15 0.298676 0.234031 0.542345
O O16 0.425310 0.227177 0.320926
O O17 0.310168 0.000000 0.463873
O O18 0.782510 0.000000 0.317616
O O19 0.963209 0.500000 0.784811
O O20 0.903215 0.739710 0.905443
O O21 0.592958 0.500000 0.051582
#
# Coordination Sequence:
#
# PCOD8094400 Si02
#       8
#     8   8   8   8   8   8   8   8
#     4  12  25  40  61  88 118 153 197 255 308 353
#     4  10  22  39  62  88 117 158 200 244 299 362
#     4  10  19  37  62  88 121 157 197 241 294 362
#     4   9  16  28  52  87 122 154 191 236 284 339
#     4  10  20  34  54  81 112 149 192 236 284 341
#     4   9  16  29  51  79 113 150 186 227 278 336
#     4  11  23  41  62  84 117 160 201 244 298 361
#     4  10  21  38  60  90 123 156 201 250 294 347
#
# _framework density 20.061686000000002
#
# number of rings (size 3 to 8) (size 9 to 14) (size 15 to 20)
#    0.000    1.875    1.250    3.375    0.000    8.000 
#    0.000    0.000    0.000    0.375    0.000    0.000 
#    0.000    0.000    0.000    0.000    0.000    0.000 
#
# Total GULP energy -396791.172840 kJ/mol
# GULP energy per Si atom -12399.724151 kJ/mol
# Density = 2.001602 g / cm^3
# Si number density = 20.061686 Si / 1000 Ang^3
#
#
#
# Elastic Constant Matrix: (Units=GPa)
#
#
# Indices 1 2 3 4 5 6 
#
# 1 129.7632 40.6111 35.7444 -0.0145 0.6588 -0.0006
# 2 40.6111 57.6563 31.1678 -0.0287 3.8845 0.0201
# 3 35.7444 31.1678 95.2489 -0.0242 4.4661 0.0154
# 4 -0.0145 -0.0287 -0.0242 23.0724 0.0160 2.0183
# 5 0.6588 3.8845 4.4661 0.0160 38.4386 -0.0030
# 6 -0.0006 0.0201 0.0154 2.0183 -0.0030 24.5906
#
#
#
# Elastic Compliance Matrix: (Units=1/GPa)
#
#
# Indices 1 2 3 4 5 6 
#
# 1 0.010145 -0.006215 -0.001805 -0.000004 0.000664 0.000007
# 2 -0.006215 0.024947 -0.005749 0.000024 -0.001747 -0.000019
# 3 -0.001805 -0.005749 0.013100 0.000006 -0.000910 -0.000004
# 4 -0.000004 0.000024 0.000006 0.043655 -0.000022 -0.003583
# 5 0.000664 -0.001747 -0.000910 -0.000022 0.026286 0.000007
# 6 0.000007 -0.000019 -0.000004 -0.003583 0.000007 0.040960
#
#
# Mechanical properties :
#
#
# Convention : Reuss Voigt Hill
#
# Bulk Modulus (GPa) = 48.41480 55.30167 51.85824
# Shear Modulus (GPa) = 25.83753 28.89667 27.36710
#
# Velocity S-wave (km/s) = 3.59263 3.79937 3.69744
# Velocity P-wave (km/s) = 6.43387 6.84635 6.64331
#
# Compressibility (1/GPa) = 0.02065484
#
# Stress axis : x y z
#
# Youngs Moduli (GPa) = 98.56912 40.08431 76.33608
#
# Poissons Ratio (x) = 0.24913 0.13776
# Poissons Ratio (y) = 0.61262 0.43887
# Poissons Ratio (z) = 0.17788 0.23045
#
# Static dielectric constant tensor:
#      x y z
#    x 3.859940 0.000000 -0.002130 
#    y 0.000000 3.302880 0.000090 
#    z -0.002130 0.000090 3.826960 
# 
# 
# High freq. dielectric constant tensor:
#      x y z
#    x 1.799290 0.000000 -0.003020 
#    y 0.000000 1.742130 0.000000 
#    z -0.003020 0.000000 1.792290 
# 
# From -- ./inp_files/353274.got.cif
#   From: 2010.06.25/outbox.cif.g09.slc.cpg/sg12_177_cif.got.tgz:353274.got - 2010.06.28 00:19:55.
