data_PCOD8094701
_publ_section_title
;
Structure prediction by ZEFSAII (Michael W. Deem and Ramdas Pophale) SiO2 
 PCOD8094701
Probable space group: C 2/M
;
_chemical_formula_sum "Si O2"
_cell_formula_units_Z 64
_cell_length_a 19.914457
_cell_length_b 18.219387
_cell_length_c 18.371053
_cell_angle_alpha 90.000000
_cell_angle_beta 28.730282
_cell_angle_gamma 90.000000
_cell_volume 3204.045504
_symmetry_space_group_name_H-M "C 2/M"
_symmetry_group_IT_number 12
_symmetry_cell_setting 'monoclinic'
loop_
_space_group_symop_operation_xyz
x,y,z
-x,y,-z
-x,-y,-z
x,-y,z
1/2+x,1/2+y,z
1/2-x,1/2+y,-z
1/2-x,1/2-y,-z
1/2+x,1/2-y,z
loop_
_atom_site_type_symbol
_atom_site_label
_atom_site_fract_x
_atom_site_fract_y
_atom_site_fract_z
Si Si1 0.740833 0.831906 0.333664
Si Si2 0.020934 0.148339 0.139244
Si Si3 0.134039 0.916301 0.332898
Si Si4 0.029541 0.689312 0.313349
Si Si5 0.370242 0.180432 0.172145
Si Si6 0.640984 0.650091 0.178371
Si Si7 0.543167 0.183680 0.138452
Si Si8 0.249049 0.413879 0.175273
O O1 0.593520 0.824239 0.513150
O O2 0.776374 0.751542 0.271573
O O3 0.732048 0.887103 0.274263
O O4 0.855728 0.861091 0.281883
O O5 0.056537 0.123117 0.187532
O O6 0.065760 0.232990 0.090109
O O7 0.097327 0.101263 0.003814
O O8 0.278318 0.879563 0.219355
O O9 0.110848 0.909446 0.268777
O O10 0.000000 0.880310 0.500000
O O11 0.147474 0.000000 0.343409
O O12 0.094175 0.770972 0.254766
O O13 0.974930 0.677195 0.283066
O O14 0.145847 0.629310 0.220171
O O15 0.431799 0.146854 0.189162
O O16 0.500000 0.204297 0.000000
O O17 0.805050 0.647368 0.004368
O O18 0.215495 0.500000 0.204997
#
# Coordination Sequence:
#
# PCOD8094701 Si02
#       8
#     8   8   8   8   8   8   8   8
#     4  11  24  37  60  94 124 154 199 253 310 352
#     4  10  21  39  63  90 120 152 200 253 299 355
#     4  11  25  41  59  90 125 157 196 243 302 365
#     4  11  22  39  63  92 120 157 201 253 306 356
#     4  11  21  39  64  91 119 156 199 248 300 362
#     4  11  19  40  68  89 117 157 201 251 302 353
#     4  10  19  38  66  91 118 148 203 253 296 353
#     4  12  24  41  61  85 123 171 211 244 292 363
#
# _framework density 19.974748000000002
#
# number of rings (size 3 to 8) (size 9 to 14) (size 15 to 20)
#    0.000    1.125    3.750    4.500    0.000    8.250 
#    0.000    0.625    0.000    0.000    0.000    0.000 
#    0.000    0.000    0.000    0.000    0.000    0.000 
#
# Total GULP energy -396813.739406 kJ/mol
# GULP energy per Si atom -12400.429356 kJ/mol
# Density = 1.992928 g / cm^3
# Si number density = 19.974748 Si / 1000 Ang^3
#
#
#
# Elastic Constant Matrix: (Units=GPa)
#
#
# Indices 1 2 3 4 5 6 
#
# 1 114.3122 27.8102 20.3872 -0.0027 17.8770 0.0007
# 2 27.8102 62.9857 22.4217 -0.0032 3.4140 0.0001
# 3 20.3872 22.4217 96.8129 0.0003 8.8132 -0.0016
# 4 -0.0027 -0.0032 0.0003 12.6855 -0.0008 3.0338
# 5 17.8770 3.4140 8.8132 -0.0008 30.3744 0.0006
# 6 0.0007 0.0001 -0.0016 3.0338 0.0006 7.1094
#
#
#
# Elastic Compliance Matrix: (Units=1/GPa)
#
#
# Indices 1 2 3 4 5 6 
#
# 1 0.010789 -0.004176 -0.000790 0.000001 -0.005651 -0.000001
# 2 -0.004176 0.018939 -0.003633 0.000005 0.001383 -0.000003
# 3 -0.000790 -0.003633 0.011563 -0.000002 -0.002482 0.000004
# 4 0.000001 0.000005 -0.000002 0.087789 0.000002 -0.037462
# 5 -0.005651 0.001383 -0.002482 0.000002 0.036813 -0.000004
# 6 -0.000001 -0.000003 0.000004 -0.037462 -0.000004 0.156644
#
#
# Mechanical properties :
#
#
# Convention : Reuss Voigt Hill
#
# Bulk Modulus (GPa) = 41.50709 46.14989 43.82849
# Shear Modulus (GPa) = 14.37751 23.59997 18.98874
#
# Velocity S-wave (km/s) = 2.68579 3.44101 3.08659
# Velocity P-wave (km/s) = 5.51750 6.24033 5.89001
#
# Compressibility (1/GPa) = 0.02409227
#
# Stress axis : x y z
#
# Youngs Moduli (GPa) = 92.69052 52.80218 86.48378
#
# Poissons Ratio (x) = 0.22049 0.06835
# Poissons Ratio (y) = 0.38706 0.31417
# Poissons Ratio (z) = 0.07326 0.19181
#
# Static dielectric constant tensor:
#      x y z
#    x 4.034250 -0.000010 -0.017040 
#    y -0.000010 3.304080 0.000010 
#    z -0.017040 0.000010 3.967350 
# 
# 
# High freq. dielectric constant tensor:
#      x y z
#    x 1.799580 0.000000 0.005460 
#    y 0.000000 1.745360 0.000000 
#    z 0.005460 0.000000 1.784670 
# 
# From -- ./inp_files/285170.got.cif
#   From: 2010.06.25/outbox.cif.g09.slc.cpg/sg12_143_cif.got.tgz:285170.got - 2010.06.28 00:19:55.
