data_PCOD8094311
_publ_section_title
;
Structure prediction by ZEFSAII (Michael W. Deem and Ramdas Pophale) SiO2 
 PCOD8094311
Probable space group: C 2/M
;
_chemical_formula_sum "Si O2"
_cell_formula_units_Z 48
_cell_length_a 20.038066
_cell_length_b 8.798368
_cell_length_c 26.907179
_cell_angle_alpha 90.000000
_cell_angle_beta 32.936253
_cell_angle_gamma 90.000000
_cell_volume 2579.228966
_symmetry_space_group_name_H-M "C 2/M"
_symmetry_group_IT_number 12
_symmetry_cell_setting 'monoclinic'
loop_
_space_group_symop_operation_xyz
x,y,z
-x,y,-z
-x,-y,-z
x,-y,z
1/2+x,1/2+y,z
1/2-x,1/2+y,-z
1/2-x,1/2-y,-z
1/2+x,1/2-y,z
loop_
_atom_site_type_symbol
_atom_site_label
_atom_site_fract_x
_atom_site_fract_y
_atom_site_fract_z
Si Si1 0.258575 0.826242 0.759525
Si Si2 0.985347 0.825522 0.951702
Si Si3 0.902213 0.321680 0.767639
Si Si4 0.467593 0.678981 0.574093
Si Si5 0.745774 0.821568 0.948867
Si Si6 0.882957 0.819365 0.424093
O O1 0.114380 0.795221 0.843690
O O2 0.300723 0.785197 0.789054
O O3 0.329589 0.725857 0.674764
O O4 0.291532 0.000000 0.727796
O O5 0.941701 0.000000 0.971554
O O6 0.000000 0.788808 0.000000
O O7 0.887160 0.711211 0.990866
O O8 0.924323 0.500000 0.760575
O O9 0.854237 0.252145 0.848848
O O10 0.030630 0.242698 0.673760
O O11 0.500000 0.750422 0.500000
O O12 0.473215 0.500000 0.567395
O O13 0.563068 0.736731 0.556436
O O14 0.768216 0.000000 0.937815
O O15 0.750000 0.750000 0.000000
O O16 0.750000 0.750000 0.500000
O O17 0.876790 0.000000 0.424824
#
# Coordination Sequence:
#
# PCOD8094311 Si02
#       6
#     8   8   8   8   8   8
#     4   9  18  33  58  86 111 145 185 228 279 333
#     4  10  19  37  61  85 115 149 187 233 282 338
#     4  10  19  37  61  84 112 149 189 235 288 342
#     4   9  19  36  56  79 111 146 182 231 283 326
#     4  12  25  40  58  84 117 154 192 235 288 343
#     4  10  20  36  58  84 111 147 191 236 283 341
#
# _framework density 18.610213000000002
#
# number of rings (size 3 to 8) (size 9 to 14) (size 15 to 20)
#    0.000    2.000    1.667    2.500    0.000    2.667 
#    3.000    0.000    0.000    0.000    0.000    0.000 
#    0.000    0.000    0.000    0.000    0.000    0.000 
#
# Total GULP energy -297657.405776 kJ/mol
# GULP energy per Si atom -12402.391907 kJ/mol
# Density = 1.856786 g / cm^3
# Si number density = 18.610213 Si / 1000 Ang^3
#
#
#
# Elastic Constant Matrix: (Units=GPa)
#
#
# Indices 1 2 3 4 5 6 
#
# 1 74.6442 39.1121 78.1095 0.0006 7.6120 -0.0027
# 2 39.1121 76.6524 47.1344 -0.0011 3.5372 0.0017
# 3 78.1095 47.1344 143.4707 -0.0001 10.6661 0.0021
# 4 0.0006 -0.0011 -0.0001 38.0162 -0.0003 -2.3134
# 5 7.6120 3.5372 10.6661 -0.0003 36.3719 0.0015
# 6 -0.0027 0.0017 0.0021 -2.3134 0.0015 27.0450
#
#
#
# Elastic Compliance Matrix: (Units=1/GPa)
#
#
# Indices 1 2 3 4 5 6 
#
# 1 0.034399 -0.007563 -0.016114 -0.000001 -0.001738 0.000005
# 2 -0.007563 0.018012 -0.001827 0.000001 0.000367 -0.000002
# 3 -0.016114 -0.001827 0.016437 0.000000 -0.001270 -0.000003
# 4 -0.000001 0.000001 0.000000 0.026442 0.000000 0.002262
# 5 -0.001738 0.000367 -0.001270 0.000000 0.028194 -0.000002
# 6 0.000005 -0.000002 -0.000003 0.002262 -0.000002 0.037169
#
#
# Mechanical properties :
#
#
# Convention : Reuss Voigt Hill
#
# Bulk Modulus (GPa) = 56.05395 69.27546 62.66470
# Shear Modulus (GPa) = 22.97704 28.98071 25.97888
#
# Velocity S-wave (km/s) = 3.51757 3.95048 3.74029
# Velocity P-wave (km/s) = 6.83250 7.62323 7.23867
#
# Compressibility (1/GPa) = 0.01783996
#
# Stress axis : x y z
#
# Youngs Moduli (GPa) = 29.07052 55.51972 60.83655
#
# Poissons Ratio (x) = 0.41992 0.98031
# Poissons Ratio (y) = 0.21987 0.11114
# Poissons Ratio (z) = 0.46844 0.10143
#
# Static dielectric constant tensor:
#      x y z
#    x 3.279720 0.000000 0.148520 
#    y 0.000000 3.396300 0.000000 
#    z 0.148520 0.000000 3.523230 
# 
# 
# High freq. dielectric constant tensor:
#      x y z
#    x 1.705460 0.000000 0.000570 
#    y 0.000000 1.722590 0.000000 
#    z 0.000570 0.000000 1.735470 
# 
# From -- ./inp_files/221505.got.cif
#   From: 2010.06.25/outbox.cif.g09.slc.cpg/sg12_111_cif.got.tgz:221505.got - 2010.06.28 00:19:55.
