data_PCOD8094745
_publ_section_title
;
Structure prediction by ZEFSAII (Michael W. Deem and Ramdas Pophale) SiO2 
 PCOD8094745
Probable space group: C 2/M
;
_chemical_formula_sum "Si O2"
_cell_formula_units_Z 36
_cell_length_a 25.085898
_cell_length_b 10.453429
_cell_length_c 14.026655
_cell_angle_alpha 90.000000
_cell_angle_beta 148.687777
_cell_angle_gamma 90.000000
_cell_volume 1911.597323
_symmetry_space_group_name_H-M "C 2/M"
_symmetry_group_IT_number 12
_symmetry_cell_setting 'monoclinic'
loop_
_space_group_symop_operation_xyz
x,y,z
-x,y,-z
-x,-y,-z
x,-y,z
1/2+x,1/2+y,z
1/2-x,1/2+y,-z
1/2-x,1/2-y,-z
1/2+x,1/2-y,z
loop_
_atom_site_type_symbol
_atom_site_label
_atom_site_fract_x
_atom_site_fract_y
_atom_site_fract_z
Si Si1 0.751829 0.500000 0.880960
Si Si2 0.405352 0.500000 0.523103
Si Si3 0.125482 0.744288 0.997390
Si Si4 0.811422 0.144178 0.713709
Si Si5 0.640212 0.500000 0.904666
Si Si6 0.608027 0.728438 0.358531
O O1 0.649146 0.500000 0.661778
O O2 0.722568 0.500000 0.946655
O O3 0.817154 0.625907 0.961302
O O4 0.526193 0.500000 0.687758
O O5 0.370326 0.622839 0.528673
O O6 0.005096 0.714050 0.802881
O O7 0.158624 0.874318 0.995806
O O8 0.155554 0.757024 0.154037
O O9 0.692617 0.161590 0.501981
O O10 0.884050 0.166807 0.733961
O O11 0.827361 0.000000 0.774571
#
# Coordination Sequence:
#
# PCOD8094745 Si02
#       6
#     4   4   8   8   4   8
#     4  12  23  40  59  88 116 153 195 254 290 332
#     4  10  19  39  61  83 113 151 197 235 288 341
#     4  11  23  39  62  86 119 152 195 240 292 346
#     4  11  21  37  61  85 121 156 192 231 287 357
#     4  10  23  41  63  82 112 157 203 241 287 345
#     4  10  22  37  57  91 117 152 187 237 288 349
#
# _framework density 18.832418000000001
#
# number of rings (size 3 to 8) (size 9 to 14) (size 15 to 20)
#    0.000    1.333    4.444    1.667    1.556    0.889 
#    0.000    1.111    0.000    1.333    0.000    0.000 
#    0.000    0.000    0.000    0.000    0.000    0.000 
#
# Total GULP energy -223280.156478 kJ/mol
# GULP energy per Si atom -12404.453138 kJ/mol
# Density = 1.878955 g / cm^3
# Si number density = 18.832418 Si / 1000 Ang^3
#
#
#
# Elastic Constant Matrix: (Units=GPa)
#
#
# Indices 1 2 3 4 5 6 
#
# 1 92.0244 28.5571 19.9536 0.0000 1.2723 0.0000
# 2 28.5571 92.2927 20.1045 0.0000 10.0997 0.0000
# 3 19.9536 20.1045 71.6570 0.0000 -1.8985 0.0000
# 4 0.0000 0.0000 0.0000 42.6641 0.0000 8.2830
# 5 1.2723 10.0997 -1.8985 0.0000 23.6122 0.0000
# 6 0.0000 0.0000 0.0000 8.2830 0.0000 28.2764
#
#
#
# Elastic Compliance Matrix: (Units=1/GPa)
#
#
# Indices 1 2 3 4 5 6 
#
# 1 0.012447 -0.003368 -0.002506 0.000000 0.000568 0.000000
# 2 -0.003368 0.013128 -0.002896 0.000000 -0.005667 0.000000
# 3 -0.002506 -0.002896 0.015535 0.000000 0.002623 0.000000
# 4 0.000000 0.000000 0.000000 0.024852 0.000000 -0.007280
# 5 0.000568 -0.005667 0.002623 0.000000 0.044955 0.000000
# 6 0.000000 0.000000 0.000000 -0.007280 0.000000 0.037498
#
#
# Mechanical properties :
#
#
# Convention : Reuss Voigt Hill
#
# Bulk Modulus (GPa) = 42.42416 43.68938 43.05677
# Shear Modulus (GPa) = 28.76679 31.40114 30.08396
#
# Velocity S-wave (km/s) = 3.91258 4.08781 4.00116
# Velocity P-wave (km/s) = 6.55646 6.74756 6.65270
#
# Compressibility (1/GPa) = 0.02357147
#
# Stress axis : x y z
#
# Youngs Moduli (GPa) = 80.33872 76.17315 64.37021
#
# Poissons Ratio (x) = 0.25653 0.16132
# Poissons Ratio (y) = 0.27055 0.18639
# Poissons Ratio (z) = 0.20134 0.22057
#
# Static dielectric constant tensor:
#      x y z
#    x 3.397990 0.000000 0.023250 
#    y 0.000000 3.343760 0.000000 
#    z 0.023250 0.000000 3.386340 
# 
# 
# High freq. dielectric constant tensor:
#      x y z
#    x 1.735780 0.000000 0.000330 
#    y 0.000000 1.727580 0.000000 
#    z 0.000330 0.000000 1.737780 
# 
# From -- ./inp_files/140093.got.cif
#   From: 2010.06.25/outbox.cif.g09.slc.cpg/sg12_71_cif.got.tgz:140093.got - 2010.06.28 00:19:55.
