data_PCOD8094218
_publ_section_title
;
Structure prediction by ZEFSAII (Michael W. Deem and Ramdas Pophale) SiO2 
 PCOD8094218
Probable space group: C 2/M
;
_chemical_formula_sum "Si O2"
_cell_formula_units_Z 56
_cell_length_a 23.405626
_cell_length_b 8.693408
_cell_length_c 19.269547
_cell_angle_alpha 90.000000
_cell_angle_beta 52.826898
_cell_angle_gamma 90.000000
_cell_volume 3124.198373
_symmetry_space_group_name_H-M "C 2/M"
_symmetry_group_IT_number 12
_symmetry_cell_setting 'monoclinic'
loop_
_space_group_symop_operation_xyz
x,y,z
-x,y,-z
-x,-y,-z
x,-y,z
1/2+x,1/2+y,z
1/2-x,1/2+y,-z
1/2-x,1/2-y,-z
1/2+x,1/2-y,z
loop_
_atom_site_type_symbol
_atom_site_label
_atom_site_fract_x
_atom_site_fract_y
_atom_site_fract_z
Si Si1 0.702999 0.680332 0.833086
Si Si2 0.444167 0.180484 0.101336
Si Si3 0.068395 0.330859 0.498405
Si Si4 0.042876 0.318142 0.152286
Si Si5 0.305966 0.182013 0.011698
Si Si6 0.657382 0.320200 0.322627
Si Si7 0.961977 0.316957 0.687774
O O1 0.706845 0.500000 0.843132
O O2 0.627840 0.723237 0.853529
O O3 0.714315 0.766667 0.896878
O O4 0.767000 0.733168 0.735997
O O5 0.477096 0.230205 0.151301
O O6 0.425851 0.000000 0.111034
O O7 0.500000 0.223916 0.000000
O O8 0.104251 0.500000 0.479603
O O9 0.124958 0.213874 0.422989
O O10 0.000000 0.345574 0.500000
O O11 0.037543 0.272000 0.595191
O O12 0.048514 0.500000 0.150692
O O13 0.032180 0.254426 0.237943
O O14 0.115937 0.252148 0.065799
O O15 0.303992 0.000000 0.009077
O O16 0.250000 0.250000 0.000000
O O17 0.669878 0.500000 0.305180
O O18 0.605381 0.262709 0.299641
O O19 0.949537 0.500000 0.692906
#
# Coordination Sequence:
#
# PCOD8094218 Si02
#       7
#     8   8   8   8   8   8   8
#     4  12  24  37  53  75 105 141 180 225 268 315
#     4  10  19  37  59  77 100 136 179 224 266 314
#     4   8  15  29  50  76 108 141 171 208 258 319
#     4   9  18  33  55  77 103 138 174 211 258 313
#     4  11  21  35  53  79 110 143 176 213 262 315
#     4  11  21  33  52  78 107 140 178 221 267 317
#     4   9  17  32  54  81 111 142 173 208 260 325
#
# _framework density 17.924598
#
# number of rings (size 3 to 8) (size 9 to 14) (size 15 to 20)
#    0.000    2.000    1.429    4.714    0.000    4.000 
#    0.000    1.429    0.000    0.857    0.000    0.000 
#    0.000    0.000    0.000    0.000    0.000    0.000 
#
# Total GULP energy -347172.705371 kJ/mol
# GULP energy per Si atom -12399.025192 kJ/mol
# Density = 1.788380 g / cm^3
# Si number density = 17.924598 Si / 1000 Ang^3
#
#
#
# Elastic Constant Matrix: (Units=GPa)
#
#
# Indices 1 2 3 4 5 6 
#
# 1 92.3034 35.3103 40.8771 0.0026 -12.2319 -0.0024
# 2 35.3103 63.6123 31.1592 0.0062 -0.3883 -0.0062
# 3 40.8771 31.1592 112.2522 0.0007 -9.6347 -0.0027
# 4 0.0026 0.0062 0.0007 24.3823 0.0006 -3.7742
# 5 -12.2319 -0.3883 -9.6347 0.0006 16.7746 -0.0010
# 6 -0.0024 -0.0062 -0.0027 -3.7742 -0.0010 27.2198
#
#
#
# Elastic Compliance Matrix: (Units=1/GPa)
#
#
# Indices 1 2 3 4 5 6 
#
# 1 0.016391 -0.007564 -0.003006 0.000000 0.010050 0.000000
# 2 -0.007564 0.021794 -0.003918 -0.000004 -0.007262 0.000003
# 3 -0.003006 -0.003918 0.011460 0.000001 0.004299 0.000000
# 4 0.000000 -0.000004 0.000001 0.041913 -0.000001 0.005811
# 5 0.010050 -0.007262 0.004299 -0.000001 0.069244 0.000002
# 6 0.000000 0.000003 0.000000 0.005811 0.000002 0.037544
#
#
# Mechanical properties :
#
#
# Convention : Reuss Voigt Hill
#
# Bulk Modulus (GPa) = 48.38720 53.65122 51.01921
# Shear Modulus (GPa) = 21.34816 24.39677 22.87247
#
# Velocity S-wave (km/s) = 3.45483 3.69328 3.57604
# Velocity P-wave (km/s) = 6.55499 6.94145 6.75099
#
# Compressibility (1/GPa) = 0.02066662
#
# Stress axis : x y z
#
# Youngs Moduli (GPa) = 61.00994 45.88398 87.26008
#
# Poissons Ratio (x) = 0.34708 0.26234
# Poissons Ratio (y) = 0.46150 0.34192
# Poissons Ratio (z) = 0.18342 0.17979
#
# Static dielectric constant tensor:
#      x y z
#    x 3.233100 0.000000 0.075490 
#    y 0.000000 3.153810 0.000000 
#    z 0.075490 0.000000 3.784330 
# 
# 
# High freq. dielectric constant tensor:
#      x y z
#    x 1.671190 0.000000 -0.002270 
#    y 0.000000 1.681020 0.000000 
#    z -0.002270 0.000000 1.704540 
# 
# From -- ./inp_files/288230.got.cif
#   From: 2010.06.25/outbox.cif.g09.slc.cpg/sg12_145_cif.got.tgz:288230.got - 2010.06.28 00:19:55.
