data_PCOD8094886
_publ_section_title
;
Structure prediction by ZEFSAII (Michael W. Deem and Ramdas Pophale) SiO2 
 PCOD8094886
Probable space group: C 2/M
;
_chemical_formula_sum "Si O2"
_cell_formula_units_Z 28
_cell_length_a 21.376234
_cell_length_b 5.683457
_cell_length_c 10.010378
_cell_angle_alpha 90.000000
_cell_angle_beta 56.410527
_cell_angle_gamma 90.000000
_cell_volume 1013.097379
_symmetry_space_group_name_H-M "C 2/M"
_symmetry_group_IT_number 12
_symmetry_cell_setting 'monoclinic'
loop_
_space_group_symop_operation_xyz
x,y,z
-x,y,-z
-x,-y,-z
x,-y,z
1/2+x,1/2+y,z
1/2-x,1/2+y,-z
1/2-x,1/2-y,-z
1/2+x,1/2-y,z
loop_
_atom_site_type_symbol
_atom_site_label
_atom_site_fract_x
_atom_site_fract_y
_atom_site_fract_z
Si Si1 0.861277 0.000000 0.584028
Si Si2 0.459673 0.253978 0.188223
Si Si3 0.664811 0.000000 0.469894
Si Si4 0.195490 0.500000 0.718637
Si Si5 0.681951 0.500000 0.833402
Si Si6 0.420915 0.500000 0.807180
O O1 0.883629 0.249656 0.482233
O O2 0.772022 0.000000 0.713227
O O3 0.904539 0.000000 0.671184
O O4 0.411375 0.500000 0.247714
O O5 0.527787 0.272869 0.215128
O O6 0.413291 0.000000 0.271149
O O7 0.500000 0.229101 0.000000
O O8 0.719393 0.000000 0.534672
O O9 0.726800 0.000000 0.277465
O O10 0.150907 0.747415 0.806326
O O11 0.656432 0.500000 0.017331
#
# Coordination Sequence:
#
# PCOD8094886 Si02
#       6
#     4   8   4   4   4   4
#     4  10  20  29  50  66  93 127 149 203 232 265
#     4   8  16  30  46  61  95 130 143 171 218 293
#     4  10  20  36  47  61  88 134 175 191 218 261
#     4  10  20  36  47  61  88 134 175 191 218 261
#     4  10  20  29  50  66  93 127 149 203 232 265
#     4  10  21  28  46  78 106 108 152 186 245 288
#
# _framework density 27.638017999999999
#
# number of rings (size 3 to 8) (size 9 to 14) (size 15 to 20)
#    0.857    1.714    0.000    4.286    4.000    4.571 
#    0.000    0.000    0.000    0.000    0.000    0.000 
#    0.000   50.286    0.000    0.000    0.000    0.000 
#
# Total GULP energy -173460.876755 kJ/mol
# GULP energy per Si atom -12390.062625 kJ/mol
# Density = 2.757511 g / cm^3
# Si number density = 27.638018 Si / 1000 Ang^3
#
#
#
# Elastic Constant Matrix: (Units=GPa)
#
#
# Indices 1 2 3 4 5 6 
#
# 1 126.6872 76.9770 48.5931 0.0000 9.8975 0.0000
# 2 76.9770 323.2528 84.3123 -0.0001 21.3143 0.0000
# 3 48.5931 84.3123 86.5316 0.0000 14.5052 0.0000
# 4 0.0000 -0.0001 0.0000 81.9028 0.0000 14.4718
# 5 9.8975 21.3143 14.5052 0.0000 60.5399 0.0000
# 6 0.0000 0.0000 0.0000 14.4718 0.0000 58.3514
#
#
#
# Elastic Compliance Matrix: (Units=1/GPa)
#
#
# Indices 1 2 3 4 5 6 
#
# 1 0.010444 -0.001279 -0.004593 0.000000 -0.000157 0.000000
# 2 -0.001279 0.004320 -0.003408 0.000000 -0.000495 0.000000
# 3 -0.004593 -0.003408 0.017846 0.000000 -0.002325 0.000000
# 4 0.000000 0.000000 0.000000 0.012769 0.000000 -0.003167
# 5 -0.000157 -0.000495 -0.002325 0.000000 0.017275 0.000000
# 6 0.000000 0.000000 0.000000 -0.003167 0.000000 0.017923
#
#
# Mechanical properties :
#
#
# Convention : Reuss Voigt Hill
#
# Bulk Modulus (GPa) = 71.16943 106.24849 88.70896
# Shear Modulus (GPa) = 48.16071 61.93144 55.04608
#
# Velocity S-wave (km/s) = 4.17892 4.73885 4.46767
# Velocity P-wave (km/s) = 7.00649 8.27458 7.66680
#
# Compressibility (1/GPa) = 0.01405098
#
# Stress axis : x y z
#
# Youngs Moduli (GPa) = 95.74459 231.50683 56.03629
#
# Poissons Ratio (x) = 0.29607 0.25737
# Poissons Ratio (y) = 0.12245 0.19095
# Poissons Ratio (z) = 0.43974 0.78887
#
# Static dielectric constant tensor:
#      x y z
#    x 4.671480 0.000000 -0.281490 
#    y 0.000000 6.802260 0.000000 
#    z -0.281490 0.000000 4.665720 
# 
# 
# High freq. dielectric constant tensor:
#      x y z
#    x 2.116050 0.000000 -0.031610 
#    y 0.000000 2.167050 0.000000 
#    z -0.031610 0.000000 2.116600 
# 
# From -- ./inp_files/107080.got.cif
#   From: 2010.06.25/outbox.cif.g09.slc.cpg/sg12_54_cif.got.tgz:107080.got - 2010.06.28 00:19:55.
