data_PCOD8094377
_publ_section_title
;
Structure prediction by ZEFSAII (Michael W. Deem and Ramdas Pophale) SiO2 
 PCOD8094377
Probable space group: C 2/M
;
_chemical_formula_sum "Si O2"
_cell_formula_units_Z 64
_cell_length_a 24.013911
_cell_length_b 8.971817
_cell_length_c 28.462768
_cell_angle_alpha 90.000000
_cell_angle_beta 147.229620
_cell_angle_gamma 90.000000
_cell_volume 3319.229457
_symmetry_space_group_name_H-M "C 2/M"
_symmetry_group_IT_number 12
_symmetry_cell_setting 'monoclinic'
loop_
_space_group_symop_operation_xyz
x,y,z
-x,y,-z
-x,-y,-z
x,-y,z
1/2+x,1/2+y,z
1/2-x,1/2+y,-z
1/2-x,1/2-y,-z
1/2+x,1/2-y,z
loop_
_atom_site_type_symbol
_atom_site_label
_atom_site_fract_x
_atom_site_fract_y
_atom_site_fract_z
Si Si1 0.826533 0.177915 0.254734
Si Si2 0.789297 0.166608 0.665526
Si Si3 0.850787 0.328498 0.088321
Si Si4 0.458006 0.828577 0.835815
Si Si5 0.909497 0.322806 0.902643
Si Si6 0.669584 0.329598 0.410351
Si Si7 0.051593 0.321426 0.744899
Si Si8 0.104694 0.324038 0.599902
O O1 0.706087 0.225764 0.165047
O O2 0.884958 0.253954 0.253174
O O3 0.877117 0.235416 0.338941
O O4 0.838590 0.000000 0.260996
O O5 0.887093 0.266395 0.744861
O O6 0.772173 0.174768 0.598053
O O7 0.690975 0.225669 0.623930
O O8 0.814187 0.000000 0.699922
O O9 0.826190 0.500000 0.078246
O O10 0.894635 0.266189 0.168669
O O11 0.926422 0.300325 0.098373
O O12 0.750000 0.250000 0.000000
O O13 0.434565 0.753177 0.869319
O O14 0.431337 0.000000 0.821412
O O15 0.917179 0.500000 0.907874
O O16 0.000000 0.257232 0.000000
O O17 0.648764 0.500000 0.411201
O O18 0.750000 0.250000 0.500000
O O19 0.563355 0.240695 0.336543
O O20 0.047652 0.500000 0.738217
O O21 0.104889 0.500000 0.611132
O O22 0.000000 0.275323 0.500000
#
# Coordination Sequence:
#
# PCOD8094377 Si02
#       8
#     8   8   8   8   8   8   8   8
#     4  11  23  39  62  91 121 157 201 252 304 359
#     4  10  21  38  61  88 119 155 198 247 299 353
#     4  10  23  39  61  89 119 159 203 250 306 360
#     4  10  19  37  62  86 114 153 200 249 296 350
#     4   9  19  35  58  87 118 153 193 239 295 356
#     4  11  24  41  63  93 124 161 205 251 304 361
#     4  11  24  43  62  85 123 165 205 252 307 367
#     4  10  22  40  62  87 120 163 199 238 299 364
#
# _framework density 19.281583999999999
#
# number of rings (size 3 to 8) (size 9 to 14) (size 15 to 20)
#    0.000    1.750    2.500    1.125    3.500    2.250 
#    0.000    0.000    0.000    1.875    0.000    0.000 
#    0.000    0.000    0.000    0.000    0.000    0.000 
#
# Total GULP energy -396734.132810 kJ/mol
# GULP energy per Si atom -12397.941650 kJ/mol
# Density = 1.923770 g / cm^3
# Si number density = 19.281584 Si / 1000 Ang^3
#
#
#
# Elastic Constant Matrix: (Units=GPa)
#
#
# Indices 1 2 3 4 5 6 
#
# 1 284.6686 -8.7092 127.3280 0.0004 89.0399 0.0004
# 2 -8.7092 89.1366 26.9545 0.0002 -33.9382 0.0000
# 3 127.3280 26.9545 194.2863 0.0003 40.0639 0.0002
# 4 0.0004 0.0002 0.0003 32.5406 0.0002 -1.2368
# 5 89.0399 -33.9382 40.0639 0.0002 84.6525 0.0003
# 6 0.0004 0.0000 0.0002 -1.2368 0.0003 21.9243
#
#
#
# Elastic Compliance Matrix: (Units=1/GPa)
#
#
# Indices 1 2 3 4 5 6 
#
# 1 0.006709 -0.000629 -0.003106 0.000000 -0.005839 0.000000
# 2 -0.000629 0.015449 -0.003485 0.000000 0.008504 0.000000
# 3 -0.003106 -0.003485 0.008068 0.000000 -0.001949 0.000000
# 4 0.000000 0.000000 0.000000 0.030797 0.000000 0.001737
# 5 -0.005839 0.008504 -0.001949 0.000000 0.022286 0.000000
# 6 0.000000 0.000000 0.000000 0.001737 0.000000 0.045709
#
#
# Mechanical properties :
#
#
# Convention : Reuss Voigt Hill
#
# Bulk Modulus (GPa) = 63.34135 95.47090 79.40612
# Shear Modulus (GPa) = 33.62031 55.99137 44.80584
#
# Velocity S-wave (km/s) = 4.18023 5.39461 4.82577
# Velocity P-wave (km/s) = 7.49808 9.40340 8.50427
#
# Compressibility (1/GPa) = 0.01578748
#
# Stress axis : x y z
#
# Youngs Moduli (GPa) = 149.05242 64.72841 123.95034
#
# Poissons Ratio (x) = 0.04068 0.38494
# Poissons Ratio (y) = 0.09368 0.43198
# Poissons Ratio (z) = 0.46290 0.22559
#
# Static dielectric constant tensor:
#      x y z
#    x 3.697600 0.000000 0.137600 
#    y 0.000000 3.435250 0.000000 
#    z 0.137600 0.000000 3.399200 
# 
# 
# High freq. dielectric constant tensor:
#      x y z
#    x 1.768070 0.000000 0.000820 
#    y 0.000000 1.737240 0.000000 
#    z 0.000820 0.000000 1.758610 
# 
# From -- ./inp_files/238581.got.cif
#   From: 2010.06.25/outbox.cif.g09.slc.cpg/sg12_120_cif.got.tgz:238581.got - 2010.06.28 00:19:55.
