data_PCOD8094251
_publ_section_title
;
Structure prediction by ZEFSAII (Michael W. Deem and Ramdas Pophale) SiO2 
 PCOD8094251
Probable space group: C 2/M
;
_chemical_formula_sum "Si O2"
_cell_formula_units_Z 56
_cell_length_a 19.371635
_cell_length_b 9.130437
_cell_length_c 28.818053
_cell_angle_alpha 90.000000
_cell_angle_beta 145.851200
_cell_angle_gamma 90.000000
_cell_volume 2861.222387
_symmetry_space_group_name_H-M "C 2/M"
_symmetry_group_IT_number 12
_symmetry_cell_setting 'monoclinic'
loop_
_space_group_symop_operation_xyz
x,y,z
-x,y,-z
-x,-y,-z
x,-y,z
1/2+x,1/2+y,z
1/2-x,1/2+y,-z
1/2-x,1/2-y,-z
1/2+x,1/2-y,z
loop_
_atom_site_type_symbol
_atom_site_label
_atom_site_fract_x
_atom_site_fract_y
_atom_site_fract_z
Si Si1 0.982691 0.827250 0.391458
Si Si2 0.318922 0.167840 0.441083
Si Si3 0.740908 0.832440 0.698541
Si Si4 0.013990 0.173434 0.866992
Si Si5 0.562168 0.672986 0.334399
Si Si6 0.149896 0.825781 0.851842
Si Si7 0.903599 0.826520 0.986186
O O1 0.065385 0.761613 0.478262
O O2 0.844993 0.764624 0.316392
O O3 0.038294 0.777624 0.373413
O O4 0.977479 0.000000 0.394062
O O5 0.310653 0.179926 0.381636
O O6 0.194771 0.236415 0.393800
O O7 0.338990 0.000000 0.467872
O O8 0.878616 0.767816 0.778459
O O9 0.737636 0.000000 0.714161
O O10 0.112553 0.226239 0.883177
O O11 0.049664 0.231162 0.937785
O O12 0.009932 0.000000 0.863673
O O13 0.566532 0.500000 0.330505
O O14 0.455846 0.732523 0.241520
O O15 0.166596 0.000000 0.858300
O O16 0.274484 0.750098 0.904248
O O17 0.884450 0.000000 0.975611
O O18 0.000000 0.779432 0.000000
#
# Coordination Sequence:
#
# PCOD8094251 Si02
#       7
#     8   8   8   8   8   8   8
#     4  11  23  35  51  80 117 145 170 224 289 325
#     4  10  19  37  60  79 101 141 194 230 258 315
#     4  10  20  36  59  81 103 143 193 226 256 317
#     4   9  18  36  60  81 106 144 186 223 263 315
#     4   9  19  36  57  80 107 141 184 229 268 314
#     4  10  19  37  62  82 104 142 189 227 260 311
#     4  10  22  37  55  85 120 144 168 216 277 329
#
# _framework density 19.572054999999999
#
# number of rings (size 3 to 8) (size 9 to 14) (size 15 to 20)
#    0.000    2.143    1.429    1.714    2.000    2.571 
#    0.000    3.571    0.000    0.000    0.000    0.000 
#    0.000    0.000    0.000    0.000    0.000    0.000 
#
# Total GULP energy -347240.066193 kJ/mol
# GULP energy per Si atom -12401.430935 kJ/mol
# Density = 1.952751 g / cm^3
# Si number density = 19.572055 Si / 1000 Ang^3
#
#
#
# Elastic Constant Matrix: (Units=GPa)
#
#
# Indices 1 2 3 4 5 6 
#
# 1 98.2405 31.3122 26.0876 0.0000 23.7360 0.0000
# 2 31.3122 40.5153 18.1819 -0.0001 5.2117 0.0002
# 3 26.0876 18.1819 84.6061 0.0000 12.0505 0.0000
# 4 0.0000 -0.0001 0.0000 22.3871 0.0000 4.6887
# 5 23.7360 5.2117 12.0505 0.0000 36.7426 0.0000
# 6 0.0000 0.0002 0.0000 4.6887 0.0000 24.2646
#
#
#
# Elastic Compliance Matrix: (Units=1/GPa)
#
#
# Indices 1 2 3 4 5 6 
#
# 1 0.015959 -0.010610 -0.001455 0.000000 -0.008328 0.000000
# 2 -0.010610 0.034517 -0.004642 0.000000 0.003481 0.000000
# 3 -0.001455 -0.004642 0.013677 0.000000 -0.002887 0.000000
# 4 0.000000 0.000000 0.000000 0.046553 0.000000 -0.008995
# 5 -0.008328 0.003481 -0.002887 0.000000 0.033049 0.000000
# 6 0.000000 0.000000 0.000000 -0.008995 0.000000 0.042951
#
#
# Mechanical properties :
#
#
# Convention : Reuss Voigt Hill
#
# Bulk Modulus (GPa) = 32.53087 41.61392 37.07239
# Shear Modulus (GPa) = 21.70460 26.53088 24.11774
#
# Velocity S-wave (km/s) = 3.33372 3.68577 3.51416
# Velocity P-wave (km/s) = 5.61029 6.27864 5.95385
#
# Compressibility (1/GPa) = 0.03074003
#
# Stress axis : x y z
#
# Youngs Moduli (GPa) = 62.65985 28.97092 73.11633
#
# Poissons Ratio (x) = 0.30738 0.10636
# Poissons Ratio (y) = 0.66482 0.33941
# Poissons Ratio (z) = 0.09115 0.13448
#
# Static dielectric constant tensor:
#      x y z
#    x 3.769790 0.000000 0.028910 
#    y 0.000000 3.172080 0.000000 
#    z 0.028910 0.000000 3.658810 
# 
# 
# High freq. dielectric constant tensor:
#      x y z
#    x 1.778370 0.000000 0.005010 
#    y 0.000000 1.721240 0.000000 
#    z 0.005010 0.000000 1.772220 
# 
# From -- ./inp_files/363153.got.cif
#   From: 2010.06.25/outbox.cif.g09.slc.cpg/sg12_182_cif.got.tgz:363153.got - 2010.06.28 00:19:55.
