data_PCOD8094809
_publ_section_title
;
Structure prediction by ZEFSAII (Michael W. Deem and Ramdas Pophale) SiO2 
 PCOD8094809
Probable space group: C 2/M
;
_chemical_formula_sum "Si O2"
_cell_formula_units_Z 40
_cell_length_a 15.376756
_cell_length_b 13.788754
_cell_length_c 11.811879
_cell_angle_alpha 90.000000
_cell_angle_beta 50.440647
_cell_angle_gamma 90.000000
_cell_volume 1930.827790
_symmetry_space_group_name_H-M "C 2/M"
_symmetry_group_IT_number 12
_symmetry_cell_setting 'monoclinic'
loop_
_space_group_symop_operation_xyz
x,y,z
-x,y,-z
-x,-y,-z
x,-y,z
1/2+x,1/2+y,z
1/2-x,1/2+y,-z
1/2-x,1/2-y,-z
1/2+x,1/2-y,z
loop_
_atom_site_type_symbol
_atom_site_label
_atom_site_fract_x
_atom_site_fract_y
_atom_site_fract_z
Si Si1 0.732493 0.385456 0.540238
Si Si2 0.133374 0.887687 0.385422
Si Si3 0.482457 0.112487 0.382437
Si Si4 0.858533 0.772743 0.838087
Si Si5 0.473986 0.615054 0.146142
O O1 0.733478 0.500000 0.539919
O O2 0.686916 0.347786 0.457432
O O3 0.858472 0.346216 0.454826
O O4 0.650005 0.350220 0.709884
O O5 0.182738 0.822534 0.243825
O O6 0.000000 0.871880 0.500000
O O7 0.164455 0.000000 0.339478
O O8 0.500000 0.128190 0.500000
O O9 0.574798 0.172599 0.237022
O O10 0.496528 0.000000 0.336573
O O11 0.934456 0.849246 0.841097
O O12 0.750000 0.750000 0.000000
O O13 0.482548 0.500000 0.137770
O O14 0.500000 0.657992 0.000000
#
# Coordination Sequence:
#
# PCOD8094809 Si02
#       5
#     8   8   8   8   8
#     4   9  19  39  68  93 116 161 214 260 312 365
#     4  10  19  39  68  95 121 154 208 265 311 365
#     4  10  24  44  64  89 124 168 215 260 309 370
#     4  12  26  39  59  94 133 167 206 251 317 378
#     4  10  22  40  63  94 130 164 205 258 317 377
#
# _framework density 20.716502999999999
#
# number of rings (size 3 to 8) (size 9 to 14) (size 15 to 20)
#    0.000    1.800    2.000    1.200    2.800    4.000 
#    0.000    0.000    0.000    4.200    0.000    0.000 
#    0.000    0.000    0.000    0.000    0.000    0.000 
#
# Total GULP energy -248040.282643 kJ/mol
# GULP energy per Si atom -12402.014132 kJ/mol
# Density = 2.066935 g / cm^3
# Si number density = 20.716503 Si / 1000 Ang^3
#
#
#
# Elastic Constant Matrix: (Units=GPa)
#
#
# Indices 1 2 3 4 5 6 
#
# 1 145.6938 31.8277 76.5348 0.0000 0.2824 0.0000
# 2 31.8277 63.5201 63.5066 0.0000 -0.1831 0.0000
# 3 76.5348 63.5066 193.0248 0.0000 -4.6191 0.0000
# 4 0.0000 0.0000 0.0000 32.1072 0.0000 0.9404
# 5 0.2824 -0.1831 -4.6191 0.0000 37.7052 0.0000
# 6 0.0000 0.0000 0.0000 0.9404 0.0000 -5.6176
#
#
#
# Elastic Compliance Matrix: (Units=1/GPa)
#
#
# Indices 1 2 3 4 5 6 
#
# 1 0.008755 -0.001351 -0.003038 0.000000 -0.000444 0.000000
# 2 -0.001351 0.023695 -0.007278 0.000000 -0.000766 0.000000
# 3 -0.003038 -0.007278 0.008805 0.000000 0.001066 0.000000
# 4 0.000000 0.000000 0.000000 0.030994 0.000000 0.005189
# 5 -0.000444 -0.000766 0.001066 0.000000 0.026652 0.000000
# 6 0.000000 0.000000 0.000000 0.005189 0.000000 -0.177143
#
#
# Mechanical properties :
#
#
# Convention : Reuss Voigt Hill
#
# Bulk Modulus (GPa) = 55.80074 82.88630 69.34352
# Shear Modulus (GPa) = -102.17859 28.19693 -36.99083
#
# Velocity S-wave (km/s) = -7.03060 3.69329 -4.23019
# Velocity P-wave (km/s) = 6.23795 7.63439 3.11222
#
# Compressibility (1/GPa) = 0.01792091
#
# Stress axis : x y z
#
# Youngs Moduli (GPa) = 114.21434 42.20360 113.56941
#
# Poissons Ratio (x) = 0.05703 0.34498
# Poissons Ratio (y) = 0.15435 0.82658
# Poissons Ratio (z) = 0.34693 0.30717
#
# Static dielectric constant tensor:
#      x y z
#    x 4.143260 0.000000 -0.028740 
#    y 0.000000 3.746700 0.000000 
#    z -0.028740 0.000000 4.074660 
# 
# 
# High freq. dielectric constant tensor:
#      x y z
#    x 1.816680 0.000000 0.006350 
#    y 0.000000 1.817200 0.000000 
#    z 0.006350 0.000000 1.805480 
# 
# From -- ./inp_files/142497.got.cif
#   From: 2010.06.25/outbox.cif.g09.slc.cpg/sg12_72_cif.got.tgz:142497.got - 2010.06.28 00:19:55.
