data_PCOD8094227
_publ_section_title
;
Structure prediction by ZEFSAII (Michael W. Deem and Ramdas Pophale) SiO2 
 PCOD8094227
Probable space group: C 2/M
;
_chemical_formula_sum "Si O2"
_cell_formula_units_Z 44
_cell_length_a 27.089824
_cell_length_b 17.659945
_cell_length_c 6.578887
_cell_angle_alpha 90.000000
_cell_angle_beta 42.461958
_cell_angle_gamma 90.000000
_cell_volume 2124.791943
_symmetry_space_group_name_H-M "C 2/M"
_symmetry_group_IT_number 12
_symmetry_cell_setting 'monoclinic'
loop_
_space_group_symop_operation_xyz
x,y,z
-x,y,-z
-x,-y,-z
x,-y,z
1/2+x,1/2+y,z
1/2-x,1/2+y,-z
1/2-x,1/2-y,-z
1/2+x,1/2-y,z
loop_
_atom_site_type_symbol
_atom_site_label
_atom_site_fract_x
_atom_site_fract_y
_atom_site_fract_z
Si Si1 0.740841 0.830368 0.337033
Si Si2 0.177379 0.583960 0.148596
Si Si3 0.641611 0.785510 0.998097
Si Si4 0.686420 0.417250 0.543709
Si Si5 0.438606 0.584082 0.350812
Si Si6 0.500000 0.306482 0.500000
O O1 0.712873 0.885804 0.247991
O O2 0.669675 0.808450 0.687157
O O3 0.788454 0.758777 0.110934
O O4 0.804198 0.870419 0.279104
O O5 0.142004 0.500000 0.296632
O O6 0.122538 0.645060 0.212320
O O7 0.236321 0.573821 0.795369
O O8 0.564793 0.742693 0.203087
O O9 0.654419 0.500000 0.699057
O O10 0.631148 0.378600 0.551439
O O11 0.419936 0.500000 0.497739
O O12 0.461337 0.641290 0.454168
O O13 0.500000 0.574800 0.000000
#
# Coordination Sequence:
#
# PCOD8094227 Si02
#       6
#     8   8   8   8   8   4
#     4  10  19  37  59  83 111 144 177 224 280 326
#     4  10  20  36  59  82 107 141 183 231 278 324
#     4  10  23  36  55  84 111 141 186 228 268 324
#     4   9  18  32  53  84 114 141 180 223 265 324
#     4  10  21  35  53  81 116 151 185 217 257 324
#     4  12  23  38  57  78 112 156 184 222 277 322
#
# _framework density 20.707909000000001
#
# number of rings (size 3 to 8) (size 9 to 14) (size 15 to 20)
#    0.000    2.000    0.000    3.545    0.000    5.091 
#    0.000    7.727    0.000    2.182    0.000    0.000 
#    0.000    0.000    0.000    0.000    0.000    0.000 
#
# Total GULP energy -272591.039876 kJ/mol
# GULP energy per Si atom -12390.501813 kJ/mol
# Density = 2.066078 g / cm^3
# Si number density = 20.707909 Si / 1000 Ang^3
#
#
#
# Elastic Constant Matrix: (Units=GPa)
#
#
# Indices 1 2 3 4 5 6 
#
# 1 80.3525 38.1138 16.3242 0.0000 3.9870 0.0000
# 2 38.1138 110.9967 26.8389 0.0000 12.1195 0.0000
# 3 16.3242 26.8389 48.0131 0.0000 -2.5288 0.0000
# 4 0.0000 0.0000 0.0000 -23.9955 0.0000 46.0798
# 5 3.9870 12.1195 -2.5288 0.0000 26.7703 0.0000
# 6 0.0000 0.0000 0.0000 46.0798 0.0000 -36.2642
#
#
#
# Elastic Compliance Matrix: (Units=1/GPa)
#
#
# Indices 1 2 3 4 5 6 
#
# 1 0.015146 -0.004508 -0.002654 0.000000 -0.000465 0.000000
# 2 -0.004508 0.012563 -0.005783 0.000000 -0.005562 0.000000
# 3 -0.002654 -0.005783 0.025247 0.000000 0.005398 0.000000
# 4 0.000000 0.000000 0.000000 0.028938 0.000000 0.036771
# 5 -0.000465 -0.005562 0.005398 0.000000 0.040452 0.000000
# 6 0.000000 0.000000 0.000000 0.036771 0.000000 0.019148
#
#
# Mechanical properties :
#
#
# Convention : Reuss Voigt Hill
#
# Bulk Modulus (GPa) = 36.94713 44.65732 40.80223
# Shear Modulus (GPa) = 28.34386 3.84117 16.09252
#
# Velocity S-wave (km/s) = 3.70367 1.36344 2.79071
# Velocity P-wave (km/s) = 6.01418 4.90823 5.48913
#
# Compressibility (1/GPa) = 0.02706570
#
# Stress axis : x y z
#
# Youngs Moduli (GPa) = 66.02484 79.59960 39.60899
#
# Poissons Ratio (x) = 0.35885 0.10512
# Poissons Ratio (y) = 0.29765 0.22905
# Poissons Ratio (z) = 0.17523 0.46030
#
# Static dielectric constant tensor:
#      x y z
#    x 3.458050 0.000000 -0.030540 
#    y 0.000000 4.900010 0.000000 
#    z -0.030540 0.000000 3.488340 
# 
# 
# High freq. dielectric constant tensor:
#      x y z
#    x 1.794710 0.000000 0.012740 
#    y 0.000000 1.823080 0.000000 
#    z 0.012740 0.000000 1.789920 
# 
# From -- ./inp_files/28686.got.cif
#   From: 2010.06.25/outbox.cif.g09.slc.cpg/sg12_15_cif.got.tgz:28686.got - 2010.06.28 00:19:55.
