data_PCOD8094097
_publ_section_title
;
Structure prediction by ZEFSAII (Michael W. Deem and Ramdas Pophale) SiO2 
 PCOD8094097
Probable space group: C 2/M
;
_chemical_formula_sum "Si O2"
_cell_formula_units_Z 32
_cell_length_a 9.421247
_cell_length_b 18.743016
_cell_length_c 9.856835
_cell_angle_alpha 90.000000
_cell_angle_beta 61.044611
_cell_angle_gamma 90.000000
_cell_volume 1522.971851
_symmetry_space_group_name_H-M "C 2/M"
_symmetry_group_IT_number 12
_symmetry_cell_setting 'monoclinic'
loop_
_space_group_symop_operation_xyz
x,y,z
-x,y,-z
-x,-y,-z
x,-y,z
1/2+x,1/2+y,z
1/2-x,1/2+y,-z
1/2-x,1/2-y,-z
1/2+x,1/2-y,z
loop_
_atom_site_type_symbol
_atom_site_label
_atom_site_fract_x
_atom_site_fract_y
_atom_site_fract_z
Si Si1 0.216083 0.206637 0.149106
Si Si2 0.856389 0.219489 0.333735
Si Si3 0.674438 0.919341 0.357167
Si Si4 0.669642 0.419476 0.988652
O O1 0.341795 0.231430 0.205370
O O2 0.221358 0.123947 0.099686
O O3 0.250000 0.250000 0.000000
O O4 0.182325 0.415391 0.188956
O O5 0.750000 0.250000 0.500000
O O6 0.809577 0.136356 0.342526
O O7 0.041601 0.224810 0.293043
O O8 0.500000 0.897833 0.500000
O O9 0.719801 0.000000 0.383653
O O10 0.639937 0.500000 0.051482
O O11 0.500000 0.390150 0.000000
#
# Coordination Sequence:
#
# PCOD8094097 Si02
#       4
#     8   8   8   8
#     4  12  22  40  62  91 122 158 204 254 306 358
#     4  12  25  40  61  91 126 163 202 254 309 368
#     4  10  20  37  60  88 121 162 207 245 300 371
#     4  10  19  36  63  91 119 159 208 253 306 369
#
# _framework density 21.011551999999998
#
# number of rings (size 3 to 8) (size 9 to 14) (size 15 to 20)
#    0.000    1.000    5.000    3.000    0.000    0.000 
#    0.000    1.250    0.000    7.500    0.000    0.000 
#    0.000    0.000    0.000    0.000    0.000    0.000 
#
# Total GULP energy -198300.757164 kJ/mol
# GULP energy per Si atom -12393.797323 kJ/mol
# Density = 2.096373 g / cm^3
# Si number density = 21.011552 Si / 1000 Ang^3
#
#
#
# Elastic Constant Matrix: (Units=GPa)
#
#
# Indices 1 2 3 4 5 6 
#
# 1 43.3102 7.9067 3.3353 0.0000 -18.0950 0.0000
# 2 7.9067 104.0646 15.6552 0.0000 5.3688 0.0000
# 3 3.3353 15.6552 96.7086 0.0000 -18.7037 0.0000
# 4 0.0000 0.0000 0.0000 38.6426 0.0000 -6.0092
# 5 -18.0950 5.3688 -18.7037 0.0000 40.1281 0.0000
# 6 0.0000 0.0000 0.0000 -6.0092 0.0000 21.4965
#
#
#
# Elastic Compliance Matrix: (Units=1/GPa)
#
#
# Indices 1 2 3 4 5 6 
#
# 1 0.029802 -0.003405 0.002430 0.000000 0.015027 0.000000
# 2 -0.003405 0.010429 -0.002349 0.000000 -0.004026 0.000000
# 3 0.002430 -0.002349 0.011990 0.000000 0.006999 0.000000
# 4 0.000000 0.000000 0.000000 0.027054 0.000000 0.007563
# 5 0.015027 -0.004026 0.006999 0.000000 0.035497 0.000000
# 6 0.000000 0.000000 0.000000 0.007563 0.000000 0.048633
#
#
# Mechanical properties :
#
#
# Convention : Reuss Voigt Hill
#
# Bulk Modulus (GPa) = 21.94344 33.09753 27.52049
# Shear Modulus (GPa) = 26.99105 34.53251 30.76178
#
# Velocity S-wave (km/s) = 3.58799 4.05841 3.83043
# Velocity P-wave (km/s) = 5.25653 6.14387 5.71744
#
# Compressibility (1/GPa) = 0.04557171
#
# Stress axis : x y z
#
# Youngs Moduli (GPa) = 33.55496 95.88390 83.39973
#
# Poissons Ratio (x) = 0.32649 -0.20263
# Poissons Ratio (y) = 0.11426 0.19595
# Poissons Ratio (z) = -0.08152 0.22528
#
# Static dielectric constant tensor:
#      x y z
#    x 3.632220 0.000000 -0.127580 
#    y 0.000000 4.180400 0.000000 
#    z -0.127580 0.000000 4.888090 
# 
# 
# High freq. dielectric constant tensor:
#      x y z
#    x 1.792630 0.000000 -0.042820 
#    y 0.000000 1.838630 0.000000 
#    z -0.042820 0.000000 1.827800 
# 
# From -- ./inp_files/117746.got.cif
#   From: 2010.06.25/outbox.cif.g09.slc.cpg/sg12_59_cif.got.tgz:117746.got - 2010.06.28 00:19:55.
