data_PCOD8094106
_publ_section_title
;
Structure prediction by ZEFSAII (Michael W. Deem and Ramdas Pophale) SiO2 
 PCOD8094106
Probable space group: C 2/M
;
_chemical_formula_sum "Si O2"
_cell_formula_units_Z 64
_cell_length_a 13.982759
_cell_length_b 13.452632
_cell_length_c 16.930101
_cell_angle_alpha 90.000000
_cell_angle_beta 90.690248
_cell_angle_gamma 90.000000
_cell_volume 3184.404050
_symmetry_space_group_name_H-M "C 2/M"
_symmetry_group_IT_number 12
_symmetry_cell_setting 'monoclinic'
loop_
_space_group_symop_operation_xyz
x,y,z
-x,y,-z
-x,-y,-z
x,-y,z
1/2+x,1/2+y,z
1/2-x,1/2+y,-z
1/2-x,1/2-y,-z
1/2+x,1/2-y,z
loop_
_atom_site_type_symbol
_atom_site_label
_atom_site_fract_x
_atom_site_fract_y
_atom_site_fract_z
Si Si1 0.134192 0.248335 0.158764
Si Si2 0.888243 0.889063 0.988160
Si Si3 0.295568 0.683791 0.600515
Si Si4 0.207898 0.885131 0.570519
Si Si5 0.010749 0.209926 0.587852
Si Si6 0.265713 0.108996 0.246508
Si Si7 0.061525 0.264150 0.758191
Si Si8 0.309294 0.384647 0.158054
O O1 0.138501 0.197362 0.073092
O O2 0.171785 0.167971 0.220517
O O3 0.201457 0.344567 0.163795
O O4 0.029004 0.278567 0.185972
O O5 0.852471 0.000000 0.961461
O O6 0.842787 0.858621 0.070636
O O7 0.000000 0.893146 0.000000
O O8 0.266447 0.800214 0.620112
O O9 0.258701 0.643194 0.516972
O O10 0.408751 0.663683 0.609394
O O11 0.236859 0.613873 0.658971
O O12 0.093152 0.873590 0.579539
O O13 0.235941 0.000000 0.592114
O O14 0.038915 0.277457 0.664036
O O15 0.000000 0.263902 0.500000
O O16 0.365104 0.150764 0.213862
O O17 0.256566 0.000000 0.212257
O O18 0.116270 0.160417 0.777086
O O19 0.307428 0.500000 0.177240
#
# Coordination Sequence:
#
# PCOD8094106 Si02
#       8
#     8   8   8   8   8   8   8   8
#     4  11  22  39  63  88 122 159 197 241 293 349
#     4  10  19  36  63  95 123 153 193 240 293 348
#     4  10  20  38  58  81 116 145 194 248 297 351
#     4  10  21  37  60  83 109 149 194 246 300 354
#     4  10  21  38  59  82 120 152 194 249 299 348
#     4  11  23  38  58  85 115 156 200 242 294 350
#     4  11  22  40  58  87 119 155 196 248 297 343
#     4  10  23  40  63  91 120 156 197 240 293 354
#
# _framework density 20.097953
#
# number of rings (size 3 to 8) (size 9 to 14) (size 15 to 20)
#    0.000    1.625    3.750    1.125    0.000    4.250 
#    0.000    0.625    0.000    2.625    0.000    0.000 
#    0.000    0.000    0.000    0.000    0.000    0.000 
#
# Total GULP energy -396486.372138 kJ/mol
# GULP energy per Si atom -12390.199129 kJ/mol
# Density = 2.005221 g / cm^3
# Si number density = 20.097953 Si / 1000 Ang^3
#
#
#
# Elastic Constant Matrix: (Units=GPa)
#
#
# Indices 1 2 3 4 5 6 
#
# 1 120.9213 35.6759 24.0604 0.0000 -18.6245 0.0000
# 2 35.6759 79.3250 15.6810 0.0000 -19.6176 0.0000
# 3 24.0604 15.6810 74.9870 0.0000 -3.7227 0.0000
# 4 0.0000 0.0000 0.0000 27.5813 0.0000 -0.7735
# 5 -18.6245 -19.6176 -3.7227 0.0000 21.8547 0.0000
# 6 0.0000 0.0000 0.0000 -0.7735 0.0000 12.1546
#
#
#
# Elastic Compliance Matrix: (Units=1/GPa)
#
#
# Indices 1 2 3 4 5 6 
#
# 1 0.010509 -0.002728 -0.002499 0.000000 0.006081 0.000000
# 2 -0.002728 0.017468 -0.002132 0.000000 0.012992 0.000000
# 3 -0.002499 -0.002132 0.014505 0.000000 -0.001573 0.000000
# 4 0.000000 0.000000 0.000000 0.036321 0.000000 0.002311
# 5 0.006081 0.012992 -0.001573 0.000000 0.062332 0.000000
# 6 0.000000 0.000000 0.000000 0.002311 0.000000 0.082420
#
#
# Mechanical properties :
#
#
# Convention : Reuss Voigt Hill
#
# Bulk Modulus (GPa) = 36.02099 47.34086 41.68093
# Shear Modulus (GPa) = 20.19958 25.63920 22.91939
#
# Velocity S-wave (km/s) = 3.17370 3.57559 3.38062
# Velocity P-wave (km/s) = 5.60281 6.37594 6.00184
#
# Compressibility (1/GPa) = 0.02776159
#
# Stress axis : x y z
#
# Youngs Moduli (GPa) = 95.15963 57.24801 68.93968
#
# Poissons Ratio (x) = 0.15619 0.17231
# Poissons Ratio (y) = 0.25963 0.14701
# Poissons Ratio (z) = 0.23784 0.12208
#
# Static dielectric constant tensor:
#      x y z
#    x 3.711570 0.000000 0.058430 
#    y 0.000000 3.491060 0.000000 
#    z 0.058430 0.000000 3.641080 
# 
# 
# High freq. dielectric constant tensor:
#      x y z
#    x 1.790560 0.000000 -0.009550 
#    y 0.000000 1.752360 0.000000 
#    z -0.009550 0.000000 1.793800 
# 
# From -- ./inp_files/269323.got.cif
#   From: 2010.06.25/outbox.cif.g09.slc.cpg/sg12_135_cif.got.tgz:269323.got - 2010.06.28 00:19:55.
