data_PCOD8094286
_publ_section_title
;
Structure prediction by ZEFSAII (Michael W. Deem and Ramdas Pophale) SiO2 
 PCOD8094286
Probable space group: C 2/M
;
_chemical_formula_sum "Si O2"
_cell_formula_units_Z 40
_cell_length_a 16.355980
_cell_length_b 16.686241
_cell_length_c 16.062839
_cell_angle_alpha 90.000000
_cell_angle_beta 153.680296
_cell_angle_gamma 90.000000
_cell_volume 1943.716696
_symmetry_space_group_name_H-M "C 2/M"
_symmetry_group_IT_number 12
_symmetry_cell_setting 'monoclinic'
loop_
_space_group_symop_operation_xyz
x,y,z
-x,y,-z
-x,-y,-z
x,-y,z
1/2+x,1/2+y,z
1/2-x,1/2+y,-z
1/2-x,1/2-y,-z
1/2+x,1/2-y,z
loop_
_atom_site_type_symbol
_atom_site_label
_atom_site_fract_x
_atom_site_fract_y
_atom_site_fract_z
Si Si1 0.626231 0.651172 0.045907
Si Si2 0.380285 0.590877 0.684797
Si Si3 0.298818 0.172291 0.812907
Si Si4 0.568847 0.327834 0.439568
Si Si5 0.482987 0.847919 0.581580
O O1 0.665097 0.740086 0.115683
O O2 0.825481 0.609032 0.216765
O O3 0.500000 0.605899 0.000000
O O4 0.522850 0.648713 0.863173
O O5 0.452944 0.500000 0.752862
O O6 0.359775 0.620879 0.572287
O O7 0.182592 0.592296 0.549892
O O8 0.231251 0.170937 0.656188
O O9 0.128885 0.134457 0.710852
O O10 0.500000 0.126924 0.000000
O O11 0.544125 0.234758 0.391976
O O12 0.500000 0.824505 0.500000
#
# Coordination Sequence:
#
# PCOD8094286 Si02
#       5
#     8   8   8   8   8
#     4  10  19  37  60  87 117 153 202 248 297 348
#     4  12  27  39  56  92 135 165 189 241 315 377
#     4   9  17  35  67  91 113 149 203 262 298 338
#     4  10  20  39  63  93 121 152 207 258 299 349
#     4  11  19  39  66  88 113 157 213 256 288 342
#
# _framework density 20.579129999999999
#
# number of rings (size 3 to 8) (size 9 to 14) (size 15 to 20)
#    0.000    1.600    6.000    1.800    0.000    6.400 
#    0.000    2.000    0.000    1.200    0.000    0.000 
#    0.000    0.000    0.000    0.000    0.000    0.000 
#
# Total GULP energy -247798.894954 kJ/mol
# GULP energy per Si atom -12389.944748 kJ/mol
# Density = 2.053229 g / cm^3
# Si number density = 20.579130 Si / 1000 Ang^3
#
#
#
# Elastic Constant Matrix: (Units=GPa)
#
#
# Indices 1 2 3 4 5 6 
#
# 1 99.2945 36.0058 64.6107 -0.0029 -6.7080 -0.0041
# 2 36.0058 42.4473 20.0571 0.0524 -6.1835 0.0520
# 3 64.6107 20.0571 180.6603 0.0639 15.1236 0.0712
# 4 -0.0029 0.0524 0.0639 10.1423 0.0047 2.6129
# 5 -6.7080 -6.1835 15.1236 0.0047 38.4847 -0.0056
# 6 -0.0041 0.0520 0.0712 2.6129 -0.0056 1.5985
#
#
#
# Elastic Compliance Matrix: (Units=1/GPa)
#
#
# Indices 1 2 3 4 5 6 
#
# 1 0.018403 -0.012540 -0.005470 -0.000139 0.003342 0.000937
# 2 -0.012540 0.034480 0.000389 0.000196 0.003201 -0.001481
# 3 -0.005470 0.000389 0.007779 0.000085 -0.003948 -0.000525
# 4 -0.000139 0.000196 0.000085 0.170323 -0.000087 -0.278420
# 5 0.003342 0.003201 -0.003948 -0.000087 0.028633 0.000324
# 6 0.000937 -0.001481 -0.000525 -0.278420 0.000324 1.080759
#
#
# Mechanical properties :
#
#
# Convention : Reuss Voigt Hill
#
# Bulk Modulus (GPa) = 39.33742 62.63880 50.98811
# Shear Modulus (GPa) = 3.61248 23.49368 13.55308
#
# Velocity S-wave (km/s) = 1.32636 3.38246 2.56907
# Velocity P-wave (km/s) = 4.63706 6.76453 5.79919
#
# Compressibility (1/GPa) = 0.02542109
#
# Stress axis : x y z
#
# Youngs Moduli (GPa) = 54.33872 29.00269 128.55485
#
# Poissons Ratio (x) = 0.36369 0.70313
# Poissons Ratio (y) = 0.68141 -0.05005
# Poissons Ratio (z) = 0.29721 -0.01129
#
# Static dielectric constant tensor:
#      x y z
#    x 3.886920 -0.000020 0.548310 
#    y -0.000020 3.061810 -0.000030 
#    z 0.548310 -0.000030 4.578170 
# 
# 
# High freq. dielectric constant tensor:
#      x y z
#    x 1.802450 0.000000 0.017370 
#    y 0.000000 1.738480 0.000000 
#    z 0.017370 0.000000 1.829680 
# 
# From -- ./inp_files/59211.got.cif
#   From: 2010.06.25/outbox.cif.g09.slc.cpg/sg12_30_cif.got.tgz:59211.got - 2010.06.28 00:19:55.
