data_PCOD8094883
_publ_section_title
;
Structure prediction by ZEFSAII (Michael W. Deem and Ramdas Pophale) SiO2 
 PCOD8094883
Probable space group: C 2/M
;
_chemical_formula_sum "Si O2"
_cell_formula_units_Z 48
_cell_length_a 20.400398
_cell_length_b 21.714953
_cell_length_c 18.467123
_cell_angle_alpha 90.000000
_cell_angle_beta 160.076774
_cell_angle_gamma 90.000000
_cell_volume 2787.701450
_symmetry_space_group_name_H-M "C 2/M"
_symmetry_group_IT_number 12
_symmetry_cell_setting 'monoclinic'
loop_
_space_group_symop_operation_xyz
x,y,z
-x,y,-z
-x,-y,-z
x,-y,z
1/2+x,1/2+y,z
1/2-x,1/2+y,-z
1/2-x,1/2-y,-z
1/2+x,1/2-y,z
loop_
_atom_site_type_symbol
_atom_site_label
_atom_site_fract_x
_atom_site_fract_y
_atom_site_fract_z
Si Si1 0.615326 0.839745 0.853077
Si Si2 0.212871 0.885983 0.210264
Si Si3 0.626126 0.250466 0.067952
Si Si4 0.980024 0.570404 0.366983
Si Si5 0.919183 0.212176 0.265306
Si Si6 0.327006 0.214967 0.648797
O O1 0.596847 0.901773 0.788008
O O2 0.594068 0.782066 0.776986
O O3 0.451804 0.841615 0.746339
O O4 0.822215 0.835110 0.107665
O O5 0.206212 0.814718 0.180629
O O6 0.333889 0.892208 0.410402
O O7 0.310726 0.926654 0.250036
O O8 0.000000 0.912639 0.000000
O O9 0.807800 0.210551 0.227359
O O10 0.500000 0.216466 0.000000
O O11 0.472981 0.259948 0.843562
O O12 0.037308 0.500000 0.412715
O O13 0.144369 0.193451 0.508110
O O14 0.250000 0.250000 0.500000
#
# Coordination Sequence:
#
# PCOD8094883 Si02
#       6
#     8   8   8   8   8   8
#     4   9  18  32  48  69  92 122 172 210 249 296
#     4  10  22  33  49  65  99 139 179 212 238 274
#     4  10  20  29  46  76  98 129 167 201 245 301
#     4  11  23  36  49  68  98 139 182 217 242 278
#     4   9  17  32  50  69  93 123 161 211 254 302
#     4   9  19  29  49  71  92 123 164 204 257 302
#
# _framework density 17.218487
#
# number of rings (size 3 to 8) (size 9 to 14) (size 15 to 20)
#    0.000    2.333    1.667    2.000    9.333    2.000 
#    0.000    0.000    0.000    0.000    0.000    0.000 
#    0.000   10.667    0.000   12.000    1.333    0.000 
#
# Total GULP energy -297377.260275 kJ/mol
# GULP energy per Si atom -12390.719178 kJ/mol
# Density = 1.717930 g / cm^3
# Si number density = 17.218487 Si / 1000 Ang^3
#
#
#
# Elastic Constant Matrix: (Units=GPa)
#
#
# Indices 1 2 3 4 5 6 
#
# 1 89.2424 26.3016 31.8800 -0.0004 18.5249 0.0006
# 2 26.3016 54.0082 37.9157 -0.0001 -11.1857 0.0000
# 3 31.8800 37.9157 98.1383 0.0009 16.9536 -0.0005
# 4 -0.0004 -0.0001 0.0009 13.7281 0.0000 -3.8039
# 5 18.5249 -11.1857 16.9536 0.0000 35.8380 -0.0001
# 6 0.0006 0.0000 -0.0005 -3.8039 -0.0001 15.3524
#
#
#
# Elastic Compliance Matrix: (Units=1/GPa)
#
#
# Indices 1 2 3 4 5 6 
#
# 1 0.016967 -0.011956 0.001380 0.000000 -0.013155 -0.000001
# 2 -0.011956 0.041981 -0.017061 0.000001 0.027354 0.000000
# 3 0.001380 -0.017061 0.018922 -0.000001 -0.014990 0.000000
# 4 0.000000 0.000001 -0.000001 0.078213 0.000001 0.019379
# 5 -0.013155 0.027354 -0.014990 0.000001 0.050332 0.000001
# 6 -0.000001 0.000000 0.000000 0.019379 0.000001 0.069938
#
#
# Mechanical properties :
#
#
# Convention : Reuss Voigt Hill
#
# Bulk Modulus (GPa) = 44.25486 48.17593 46.21540
# Shear Modulus (GPa) = 14.74230 22.66978 18.70604
#
# Velocity S-wave (km/s) = 2.92925 3.63243 3.29962
# Velocity P-wave (km/s) = 6.09905 6.75519 6.43549
#
# Compressibility (1/GPa) = 0.02259639
#
# Stress axis : x y z
#
# Youngs Moduli (GPa) = 58.93841 23.82025 52.84752
#
# Poissons Ratio (x) = 0.28480 -0.07294
# Poissons Ratio (y) = 0.70468 0.90163
# Poissons Ratio (z) = -0.08135 0.40639
#
# Static dielectric constant tensor:
#      x y z
#    x 3.791420 0.000000 0.420400 
#    y 0.000000 2.604620 0.000000 
#    z 0.420400 0.000000 3.668630 
# 
# 
# High freq. dielectric constant tensor:
#      x y z
#    x 1.674180 0.000000 0.016310 
#    y 0.000000 1.583410 0.000000 
#    z 0.016310 0.000000 1.679540 
# 
# From -- ./inp_files/285940.got.cif
#   From: 2010.06.25/outbox.cif.g09.slc.cpg/sg12_143_cif.got.tgz:285940.got - 2010.06.28 00:19:55.
