data_PCOD8094970
_publ_section_title
;
Structure prediction by ZEFSAII (Michael W. Deem and Ramdas Pophale) SiO2 
 PCOD8094970
Probable space group: C 2/M
;
_chemical_formula_sum "Si O2"
_cell_formula_units_Z 64
_cell_length_a 27.573459
_cell_length_b 9.139513
_cell_length_c 25.832011
_cell_angle_alpha 90.000000
_cell_angle_beta 145.421534
_cell_angle_gamma 90.000000
_cell_volume 3694.576516
_symmetry_space_group_name_H-M "C 2/M"
_symmetry_group_IT_number 12
_symmetry_cell_setting 'monoclinic'
loop_
_space_group_symop_operation_xyz
x,y,z
-x,y,-z
-x,-y,-z
x,-y,z
1/2+x,1/2+y,z
1/2-x,1/2+y,-z
1/2-x,1/2-y,-z
1/2+x,1/2-y,z
loop_
_atom_site_type_symbol
_atom_site_label
_atom_site_fract_x
_atom_site_fract_y
_atom_site_fract_z
Si Si1 0.322726 0.828154 0.396814
Si Si2 0.992234 0.837053 0.554011
Si Si3 0.570261 0.669285 0.794416
Si Si4 0.838622 0.671004 0.291881
Si Si5 0.826778 0.330848 0.039979
Si Si6 0.276571 0.667606 0.146327
Si Si7 0.262858 0.829444 0.591862
Si Si8 0.123387 0.831641 0.384886
O O1 0.409393 0.757073 0.494881
O O2 0.308951 0.793107 0.324109
O O3 0.245430 0.755071 0.360761
O O4 0.326500 0.000000 0.410567
O O5 0.074855 0.754490 0.648129
O O6 0.000000 0.852774 0.500000
O O7 0.985297 0.000000 0.573175
O O8 0.581696 0.500000 0.818190
O O9 0.585884 0.757942 0.862080
O O10 0.639611 0.716990 0.812564
O O11 0.475527 0.704122 0.689993
O O12 0.854347 0.500000 0.298757
O O13 0.767668 0.730251 0.189315
O O14 0.825830 0.500000 0.054752
O O15 0.750000 0.250000 0.000000
O O16 0.810357 0.312463 0.963825
O O17 0.286636 0.500000 0.173057
O O18 0.177971 0.795737 0.483819
O O19 0.345907 0.769029 0.635507
O O20 0.275356 0.000000 0.613876
O O21 0.136219 0.000000 0.379714
#
# Coordination Sequence:
#
# PCOD8094970 Si02
#       8
#     8   8   8   8   8   8   8   8
#     4  10  20  33  47  65  93 125 159 199 241 280
#     4   9  17  29  44  61  85 119 157 194 230 272
#     4   9  18  32  50  71  96 128 160 194 238 286
#     4  10  20  31  44  67  95 125 161 197 233 279
#     4   9  17  30  47  69  96 126 157 194 236 282
#     4   9  18  30  46  69  99 130 159 193 232 277
#     4  10  20  33  51  72  94 125 164 201 240 282
#     4   9  19  35  51  70  97 125 157 200 243 282
#
# _framework density 17.322689
#
# number of rings (size 3 to 8) (size 9 to 14) (size 15 to 20)
#    0.000    2.625    0.000    2.625    1.750    6.500 
#    0.000    0.000    0.000    0.000    0.000    0.875 
#    0.000    7.000    0.000    0.000    0.000    0.000 
#
# Total GULP energy -396705.968193 kJ/mol
# GULP energy per Si atom -12397.061506 kJ/mol
# Density = 1.728326 g / cm^3
# Si number density = 17.322689 Si / 1000 Ang^3
#
#
#
# Elastic Constant Matrix: (Units=GPa)
#
#
# Indices 1 2 3 4 5 6 
#
# 1 66.1740 39.0695 13.5832 0.0000 -9.0683 0.0000
# 2 39.0695 93.6542 23.2251 0.0000 -13.4544 0.0000
# 3 13.5832 23.2251 55.2600 0.0000 -11.5386 0.0000
# 4 0.0000 0.0000 0.0000 28.9034 0.0000 -3.0119
# 5 -9.0683 -13.4544 -11.5386 0.0000 20.8106 0.0000
# 6 0.0000 0.0000 0.0000 -3.0119 0.0000 27.5970
#
#
#
# Elastic Compliance Matrix: (Units=1/GPa)
#
#
# Indices 1 2 3 4 5 6 
#
# 1 0.020359 -0.007761 -0.001061 0.000000 0.003266 0.000000
# 2 -0.007761 0.015479 -0.003635 0.000000 0.004610 0.000000
# 3 -0.001061 -0.003635 0.021824 0.000000 0.009288 0.000000
# 4 0.000000 0.000000 0.000000 0.034996 0.000000 0.003819
# 5 0.003266 0.004610 0.009288 0.000000 0.057606 0.000000
# 6 0.000000 0.000000 0.000000 0.003819 0.000000 0.036653
#
#
# Mechanical properties :
#
#
# Convention : Reuss Voigt Hill
#
# Bulk Modulus (GPa) = 30.53572 40.76041 35.64806
# Shear Modulus (GPa) = 22.44704 24.74293 23.59499
#
# Velocity S-wave (km/s) = 3.60365 3.78346 3.69465
# Velocity P-wave (km/s) = 5.91447 6.53201 6.23090
#
# Compressibility (1/GPa) = 0.03274853
#
# Stress axis : x y z
#
# Youngs Moduli (GPa) = 49.11832 64.60385 45.82052
#
# Poissons Ratio (x) = 0.50138 0.04860
# Poissons Ratio (y) = 0.38120 0.16657
# Poissons Ratio (z) = 0.05209 0.23486
#
# Static dielectric constant tensor:
#      x y z
#    x 3.039400 0.000000 -0.192770 
#    y 0.000000 3.369770 0.000000 
#    z -0.192770 0.000000 3.464600 
# 
# 
# High freq. dielectric constant tensor:
#      x y z
#    x 1.641410 0.000000 -0.021200 
#    y 0.000000 1.681370 0.000000 
#    z -0.021200 0.000000 1.646270 
# 
# From -- ./inp_files/384588.got.cif
#   From: 2010.06.25/outbox.cif.g09.slc.cpg/sg12_193_cif.got.tgz:384588.got - 2010.06.28 00:19:55.
