data_PCOD8094153
_publ_section_title
;
Structure prediction by ZEFSAII (Michael W. Deem and Ramdas Pophale) SiO2 
 PCOD8094153
Probable space group: C 2/M
;
_chemical_formula_sum "Si O2"
_cell_formula_units_Z 64
_cell_length_a 22.076450
_cell_length_b 22.804094
_cell_length_c 16.029810
_cell_angle_alpha 90.000000
_cell_angle_beta 23.253435
_cell_angle_gamma 90.000000
_cell_volume 3186.004701
_symmetry_space_group_name_H-M "C 2/M"
_symmetry_group_IT_number 12
_symmetry_cell_setting 'monoclinic'
loop_
_space_group_symop_operation_xyz
x,y,z
-x,y,-z
-x,-y,-z
x,-y,z
1/2+x,1/2+y,z
1/2-x,1/2+y,-z
1/2-x,1/2-y,-z
1/2+x,1/2-y,z
loop_
_atom_site_type_symbol
_atom_site_label
_atom_site_fract_x
_atom_site_fract_y
_atom_site_fract_z
Si Si1 0.249537 0.114828 0.652089
Si Si2 0.421726 0.645873 0.513871
Si Si3 0.959520 0.566952 0.799094
Si Si4 0.442945 0.378593 0.948075
Si Si5 0.163948 0.256940 0.484850
Si Si6 0.860198 0.930446 0.875156
Si Si7 0.907765 0.628823 0.034489
Si Si8 0.510765 0.753199 0.846266
O O1 0.391208 0.073788 0.448116
O O2 0.314173 0.180160 0.585416
O O3 0.122698 0.109349 0.739142
O O4 0.169141 0.094514 0.839626
O O5 0.500000 0.664146 0.500000
O O6 0.393087 0.706892 0.504285
O O7 0.522707 0.600815 0.334256
O O8 0.266830 0.609714 0.729679
O O9 0.938164 0.500000 0.850638
O O10 0.811201 0.588415 0.934921
O O11 0.981538 0.600525 0.858568
O O12 0.392640 0.408094 0.926705
O O13 0.427372 0.308283 0.968297
O O14 0.323793 0.237117 0.321905
O O15 0.030453 0.263460 0.722939
O O16 0.884766 0.000000 0.840080
O O17 0.000000 0.609879 0.000000
O O18 0.902648 0.698904 0.026275
#
# Coordination Sequence:
#
# PCOD8094153 Si02
#       8
#     8   8   8   8   8   8   8   8
#     4  10  22  42  67  99 130 164 210 268 322 380
#     4  12  24  42  64  99 133 168 214 260 317 388
#     4  11  26  47  64  89 129 172 219 272 322 374
#     4  10  22  41  69  98 128 167 214 260 321 389
#     4  10  19  37  65  95 131 168 199 254 323 377
#     4  11  26  47  66  88 126 176 222 267 322 379
#     4  12  24  40  67  98 133 168 210 261 325 386
#     4  10  19  36  66  95 131 165 202 254 318 386
#
# _framework density 20.087855000000001
#
# number of rings (size 3 to 8) (size 9 to 14) (size 15 to 20)
#    0.000    1.250    5.000    0.750    3.500    2.500 
#    4.500    4.375    0.000    0.000    0.000    0.000 
#    0.000    0.000    0.000    0.000    0.000    0.000 
#
# Total GULP energy -396827.117252 kJ/mol
# GULP energy per Si atom -12400.847414 kJ/mol
# Density = 2.004213 g / cm^3
# Si number density = 20.087855 Si / 1000 Ang^3
#
#
#
# Elastic Constant Matrix: (Units=GPa)
#
#
# Indices 1 2 3 4 5 6 
#
# 1 142.8548 53.4522 50.4663 0.0003 3.6896 -0.0137
# 2 53.4522 73.6222 29.8445 -0.0265 -5.8160 -0.0027
# 3 50.4663 29.8445 127.9446 -0.0400 2.6310 -0.0072
# 4 0.0003 -0.0265 -0.0400 22.7942 0.0374 -10.0195
# 5 3.6896 -5.8160 2.6310 0.0374 25.9383 0.0114
# 6 -0.0137 -0.0027 -0.0072 -10.0195 0.0114 9.2312
#
#
#
# Elastic Compliance Matrix: (Units=1/GPa)
#
#
# Indices 1 2 3 4 5 6 
#
# 1 0.010512 -0.006841 -0.002494 -0.000002 -0.002776 0.000013
# 2 -0.006841 0.019821 -0.002041 0.000009 0.005624 -0.000003
# 3 -0.002494 -0.002041 0.009297 0.000034 -0.001046 0.000041
# 4 -0.000002 0.000009 0.000034 0.083900 -0.000162 0.091065
# 5 -0.002776 0.005624 -0.001046 -0.000162 0.040315 -0.000229
# 6 0.000013 -0.000003 0.000041 0.091065 -0.000229 0.207171
#
#
# Mechanical properties :
#
#
# Convention : Reuss Voigt Hill
#
# Bulk Modulus (GPa) = 59.24225 67.99419 63.61822
# Shear Modulus (GPa) = 12.51894 25.63664 19.07779
#
# Velocity S-wave (km/s) = 2.49912 3.57631 3.08509
# Velocity P-wave (km/s) = 6.15492 7.13969 6.66552
#
# Compressibility (1/GPa) = 0.01687984
#
# Stress axis : x y z
#
# Youngs Moduli (GPa) = 95.12572 50.45116 107.56063
#
# Poissons Ratio (x) = 0.34513 0.26823
# Poissons Ratio (y) = 0.65074 0.21952
# Poissons Ratio (z) = 0.23722 0.10296
#
# Static dielectric constant tensor:
#      x y z
#    x 3.706490 -0.000040 0.062280 
#    y -0.000040 3.485330 0.000080 
#    z 0.062280 0.000080 3.804400 
# 
# 
# High freq. dielectric constant tensor:
#      x y z
#    x 1.785390 0.000000 0.012240 
#    y 0.000000 1.773970 0.000010 
#    z 0.012240 0.000010 1.795780 
# 
# From -- ./inp_files/290899.got.cif
#   From: 2010.06.25/outbox.cif.g09.slc.cpg/sg12_146_cif.got.tgz:290899.got - 2010.06.28 00:19:55.
