data_PCOD8094898
_publ_section_title
;
Structure prediction by ZEFSAII (Michael W. Deem and Ramdas Pophale) SiO2 
 PCOD8094898
Probable space group: C 2/M
;
_chemical_formula_sum "Si O2"
_cell_formula_units_Z 48
_cell_length_a 24.417524
_cell_length_b 14.863874
_cell_length_c 8.432064
_cell_angle_alpha 90.000000
_cell_angle_beta 84.274868
_cell_angle_gamma 90.000000
_cell_volume 3045.059698
_symmetry_space_group_name_H-M "C 2/M"
_symmetry_group_IT_number 12
_symmetry_cell_setting 'monoclinic'
loop_
_space_group_symop_operation_xyz
x,y,z
-x,y,-z
-x,-y,-z
x,-y,z
1/2+x,1/2+y,z
1/2-x,1/2+y,-z
1/2-x,1/2-y,-z
1/2+x,1/2-y,z
loop_
_atom_site_type_symbol
_atom_site_label
_atom_site_fract_x
_atom_site_fract_y
_atom_site_fract_z
Si Si1 0.254845 0.500000 0.551952
Si Si2 0.755247 0.175706 0.364116
Si Si3 0.302912 0.308297 0.029613
Si Si4 0.439896 0.898951 0.559078
Si Si5 0.643820 0.174673 0.195891
Si Si6 0.778013 0.000000 0.897361
Si Si7 0.625756 0.000000 0.655180
Si Si8 0.349751 0.000000 0.005457
O O1 0.272916 0.585162 0.445157
O O2 0.289551 0.500000 0.705601
O O3 0.189957 0.500000 0.597796
O O4 0.750000 0.250000 0.500000
O O5 0.697943 0.165606 0.288141
O O6 0.804117 0.196336 0.221861
O O7 0.354047 0.260255 0.924492
O O8 0.302468 0.411133 0.971833
O O9 0.250000 0.250000 0.000000
O O10 0.500000 0.860477 0.500000
O O11 0.410545 0.824236 0.678423
O O12 0.402397 0.910556 0.411584
O O13 0.445254 0.000000 0.636204
O O14 0.635495 0.086967 0.095580
O O15 0.713710 0.000000 0.936430
O O16 0.614557 0.000000 0.844857
#
# Coordination Sequence:
#
# PCOD8094898 Si02
#       8
#     4   8   8   8   8   4   4   4
#     4  11  18  28  45  64  93 124 157 185 231 266
#     4  11  20  29  44  66  91 123 160 192 221 277
#     4  10  20  30  44  63  93 122 160 188 231 277
#     4   9  17  33  49  67  93 124 161 198 241 279
#     4  11  19  32  44  68  90 131 156 192 238 279
#     4  11  19  32  43  67  95 129 160 189 225 282
#     4   9  18  27  46  72  90 127 160 192 232 281
#     4  11  18  27  49  65 101 129 158 191 231 281
#
# _framework density 15.763237999999999
#
# number of rings (size 3 to 8) (size 9 to 14) (size 15 to 20)
#    0.500    1.167    5.833    3.000    2.333    0.000 
#    0.000    1.667    0.000    0.000    0.000    0.583 
#    0.000    0.000    0.000    7.583    0.000    0.250 
#
# Total GULP energy -297351.000728 kJ/mol
# GULP energy per Si atom -12389.625030 kJ/mol
# Density = 1.572736 g / cm^3
# Si number density = 15.763238 Si / 1000 Ang^3
#
#
#
# Elastic Constant Matrix: (Units=GPa)
#
#
# Indices 1 2 3 4 5 6 
#
# 1 39.3764 17.7127 41.4139 0.0000 -10.9426 0.0000
# 2 17.7127 114.5972 63.2002 0.0000 -0.3127 0.0000
# 3 41.4139 63.2002 146.7219 0.0000 1.5139 0.0000
# 4 0.0000 0.0000 0.0000 35.8308 0.0000 -5.2599
# 5 -10.9426 -0.3127 1.5139 0.0000 21.4472 0.0000
# 6 0.0000 0.0000 0.0000 -5.2599 0.0000 12.2187
#
#
#
# Elastic Compliance Matrix: (Units=1/GPa)
#
#
# Indices 1 2 3 4 5 6 
#
# 1 0.046189 0.000337 -0.013436 0.000000 0.024519 0.000000
# 2 0.000337 0.011453 -0.005036 0.000000 0.000695 0.000000
# 3 -0.013436 -0.005036 0.012858 0.000000 -0.007836 0.000000
# 4 0.000000 0.000000 0.000000 0.029792 0.000000 0.012825
# 5 0.024519 0.000695 -0.007836 0.000000 0.059700 0.000000
# 6 0.000000 0.000000 0.000000 0.012825 0.000000 0.087363
#
#
# Mechanical properties :
#
#
# Convention : Reuss Voigt Hill
#
# Bulk Modulus (GPa) = 29.21251 60.59436 44.90344
# Shear Modulus (GPa) = 16.94729 25.79057 21.36893
#
# Velocity S-wave (km/s) = 3.28245 4.04929 3.68587
# Velocity P-wave (km/s) = 5.73919 7.77085 6.83097
#
# Compressibility (1/GPa) = 0.03423191
#
# Stress axis : x y z
#
# Youngs Moduli (GPa) = 21.65029 87.31153 77.77243
#
# Poissons Ratio (x) = -0.02947 1.04492
# Poissons Ratio (y) = -0.00731 0.39165
# Poissons Ratio (z) = 0.29089 0.43969
#
# Static dielectric constant tensor:
#      x y z
#    x 2.636470 0.000000 0.032440 
#    y 0.000000 3.004430 0.000000 
#    z 0.032440 0.000000 3.622730 
# 
# 
# High freq. dielectric constant tensor:
#      x y z
#    x 1.543490 0.000000 0.002880 
#    y 0.000000 1.591980 0.000000 
#    z 0.002880 0.000000 1.629040 
# 
# From -- ./inp_files/103673.got.cif
#   From: 2010.06.25/outbox.cif.g09.slc.cpg/sg12_52_cif.got.tgz:103673.got - 2010.06.28 00:19:55.
