data_PCOD8094069
_publ_section_title
;
Structure prediction by ZEFSAII (Michael W. Deem and Ramdas Pophale) SiO2 
 PCOD8094069
Probable space group: C 2/M
;
_chemical_formula_sum "Si O2"
_cell_formula_units_Z 48
_cell_length_a 13.365129
_cell_length_b 14.148163
_cell_length_c 12.081022
_cell_angle_alpha 90.000000
_cell_angle_beta 74.396296
_cell_angle_gamma 90.000000
_cell_volume 2200.232829
_symmetry_space_group_name_H-M "C 2/M"
_symmetry_group_IT_number 12
_symmetry_cell_setting 'monoclinic'
loop_
_space_group_symop_operation_xyz
x,y,z
-x,y,-z
-x,-y,-z
x,-y,z
1/2+x,1/2+y,z
1/2-x,1/2+y,-z
1/2-x,1/2-y,-z
1/2+x,1/2-y,z
loop_
_atom_site_type_symbol
_atom_site_label
_atom_site_fract_x
_atom_site_fract_y
_atom_site_fract_z
Si Si1 0.156516 0.239414 0.882315
Si Si2 0.114689 0.263705 0.136589
Si Si3 0.904977 0.105822 0.690903
Si Si4 0.757334 0.110575 0.547135
Si Si5 0.871674 0.893562 0.309373
Si Si6 0.078299 0.389257 0.757057
O O1 0.269193 0.196694 0.878255
O O2 0.105654 0.170902 0.804796
O O3 0.152115 0.345068 0.830987
O O4 0.089735 0.246531 0.014766
O O5 0.114921 0.161935 0.191315
O O6 0.033071 0.337459 0.213839
O O7 0.841449 0.153578 0.608755
O O8 0.029418 0.106174 0.636933
O O9 0.862620 0.000000 0.722709
O O10 0.778765 0.150079 0.415535
O O11 0.638818 0.128301 0.622368
O O12 0.781377 0.000000 0.530681
O O13 0.847116 0.000000 0.275063
O O14 0.062173 0.500000 0.785681
#
# Coordination Sequence:
#
# PCOD8094069 Si02
#       6
#     8   8   8   8   8   8
#     4  11  24  41  62  88 126 163 208 260 312 378
#     4  11  24  41  59  93 126 157 210 266 310 372
#     4  10  19  36  62  92 124 159 204 260 314 367
#     4   9  19  38  63  92 124 160 212 261 304 372
#     4  10  21  38  62  93 127 163 204 259 319 372
#     4  11  23  42  66  91 123 168 213 258 312 372
#
# _framework density 21.815871999999999
#
# number of rings (size 3 to 8) (size 9 to 14) (size 15 to 20)
#    0.000    1.667    3.333    1.000    0.000    5.333 
#    0.000    5.833    0.000    3.000    0.000    0.000 
#    0.000    0.000    0.000    0.000    0.000    0.000 
#
# Total GULP energy -297385.418962 kJ/mol
# GULP energy per Si atom -12391.059123 kJ/mol
# Density = 2.176622 g / cm^3
# Si number density = 21.815872 Si / 1000 Ang^3
#
#
#
# Elastic Constant Matrix: (Units=GPa)
#
#
# Indices 1 2 3 4 5 6 
#
# 1 73.2930 16.7120 -17.3797 0.0000 5.6446 0.0000
# 2 16.7120 99.8409 45.4156 0.0000 1.0017 0.0000
# 3 -17.3797 45.4156 76.0782 0.0000 -0.3839 0.0000
# 4 0.0000 0.0000 0.0000 26.8175 0.0000 -3.0378
# 5 5.6446 1.0017 -0.3839 0.0000 26.7245 0.0000
# 6 0.0000 0.0000 0.0000 -3.0378 0.0000 26.8606
#
#
#
# Elastic Compliance Matrix: (Units=1/GPa)
#
#
# Indices 1 2 3 4 5 6 
#
# 1 0.017164 -0.006337 0.007687 0.000000 -0.003277 0.000000
# 2 -0.006337 0.016100 -0.011056 0.000000 0.000576 0.000000
# 3 0.007687 -0.011056 0.021496 0.000000 -0.000900 0.000000
# 4 0.000000 0.000000 0.000000 0.037773 0.000000 0.004272
# 5 -0.003277 0.000576 -0.000900 0.000000 0.038076 0.000000
# 6 0.000000 0.000000 0.000000 0.004272 0.000000 0.037712
#
#
# Mechanical properties :
#
#
# Convention : Reuss Voigt Hill
#
# Bulk Modulus (GPa) = 28.28915 37.63420 32.96168
# Shear Modulus (GPa) = 25.06072 29.71149 27.38610
#
# Velocity S-wave (km/s) = 3.39298 3.69442 3.54691
# Velocity P-wave (km/s) = 5.32402 5.95707 5.64942
#
# Compressibility (1/GPa) = 0.03534925
#
# Stress axis : x y z
#
# Youngs Moduli (GPa) = 58.26108 62.11203 46.52061
#
# Poissons Ratio (x) = 0.39361 -0.35763
# Poissons Ratio (y) = 0.36920 0.51432
# Poissons Ratio (z) = -0.44788 0.68670
#
# Static dielectric constant tensor:
#      x y z
#    x 3.998620 0.000000 -0.162480 
#    y 0.000000 3.768970 0.000000 
#    z -0.162480 0.000000 4.021490 
# 
# 
# High freq. dielectric constant tensor:
#      x y z
#    x 1.857770 0.000000 -0.016490 
#    y 0.000000 1.842500 0.000000 
#    z -0.016490 0.000000 1.859020 
# 
# From -- ./inp_files/142717.got.cif
#   From: 2010.06.25/outbox.cif.g09.slc.cpg/sg12_72_cif.got.tgz:142717.got - 2010.06.28 00:19:55.
