data_PCOD8094503
_publ_section_title
;
Structure prediction by ZEFSAII (Michael W. Deem and Ramdas Pophale) SiO2 
 PCOD8094503
Probable space group: C 2/M
;
_chemical_formula_sum "Si O2"
_cell_formula_units_Z 36
_cell_length_a 10.648467
_cell_length_b 14.167108
_cell_length_c 11.248942
_cell_angle_alpha 90.000000
_cell_angle_beta 103.455780
_cell_angle_gamma 90.000000
_cell_volume 1650.409902
_symmetry_space_group_name_H-M "C 2/M"
_symmetry_group_IT_number 12
_symmetry_cell_setting 'monoclinic'
loop_
_space_group_symop_operation_xyz
x,y,z
-x,y,-z
-x,-y,-z
x,-y,z
1/2+x,1/2+y,z
1/2-x,1/2+y,-z
1/2-x,1/2-y,-z
1/2+x,1/2-y,z
loop_
_atom_site_type_symbol
_atom_site_label
_atom_site_fract_x
_atom_site_fract_y
_atom_site_fract_z
Si Si1 0.065702 0.606475 0.817629
Si Si2 0.605470 0.859000 0.435111
Si Si3 0.152868 0.105604 0.189093
Si Si4 0.615339 0.360312 0.447018
Si Si5 0.000000 0.749817 0.000000
O O1 0.060038 0.500000 0.868549
O O2 0.193081 0.620482 0.764861
O O3 0.939293 0.625211 0.710106
O O4 0.074095 0.681876 0.925066
O O5 0.500000 0.906770 0.500000
O O6 0.617766 0.750268 0.471417
O O7 0.747122 0.905483 0.482997
O O8 0.087623 0.118064 0.303108
O O9 0.121815 0.000000 0.134538
O O10 0.102412 0.183227 0.086692
O O11 0.500000 0.405937 0.500000
#
# Coordination Sequence:
#
# PCOD8094503 Si02
#       5
#     8   8   8   8   4
#     4  11  24  42  68  98 126 167 221 272 320 380
#     4  10  19  37  66  95 127 171 210 261 335 392
#     4  11  24  43  67  95 129 172 217 265 324 387
#     4  10  21  37  65  98 133 166 209 263 329 391
#     4  12  24  44  66  90 130 174 218 270 320 378
#
# _framework density 21.812764999999999
#
# number of rings (size 3 to 8) (size 9 to 14) (size 15 to 20)
#    0.000    1.333    4.444    1.333    0.000    1.778 
#    4.000    0.000    0.000    0.000    0.000    0.000 
#    0.000    0.000    0.000    0.000    0.000    0.000 
#
# Total GULP energy -223184.113864 kJ/mol
# GULP energy per Si atom -12399.117437 kJ/mol
# Density = 2.176312 g / cm^3
# Si number density = 21.812765 Si / 1000 Ang^3
#
#
#
# Elastic Constant Matrix: (Units=GPa)
#
#
# Indices 1 2 3 4 5 6 
#
# 1 158.5606 46.5787 63.5610 0.0000 -1.3101 0.0000
# 2 46.5787 98.1879 41.7629 0.0000 1.4312 0.0000
# 3 63.5610 41.7629 136.1178 0.0000 0.7341 0.0000
# 4 0.0000 0.0000 0.0000 -43.2413 0.0000 3.8687
# 5 -1.3101 1.4312 0.7341 0.0000 39.5174 0.0000
# 6 0.0000 0.0000 0.0000 3.8687 0.0000 4.4282
#
#
#
# Elastic Compliance Matrix: (Units=1/GPa)
#
#
# Indices 1 2 3 4 5 6 
#
# 1 0.008320 -0.002645 -0.003076 0.000000 0.000429 0.000000
# 2 -0.002645 0.012559 -0.002616 0.000000 -0.000494 0.000000
# 3 -0.003076 -0.002616 0.009586 0.000000 -0.000185 0.000000
# 4 0.000000 0.000000 0.000000 -0.021449 0.000000 0.018739
# 5 0.000429 -0.000494 -0.000185 0.000000 0.025341 0.000000
# 6 0.000000 0.000000 0.000000 0.018739 0.000000 0.209452
#
#
# Mechanical properties :
#
#
# Convention : Reuss Voigt Hill
#
# Bulk Modulus (GPa) = 72.50209 77.40796 74.95502
# Shear Modulus (GPa) = 18.86228 16.20512 17.53370
#
# Velocity S-wave (km/s) = 2.94383 2.72861 2.83826
# Velocity P-wave (km/s) = 6.69816 6.74475 6.72149
#
# Compressibility (1/GPa) = 0.01379271
#
# Stress axis : x y z
#
# Youngs Moduli (GPa) = 120.18777 79.62453 104.31403
#
# Poissons Ratio (x) = 0.21060 0.32087
# Poissons Ratio (y) = 0.31789 0.27284
# Poissons Ratio (z) = 0.36970 0.20826
#
# Static dielectric constant tensor:
#      x y z
#    x 4.228250 0.000000 0.022000 
#    y 0.000000 3.937920 0.000000 
#    z 0.022000 0.000000 3.671660 
# 
# 
# High freq. dielectric constant tensor:
#      x y z
#    x 1.856780 0.000000 0.001360 
#    y 0.000000 1.867540 0.000000 
#    z 0.001360 0.000000 1.844940 
# 
# From -- ./inp_files/129041.got.cif
#   From: 2010.06.25/outbox.cif.g09.slc.cpg/sg12_65_cif.got.tgz:129041.got - 2010.06.28 00:19:55.
