data_PCOD8094999
_publ_section_title
;
Structure prediction by ZEFSAII (Michael W. Deem and Ramdas Pophale) SiO2 
 PCOD8094999
Probable space group: C 2/M
;
_chemical_formula_sum "Si O2"
_cell_formula_units_Z 64
_cell_length_a 28.666090
_cell_length_b 9.154650
_cell_length_c 16.593919
_cell_angle_alpha 90.000000
_cell_angle_beta 65.667485
_cell_angle_gamma 90.000000
_cell_volume 3967.878741
_symmetry_space_group_name_H-M "C 2/M"
_symmetry_group_IT_number 12
_symmetry_cell_setting 'monoclinic'
loop_
_space_group_symop_operation_xyz
x,y,z
-x,y,-z
-x,-y,-z
x,-y,z
1/2+x,1/2+y,z
1/2-x,1/2+y,-z
1/2-x,1/2-y,-z
1/2+x,1/2-y,z
loop_
_atom_site_type_symbol
_atom_site_label
_atom_site_fract_x
_atom_site_fract_y
_atom_site_fract_z
Si Si1 0.769714 0.330646 0.602241
Si Si2 0.732127 0.170869 0.216789
Si Si3 0.386064 0.665099 0.969906
Si Si4 0.676149 0.828651 0.594121
Si Si5 0.205243 0.829544 0.081614
Si Si6 0.500391 0.666702 0.908824
Si Si7 0.163233 0.665155 0.858849
Si Si8 0.089193 0.664122 0.763541
O O1 0.755783 0.500000 0.603878
O O2 0.789973 0.296193 0.677988
O O3 0.717694 0.245065 0.622502
O O4 0.813695 0.285598 0.506539
O O5 0.699718 0.260792 0.174443
O O6 0.790523 0.221783 0.171377
O O7 0.729849 0.000000 0.197005
O O8 0.376615 0.500000 0.009059
O O9 0.349897 0.696206 0.919444
O O10 0.445595 0.683829 0.904080
O O11 0.376227 0.784186 0.045121
O O12 0.618063 0.782574 0.660716
O O13 0.682664 0.000000 0.603992
O O14 0.219189 0.000000 0.077274
O O15 0.250000 0.750000 0.000000
O O16 0.517712 0.500000 0.904963
O O17 0.540993 0.739139 0.820355
O O18 0.500000 0.735219 0.000000
O O19 0.182204 0.500000 0.863163
O O20 0.134432 0.673409 0.795669
O O21 0.068326 0.500000 0.769600
#
# Coordination Sequence:
#
# PCOD8094999 Si02
#       8
#     8   8   8   8   8   8   8   8
#     4   9  18  30  47  69  95 128 161 195 236 284
#     4  11  21  32  47  70  98 130 166 199 235 282
#     4  10  21  36  49  66  94 127 162 201 238 280
#     4   9  17  31  47  68  98 127 157 195 240 286
#     4  11  22  34  50  71  96 127 163 200 240 284
#     4  10  20  33  50  69  92 126 161 195 236 284
#     4  11  20  29  46  70  97 130 163 196 234 277
#     4  10  20  31  46  71  99 128 159 196 238 282
#
# _framework density 16.129525999999998
#
# number of rings (size 3 to 8) (size 9 to 14) (size 15 to 20)
#    0.000    1.875    3.750    1.125    0.000    2.750 
#    0.000    0.000    0.000    0.000    0.000    0.875 
#    0.000    7.000    0.000    0.000    0.000    0.000 
#
# Total GULP energy -396685.412166 kJ/mol
# GULP energy per Si atom -12396.419130 kJ/mol
# Density = 1.609281 g / cm^3
# Si number density = 16.129526 Si / 1000 Ang^3
#
#
#
# Elastic Constant Matrix: (Units=GPa)
#
#
# Indices 1 2 3 4 5 6 
#
# 1 83.9731 33.2335 46.8309 0.0000 -7.8343 0.0000
# 2 33.2335 68.4852 47.7428 0.0000 -2.5086 0.0000
# 3 46.8309 47.7428 117.0568 0.0000 -9.9833 0.0000
# 4 0.0000 0.0000 0.0000 23.3637 0.0000 -0.9720
# 5 -7.8343 -2.5086 -9.9833 0.0000 23.4456 0.0000
# 6 0.0000 0.0000 0.0000 -0.9720 0.0000 23.7743
#
#
#
# Elastic Compliance Matrix: (Units=1/GPa)
#
#
# Indices 1 2 3 4 5 6 
#
# 1 0.016571 -0.004879 -0.004371 0.000000 0.003154 0.000000
# 2 -0.004879 0.021884 -0.007174 0.000000 -0.002343 0.000000
# 3 -0.004371 -0.007174 0.013518 0.000000 0.003528 0.000000
# 4 0.000000 0.000000 0.000000 0.042874 0.000000 0.001753
# 5 0.003154 -0.002343 0.003528 0.000000 0.044957 0.000000
# 6 0.000000 0.000000 0.000000 0.001753 0.000000 0.042134
#
#
# Mechanical properties :
#
#
# Convention : Reuss Voigt Hill
#
# Bulk Modulus (GPa) = 52.28180 58.34771 55.31476
# Shear Modulus (GPa) = 22.60784 23.56390 23.08587
#
# Velocity S-wave (km/s) = 3.74791 3.82634 3.78733
# Velocity P-wave (km/s) = 7.15634 7.46821 7.31394
#
# Compressibility (1/GPa) = 0.01912711
#
# Stress axis : x y z
#
# Youngs Moduli (GPa) = 60.34538 45.69454 73.97416
#
# Poissons Ratio (x) = 0.22294 0.32332
# Poissons Ratio (y) = 0.29442 0.53067
# Poissons Ratio (z) = 0.26375 0.32780
#
# Static dielectric constant tensor:
#      x y z
#    x 2.913530 0.000000 0.032590 
#    y 0.000000 3.150030 0.000000 
#    z 0.032590 0.000000 3.302670 
# 
# 
# High freq. dielectric constant tensor:
#      x y z
#    x 1.590490 0.000000 -0.001890 
#    y 0.000000 1.627910 0.000000 
#    z -0.001890 0.000000 1.615590 
# 
# From -- ./inp_files/294561.got.cif
#   From: 2010.06.25/outbox.cif.g09.slc.cpg/sg12_148_cif.got.tgz:294561.got - 2010.06.28 00:19:55.
