data_PCOD8094433
_publ_section_title
;
Structure prediction by ZEFSAII (Michael W. Deem and Ramdas Pophale) SiO2 
 PCOD8094433
Probable space group: C 2/M
;
_chemical_formula_sum "Si O2"
_cell_formula_units_Z 48
_cell_length_a 18.308501
_cell_length_b 14.369634
_cell_length_c 17.160942
_cell_angle_alpha 90.000000
_cell_angle_beta 147.929615
_cell_angle_gamma 90.000000
_cell_volume 2397.187219
_symmetry_space_group_name_H-M "C 2/M"
_symmetry_group_IT_number 12
_symmetry_cell_setting 'monoclinic'
loop_
_space_group_symop_operation_xyz
x,y,z
-x,y,-z
-x,-y,-z
x,-y,z
1/2+x,1/2+y,z
1/2-x,1/2+y,-z
1/2-x,1/2-y,-z
1/2+x,1/2-y,z
loop_
_atom_site_type_symbol
_atom_site_label
_atom_site_fract_x
_atom_site_fract_y
_atom_site_fract_z
Si Si1 0.436747 0.682709 0.595924
Si Si2 0.053118 0.000000 0.637660
Si Si3 0.694771 0.800656 0.270002
Si Si4 0.715640 0.892979 0.907914
Si Si5 0.544586 0.250804 0.847552
Si Si6 0.661920 0.000000 0.166089
Si Si7 0.615012 0.177893 0.661833
O O1 0.488008 0.580197 0.629353
O O2 0.282457 0.700706 0.428430
O O3 0.441118 0.707821 0.690344
O O4 0.544961 0.738663 0.643019
O O5 0.221349 0.000000 0.796709
O O6 0.000000 0.000000 0.500000
O O7 0.538589 0.773944 0.149486
O O8 0.697449 0.906178 0.243624
O O9 0.754823 0.723882 0.264754
O O10 0.611471 0.844178 0.874533
O O11 0.663040 0.895833 0.770499
O O12 0.739818 0.000000 0.955719
O O13 0.851923 0.831455 0.033955
O O14 0.500000 0.000000 0.000000
O O15 0.500000 0.132124 0.500000
#
# Coordination Sequence:
#
# PCOD8094433 Si02
#       7
#     8   4   8   8   8   4   8
#     4  10  19  37  63  87 121 164 199 244 306 374
#     4  12  18  38  62  92 124 162 205 244 304 378
#     4  11  21  39  59  91 123 152 208 258 311 355
#     4  10  23  43  60  84 120 166 206 241 309 374
#     4  10  24  38  62  89 122 160 198 257 309 361
#     4  12  26  32  58  98 128 159 200 267 316 354
#     4   9  19  37  64  86 114 157 200 251 301 360
#
# _framework density 20.023468000000001
#
# number of rings (size 3 to 8) (size 9 to 14) (size 15 to 20)
#    0.000    1.667    3.333    1.000    4.667    1.667 
#    0.000    1.667    0.000    1.000    0.000    0.000 
#    0.000    0.000    0.000    0.000    0.000    0.000 
#
# Total GULP energy -297400.101699 kJ/mol
# GULP energy per Si atom -12391.670904 kJ/mol
# Density = 1.997789 g / cm^3
# Si number density = 20.023468 Si / 1000 Ang^3
#
#
#
# Elastic Constant Matrix: (Units=GPa)
#
#
# Indices 1 2 3 4 5 6 
#
# 1 86.5085 32.0017 22.8954 -0.0003 20.6601 -0.0002
# 2 32.0017 113.4901 21.2041 -0.0008 7.0126 -0.0006
# 3 22.8954 21.2041 69.1440 -0.0013 4.9725 -0.0011
# 4 -0.0003 -0.0008 -0.0013 12.0000 -0.0006 9.8300
# 5 20.6601 7.0126 4.9725 -0.0006 33.4550 -0.0005
# 6 -0.0002 -0.0006 -0.0011 9.8300 -0.0005 -1.1926
#
#
#
# Elastic Compliance Matrix: (Units=1/GPa)
#
#
# Indices 1 2 3 4 5 6 
#
# 1 0.015745 -0.003240 -0.003608 -0.000001 -0.008508 0.000000
# 2 -0.003240 0.010094 -0.002036 0.000000 0.000188 0.000000
# 3 -0.003608 -0.002036 0.016265 0.000002 0.000238 0.000000
# 4 -0.000001 0.000000 0.000002 0.010750 0.000002 0.088606
# 5 -0.008508 0.000188 0.000238 0.000002 0.035070 0.000000
# 6 0.000000 0.000000 0.000000 0.088606 0.000000 -0.108166
#
#
# Mechanical properties :
#
#
# Convention : Reuss Voigt Hill
#
# Bulk Modulus (GPa) = 41.09304 46.81612 43.95458
# Shear Modulus (GPa) = 886.96574 21.72189 454.34382
#
# Velocity S-wave (km/s) = 21.06952 3.29724 15.07973
# Velocity P-wave (km/s) = 24.74806 6.15850 18.03322
#
# Compressibility (1/GPa) = 0.02433502
#
# Stress axis : x y z
#
# Youngs Moduli (GPa) = 63.51274 99.07134 61.48305
#
# Poissons Ratio (x) = 0.32098 0.22184
# Poissons Ratio (y) = 0.20577 0.12519
# Poissons Ratio (z) = 0.22916 0.20172
#
# Static dielectric constant tensor:
#      x y z
#    x 3.581840 0.000000 -0.051470 
#    y 0.000000 4.035720 0.000000 
#    z -0.051470 0.000000 3.754020 
# 
# 
# High freq. dielectric constant tensor:
#      x y z
#    x 1.774780 0.000000 0.001730 
#    y 0.000000 1.771780 0.000000 
#    z 0.001730 0.000000 1.791050 
# 
# From -- ./inp_files/85984.got.cif
#   From: 2010.06.25/outbox.cif.g09.slc.cpg/sg12_43_cif.got.tgz:85984.got - 2010.06.28 00:19:55.
