data_PCOD8094888
_publ_section_title
;
Structure prediction by ZEFSAII (Michael W. Deem and Ramdas Pophale) SiO2 
 PCOD8094888
Probable space group: C 2/M
;
_chemical_formula_sum "Si O2"
_cell_formula_units_Z 52
_cell_length_a 17.170077
_cell_length_b 23.754912
_cell_length_c 14.668813
_cell_angle_alpha 90.000000
_cell_angle_beta 150.890409
_cell_angle_gamma 90.000000
_cell_volume 2910.630620
_symmetry_space_group_name_H-M "C 2/M"
_symmetry_group_IT_number 12
_symmetry_cell_setting 'monoclinic'
loop_
_space_group_symop_operation_xyz
x,y,z
-x,y,-z
-x,-y,-z
x,-y,z
1/2+x,1/2+y,z
1/2-x,1/2+y,-z
1/2-x,1/2-y,-z
1/2+x,1/2-y,z
loop_
_atom_site_type_symbol
_atom_site_label
_atom_site_fract_x
_atom_site_fract_y
_atom_site_fract_z
Si Si1 0.500000 0.219444 0.000000
Si Si2 0.512003 0.262765 0.299881
Si Si3 0.347299 0.437981 0.802652
Si Si4 0.858293 0.433617 0.571038
Si Si5 0.283701 0.284944 0.904395
Si Si6 0.325057 0.828006 0.648605
Si Si7 0.112033 0.604106 0.692351
O O1 0.353751 0.258616 0.883507
O O2 0.429379 0.180994 0.846543
O O3 0.374256 0.251274 0.232938
O O4 0.600424 0.204635 0.362412
O O5 0.640953 0.307275 0.472087
O O6 0.425882 0.286277 0.122705
O O7 0.405950 0.500000 0.835442
O O8 0.278913 0.411721 0.639365
O O9 0.209756 0.444028 0.738620
O O10 0.500000 0.403717 0.000000
O O11 0.845045 0.500000 0.582986
O O12 0.836846 0.394903 0.638711
O O13 0.027853 0.422805 0.694447
O O14 0.238660 0.349463 0.850871
O O15 0.000000 0.632266 0.500000
#
# Coordination Sequence:
#
# PCOD8094888 Si02
#       7
#     4   8   8   8   8   8   8
#     4  10  24  34  53  80 115 136 186 216 280 310
#     4   9  20  35  56  75 110 138 181 214 278 313
#     4   9  19  32  47  73 106 136 173 218 261 312
#     4  10  20  36  55  75 103 146 184 219 265 318
#     4  10  20  34  51  83 106 143 172 221 259 338
#     4  10  20  37  55  80 108 146 176 233 260 327
#     4  10  20  29  51  76 110 138 174 209 265 323
#
# _framework density 17.865544
#
# number of rings (size 3 to 8) (size 9 to 14) (size 15 to 20)
#    0.000    2.308    1.538    0.462    5.385    4.308 
#    0.000    0.385    0.000    0.000    0.000    1.077 
#    0.000    0.000    0.000    0.000    0.000    0.000 
#
# Total GULP energy -322171.435978 kJ/mol
# GULP energy per Si atom -12391.209076 kJ/mol
# Density = 1.782488 g / cm^3
# Si number density = 17.865544 Si / 1000 Ang^3
#
#
#
# Elastic Constant Matrix: (Units=GPa)
#
#
# Indices 1 2 3 4 5 6 
#
# 1 77.1949 28.4208 29.4629 0.0000 5.2373 0.0000
# 2 28.4208 93.3603 36.7677 0.0000 -5.0011 0.0000
# 3 29.4629 36.7677 93.4491 0.0000 9.5303 0.0000
# 4 0.0000 0.0000 0.0000 19.7758 0.0000 1.2206
# 5 5.2373 -5.0011 9.5303 0.0000 22.5473 0.0000
# 6 0.0000 0.0000 0.0000 1.2206 0.0000 20.9078
#
#
#
# Elastic Compliance Matrix: (Units=1/GPa)
#
#
# Indices 1 2 3 4 5 6 
#
# 1 0.015748 -0.003707 -0.003187 0.000000 -0.003133 0.000000
# 2 -0.003707 0.014145 -0.005021 0.000000 0.006121 0.000000
# 3 -0.003187 -0.005021 0.014337 0.000000 -0.006433 0.000000
# 4 0.000000 0.000000 0.000000 0.050750 0.000000 -0.002963
# 5 -0.003133 0.006121 -0.006433 0.000000 0.049156 0.000000
# 6 0.000000 0.000000 0.000000 -0.002963 0.000000 0.048002
#
#
# Mechanical properties :
#
#
# Convention : Reuss Voigt Hill
#
# Bulk Modulus (GPa) = 49.01759 50.36747 49.69253
# Shear Modulus (GPa) = 22.44496 23.93637 23.19067
#
# Velocity S-wave (km/s) = 3.54832 3.66431 3.60678
# Velocity P-wave (km/s) = 6.65461 6.79386 6.72460
#
# Compressibility (1/GPa) = 0.02040084
#
# Stress axis : x y z
#
# Youngs Moduli (GPa) = 63.50066 70.69750 69.74749
#
# Poissons Ratio (x) = 0.26205 0.22230
# Poissons Ratio (y) = 0.23537 0.35019
# Poissons Ratio (z) = 0.20239 0.35496
#
# Static dielectric constant tensor:
#      x y z
#    x 3.230490 0.000000 0.188960 
#    y 0.000000 3.041120 0.000000 
#    z 0.188960 0.000000 3.520910 
# 
# 
# High freq. dielectric constant tensor:
#      x y z
#    x 1.673740 0.000000 0.017520 
#    y 0.000000 1.669200 0.000000 
#    z 0.017520 0.000000 1.701490 
# 
# From -- ./inp_files/227914.got.cif
#   From: 2010.06.25/outbox.cif.g09.slc.cpg/sg12_114_cif.got.tgz:227914.got - 2010.06.28 00:19:55.
