data_PCOD8094924
_publ_section_title
;
Structure prediction by ZEFSAII (Michael W. Deem and Ramdas Pophale) SiO2 
 PCOD8094924
Probable space group: C 2/M
;
_chemical_formula_sum "Si O2"
_cell_formula_units_Z 44
_cell_length_a 33.302065
_cell_length_b 8.914334
_cell_length_c 11.674387
_cell_angle_alpha 90.000000
_cell_angle_beta 135.826293
_cell_angle_gamma 90.000000
_cell_volume 2415.042378
_symmetry_space_group_name_H-M "C 2/M"
_symmetry_group_IT_number 12
_symmetry_cell_setting 'monoclinic'
loop_
_space_group_symop_operation_xyz
x,y,z
-x,y,-z
-x,-y,-z
x,-y,z
1/2+x,1/2+y,z
1/2-x,1/2+y,-z
1/2-x,1/2-y,-z
1/2+x,1/2-y,z
loop_
_atom_site_type_symbol
_atom_site_label
_atom_site_fract_x
_atom_site_fract_y
_atom_site_fract_z
Si Si1 0.060005 0.823836 0.733894
Si Si2 0.063832 0.322375 0.518300
Si Si3 0.689204 0.827064 0.392182
Si Si4 0.100109 0.167460 0.367464
Si Si5 0.500000 0.253671 0.000000
Si Si6 0.094072 0.337321 0.017283
O O1 0.092970 0.759751 0.688702
O O2 0.001324 0.732332 0.623958
O O3 0.048573 0.000000 0.697744
O O4 0.093464 0.792439 0.920378
O O5 0.067337 0.500000 0.540538
O O6 0.094339 0.275112 0.464277
O O7 0.750000 0.750000 0.500000
O O8 0.654936 0.733543 0.415972
O O9 0.654780 0.815668 0.203319
O O10 0.696088 0.000000 0.445018
O O11 0.114110 0.000000 0.438338
O O12 0.042999 0.153740 0.170498
O O13 0.541238 0.159650 0.000100
O O14 0.091947 0.500000 0.952192
#
# Coordination Sequence:
#
# PCOD8094924 Si02
#       6
#     8   8   8   8   4   8
#     4  11  21  33  51  77 110 145 182 221 266 321
#     4  11  21  34  52  75 109 148 183 219 265 321
#     4  10  22  39  58  81 108 143 185 226 272 321
#     4  11  21  34  54  81 112 143 179 224 271 322
#     4  10  20  30  52  78 114 140 180 214 270 322
#     4  10  20  34  54  79 110 144 179 222 269 323
#
# _framework density 18.219142999999999
#
# number of rings (size 3 to 8) (size 9 to 14) (size 15 to 20)
#    0.000    1.455    1.818    6.000    0.000    5.091 
#    0.000    0.000    0.000    1.091    0.000    0.000 
#    0.000    0.000    0.000    0.000    0.000    0.000 
#
# Total GULP energy -272663.110734 kJ/mol
# GULP energy per Si atom -12393.777761 kJ/mol
# Density = 1.817768 g / cm^3
# Si number density = 18.219143 Si / 1000 Ang^3
#
#
#
# Elastic Constant Matrix: (Units=GPa)
#
#
# Indices 1 2 3 4 5 6 
#
# 1 93.0354 40.6659 53.6263 0.0000 -4.0435 0.0000
# 2 40.6659 132.6785 39.7298 0.0000 -5.8482 0.0000
# 3 53.6263 39.7298 74.1992 0.0000 -3.6143 0.0000
# 4 0.0000 0.0000 0.0000 22.4576 0.0000 -4.6721
# 5 -4.0435 -5.8482 -3.6143 0.0000 35.8495 0.0000
# 6 0.0000 0.0000 0.0000 -4.6721 0.0000 28.2309
#
#
#
# Elastic Compliance Matrix: (Units=1/GPa)
#
#
# Indices 1 2 3 4 5 6 
#
# 1 0.018880 -0.002007 -0.012544 0.000000 0.000537 0.000000
# 2 -0.002007 0.009224 -0.003444 0.000000 0.000931 0.000000
# 3 -0.012544 -0.003444 0.024411 0.000000 0.000484 0.000000
# 4 0.000000 0.000000 0.000000 0.046116 0.000000 0.007632
# 5 0.000537 0.000931 0.000484 0.000000 0.028156 0.000000
# 6 0.000000 0.000000 0.000000 0.007632 0.000000 0.036685
#
#
# Mechanical properties :
#
#
# Convention : Reuss Voigt Hill
#
# Bulk Modulus (GPa) = 60.51124 63.10636 61.80880
# Shear Modulus (GPa) = 24.39385 28.36700 26.38042
#
# Velocity S-wave (km/s) = 3.66309 3.95015 3.80932
# Velocity P-wave (km/s) = 7.15374 7.45101 7.30389
#
# Compressibility (1/GPa) = 0.01652586
#
# Stress axis : x y z
#
# Youngs Moduli (GPa) = 52.96676 108.41024 40.96518
#
# Poissons Ratio (x) = 0.21753 0.51389
# Poissons Ratio (y) = 0.10628 0.14106
# Poissons Ratio (z) = 0.66444 0.37331
#
# Static dielectric constant tensor:
#      x y z
#    x 3.593860 0.000000 -0.561520 
#    y 0.000000 3.423940 0.000000 
#    z -0.561520 0.000000 3.584940 
# 
# 
# High freq. dielectric constant tensor:
#      x y z
#    x 1.692840 0.000000 -0.027630 
#    y 0.000000 1.722730 0.000000 
#    z -0.027630 0.000000 1.685750 
# 
# From -- ./inp_files/186970.got.cif
#   From: 2010.06.25/outbox.cif.g09.slc.cpg/sg12_94_cif.got.tgz:186970.got - 2010.06.28 00:19:55.
