data_PCOD8094621
_publ_section_title
;
Structure prediction by ZEFSAII (Michael W. Deem and Ramdas Pophale) SiO2 
 PCOD8094621
Probable space group: C 2/M
;
_chemical_formula_sum "Si O2"
_cell_formula_units_Z 48
_cell_length_a 16.970584
_cell_length_b 27.042340
_cell_length_c 9.681805
_cell_angle_alpha 90.000000
_cell_angle_beta 149.462048
_cell_angle_gamma 90.000000
_cell_volume 2257.637767
_symmetry_space_group_name_H-M "C 2/M"
_symmetry_group_IT_number 12
_symmetry_cell_setting 'monoclinic'
loop_
_space_group_symop_operation_xyz
x,y,z
-x,y,-z
-x,-y,-z
x,-y,z
1/2+x,1/2+y,z
1/2-x,1/2+y,-z
1/2-x,1/2-y,-z
1/2+x,1/2-y,z
loop_
_atom_site_type_symbol
_atom_site_label
_atom_site_fract_x
_atom_site_fract_y
_atom_site_fract_z
Si Si1 0.829042 0.698064 0.282714
Si Si2 0.197570 0.056670 0.006727
Si Si3 0.328598 0.308447 0.245328
Si Si4 0.696645 0.892276 0.570462
Si Si5 0.846191 0.398833 0.965807
Si Si6 0.849859 0.056754 0.559189
O O1 0.831143 0.755709 0.329394
O O2 0.773839 0.663294 0.326659
O O3 0.000000 0.679174 0.500000
O O4 0.717724 0.694567 0.984419
O O5 0.273412 0.089967 0.004508
O O6 0.016069 0.069650 0.744952
O O7 0.222642 0.000000 0.004652
O O8 0.288727 0.068281 0.284691
O O9 0.500000 0.331354 0.500000
O O10 0.213539 0.343395 0.159468
O O11 0.824556 0.905989 0.648850
O O12 0.530969 0.899493 0.247278
O O13 0.783804 0.436769 0.757399
O O14 0.845551 0.000000 0.605019
#
# Coordination Sequence:
#
# PCOD8094621 Si02
#       6
#     8   8   8   8   8   8
#     4  10  19  38  62  95 128 161 208 259 311 374
#     4  11  23  41  65  91 121 164 219 264 304 371
#     4  10  20  35  64  95 126 162 208 257 314 365
#     4  12  23  40  62  93 130 163 207 258 319 377
#     4  12  23  40  65  96 123 162 216 262 308 368
#     4  11  26  44  62  89 130 172 206 255 323 379
#
# _framework density 21.261161000000001
#
# number of rings (size 3 to 8) (size 9 to 14) (size 15 to 20)
#    0.000    1.000    3.333    4.000    0.000    6.667 
#    0.000    0.833    0.000    2.000    0.000    0.000 
#    0.000    0.000    0.000    0.000    0.000    0.000 
#
# Total GULP energy -297663.785515 kJ/mol
# GULP energy per Si atom -12402.657730 kJ/mol
# Density = 2.121277 g / cm^3
# Si number density = 21.261161 Si / 1000 Ang^3
#
#
#
# Elastic Constant Matrix: (Units=GPa)
#
#
# Indices 1 2 3 4 5 6 
#
# 1 49.3718 18.0453 -7.0961 0.0000 0.4053 0.0000
# 2 18.0453 90.9164 12.3778 0.0000 13.2339 0.0000
# 3 -7.0961 12.3778 96.4470 0.0000 5.1434 0.0000
# 4 0.0000 0.0000 0.0000 32.2883 0.0000 -1.6715
# 5 0.4053 13.2339 5.1434 0.0000 26.2969 0.0000
# 6 0.0000 0.0000 0.0000 -1.6715 0.0000 34.8320
#
#
#
# Elastic Compliance Matrix: (Units=1/GPa)
#
#
# Indices 1 2 3 4 5 6 
#
# 1 0.022381 -0.004994 0.002195 0.000000 0.001739 0.000000
# 2 -0.004994 0.013126 -0.001722 0.000000 -0.006192 0.000000
# 3 0.002195 -0.001722 0.010819 0.000000 -0.001283 0.000000
# 4 0.000000 0.000000 0.000000 0.031048 0.000000 0.001490
# 5 0.001739 -0.006192 -0.001283 0.000000 0.041368 0.000000
# 6 0.000000 0.000000 0.000000 0.001490 0.000000 0.028781
#
#
# Mechanical properties :
#
#
# Convention : Reuss Voigt Hill
#
# Bulk Modulus (GPa) = 26.82104 31.48769 29.15437
# Shear Modulus (GPa) = 29.58698 32.91065 31.24881
#
# Velocity S-wave (km/s) = 3.73446 3.93863 3.83790
# Velocity P-wave (km/s) = 5.58904 5.96036 5.77768
#
# Compressibility (1/GPa) = 0.03728417
#
# Stress axis : x y z
#
# Youngs Moduli (GPa) = 44.68067 76.18404 92.42741
#
# Poissons Ratio (x) = 0.38048 -0.20287
# Poissons Ratio (y) = 0.22315 0.15914
# Poissons Ratio (z) = -0.09807 0.13118
#
# Static dielectric constant tensor:
#      x y z
#    x 3.551020 0.000000 0.034840 
#    y 0.000000 4.094400 0.000000 
#    z 0.034840 0.000000 4.027010 
# 
# 
# High freq. dielectric constant tensor:
#      x y z
#    x 1.801650 0.000000 0.003040 
#    y 0.000000 1.843300 0.000000 
#    z 0.003040 0.000000 1.853250 
# 
# From -- ./inp_files/67411.got.cif
#   From: 2010.06.25/outbox.cif.g09.slc.cpg/sg12_34_cif.got.tgz:67411.got - 2010.06.28 00:19:55.
