data_PCOD8094221
_publ_section_title
;
Structure prediction by ZEFSAII (Michael W. Deem and Ramdas Pophale) SiO2 
 PCOD8094221
Probable space group: C 2/M
;
_chemical_formula_sum "Si O2"
_cell_formula_units_Z 56
_cell_length_a 27.299673
_cell_length_b 9.154259
_cell_length_c 12.566969
_cell_angle_alpha 90.000000
_cell_angle_beta 67.618553
_cell_angle_gamma 90.000000
_cell_volume 2904.007013
_symmetry_space_group_name_H-M "C 2/M"
_symmetry_group_IT_number 12
_symmetry_cell_setting 'monoclinic'
loop_
_space_group_symop_operation_xyz
x,y,z
-x,y,-z
-x,-y,-z
x,-y,z
1/2+x,1/2+y,z
1/2-x,1/2+y,-z
1/2-x,1/2-y,-z
1/2+x,1/2-y,z
loop_
_atom_site_type_symbol
_atom_site_label
_atom_site_fract_x
_atom_site_fract_y
_atom_site_fract_z
Si Si1 0.407401 0.832991 0.343138
Si Si2 0.142437 0.171748 0.995973
Si Si3 0.713177 0.832637 0.610378
Si Si4 0.441302 0.673602 0.523340
Si Si5 0.558715 0.169822 0.917320
Si Si6 0.641838 0.670823 0.236241
Si Si7 0.739645 0.826397 0.824630
O O1 0.346257 0.803252 0.374127
O O2 0.426673 0.726593 0.418656
O O3 0.438183 0.793219 0.209780
O O4 0.418033 0.000000 0.367900
O O5 0.100501 0.236674 0.948638
O O6 0.200049 0.245578 0.937960
O O7 0.148135 0.000000 0.970638
O O8 0.122436 0.204455 0.132526
O O9 0.750000 0.750000 0.500000
O O10 0.721879 0.776302 0.722287
O O11 0.729501 0.000000 0.590883
O O12 0.500000 0.731938 0.500000
O O13 0.439783 0.500000 0.525442
O O14 0.400237 0.738797 0.645084
O O15 0.571959 0.000000 0.927111
O O16 0.500000 0.213074 0.000000
O O17 0.644772 0.500000 0.255462
O O18 0.700904 0.733433 0.205895
O O19 0.734914 0.000000 0.846378
#
# Coordination Sequence:
#
# PCOD8094221 Si02
#       7
#     8   8   8   8   8   8   8
#     4  10  21  39  59  85 117 146 189 241 283 331
#     4  11  22  36  58  89 121 148 189 245 289 335
#     4  10  20  34  56  83 114 151 189 234 282 337
#     4  10  22  40  62  85 113 153 195 232 286 350
#     4  10  22  41  63  85 114 155 195 232 287 353
#     4   9  20  37  57  84 118 155 192 236 286 338
#     4  10  19  37  59  79 115 159 193 229 285 348
#
# _framework density 19.283698999999999
#
# number of rings (size 3 to 8) (size 9 to 14) (size 15 to 20)
#    0.000    2.000    1.429    1.714    2.000    3.429 
#    0.000    2.857    0.000    0.000    0.000    0.000 
#    0.000    0.000    0.000    0.000    0.000    0.000 
#
# Total GULP energy -347251.989113 kJ/mol
# GULP energy per Si atom -12401.856754 kJ/mol
# Density = 1.923981 g / cm^3
# Si number density = 19.283699 Si / 1000 Ang^3
#
#
#
# Elastic Constant Matrix: (Units=GPa)
#
#
# Indices 1 2 3 4 5 6 
#
# 1 87.4575 35.1150 63.1210 0.0000 -2.4306 0.0000
# 2 35.1150 47.1884 43.4762 0.0000 3.2232 0.0000
# 3 63.1210 43.4762 148.1892 0.0000 -10.0992 0.0000
# 4 0.0000 0.0000 0.0000 28.5314 0.0000 2.2500
# 5 -2.4306 3.2232 -10.0992 0.0000 46.5955 0.0000
# 6 0.0000 0.0000 0.0000 2.2500 0.0000 20.1857
#
#
#
# Elastic Compliance Matrix: (Units=1/GPa)
#
#
# Indices 1 2 3 4 5 6 
#
# 1 0.019032 -0.009258 -0.005358 0.000000 0.000472 0.000000
# 2 -0.009258 0.034266 -0.006399 0.000000 -0.004240 0.000000
# 3 -0.005358 -0.006399 0.011083 0.000000 0.002565 0.000000
# 4 0.000000 0.000000 0.000000 0.035360 0.000000 -0.003941
# 5 0.000472 -0.004240 0.002565 0.000000 0.022335 0.000000
# 6 0.000000 0.000000 0.000000 -0.003941 0.000000 0.049979
#
#
# Mechanical properties :
#
#
# Convention : Reuss Voigt Hill
#
# Bulk Modulus (GPa) = 44.74167 62.91771 53.82969
# Shear Modulus (GPa) = 22.56997 28.47072 25.52035
#
# Velocity S-wave (km/s) = 3.42485 3.84658 3.64182
# Velocity P-wave (km/s) = 6.23631 7.24061 6.75715
#
# Compressibility (1/GPa) = 0.02235053
#
# Stress axis : x y z
#
# Youngs Moduli (GPa) = 52.54444 29.18381 90.23226
#
# Poissons Ratio (x) = 0.27018 0.48349
# Poissons Ratio (y) = 0.48644 0.57736
# Poissons Ratio (z) = 0.28155 0.18673
#
# Static dielectric constant tensor:
#      x y z
#    x 3.635470 0.000000 -0.126740 
#    y 0.000000 3.287180 0.000000 
#    z -0.126740 0.000000 3.741980 
# 
# 
# High freq. dielectric constant tensor:
#      x y z
#    x 1.759970 0.000000 -0.001910 
#    y 0.000000 1.726260 0.000000 
#    z -0.001910 0.000000 1.767720 
# 
# From -- ./inp_files/180864.got.cif
#   From: 2010.06.25/outbox.cif.g09.slc.cpg/sg12_91_cif.got.tgz:180864.got - 2010.06.28 00:19:55.
