data_PCOD8094023
_publ_section_title
;
Structure prediction by ZEFSAII (Michael W. Deem and Ramdas Pophale) SiO2 
 PCOD8094023
Probable space group: C 2/M
;
_chemical_formula_sum "Si O2"
_cell_formula_units_Z 56
_cell_length_a 14.986406
_cell_length_b 21.499684
_cell_length_c 8.940137
_cell_angle_alpha 90.000000
_cell_angle_beta 65.861929
_cell_angle_gamma 90.000000
_cell_volume 2628.672227
_symmetry_space_group_name_H-M "C 2/M"
_symmetry_group_IT_number 12
_symmetry_cell_setting 'monoclinic'
loop_
_space_group_symop_operation_xyz
x,y,z
-x,y,-z
-x,-y,-z
x,-y,z
1/2+x,1/2+y,z
1/2-x,1/2+y,-z
1/2-x,1/2-y,-z
1/2+x,1/2-y,z
loop_
_atom_site_type_symbol
_atom_site_label
_atom_site_fract_x
_atom_site_fract_y
_atom_site_fract_z
Si Si1 0.606743 0.000000 0.853936
Si Si2 0.394246 0.000000 0.499851
Si Si3 0.597661 0.783559 0.992613
Si Si4 0.278642 0.109679 0.728975
Si Si5 0.231728 0.394209 0.915727
Si Si6 0.565213 0.641844 0.331866
Si Si7 0.907186 0.724569 0.654186
Si Si8 0.574917 0.345355 0.838273
O O1 0.668240 0.059720 0.860434
O O2 0.594130 0.000000 0.685411
O O3 0.500000 0.000000 0.000000
O O4 0.500000 0.000000 0.500000
O O5 0.336954 0.938968 0.589979
O O6 0.694812 0.824524 0.903192
O O7 0.610385 0.718358 0.896418
O O8 0.500000 0.818608 0.000000
O O9 0.577118 0.773530 0.179813
O O10 0.318514 0.179121 0.673907
O O11 0.167307 0.110297 0.747334
O O12 0.283933 0.089995 0.899385
O O13 0.347032 0.399565 0.795865
O O14 0.500000 0.604291 0.500000
O O15 0.611918 0.703484 0.379285
O O16 0.485167 0.666954 0.269703
O O17 0.000000 0.697812 0.500000
O O18 0.500000 0.381003 0.000000
#
# Coordination Sequence:
#
# PCOD8094023 Si02
#       8
#     4   4   8   8   8   8   8   8
#     4  12  28  50  70  94 128 165 212 270 323 373
#     4  12  28  50  70  96 124 162 218 274 315 372
#     4  10  19  36  61  93 129 167 210 255 315 386
#     4  11  23  41  70  94 126 172 220 264 319 379
#     4  11  23  42  68  94 127 174 216 263 325 378
#     4  11  23  40  61  97 139 170 208 260 318 384
#     4  10  20  36  58  95 132 165 205 261 320 376
#     4  11  20  40  64  96 134 172 208 258 314 385
#
# _framework density 21.303529999999999
#
# number of rings (size 3 to 8) (size 9 to 14) (size 15 to 20)
#    0.000    1.143    4.286    3.000    2.000    5.714 
#    0.000    3.571    0.000    0.000    0.000    0.000 
#    0.000    0.000    0.000    0.000    0.000    0.000 
#
# Total GULP energy -347005.383248 kJ/mol
# GULP energy per Si atom -12393.049402 kJ/mol
# Density = 2.125504 g / cm^3
# Si number density = 21.303530 Si / 1000 Ang^3
#
#
#
# Elastic Constant Matrix: (Units=GPa)
#
#
# Indices 1 2 3 4 5 6 
#
# 1 130.1665 48.4137 60.4689 0.0000 -18.8258 0.0000
# 2 48.4137 67.5649 43.4222 0.0000 -4.7735 0.0000
# 3 60.4689 43.4222 151.4914 0.0000 -16.0780 0.0000
# 4 0.0000 0.0000 0.0000 25.1844 0.0000 -0.6967
# 5 -18.8258 -4.7735 -16.0780 0.0000 32.3660 0.0000
# 6 0.0000 0.0000 0.0000 -0.6967 0.0000 25.1554
#
#
#
# Elastic Compliance Matrix: (Units=1/GPa)
#
#
# Indices 1 2 3 4 5 6 
#
# 1 0.011968 -0.006734 -0.002337 0.000000 0.004807 0.000000
# 2 -0.006734 0.021932 -0.003875 0.000000 -0.002607 0.000000
# 3 -0.002337 -0.003875 0.008909 0.000000 0.002495 0.000000
# 4 0.000000 0.000000 0.000000 0.039738 0.000000 0.001101
# 5 0.004807 -0.002607 0.002495 0.000000 0.034548 0.000000
# 6 0.000000 0.000000 0.000000 0.001101 0.000000 0.039783
#
#
# Mechanical properties :
#
#
# Convention : Reuss Voigt Hill
#
# Bulk Modulus (GPa) = 59.11103 72.64804 65.87954
# Shear Modulus (GPa) = 26.53795 29.66904 28.10350
#
# Velocity S-wave (km/s) = 3.53329 3.73591 3.63601
# Velocity P-wave (km/s) = 6.66729 7.26532 6.97272
#
# Compressibility (1/GPa) = 0.01691732
#
# Stress axis : x y z
#
# Youngs Moduli (GPa) = 83.55645 45.59483 112.24273
#
# Poissons Ratio (x) = 0.30705 0.26227
# Poissons Ratio (y) = 0.56270 0.43496
# Poissons Ratio (z) = 0.19524 0.17669
#
# Static dielectric constant tensor:
#      x y z
#    x 3.987080 0.000000 -0.125690 
#    y 0.000000 3.636150 0.000000 
#    z -0.125690 0.000000 4.122270 
# 
# 
# High freq. dielectric constant tensor:
#      x y z
#    x 1.841760 0.000000 -0.010460 
#    y 0.000000 1.803640 0.000000 
#    z -0.010460 0.000000 1.850890 
# 
# From -- ./inp_files/65820.got.cif
#   From: 2010.06.25/outbox.cif.g09.slc.cpg/sg12_33_cif.got.tgz:65820.got - 2010.06.28 00:19:55.
