data_PCOD8094272
_publ_section_title
;
Structure prediction by ZEFSAII (Michael W. Deem and Ramdas Pophale) SiO2 
 PCOD8094272
Probable space group: C 2/M
;
_chemical_formula_sum "Si O2"
_cell_formula_units_Z 64
_cell_length_a 23.605554
_cell_length_b 9.235479
_cell_length_c 15.247758
_cell_angle_alpha 90.000000
_cell_angle_beta 89.295975
_cell_angle_gamma 90.000000
_cell_volume 3323.891405
_symmetry_space_group_name_H-M "C 2/M"
_symmetry_group_IT_number 12
_symmetry_cell_setting 'monoclinic'
loop_
_space_group_symop_operation_xyz
x,y,z
-x,y,-z
-x,-y,-z
x,-y,z
1/2+x,1/2+y,z
1/2-x,1/2+y,-z
1/2-x,1/2-y,-z
1/2+x,1/2-y,z
loop_
_atom_site_type_symbol
_atom_site_label
_atom_site_fract_x
_atom_site_fract_y
_atom_site_fract_z
Si Si1 0.436062 0.169736 0.748443
Si Si2 0.247773 0.829202 0.162860
Si Si3 0.751864 0.667383 0.658608
Si Si4 0.129706 0.169414 0.595990
Si Si5 0.946333 0.828291 0.239187
Si Si6 0.130459 0.334367 0.424621
Si Si7 0.373267 0.833581 0.103931
Si Si8 0.853598 0.666321 0.906929
O O1 0.491890 0.264383 0.750371
O O2 0.402552 0.214226 0.661653
O O3 0.398125 0.213602 0.832241
O O4 0.451180 0.000000 0.750004
O O5 0.235325 0.764820 0.258118
O O6 0.310128 0.784303 0.130476
O O7 0.202659 0.763322 0.095982
O O8 0.239851 0.000000 0.165600
O O9 0.748519 0.500000 0.689059
O O10 0.693898 0.718009 0.614490
O O11 0.802528 0.691420 0.589183
O O12 0.090746 0.221082 0.676813
O O13 0.108185 0.243586 0.507500
O O14 0.125100 0.000000 0.581124
O O15 0.918317 0.766433 0.151874
O O16 0.949607 0.000000 0.230946
O O17 0.117327 0.500000 0.446205
O O18 0.383589 0.000000 0.130969
O O19 0.382951 0.811108 0.000366
O O20 0.835027 0.500000 0.893935
#
# Coordination Sequence:
#
# PCOD8094272 Si02
#       8
#     8   8   8   8   8   8   8   8
#     4  10  22  41  62  83 112 154 200 242 287 343
#     4  11  21  33  57  93 123 150 189 239 289 338
#     4  10  19  37  60  84 118 156 192 229 287 358
#     4  10  22  38  59  86 117 154 189 233 294 349
#     4  11  24  41  61  84 115 155 195 244 297 342
#     4  10  21  37  61  88 114 151 194 237 285 342
#     4  10  22  39  61  89 118 154 196 237 286 346
#     4  10  21  40  63  85 118 159 194 233 288 352
#
# _framework density 19.254539999999999
#
# number of rings (size 3 to 8) (size 9 to 14) (size 15 to 20)
#    0.000    1.750    2.500    1.500    0.000    5.000 
#    0.000    5.000    0.000    0.000    0.000    0.000 
#    0.000    0.000    0.000    0.000    0.000    0.000 
#
# Total GULP energy -396962.947832 kJ/mol
# GULP energy per Si atom -12405.092120 kJ/mol
# Density = 1.921072 g / cm^3
# Si number density = 19.254540 Si / 1000 Ang^3
#
#
#
# Elastic Constant Matrix: (Units=GPa)
#
#
# Indices 1 2 3 4 5 6 
#
# 1 113.4113 46.1134 44.3149 0.0000 11.0199 0.0000
# 2 46.1134 58.0183 38.6032 0.0000 6.2259 0.0000
# 3 44.3149 38.6032 118.9819 0.0000 7.7197 0.0000
# 4 0.0000 0.0000 0.0000 34.0949 0.0000 4.7223
# 5 11.0199 6.2259 7.7197 0.0000 13.5034 0.0000
# 6 0.0000 0.0000 0.0000 4.7223 0.0000 34.7945
#
#
#
# Elastic Compliance Matrix: (Units=1/GPa)
#
#
# Indices 1 2 3 4 5 6 
#
# 1 0.013823 -0.009149 -0.001788 0.000000 -0.006040 0.000000
# 2 -0.009149 0.028563 -0.005701 0.000000 -0.002444 0.000000
# 3 -0.001788 -0.005701 0.011066 0.000000 -0.002238 0.000000
# 4 0.000000 0.000000 0.000000 0.029892 0.000000 -0.004057
# 5 -0.006040 -0.002444 -0.002238 0.000000 0.081391 0.000000
# 6 0.000000 0.000000 0.000000 -0.004057 0.000000 0.029291
#
#
# Mechanical properties :
#
#
# Convention : Reuss Voigt Hill
#
# Bulk Modulus (GPa) = 49.56508 60.94160 55.25334
# Shear Modulus (GPa) = 21.36510 27.23722 24.30116
#
# Velocity S-wave (km/s) = 3.33470 3.76518 3.55646
# Velocity P-wave (km/s) = 6.37376 7.11487 6.75449
#
# Compressibility (1/GPa) = 0.02017550
#
# Stress axis : x y z
#
# Youngs Moduli (GPa) = 72.34318 35.01040 90.37008
#
# Poissons Ratio (x) = 0.32030 0.16160
# Poissons Ratio (y) = 0.66184 0.51521
# Poissons Ratio (z) = 0.12937 0.19960
#
# Static dielectric constant tensor:
#      x y z
#    x 3.520240 0.000000 0.004430 
#    y 0.000000 3.444560 0.000000 
#    z 0.004430 0.000000 3.558460 
# 
# 
# High freq. dielectric constant tensor:
#      x y z
#    x 1.748370 0.000000 0.001000 
#    y 0.000000 1.743640 0.000000 
#    z 0.001000 0.000000 1.758460 
# 
# From -- ./inp_files/238726.got.cif
#   From: 2010.06.25/outbox.cif.g09.slc.cpg/sg12_120_cif.got.tgz:238726.got - 2010.06.28 00:19:55.
