data_PCOD8094604
_publ_section_title
;
Structure prediction by ZEFSAII (Michael W. Deem and Ramdas Pophale) SiO2 
 PCOD8094604
Probable space group: C 2/M
;
_chemical_formula_sum "Si O2"
_cell_formula_units_Z 56
_cell_length_a 25.631604
_cell_length_b 8.740821
_cell_length_c 14.969578
_cell_angle_alpha 90.000000
_cell_angle_beta 115.475345
_cell_angle_gamma 90.000000
_cell_volume 3027.714398
_symmetry_space_group_name_H-M "C 2/M"
_symmetry_group_IT_number 12
_symmetry_cell_setting 'monoclinic'
loop_
_space_group_symop_operation_xyz
x,y,z
-x,y,-z
-x,-y,-z
x,-y,z
1/2+x,1/2+y,z
1/2-x,1/2+y,-z
1/2-x,1/2-y,-z
1/2+x,1/2-y,z
loop_
_atom_site_type_symbol
_atom_site_label
_atom_site_fract_x
_atom_site_fract_y
_atom_site_fract_z
Si Si1 0.101959 0.180796 0.330371
Si Si2 0.616242 0.318555 0.692434
Si Si3 0.439768 0.322769 0.004868
Si Si4 0.729417 0.173341 0.741035
Si Si5 0.027828 0.181514 0.775771
Si Si6 0.349795 0.821702 0.811784
Si Si7 0.138947 0.327139 0.535449
O O1 0.132865 0.226854 0.262235
O O2 0.137800 0.246447 0.439398
O O3 0.036757 0.247385 0.284365
O O4 0.101970 0.000000 0.336791
O O5 0.621096 0.500000 0.698772
O O6 0.678259 0.244368 0.765516
O O7 0.568036 0.257188 0.725569
O O8 0.599197 0.262856 0.579385
O O9 0.420985 0.500000 0.985658
O O10 0.445993 0.263920 0.110809
O O11 0.500000 0.297290 0.000000
O O12 0.391217 0.219139 0.924231
O O13 0.785141 0.278318 0.792103
O O14 0.705318 0.175338 0.620751
O O15 0.743332 0.000000 0.781773
O O16 0.024451 0.000000 0.773046
O O17 0.353658 0.000000 0.792999
O O18 0.115932 0.500000 0.509970
#
# Coordination Sequence:
#
# PCOD8094604 Si02
#       7
#     8   8   8   8   8   8   8
#     4  11  21  36  58  85 114 153 193 228 278 337
#     4   9  17  35  59  83 113 147 188 235 277 326
#     4  10  19  38  62  83 113 151 189 228 277 336
#     4   9  20  39  59  79 111 152 191 230 280 336
#     4   9  19  35  59  87 113 148 191 231 276 335
#     4  12  24  37  57  86 117 146 186 237 287 334
#     4   9  20  37  55  82 116 150 190 231 280 332
#
# _framework density 18.495799999999999
#
# number of rings (size 3 to 8) (size 9 to 14) (size 15 to 20)
#    0.857    1.286    1.429    2.571    0.000    1.429 
#    0.000    7.857    0.000    0.000    0.000    0.000 
#    0.000    0.000    0.000    0.000    0.000    0.000 
#
# Total GULP energy -347095.011392 kJ/mol
# GULP energy per Si atom -12396.250407 kJ/mol
# Density = 1.845370 g / cm^3
# Si number density = 18.495800 Si / 1000 Ang^3
#
#
#
# Elastic Constant Matrix: (Units=GPa)
#
#
# Indices 1 2 3 4 5 6 
#
# 1 54.6097 14.8700 -8.0967 0.0000 11.3125 0.0000
# 2 14.8700 76.0728 23.6030 0.0000 7.7067 0.0000
# 3 -8.0967 23.6030 50.4414 0.0000 3.7852 0.0000
# 4 0.0000 0.0000 0.0000 30.4592 0.0000 2.5000
# 5 11.3125 7.7067 3.7852 0.0000 21.5824 0.0000
# 6 0.0000 0.0000 0.0000 2.5000 0.0000 17.6898
#
#
#
# Elastic Compliance Matrix: (Units=1/GPa)
#
#
# Indices 1 2 3 4 5 6 
#
# 1 0.023295 -0.005638 0.007238 0.000000 -0.011467 0.000000
# 2 -0.005638 0.017144 -0.008805 0.000000 -0.001622 0.000000
# 3 0.007238 -0.008805 0.025491 0.000000 -0.005120 0.000000
# 4 0.000000 0.000000 0.000000 0.033216 0.000000 -0.004694
# 5 -0.011467 -0.001622 -0.005120 0.000000 0.053822 0.000000
# 6 0.000000 0.000000 0.000000 -0.004694 0.000000 0.057193
#
#
# Mechanical properties :
#
#
# Convention : Reuss Voigt Hill
#
# Bulk Modulus (GPa) = 19.40987 26.87515 23.14251
# Shear Modulus (GPa) = 20.68303 23.99614 22.33959
#
# Velocity S-wave (km/s) = 3.34766 3.60583 3.47914
# Velocity P-wave (km/s) = 5.04573 5.64783 5.35525
#
# Compressibility (1/GPa) = 0.05152017
#
# Stress axis : x y z
#
# Youngs Moduli (GPa) = 42.92714 58.33080 39.22930
#
# Poissons Ratio (x) = 0.32884 -0.28393
# Poissons Ratio (y) = 0.24200 0.34542
# Poissons Ratio (z) = -0.31069 0.51361
#
# Static dielectric constant tensor:
#      x y z
#    x 3.360670 0.000000 0.007180 
#    y 0.000000 3.268970 0.000000 
#    z 0.007180 0.000000 3.398230 
# 
# 
# High freq. dielectric constant tensor:
#      x y z
#    x 1.709730 0.000000 0.002210 
#    y 0.000000 1.714190 0.000000 
#    z 0.002210 0.000000 1.709450 
# 
# From -- ./inp_files/239041.got.cif
#   From: 2010.06.25/outbox.cif.g09.slc.cpg/sg12_120_cif.got.tgz:239041.got - 2010.06.28 00:19:55.
