data_PCOD8094671
_publ_section_title
;
Structure prediction by ZEFSAII (Michael W. Deem and Ramdas Pophale) SiO2 
 PCOD8094671
Probable space group: C 2/M
;
_chemical_formula_sum "Si O2"
_cell_formula_units_Z 32
_cell_length_a 7.664250
_cell_length_b 23.089648
_cell_length_c 12.746763
_cell_angle_alpha 90.000000
_cell_angle_beta 140.050896
_cell_angle_gamma 90.000000
_cell_volume 1448.418979
_symmetry_space_group_name_H-M "C 2/M"
_symmetry_group_IT_number 12
_symmetry_cell_setting 'monoclinic'
loop_
_space_group_symop_operation_xyz
x,y,z
-x,y,-z
-x,-y,-z
x,-y,z
1/2+x,1/2+y,z
1/2-x,1/2+y,-z
1/2-x,1/2-y,-z
1/2+x,1/2-y,z
loop_
_atom_site_type_symbol
_atom_site_label
_atom_site_fract_x
_atom_site_fract_y
_atom_site_fract_z
Si Si1 0.500000 0.633792 0.000000
Si Si2 0.800034 0.932102 0.111855
Si Si3 0.939534 0.327082 0.673920
Si Si4 0.771345 0.565469 0.482333
Si Si5 0.500000 0.754228 0.500000
O O1 0.570936 0.595332 0.932323
O O2 0.244191 0.674973 0.857988
O O3 0.985056 0.917425 0.297611
O O4 0.789422 0.000000 0.084883
O O5 0.500000 0.907423 0.000000
O O6 0.835616 0.393384 0.611459
O O7 0.740709 0.288324 0.654886
O O8 0.905256 0.297128 0.546033
O O9 0.764470 0.500000 0.523652
O O10 0.000000 0.571768 0.500000
#
# Coordination Sequence:
#
# PCOD8094671 Si02
#       5
#     4   8   8   8   4
#     4  12  23  38  64  94 122 160 211 264 308 366
#     4  10  22  38  59  92 132 168 202 250 310 374
#     4  11  23  42  64  92 119 165 209 257 312 368
#     4  10  19  38  64  90 127 165 198 247 315 376
#     4  10  24  44  64  82 124 164 210 260 306 372
#
# _framework density 22.093056000000001
#
# number of rings (size 3 to 8) (size 9 to 14) (size 15 to 20)
#    0.000    1.500    3.750    0.375    3.500    2.000 
#    0.000    0.625    0.000    0.000    0.000    0.000 
#    0.000    0.000    0.000    0.000    0.000    0.000 
#
# Total GULP energy -198381.314152 kJ/mol
# GULP energy per Si atom -12398.832134 kJ/mol
# Density = 2.204277 g / cm^3
# Si number density = 22.093056 Si / 1000 Ang^3
#
#
#
# Elastic Constant Matrix: (Units=GPa)
#
#
# Indices 1 2 3 4 5 6 
#
# 1 44.8703 12.4125 6.3050 0.0000 16.9027 0.0000
# 2 12.4125 91.2549 43.8760 0.0000 4.3349 0.0000
# 3 6.3050 43.8760 142.8060 0.0000 38.3678 0.0000
# 4 0.0000 0.0000 0.0000 25.8442 0.0000 12.0052
# 5 16.9027 4.3349 38.3678 0.0000 35.9992 0.0000
# 6 0.0000 0.0000 0.0000 12.0052 0.0000 7.3071
#
#
#
# Elastic Compliance Matrix: (Units=1/GPa)
#
#
# Indices 1 2 3 4 5 6 
#
# 1 0.030621 -0.006029 0.005841 0.000000 -0.019877 0.000000
# 2 -0.006029 0.014413 -0.006244 0.000000 0.007750 0.000000
# 3 0.005841 -0.006244 0.012889 0.000000 -0.015727 0.000000
# 4 0.000000 0.000000 0.000000 0.163391 0.000000 -0.268443
# 5 -0.019877 0.007750 -0.015727 0.000000 0.052940 0.000000
# 6 0.000000 0.000000 0.000000 -0.268443 0.000000 0.577891
#
#
# Mechanical properties :
#
#
# Convention : Reuss Voigt Hill
#
# Bulk Modulus (GPa) = 22.19421 44.90203 33.54812
# Shear Modulus (GPa) = 5.68164 28.25261 16.96712
#
# Velocity S-wave (km/s) = 1.60539 3.57991 2.77426
# Velocity P-wave (km/s) = 3.67477 6.12012 5.04776
#
# Compressibility (1/GPa) = 0.04505680
#
# Stress axis : x y z
#
# Youngs Moduli (GPa) = 32.65714 69.38417 77.58845
#
# Poissons Ratio (x) = 0.41833 -0.45317
# Poissons Ratio (y) = 0.19689 0.48448
# Poissons Ratio (z) = -0.19074 0.43325
#
# Static dielectric constant tensor:
#      x y z
#    x 3.992190 0.000000 0.477600 
#    y 0.000000 4.187970 0.000000 
#    z 0.477600 0.000000 4.188210 
# 
# 
# High freq. dielectric constant tensor:
#      x y z
#    x 1.860270 0.000000 0.026170 
#    y 0.000000 1.869330 0.000000 
#    z 0.026170 0.000000 1.869140 
# 
# From -- ./inp_files/38733.got.cif
#   From: 2010.06.25/outbox.cif.g09.slc.cpg/sg12_20_cif.got.tgz:38733.got - 2010.06.28 00:19:55.
