data_PCOD8094971
_publ_section_title
;
Structure prediction by ZEFSAII (Michael W. Deem and Ramdas Pophale) SiO2 
 PCOD8094971
Probable space group: C 2/M
;
_chemical_formula_sum "Si O2"
_cell_formula_units_Z 48
_cell_length_a 30.345330
_cell_length_b 9.342187
_cell_length_c 17.862234
_cell_angle_alpha 90.000000
_cell_angle_beta 32.308355
_cell_angle_gamma 90.000000
_cell_volume 2706.475376
_symmetry_space_group_name_H-M "C 2/M"
_symmetry_group_IT_number 12
_symmetry_cell_setting 'monoclinic'
loop_
_space_group_symop_operation_xyz
x,y,z
-x,y,-z
-x,-y,-z
x,-y,z
1/2+x,1/2+y,z
1/2-x,1/2+y,-z
1/2-x,1/2-y,-z
1/2+x,1/2-y,z
loop_
_atom_site_type_symbol
_atom_site_label
_atom_site_fract_x
_atom_site_fract_y
_atom_site_fract_z
Si Si1 0.024543 0.169278 0.349721
Si Si2 0.368817 0.330714 0.664900
Si Si3 0.762700 0.166298 0.369858
Si Si4 0.211108 0.169010 0.837464
Si Si5 0.453557 0.330257 0.847590
Si Si6 0.629539 0.332906 0.645900
O O1 0.097375 0.213552 0.301741
O O2 0.042496 0.235028 0.242090
O O3 0.935623 0.221893 0.507503
O O4 0.020146 0.000000 0.352045
O O5 0.352943 0.500000 0.682108
O O6 0.284793 0.246921 0.773762
O O7 0.791354 0.210464 0.246229
O O8 0.681050 0.253076 0.507954
O O9 0.837108 0.205867 0.319505
O O10 0.740377 0.000000 0.407229
O O11 0.221325 0.000000 0.834215
O O12 0.126538 0.228449 0.994674
O O13 0.448562 0.500000 0.850408
O O14 0.534736 0.282753 0.777008
O O15 0.638100 0.500000 0.616044
#
# Coordination Sequence:
#
# PCOD8094971 Si02
#       6
#     8   8   8   8   8   8
#     4   8  15  29  49  70  89 114 154 198 227 255
#     4   9  17  31  51  70  88 116 156 195 226 261
#     4   9  18  31  47  70  96 118 146 189 233 266
#     4  10  20  31  44  67  99 126 146 180 230 275
#     4   9  17  29  46  68  93 122 154 185 222 271
#     4   9  17  31  52  71  87 117 158 190 219 265
#
# _framework density 17.735244999999999
#
# number of rings (size 3 to 8) (size 9 to 14) (size 15 to 20)
#    0.000    3.000    0.000    2.000    0.000    3.333 
#    0.000    5.833    0.000    2.000    0.000    5.833 
#    0.000    0.000    0.000    0.000    0.000    0.000 
#
# Total GULP energy -297547.677994 kJ/mol
# GULP energy per Si atom -12397.819916 kJ/mol
# Density = 1.769488 g / cm^3
# Si number density = 17.735245 Si / 1000 Ang^3
#
#
#
# Elastic Constant Matrix: (Units=GPa)
#
#
# Indices 1 2 3 4 5 6 
#
# 1 114.3380 25.2706 84.2207 -0.0011 -17.4377 0.0008
# 2 25.2706 21.9980 30.0273 -0.0022 -8.0924 0.0009
# 3 84.2207 30.0273 153.1655 -0.0068 -20.5350 0.0029
# 4 -0.0011 -0.0022 -0.0068 23.1402 0.0016 -5.5876
# 5 -17.4377 -8.0924 -20.5350 0.0016 25.9812 0.0010
# 6 0.0008 0.0009 0.0029 -5.5876 0.0010 23.5627
#
#
#
# Elastic Compliance Matrix: (Units=1/GPa)
#
#
# Indices 1 2 3 4 5 6 
#
# 1 0.015983 -0.007975 -0.006845 -0.000002 0.002833 0.000000
# 2 -0.007975 0.068917 -0.007791 0.000003 0.009956 -0.000001
# 3 -0.006845 -0.007791 0.012168 0.000002 0.002597 -0.000001
# 4 -0.000002 0.000003 0.000002 0.045840 -0.000002 0.010870
# 5 0.002833 0.009956 0.002597 -0.000002 0.045544 -0.000003
# 6 0.000000 -0.000001 -0.000001 0.010870 -0.000003 0.045018
#
#
# Mechanical properties :
#
#
# Convention : Reuss Voigt Hill
#
# Bulk Modulus (GPa) = 19.28784 63.17097 41.22941
# Shear Modulus (GPa) = 16.89344 24.53567 20.71456
#
# Velocity S-wave (km/s) = 3.08967 3.72350 3.42129
# Velocity P-wave (km/s) = 4.86077 7.36085 6.23736
#
# Compressibility (1/GPa) = 0.05184613
#
# Stress axis : x y z
#
# Youngs Moduli (GPa) = 62.56775 14.51026 82.18037
#
# Poissons Ratio (x) = 0.11571 0.56254
# Poissons Ratio (y) = 0.49895 0.64027
# Poissons Ratio (z) = 0.42829 0.11305
#
# Static dielectric constant tensor:
#      x y z
#    x 3.559830 0.000000 0.122720 
#    y 0.000000 2.898390 0.000000 
#    z 0.122720 0.000000 3.486000 
# 
# 
# High freq. dielectric constant tensor:
#      x y z
#    x 1.700900 0.000000 -0.000600 
#    y 0.000000 1.643780 0.000000 
#    z -0.000600 0.000000 1.684490 
# 
# From -- ./inp_files/212530.got.cif
#   From: 2010.06.25/outbox.cif.g09.slc.cpg/sg12_107_cif.got.tgz:212530.got - 2010.06.28 00:19:55.
