data_PCOD8094635
_publ_section_title
;
Structure prediction by ZEFSAII (Michael W. Deem and Ramdas Pophale) SiO2 
 PCOD8094635
Probable space group: C 2/M
;
_chemical_formula_sum "Si O2"
_cell_formula_units_Z 48
_cell_length_a 14.878818
_cell_length_b 8.819628
_cell_length_c 29.317449
_cell_angle_alpha 90.000000
_cell_angle_beta 40.076477
_cell_angle_gamma 90.000000
_cell_volume 2476.864686
_symmetry_space_group_name_H-M "C 2/M"
_symmetry_group_IT_number 12
_symmetry_cell_setting 'monoclinic'
loop_
_space_group_symop_operation_xyz
x,y,z
-x,y,-z
-x,-y,-z
x,-y,z
1/2+x,1/2+y,z
1/2-x,1/2+y,-z
1/2-x,1/2-y,-z
1/2+x,1/2-y,z
loop_
_atom_site_type_symbol
_atom_site_label
_atom_site_fract_x
_atom_site_fract_y
_atom_site_fract_z
Si Si1 0.323334 0.324687 0.338497
Si Si2 0.342297 0.824965 0.685847
Si Si3 0.892449 0.179314 0.815798
Si Si4 0.165584 0.321401 0.831555
Si Si5 0.659624 0.821737 0.574579
Si Si6 0.379391 0.319977 0.923846
O O1 0.342844 0.500000 0.344329
O O2 0.198437 0.303104 0.351082
O O3 0.466608 0.256507 0.261932
O O4 0.281801 0.232485 0.399590
O O5 0.240779 0.723101 0.755543
O O6 0.499761 0.768084 0.631226
O O7 0.322980 0.000000 0.708088
O O8 0.759898 0.230707 0.837650
O O9 0.877047 0.242761 0.872908
O O10 0.906141 0.000000 0.812689
O O11 0.138556 0.500000 0.842451
O O12 0.020093 0.234849 0.893723
O O13 0.750000 0.750000 0.500000
O O14 0.672365 0.000000 0.565591
O O15 0.370407 0.500000 0.929125
O O16 0.250000 0.250000 0.000000
#
# Coordination Sequence:
#
# PCOD8094635 Si02
#       6
#     8   8   8   8   8   8
#     4  10  19  38  63  86 114 155 197 238 292 353
#     4  10  21  38  61  87 117 155 197 240 292 351
#     4   9  19  36  61  86 116 156 194 234 291 356
#     4  11  21  36  61  91 116 151 197 242 290 348
#     4  11  24  40  59  88 122 157 195 246 298 347
#     4  11  23  42  61  86 122 159 197 242 296 350
#
# _framework density 19.379339000000002
#
# number of rings (size 3 to 8) (size 9 to 14) (size 15 to 20)
#    0.000    1.667    3.333    1.500    0.000    2.667 
#    0.000   10.000    0.000    0.000    0.000    0.000 
#    0.000    0.000    0.000    0.000    0.000    0.000 
#
# Total GULP energy -297706.708029 kJ/mol
# GULP energy per Si atom -12404.446168 kJ/mol
# Density = 1.933523 g / cm^3
# Si number density = 19.379339 Si / 1000 Ang^3
#
#
#
# Elastic Constant Matrix: (Units=GPa)
#
#
# Indices 1 2 3 4 5 6 
#
# 1 92.6057 20.0428 13.2174 0.0001 2.8469 0.0002
# 2 20.0428 55.3075 23.6001 0.0002 -1.7239 0.0000
# 3 13.2174 23.6001 84.7497 0.0000 5.8455 -0.0002
# 4 0.0001 0.0002 0.0000 36.0847 0.0000 0.6426
# 5 2.8469 -1.7239 5.8455 0.0000 34.0958 -0.0001
# 6 0.0002 0.0000 -0.0002 0.6426 -0.0001 30.8928
#
#
#
# Elastic Compliance Matrix: (Units=1/GPa)
#
#
# Indices 1 2 3 4 5 6 
#
# 1 0.011796 -0.004035 -0.000642 0.000000 -0.001079 0.000000
# 2 -0.004035 0.022040 -0.005675 0.000000 0.002424 0.000000
# 3 -0.000642 -0.005675 0.013658 0.000000 -0.002575 0.000000
# 4 0.000000 0.000000 0.000000 0.027723 0.000000 -0.000577
# 5 -0.001079 0.002424 -0.002575 0.000000 0.029983 0.000000
# 6 0.000000 0.000000 0.000000 -0.000577 0.000000 0.032382
#
#
# Mechanical properties :
#
#
# Convention : Reuss Voigt Hill
#
# Bulk Modulus (GPa) = 37.32688 38.48706 37.90697
# Shear Modulus (GPa) = 29.90139 31.93482 30.91810
#
# Velocity S-wave (km/s) = 3.93230 4.06381 3.99860
# Velocity P-wave (km/s) = 6.31825 6.47475 6.39698
#
# Compressibility (1/GPa) = 0.02679034
#
# Stress axis : x y z
#
# Youngs Moduli (GPa) = 84.77116 45.37173 73.21941
#
# Poissons Ratio (x) = 0.18306 0.04699
# Poissons Ratio (y) = 0.34202 0.41555
# Poissons Ratio (z) = 0.05441 0.25751
#
# Static dielectric constant tensor:
#      x y z
#    x 4.182120 0.000000 -0.160050 
#    y 0.000000 3.402430 0.000000 
#    z -0.160050 0.000000 3.556130 
# 
# 
# High freq. dielectric constant tensor:
#      x y z
#    x 1.769550 0.000000 -0.000870 
#    y 0.000000 1.740880 0.000000 
#    z -0.000870 0.000000 1.751890 
# 
# From -- ./inp_files/308263.got.cif
#   From: 2010.06.25/outbox.cif.g09.slc.cpg/sg12_155_cif.got.tgz:308263.got - 2010.06.28 00:19:55.
