data_PCOD8094980
_publ_section_title
;
Structure prediction by ZEFSAII (Michael W. Deem and Ramdas Pophale) SiO2 
 PCOD8094980
Probable space group: C 2/M
;
_chemical_formula_sum "Si O2"
_cell_formula_units_Z 56
_cell_length_a 29.972400
_cell_length_b 9.037755
_cell_length_c 19.685664
_cell_angle_alpha 90.000000
_cell_angle_beta 39.110061
_cell_angle_gamma 90.000000
_cell_volume 3363.815337
_symmetry_space_group_name_H-M "C 2/M"
_symmetry_group_IT_number 12
_symmetry_cell_setting 'monoclinic'
loop_
_space_group_symop_operation_xyz
x,y,z
-x,y,-z
-x,-y,-z
x,-y,z
1/2+x,1/2+y,z
1/2-x,1/2+y,-z
1/2-x,1/2-y,-z
1/2+x,1/2-y,z
loop_
_atom_site_type_symbol
_atom_site_label
_atom_site_fract_x
_atom_site_fract_y
_atom_site_fract_z
Si Si1 0.913397 0.172421 0.773517
Si Si2 0.442244 0.826717 0.387763
Si Si3 0.195821 0.167281 0.218345
Si Si4 0.276915 0.166505 0.367136
Si Si5 0.358624 0.667045 0.376801
Si Si6 0.809151 0.328379 0.637567
Si Si7 0.694290 0.171213 0.018399
O O1 0.862270 0.201920 0.770357
O O2 0.987598 0.247594 0.668330
O O3 0.924127 0.000000 0.775276
O O4 0.880818 0.247827 0.880415
O O5 0.420046 0.759197 0.341331
O O6 0.383014 0.792687 0.513852
O O7 0.455393 0.000000 0.362698
O O8 0.184263 0.281256 0.292432
O O9 0.275443 0.186554 0.094003
O O10 0.185826 0.000000 0.257115
O O11 0.341331 0.256599 0.325111
O O12 0.210822 0.167498 0.495375
O O13 0.255153 0.241399 0.321934
O O14 0.302567 0.000000 0.322307
O O15 0.384989 0.500000 0.332693
O O16 0.790810 0.500000 0.654371
O O17 0.687598 0.000000 0.047054
O O18 0.750000 0.250000 0.000000
#
# Coordination Sequence:
#
# PCOD8094980 Si02
#       7
#     8   8   8   8   8   8   8
#     4  10  20  33  49  69  92 122 158 195 235 276
#     4  10  20  32  45  66  96 127 158 191 230 277
#     4   9  19  33  48  67  92 122 155 191 233 277
#     4   9  16  27  44  64  89 120 152 189 231 272
#     4   9  16  27  44  65  89 118 153 191 229 271
#     4  10  20  31  45  67  95 126 159 192 228 274
#     4   9  17  31  50  70  90 115 151 195 237 275
#
# _framework density 16.647762
#
# number of rings (size 3 to 8) (size 9 to 14) (size 15 to 20)
#    0.000    2.571    0.000    3.429    0.000    9.143 
#    0.000    2.857    0.000    0.000    0.000    1.000 
#    0.000    8.000    0.000    0.000    0.000    0.000 
#
# Total GULP energy -347146.077646 kJ/mol
# GULP energy per Si atom -12398.074202 kJ/mol
# Density = 1.660987 g / cm^3
# Si number density = 16.647762 Si / 1000 Ang^3
#
#
#
# Elastic Constant Matrix: (Units=GPa)
#
#
# Indices 1 2 3 4 5 6 
#
# 1 72.4122 47.2508 37.2546 -0.0072 10.2711 0.0016
# 2 47.2508 128.0110 47.7920 -0.0084 7.8797 0.0053
# 3 37.2546 47.7920 58.3837 -0.0028 5.3607 0.0029
# 4 -0.0072 -0.0084 -0.0028 26.6790 0.0028 0.3414
# 5 10.2711 7.8797 5.3607 0.0028 3.3569 0.0018
# 6 0.0016 0.0053 0.0029 0.3414 0.0018 34.2946
#
#
#
# Elastic Compliance Matrix: (Units=1/GPa)
#
#
# Indices 1 2 3 4 5 6 
#
# 1 0.031823 -0.003160 -0.011085 0.000014 -0.072246 0.000004
# 2 -0.003160 0.012130 -0.007249 0.000003 -0.007226 -0.000001
# 3 -0.011085 -0.007249 0.029833 -0.000003 0.003292 -0.000001
# 4 0.000014 0.000003 -0.000003 0.037487 -0.000078 -0.000373
# 5 -0.072246 -0.007226 0.003292 -0.000078 0.530645 -0.000023
# 6 0.000004 -0.000001 -0.000001 -0.000373 -0.000023 0.029163
#
#
# Mechanical properties :
#
#
# Convention : Reuss Voigt Hill
#
# Bulk Modulus (GPa) = 32.47178 58.15575 45.31377
# Shear Modulus (GPa) = 6.90287 21.30007 14.10147
#
# Velocity S-wave (km/s) = 2.03849 3.58083 2.91357
# Velocity P-wave (km/s) = 5.00880 7.21840 6.21263
#
# Compressibility (1/GPa) = 0.03079597
#
# Stress axis : x y z
#
# Youngs Moduli (GPa) = 31.42390 82.44357 33.51966
#
# Poissons Ratio (x) = 0.26056 0.37158
# Poissons Ratio (y) = 0.09932 0.24298
# Poissons Ratio (z) = 0.34835 0.59762
#
# Static dielectric constant tensor:
#      x y z
#    x 3.027710 -0.000030 -0.020090 
#    y -0.000030 3.362250 0.000030 
#    z -0.020090 0.000030 3.001650 
# 
# 
# High freq. dielectric constant tensor:
#      x y z
#    x 1.625940 0.000000 0.001040 
#    y 0.000000 1.662780 0.000000 
#    z 0.001040 0.000000 1.604610 
# 
# From -- ./inp_files/281636.got.cif
#   From: 2010.06.25/outbox.cif.g09.slc.cpg/sg12_141_cif.got.tgz:281636.got - 2010.06.28 00:19:55.
