data_PCOD8094179
_publ_section_title
;
Structure prediction by ZEFSAII (Michael W. Deem and Ramdas Pophale) SiO2 
 PCOD8094179
Probable space group: C 2/M
;
_chemical_formula_sum "Si O2"
_cell_formula_units_Z 56
_cell_length_a 24.568268
_cell_length_b 19.625191
_cell_length_c 18.085625
_cell_angle_alpha 90.000000
_cell_angle_beta 20.043199
_cell_angle_gamma 90.000000
_cell_volume 2988.630520
_symmetry_space_group_name_H-M "C 2/M"
_symmetry_group_IT_number 12
_symmetry_cell_setting 'monoclinic'
loop_
_space_group_symop_operation_xyz
x,y,z
-x,y,-z
-x,-y,-z
x,-y,z
1/2+x,1/2+y,z
1/2-x,1/2+y,-z
1/2-x,1/2-y,-z
1/2+x,1/2-y,z
loop_
_atom_site_type_symbol
_atom_site_label
_atom_site_fract_x
_atom_site_fract_y
_atom_site_fract_z
Si Si1 0.440268 0.759874 0.996762
Si Si2 0.361521 0.868365 0.818790
Si Si3 0.478493 0.309298 0.741147
Si Si4 0.421707 0.756244 0.524529
Si Si5 0.335636 0.000000 0.752431
Si Si6 0.984916 0.663476 0.236303
Si Si7 0.876564 0.865323 0.309011
Si Si8 0.521451 0.500000 0.059802
O O1 0.441795 0.825147 0.939272
O O2 0.555659 0.700102 0.820922
O O3 0.500000 0.785658 0.000000
O O4 0.264110 0.729488 0.227333
O O5 0.503312 0.827755 0.597747
O O6 0.320250 0.935419 0.825738
O O7 0.411040 0.884680 0.841223
O O8 0.209627 0.819314 0.015272
O O9 0.544939 0.307606 0.572887
O O10 0.525176 0.236635 0.713514
O O11 0.566933 0.365860 0.677514
O O12 0.500000 0.732231 0.500000
O O13 0.500000 0.000000 0.500000
O O14 0.202039 0.000000 0.859214
O O15 0.811811 0.632023 0.451323
O O16 0.934394 0.933488 0.198411
O O17 0.500000 0.500000 0.000000
#
# Coordination Sequence:
#
# PCOD8094179 Si02
#       8
#     8   8   8   8   4   8   8   4
#     4  11  20  34  56  89 119 145 191 240 297 339
#     4  11  22  39  56  83 122 157 194 227 281 350
#     4  10  19  37  56  80 117 154 194 232 289 350
#     4  11  20  31  56  87 115 148 183 243 295 332
#     4  12  28  40  62  86 118 158 198 232 274 342
#     4  10  21  35  58  82 112 157 188 240 289 343
#     4  11  22  39  56  81 120 158 194 227 283 346
#     4  12  28  42  60  86 118 157 198 232 276 339
#
# _framework density 18.737679
#
# number of rings (size 3 to 8) (size 9 to 14) (size 15 to 20)
#    0.000    1.143    1.429    9.429    4.000    0.000 
#    0.000    0.000    0.000    0.000    0.000   20.000 
#    0.000    0.000    0.000    0.000    0.000    0.000 
#
# Total GULP energy -347130.838252 kJ/mol
# GULP energy per Si atom -12397.529938 kJ/mol
# Density = 1.869503 g / cm^3
# Si number density = 18.737679 Si / 1000 Ang^3
#
#
#
# Elastic Constant Matrix: (Units=GPa)
#
#
# Indices 1 2 3 4 5 6 
#
# 1 183.0267 44.8652 40.2767 0.0047 -0.1033 -0.0021
# 2 44.8652 62.4851 27.7627 0.0053 6.5725 0.0009
# 3 40.2767 27.7627 86.3264 0.0090 -17.7238 -0.0026
# 4 0.0047 0.0053 0.0090 21.0088 -0.0095 -2.5843
# 5 -0.1033 6.5725 -17.7238 -0.0095 38.0755 0.0076
# 6 -0.0021 0.0009 -0.0026 -2.5843 0.0076 16.0878
#
#
#
# Elastic Compliance Matrix: (Units=1/GPa)
#
#
# Indices 1 2 3 4 5 6 
#
# 1 0.006887 -0.004061 -0.001945 0.000000 -0.000186 0.000001
# 2 -0.004061 0.022727 -0.006879 -0.000005 -0.007136 0.000000
# 3 -0.001945 -0.006879 0.016526 -0.000001 0.008875 -0.000002
# 4 0.000000 -0.000005 -0.000001 0.048558 0.000011 0.007800
# 5 -0.000186 -0.007136 0.008875 0.000011 0.031626 -0.000011
# 6 0.000001 0.000000 -0.000002 0.007800 -0.000011 0.063412
#
#
# Mechanical properties :
#
#
# Convention : Reuss Voigt Hill
#
# Bulk Modulus (GPa) = 49.09571 61.96083 55.52827
# Shear Modulus (GPa) = 22.49229 29.63000 26.06115
#
# Velocity S-wave (km/s) = 3.46841 3.98088 3.73344
# Velocity P-wave (km/s) = 6.50371 7.36676 6.94865
#
# Compressibility (1/GPa) = 0.02036838
#
# Stress axis : x y z
#
# Youngs Moduli (GPa) = 145.19690 44.00045 60.51013
#
# Poissons Ratio (x) = 0.17870 0.11772
# Poissons Ratio (y) = 0.58967 0.41627
# Poissons Ratio (z) = 0.28246 0.30270
#
# Static dielectric constant tensor:
#      x y z
#    x 4.881520 0.001060 0.277040 
#    y 0.001060 10.151680 0.002740 
#    z 0.277040 0.002740 3.732030 
# 
# 
# High freq. dielectric constant tensor:
#      x y z
#    x 1.758690 0.000000 -0.010530 
#    y 0.000000 1.679520 0.000000 
#    z -0.010530 0.000000 1.734490 
# 
# From -- ./inp_files/290834.got.cif
#   From: 2010.06.25/outbox.cif.g09.slc.cpg/sg12_146_cif.got.tgz:290834.got - 2010.06.28 00:19:55.
