data_PCOD8094066
_publ_section_title
;
Structure prediction by ZEFSAII (Michael W. Deem and Ramdas Pophale) SiO2 
 PCOD8094066
Probable space group: C 2/M
;
_chemical_formula_sum "Si O2"
_cell_formula_units_Z 44
_cell_length_a 12.783718
_cell_length_b 19.648571
_cell_length_c 13.405581
_cell_angle_alpha 90.000000
_cell_angle_beta 139.991180
_cell_angle_gamma 90.000000
_cell_volume 2164.815814
_symmetry_space_group_name_H-M "C 2/M"
_symmetry_group_IT_number 12
_symmetry_cell_setting 'monoclinic'
loop_
_space_group_symop_operation_xyz
x,y,z
-x,y,-z
-x,-y,-z
x,-y,z
1/2+x,1/2+y,z
1/2-x,1/2+y,-z
1/2-x,1/2-y,-z
1/2+x,1/2-y,z
loop_
_atom_site_type_symbol
_atom_site_label
_atom_site_fract_x
_atom_site_fract_y
_atom_site_fract_z
Si Si1 0.397832 0.922406 0.120248
Si Si2 0.000000 0.123281 0.500000
Si Si3 0.403149 0.424788 0.224161
Si Si4 0.311818 0.421464 0.838729
Si Si5 0.675156 0.668196 0.335522
Si Si6 0.178910 0.320299 0.351430
O O1 0.295559 0.903018 0.143763
O O2 0.553740 0.875338 0.218365
O O3 0.459904 0.000000 0.171874
O O4 0.284177 0.910622 0.940657
O O5 0.074702 0.076178 0.640876
O O6 0.141582 0.171016 0.561870
O O7 0.451647 0.500000 0.219674
O O8 0.513929 0.370504 0.250740
O O9 0.285665 0.500000 0.787364
O O10 0.252284 0.370753 0.707513
O O11 0.500000 0.407223 0.000000
O O12 0.812240 0.670273 0.522115
O O13 0.620412 0.745720 0.274025
#
# Coordination Sequence:
#
# PCOD8094066 Si02
#       6
#     8   4   8   8   8   8
#     4  10  22  39  61  91 124 150 195 256 301 356
#     4  10  23  42  60  80 115 164 208 248 291 350
#     4  10  20  38  62  87 117 157 198 245 298 356
#     4  10  19  36  62  92 119 152 193 242 304 361
#     4  10  21  39  62  86 120 163 193 244 294 367
#     4  10  24  41  58  87 121 160 203 247 294 349
#
# _framework density 20.325054000000002
#
# number of rings (size 3 to 8) (size 9 to 14) (size 15 to 20)
#    0.000    2.000    1.818    0.818    0.000   10.909 
#    3.273    3.636    0.000    0.000    0.000    0.000 
#    0.000    0.000    0.000    0.000    0.000    0.000 
#
# Total GULP energy -272817.643743 kJ/mol
# GULP energy per Si atom -12400.801988 kJ/mol
# Density = 2.027879 g / cm^3
# Si number density = 20.325054 Si / 1000 Ang^3
#
#
#
# Elastic Constant Matrix: (Units=GPa)
#
#
# Indices 1 2 3 4 5 6 
#
# 1 84.2267 44.7219 50.4554 0.0000 -4.7715 0.0000
# 2 44.7219 146.2253 72.8823 0.0000 2.9795 0.0000
# 3 50.4554 72.8823 110.7754 0.0000 -6.3063 0.0000
# 4 0.0000 0.0000 0.0000 24.8531 0.0000 0.3634
# 5 -4.7715 2.9795 -6.3063 0.0000 30.4786 0.0000
# 6 0.0000 0.0000 0.0000 0.3634 0.0000 16.3302
#
#
#
# Elastic Compliance Matrix: (Units=1/GPa)
#
#
# Indices 1 2 3 4 5 6 
#
# 1 0.016767 -0.002079 -0.006181 0.000000 0.001549 0.000000
# 2 -0.002079 0.010611 -0.006185 0.000000 -0.002642 0.000000
# 3 -0.006181 -0.006185 0.016081 0.000000 0.002964 0.000000
# 4 0.000000 0.000000 0.000000 0.040250 0.000000 -0.000896
# 5 0.001549 -0.002642 0.002964 0.000000 0.033924 0.000000
# 6 0.000000 0.000000 0.000000 -0.000896 0.000000 0.061256
#
#
# Mechanical properties :
#
#
# Convention : Reuss Voigt Hill
#
# Bulk Modulus (GPa) = 68.63849 75.26074 71.94961
# Shear Modulus (GPa) = 23.51454 25.87690 24.69572
#
# Velocity S-wave (km/s) = 3.40505 3.57200 3.48952
# Velocity P-wave (km/s) = 7.02160 7.35671 7.19111
#
# Compressibility (1/GPa) = 0.01456909
#
# Stress axis : x y z
#
# Youngs Moduli (GPa) = 59.64103 94.24067 62.18688
#
# Poissons Ratio (x) = 0.19591 0.38438
# Poissons Ratio (y) = 0.12398 0.38462
# Poissons Ratio (z) = 0.36864 0.58287
#
# Static dielectric constant tensor:
#      x y z
#    x 3.652190 0.000000 -0.313370 
#    y 0.000000 3.701950 0.000000 
#    z -0.313370 0.000000 3.764500 
# 
# 
# High freq. dielectric constant tensor:
#      x y z
#    x 1.786740 0.000000 -0.011150 
#    y 0.000000 1.795690 0.000000 
#    z -0.011150 0.000000 1.791770 
# 
# From -- ./inp_files/217785.got.cif
#   From: 2010.06.25/outbox.cif.g09.slc.cpg/sg12_109_cif.got.tgz:217785.got - 2010.06.28 00:19:55.
