data_PCOD8094812
_publ_section_title
;
Structure prediction by ZEFSAII (Michael W. Deem and Ramdas Pophale) SiO2 
 PCOD8094812
Probable space group: C 2/M
;
_chemical_formula_sum "Si O2"
_cell_formula_units_Z 48
_cell_length_a 18.537531
_cell_length_b 14.462302
_cell_length_c 8.619128
_cell_angle_alpha 90.000000
_cell_angle_beta 94.229362
_cell_angle_gamma 90.000000
_cell_volume 2304.455728
_symmetry_space_group_name_H-M "C 2/M"
_symmetry_group_IT_number 12
_symmetry_cell_setting 'monoclinic'
loop_
_space_group_symop_operation_xyz
x,y,z
-x,y,-z
-x,-y,-z
x,-y,z
1/2+x,1/2+y,z
1/2-x,1/2+y,-z
1/2-x,1/2-y,-z
1/2+x,1/2-y,z
loop_
_atom_site_type_symbol
_atom_site_label
_atom_site_fract_x
_atom_site_fract_y
_atom_site_fract_z
Si Si1 0.207972 0.000000 0.940793
Si Si2 0.415868 0.000000 0.437618
Si Si3 0.458694 0.500000 0.152829
Si Si4 0.652529 0.000000 0.245774
Si Si5 0.109892 0.301556 0.266634
Si Si6 0.854530 0.685446 0.373987
Si Si7 0.977098 0.188515 0.323551
Si Si8 0.775860 0.815724 0.870498
O O1 0.127849 0.000000 0.860045
O O2 0.264697 0.000000 0.805095
O O3 0.218223 0.083941 0.058284
O O4 0.500000 0.000000 0.500000
O O5 0.399220 0.092085 0.336745
O O6 0.357614 0.000000 0.569924
O O7 0.485874 0.592568 0.238340
O O8 0.500000 0.500000 0.000000
O O9 0.614947 0.903292 0.184519
O O10 0.148997 0.304920 0.440596
O O11 0.147015 0.222209 0.171108
O O12 0.026927 0.270736 0.263349
O O13 0.895454 0.773008 0.304192
O O14 0.775521 0.682917 0.288133
O O15 0.000000 0.166587 0.500000
O O16 0.750000 0.750000 0.000000
#
# Coordination Sequence:
#
# PCOD8094812 Si02
#       8
#     4   4   4   4   8   8   8   8
#     4  12  25  41  62  93 132 170 212 262 314 380
#     4  10  19  39  69  93 127 162 205 266 319 376
#     4  12  25  44  65  86 128 175 219 254 313 377
#     4  10  20  38  64  94 127 158 208 252 326 364
#     4  10  21  40  65  93 125 163 210 261 317 372
#     4  10  21  38  64  95 122 160 212 259 312 375
#     4  10  22  41  66  95 122 160 212 266 312 370
#     4  12  23  39  60  87 131 170 206 254 311 375
#
# _framework density 20.829212999999999
#
# number of rings (size 3 to 8) (size 9 to 14) (size 15 to 20)
#    0.000    1.333    1.667    5.750    0.000    0.000 
#    3.000    0.833    0.000    2.000    0.000    0.000 
#    0.000    0.000    0.000    0.000    0.000    0.000 
#
# Total GULP energy -297467.919164 kJ/mol
# GULP energy per Si atom -12394.496632 kJ/mol
# Density = 2.078180 g / cm^3
# Si number density = 20.829213 Si / 1000 Ang^3
#
#
#
# Elastic Constant Matrix: (Units=GPa)
#
#
# Indices 1 2 3 4 5 6 
#
# 1 94.1891 38.2303 37.3733 0.0000 -13.9640 0.0000
# 2 38.2303 168.7335 41.5467 0.0000 -14.0287 0.0000
# 3 37.3733 41.5467 55.0422 0.0000 -18.5067 0.0000
# 4 0.0000 0.0000 0.0000 37.3873 0.0000 -6.9106
# 5 -13.9640 -14.0287 -18.5067 0.0000 31.9832 0.0000
# 6 0.0000 0.0000 0.0000 -6.9106 0.0000 37.3817
#
#
#
# Elastic Compliance Matrix: (Units=1/GPa)
#
#
# Indices 1 2 3 4 5 6 
#
# 1 0.014704 -0.001072 -0.008907 0.000000 0.000796 0.000000
# 2 -0.001072 0.007358 -0.004839 0.000000 -0.000041 0.000000
# 3 -0.008907 -0.004839 0.032091 0.000000 0.012557 0.000000
# 4 0.000000 0.000000 0.000000 0.027693 0.000000 0.005120
# 5 0.000796 -0.000041 0.012557 0.000000 0.038862 0.000000
# 6 0.000000 0.000000 0.000000 0.005120 0.000000 0.027698
#
#
# Mechanical properties :
#
#
# Convention : Reuss Voigt Hill
#
# Bulk Modulus (GPa) = 40.79157 61.36283 51.07720
# Shear Modulus (GPa) = 26.85060 34.73805 30.79432
#
# Velocity S-wave (km/s) = 3.59428 4.08825 3.84919
# Velocity P-wave (km/s) = 6.07054 7.19784 6.65809
#
# Compressibility (1/GPa) = 0.02451487
#
# Stress axis : x y z
#
# Youngs Moduli (GPa) = 68.00663 135.91342 31.16143
#
# Poissons Ratio (x) = 0.14573 0.27757
# Poissons Ratio (y) = 0.07292 0.15080
# Poissons Ratio (z) = 0.60576 0.65775
#
# Static dielectric constant tensor:
#      x y z
#    x 3.954390 0.000000 -0.102910 
#    y 0.000000 4.436150 0.000000 
#    z -0.102910 0.000000 3.844730 
# 
# 
# High freq. dielectric constant tensor:
#      x y z
#    x 1.811550 0.000000 -0.017290 
#    y 0.000000 1.843480 0.000000 
#    z -0.017290 0.000000 1.798170 
# 
# From -- ./inp_files/73689.got.cif
#   From: 2010.06.25/outbox.cif.g09.slc.cpg/sg12_37_cif.got.tgz:73689.got - 2010.06.28 00:19:55.
