data_PCOD8094033
_publ_section_title
;
Structure prediction by ZEFSAII (Michael W. Deem and Ramdas Pophale) SiO2 
 PCOD8094033
Probable space group: C 2/M
;
_chemical_formula_sum "Si O2"
_cell_formula_units_Z 64
_cell_length_a 29.559085
_cell_length_b 8.952712
_cell_length_c 18.297448
_cell_angle_alpha 90.000000
_cell_angle_beta 40.450815
_cell_angle_gamma 90.000000
_cell_volume 3141.547618
_symmetry_space_group_name_H-M "C 2/M"
_symmetry_group_IT_number 12
_symmetry_cell_setting 'monoclinic'
loop_
_space_group_symop_operation_xyz
x,y,z
-x,y,-z
-x,-y,-z
x,-y,z
1/2+x,1/2+y,z
1/2-x,1/2+y,-z
1/2-x,1/2-y,-z
1/2+x,1/2-y,z
loop_
_atom_site_type_symbol
_atom_site_label
_atom_site_fract_x
_atom_site_fract_y
_atom_site_fract_z
Si Si1 0.337344 0.176733 0.805787
Si Si2 0.913215 0.675661 0.853657
Si Si3 0.931551 0.325739 0.129458
Si Si4 0.693746 0.669635 0.927136
Si Si5 0.076179 0.323749 0.436235
Si Si6 0.710737 0.327654 0.739479
Si Si7 0.934343 0.674065 0.296593
Si Si8 0.850116 0.177207 0.519632
O O1 0.375702 0.247711 0.828845
O O2 0.255836 0.219818 0.905714
O O3 0.371457 0.237278 0.689598
O O4 0.348248 0.000000 0.793626
O O5 0.906985 0.500000 0.861818
O O6 0.993174 0.724235 0.755503
O O7 0.874277 0.731714 0.974382
O O8 0.917494 0.500000 0.132669
O O9 0.865395 0.233127 0.184750
O O10 0.941295 0.289958 0.202659
O O11 0.000000 0.273903 0.000000
O O12 0.671932 0.500000 0.968171
O O13 0.723011 0.691187 0.810284
O O14 0.082944 0.500000 0.443066
O O15 0.095597 0.242295 0.487783
O O16 0.000000 0.282270 0.500000
O O17 0.715870 0.500000 0.709068
O O18 0.771363 0.235821 0.625180
O O19 0.918392 0.500000 0.329264
O O20 0.874444 0.771022 0.408949
O O21 0.849549 0.000000 0.525158
#
# Coordination Sequence:
#
# PCOD8094033 Si02
#       8
#     8   8   8   8   8   8   8   8
#     4   9  17  32  53  82 117 153 199 243 291 355
#     4  10  20  35  59  87 115 155 203 246 294 358
#     4  10  22  42  68  97 127 156 196 253 309 363
#     4  10  20  35  55  82 120 158 194 246 302 356
#     4  10  19  36  62  85 116 165 213 254 301 363
#     4  11  23  41  65  89 121 164 209 252 303 371
#     4  10  22  41  63  88 121 159 198 243 302 369
#     4  12  25  40  61  90 125 160 203 258 308 359
#
# _framework density 20.372125
#
# number of rings (size 3 to 8) (size 9 to 14) (size 15 to 20)
#    0.000    1.750    1.250    3.375    0.000    6.000 
#    0.000    0.625    0.000    0.000    0.000    0.000 
#    0.000    0.000    0.000    0.000    0.000    0.000 
#
# Total GULP energy -396819.118804 kJ/mol
# GULP energy per Si atom -12400.597463 kJ/mol
# Density = 2.032576 g / cm^3
# Si number density = 20.372125 Si / 1000 Ang^3
#
#
#
# Elastic Constant Matrix: (Units=GPa)
#
#
# Indices 1 2 3 4 5 6 
#
# 1 105.2501 48.3919 44.8556 -0.0089 -12.0235 0.0024
# 2 48.3919 67.7907 50.1522 0.0085 -11.4117 0.0091
# 3 44.8556 50.1522 138.3532 0.0052 -10.7357 0.0034
# 4 -0.0089 0.0085 0.0052 32.4886 0.0041 -2.2252
# 5 -12.0235 -11.4117 -10.7357 0.0041 27.8373 -0.0071
# 6 0.0024 0.0091 0.0034 -2.2252 -0.0071 27.6567
#
#
#
# Elastic Compliance Matrix: (Units=1/GPa)
#
#
# Indices 1 2 3 4 5 6 
#
# 1 0.014414 -0.009026 -0.001243 0.000006 0.002047 0.000003
# 2 -0.009026 0.026697 -0.006396 -0.000009 0.004579 -0.000007
# 3 -0.001243 -0.006396 0.010004 0.000000 0.000699 0.000001
# 4 0.000006 -0.000009 0.000000 0.030951 -0.000005 0.002490
# 5 0.002047 0.004579 0.000699 -0.000005 0.038954 0.000008
# 6 0.000003 -0.000007 0.000001 0.002490 0.000008 0.036358
#
#
# Mechanical properties :
#
#
# Convention : Reuss Voigt Hill
#
# Bulk Modulus (GPa) = 56.22380 66.46595 61.34487
# Shear Modulus (GPa) = 25.42789 28.79615 27.11202
#
# Velocity S-wave (km/s) = 3.53678 3.76374 3.65202
# Velocity P-wave (km/s) = 6.65858 7.18223 6.92536
#
# Compressibility (1/GPa) = 0.01778606
#
# Stress axis : x y z
#
# Youngs Moduli (GPa) = 69.37478 37.45771 99.96496
#
# Poissons Ratio (x) = 0.33808 0.12423
# Poissons Ratio (y) = 0.62616 0.63936
# Poissons Ratio (z) = 0.08621 0.23957
#
# Static dielectric constant tensor:
#      x y z
#    x 3.890040 -0.000030 0.038220 
#    y -0.000030 3.437300 0.000040 
#    z 0.038220 0.000040 3.772860 
# 
# 
# High freq. dielectric constant tensor:
#      x y z
#    x 1.802500 0.000000 -0.002460 
#    y 0.000000 1.768950 0.000000 
#    z -0.002460 0.000000 1.810510 
# 
# From -- ./inp_files/295513.got.cif
#   From: 2010.06.25/outbox.cif.g09.slc.cpg/sg12_148_cif.got.tgz:295513.got - 2010.06.28 00:19:55.
