data_PCOD8094270
_publ_section_title
;
Structure prediction by ZEFSAII (Michael W. Deem and Ramdas Pophale) SiO2 
 PCOD8094270
Probable space group: C 2/M
;
_chemical_formula_sum "Si O2"
_cell_formula_units_Z 56
_cell_length_a 21.048742
_cell_length_b 17.417723
_cell_length_c 8.926770
_cell_angle_alpha 90.000000
_cell_angle_beta 121.680751
_cell_angle_gamma 90.000000
_cell_volume 2785.063493
_symmetry_space_group_name_H-M "C 2/M"
_symmetry_group_IT_number 12
_symmetry_cell_setting 'monoclinic'
loop_
_space_group_symop_operation_xyz
x,y,z
-x,y,-z
-x,-y,-z
x,-y,z
1/2+x,1/2+y,z
1/2-x,1/2+y,-z
1/2-x,1/2-y,-z
1/2+x,1/2-y,z
loop_
_atom_site_type_symbol
_atom_site_label
_atom_site_fract_x
_atom_site_fract_y
_atom_site_fract_z
Si Si1 0.434067 0.316765 0.816044
Si Si2 0.818285 0.812072 0.184502
Si Si3 0.157275 0.587639 0.546167
Si Si4 0.069311 0.325180 0.676411
Si Si5 0.782993 0.191310 0.813200
Si Si6 0.073831 0.090000 0.497633
Si Si7 0.469618 0.143309 0.806320
O O1 0.361218 0.305782 0.826879
O O2 0.424031 0.371928 0.662656
O O3 0.456760 0.234086 0.784374
O O4 0.500000 0.351939 0.000000
O O5 0.875410 0.743596 0.214517
O O6 0.751676 0.776800 0.204800
O O7 0.855188 0.880967 0.320922
O O8 0.789817 0.845171 0.989406
O O9 0.183381 0.500000 0.584132
O O10 0.108066 0.608533 0.628537
O O11 0.230572 0.640713 0.639917
O O12 0.107130 0.601433 0.335483
O O13 0.000000 0.287904 0.500000
O O14 0.039033 0.371058 0.781972
O O15 0.000000 0.110685 0.500000
O O16 0.082065 0.000000 0.483223
O O17 0.500000 0.111040 0.000000
#
# Coordination Sequence:
#
# PCOD8094270 Si02
#       7
#     8   8   8   8   8   8   8
#     4  11  22  39  62  86 113 147 193 246 292 343
#     4  10  19  37  60  84 114 146 191 244 287 338
#     4  10  22  38  55  80 117 154 185 223 275 341
#     4   9  17  33  59  84 106 143 187 229 279 333
#     4  10  22  37  61  87 111 150 193 235 294 351
#     4  11  23  37  56  84 118 157 198 240 288 340
#     4  10  20  34  59  88 111 142 188 235 281 328
#
# _framework density 20.107261999999999
#
# number of rings (size 3 to 8) (size 9 to 14) (size 15 to 20)
#    0.000    1.857    0.000    6.429    0.000    6.571 
#    0.000    0.000    0.000    0.000    0.000    0.000 
#    0.000    0.000    0.000    0.000    0.000    0.000 
#
# Total GULP energy -347144.014052 kJ/mol
# GULP energy per Si atom -12398.000502 kJ/mol
# Density = 2.006150 g / cm^3
# Si number density = 20.107262 Si / 1000 Ang^3
#
#
#
# Elastic Constant Matrix: (Units=GPa)
#
#
# Indices 1 2 3 4 5 6 
#
# 1 115.6235 13.1992 40.8732 0.0000 4.7061 0.0000
# 2 13.1992 59.1678 26.1188 0.0000 -1.7725 0.0000
# 3 40.8732 26.1188 119.7705 0.0000 2.5628 0.0000
# 4 0.0000 0.0000 0.0000 13.2275 0.0000 -1.3098
# 5 4.7061 -1.7725 2.5628 0.0000 29.6324 0.0000
# 6 0.0000 0.0000 0.0000 -1.3098 0.0000 12.8797
#
#
#
# Elastic Compliance Matrix: (Units=1/GPa)
#
#
# Indices 1 2 3 4 5 6 
#
# 1 0.009922 -0.000854 -0.003171 0.000000 -0.001353 0.000000
# 2 -0.000854 0.018839 -0.003851 0.000000 0.001596 0.000000
# 3 -0.003171 -0.003851 0.010284 0.000000 -0.000616 0.000000
# 4 0.000000 0.000000 0.000000 0.076369 0.000000 0.007766
# 5 -0.001353 0.001596 -0.000616 0.000000 0.034110 0.000000
# 6 0.000000 0.000000 0.000000 0.007766 0.000000 0.078431
#
#
# Mechanical properties :
#
#
# Convention : Reuss Voigt Hill
#
# Bulk Modulus (GPa) = 42.92984 50.54934 46.73959
# Shear Modulus (GPa) = 19.88280 25.43930 22.66105
#
# Velocity S-wave (km/s) = 3.14799 3.56080 3.36074
# Velocity P-wave (km/s) = 5.88302 6.48846 6.19314
#
# Compressibility (1/GPa) = 0.02329382
#
# Stress axis : x y z
#
# Youngs Moduli (GPa) = 100.78366 53.08023 97.23479
#
# Poissons Ratio (x) = 0.04534 0.30832
# Poissons Ratio (y) = 0.08610 0.37445
# Poissons Ratio (z) = 0.31957 0.20441
#
# Static dielectric constant tensor:
#      x y z
#    x 3.838970 0.000000 0.131870 
#    y 0.000000 3.290530 0.000000 
#    z 0.131870 0.000000 3.964870 
# 
# 
# High freq. dielectric constant tensor:
#      x y z
#    x 1.789850 0.000000 0.005120 
#    y 0.000000 1.751900 0.000000 
#    z 0.005120 0.000000 1.802890 
# 
# From -- ./inp_files/88083.got.cif
#   From: 2010.06.25/outbox.cif.g09.slc.cpg/sg12_45_cif.got.tgz:88083.got - 2010.06.28 00:19:55.
