data_PCOD8094282
_publ_section_title
;
Structure prediction by ZEFSAII (Michael W. Deem and Ramdas Pophale) SiO2 
 PCOD8094282
Probable space group: C 2/M
;
_chemical_formula_sum "Si O2"
_cell_formula_units_Z 44
_cell_length_a 10.805536
_cell_length_b 28.232378
_cell_length_c 9.759977
_cell_angle_alpha 90.000000
_cell_angle_beta 130.372400
_cell_angle_gamma 90.000000
_cell_volume 2268.361583
_symmetry_space_group_name_H-M "C 2/M"
_symmetry_group_IT_number 12
_symmetry_cell_setting 'monoclinic'
loop_
_space_group_symop_operation_xyz
x,y,z
-x,y,-z
-x,-y,-z
x,-y,z
1/2+x,1/2+y,z
1/2-x,1/2+y,-z
1/2-x,1/2-y,-z
1/2+x,1/2-y,z
loop_
_atom_site_type_symbol
_atom_site_label
_atom_site_fract_x
_atom_site_fract_y
_atom_site_fract_z
Si Si1 0.821977 0.172073 0.314090
Si Si2 0.500000 0.575192 0.000000
Si Si3 0.746083 0.500000 0.259719
Si Si4 0.687966 0.260282 0.108621
Si Si5 0.766112 0.143073 0.963026
Si Si6 0.941188 0.500000 0.676770
Si Si7 0.057534 0.400119 0.195600
O O1 0.779500 0.228499 0.290496
O O2 0.703984 0.137648 0.316254
O O3 0.000000 0.163025 0.500000
O O4 0.797293 0.162205 0.136639
O O5 0.368484 0.545451 0.822147
O O6 0.408692 0.605699 0.047429
O O7 0.848141 0.500000 0.468908
O O8 0.864979 0.500000 0.212578
O O9 0.720385 0.316586 0.146433
O O10 0.500000 0.248090 0.000000
O O11 0.750000 0.250000 0.000000
O O12 0.590442 0.118904 0.817916
O O13 0.888869 0.452753 0.720825
O O14 0.000000 0.403898 0.000000
#
# Coordination Sequence:
#
# PCOD8094282 Si02
#       7
#     8   4   4   8   8   4   8
#     4  10  22  38  58  87 120 151 197 254 294 344
#     4  11  20  40  60  86 116 158 196 239 298 358
#     4  10  24  36  59  85 124 152 193 254 292 359
#     4  10  19  37  60  86 118 160 198 241 296 362
#     4  10  20  37  64  84 115 160 199 232 298 369
#     4  11  21  40  58  88 119 156 202 247 303 342
#     4  10  21  40  62  85 119 160 199 242 302 358
#
# _framework density 19.397258999999998
#
# number of rings (size 3 to 8) (size 9 to 14) (size 15 to 20)
#    0.000    1.818    2.727    3.000    2.545    0.000 
#    0.000   10.455    0.000    0.000    0.000    0.000 
#    0.000    0.000    0.000    0.000    0.000    0.000 
#
# Total GULP energy -272646.401546 kJ/mol
# GULP energy per Si atom -12393.018252 kJ/mol
# Density = 1.935311 g / cm^3
# Si number density = 19.397259 Si / 1000 Ang^3
#
#
#
# Elastic Constant Matrix: (Units=GPa)
#
#
# Indices 1 2 3 4 5 6 
#
# 1 123.3720 52.7466 26.1270 0.0000 22.2581 0.0000
# 2 52.7466 147.3052 32.6929 0.0000 13.7903 0.0000
# 3 26.1270 32.6929 51.6360 0.0000 20.0904 0.0000
# 4 0.0000 0.0000 0.0000 4.3430 0.0000 12.0105
# 5 22.2581 13.7903 20.0904 0.0000 23.4302 0.0000
# 6 0.0000 0.0000 0.0000 12.0105 0.0000 20.3691
#
#
#
# Elastic Compliance Matrix: (Units=1/GPa)
#
#
# Indices 1 2 3 4 5 6 
#
# 1 0.011002 -0.003076 -0.000386 0.000000 -0.008310 0.000000
# 2 -0.003076 0.008763 -0.004685 0.000000 0.001782 0.000000
# 3 -0.000386 -0.004685 0.031982 0.000000 -0.024299 0.000000
# 4 0.000000 0.000000 0.000000 -0.365107 0.000000 0.215283
# 5 -0.008310 0.001782 -0.024299 0.000000 0.070361 0.000000
# 6 0.000000 0.000000 0.000000 0.215283 0.000000 -0.077846
#
#
# Mechanical properties :
#
#
# Convention : Reuss Voigt Hill
#
# Bulk Modulus (GPa) = 28.20634 60.60511 44.40572
# Shear Modulus (GPa) = -17.08038 23.67824 3.29893
#
# Velocity S-wave (km/s) = -2.97064 3.49764 1.30553
# Velocity P-wave (km/s) = 1.67533 6.90097 5.02146
#
# Compressibility (1/GPa) = 0.03545303
#
# Stress axis : x y z
#
# Youngs Moduli (GPa) = 90.89609 114.11590 31.26740
#
# Poissons Ratio (x) = 0.35100 0.01207
# Poissons Ratio (y) = 0.27958 0.14649
# Poissons Ratio (z) = 0.03509 0.53464
#
# Static dielectric constant tensor:
#      x y z
#    x 3.801980 0.000000 0.033470 
#    y 0.000000 4.276780 0.000000 
#    z 0.033470 0.000000 3.391930 
# 
# 
# High freq. dielectric constant tensor:
#      x y z
#    x 1.765400 0.000000 0.014230 
#    y 0.000000 1.779380 0.000000 
#    z 0.014230 0.000000 1.716090 
# 
# From -- ./inp_files/53458.got.cif
#   From: 2010.06.25/outbox.cif.g09.slc.cpg/sg12_27_cif.got.tgz:53458.got - 2010.06.28 00:19:55.
