data_PCOD8094349
_publ_section_title
;
Structure prediction by ZEFSAII (Michael W. Deem and Ramdas Pophale) SiO2 
 PCOD8094349
Probable space group: C 2/M
;
_chemical_formula_sum "Si O2"
_cell_formula_units_Z 64
_cell_length_a 27.924816
_cell_length_b 14.036199
_cell_length_c 11.866727
_cell_angle_alpha 90.000000
_cell_angle_beta 140.264926
_cell_angle_gamma 90.000000
_cell_volume 2973.266529
_symmetry_space_group_name_H-M "C 2/M"
_symmetry_group_IT_number 12
_symmetry_cell_setting 'monoclinic'
loop_
_space_group_symop_operation_xyz
x,y,z
-x,y,-z
-x,-y,-z
x,-y,z
1/2+x,1/2+y,z
1/2-x,1/2+y,-z
1/2-x,1/2-y,-z
1/2+x,1/2-y,z
loop_
_atom_site_type_symbol
_atom_site_label
_atom_site_fract_x
_atom_site_fract_y
_atom_site_fract_z
Si Si1 0.316801 0.186139 0.356329
Si Si2 0.761938 0.111665 0.575610
Si Si3 0.574505 0.235957 0.888835
Si Si4 0.570827 0.389602 0.052572
Si Si5 0.695083 0.318714 0.963068
Si Si6 0.969144 0.391182 0.565506
Si Si7 0.182935 0.605030 0.203996
Si Si8 0.314407 0.603425 0.283155
O O1 0.296377 0.168381 0.449609
O O2 0.239350 0.151048 0.155895
O O3 0.380085 0.118412 0.418175
O O4 0.345965 0.296165 0.389741
O O5 0.849216 0.141254 0.748210
O O6 0.737263 0.138917 0.403760
O O7 0.752037 0.000000 0.580935
O O8 0.503204 0.175047 0.724203
O O9 0.553612 0.337183 0.904123
O O10 0.621375 0.259621 0.861640
O O11 0.616269 0.178502 0.064253
O O12 0.571934 0.500000 0.025041
O O13 0.500000 0.362187 0.000000
O O14 0.750000 0.250000 0.000000
O O15 0.677542 0.400440 0.838939
O O16 0.993322 0.500000 0.630676
O O17 0.000000 0.358300 0.500000
O O18 0.150309 0.500000 0.171241
O O19 0.228371 0.603468 0.168473
O O20 0.349943 0.500000 0.389349
#
# Coordination Sequence:
#
# PCOD8094349 Si02
#       8
#     8   8   8   8   8   8   8   8
#     4  11  21  41  64  93 126 167 221 263 317 383
#     4  10  21  39  65  95 127 165 219 272 321 386
#     4  12  22  42  64  92 129 170 218 267 327 393
#     4  10  23  43  64  92 128 170 218 271 332 391
#     4  10  19  37  61  91 123 164 213 269 315 380
#     4  11  26  43  64  94 132 174 212 263 332 401
#     4  10  21  37  62  95 130 167 210 267 324 382
#     4  10  21  35  59  93 125 160 209 269 326 375
#
# _framework density 21.525145999999999
#
# number of rings (size 3 to 8) (size 9 to 14) (size 15 to 20)
#    0.000    1.500    3.750    2.250    0.000    5.500 
#    0.000    1.875    0.000    4.500    0.000    0.000 
#    0.000    0.000    0.000    0.000    0.000    0.000 
#
# Total GULP energy -396479.390367 kJ/mol
# GULP energy per Si atom -12389.980949 kJ/mol
# Density = 2.147615 g / cm^3
# Si number density = 21.525146 Si / 1000 Ang^3
#
#
#
# Elastic Constant Matrix: (Units=GPa)
#
#
# Indices 1 2 3 4 5 6 
#
# 1 95.7664 39.8493 23.7330 0.0000 2.3044 0.0000
# 2 39.8493 79.2055 34.9163 0.0000 -8.7656 0.0000
# 3 23.7330 34.9163 71.9584 0.0000 -3.4296 0.0000
# 4 0.0000 0.0000 0.0000 31.6566 0.0000 -6.2153
# 5 2.3044 -8.7656 -3.4296 0.0000 30.4919 0.0000
# 6 0.0000 0.0000 0.0000 -6.2153 0.0000 33.0443
#
#
#
# Elastic Compliance Matrix: (Units=1/GPa)
#
#
# Indices 1 2 3 4 5 6 
#
# 1 0.013598 -0.006538 -0.001459 0.000000 -0.003071 0.000000
# 2 -0.006538 0.019645 -0.007122 0.000000 0.005341 0.000000
# 3 -0.001459 -0.007122 0.017837 0.000000 0.000069 0.000000
# 4 0.000000 0.000000 0.000000 0.032800 0.000000 0.006169
# 5 -0.003071 0.005341 0.000069 0.000000 0.034571 0.000000
# 6 0.000000 0.000000 0.000000 0.006169 0.000000 0.031423
#
#
# Mechanical properties :
#
#
# Convention : Reuss Voigt Hill
#
# Bulk Modulus (GPa) = 47.97688 49.32527 48.65108
# Shear Modulus (GPa) = 26.72956 28.93401 27.83178
#
# Velocity S-wave (km/s) = 3.52772 3.67030 3.59972
# Velocity P-wave (km/s) = 6.23941 6.39738 6.31889
#
# Compressibility (1/GPa) = 0.02084337
#
# Stress axis : x y z
#
# Youngs Moduli (GPa) = 73.53966 50.90275 56.06366
#
# Poissons Ratio (x) = 0.33281 0.08178
# Poissons Ratio (y) = 0.48082 0.39926
# Poissons Ratio (z) = 0.10727 0.36250
#
# Static dielectric constant tensor:
#      x y z
#    x 6.753990 0.000000 -3.129830 
#    y 0.000000 4.038420 0.000000 
#    z -3.129830 0.000000 6.660260 
# 
# 
# High freq. dielectric constant tensor:
#      x y z
#    x 1.845210 0.000000 -0.012680 
#    y 0.000000 1.856410 0.000000 
#    z -0.012680 0.000000 1.815180 
# 
# From -- ./inp_files/183861.got.cif
#   From: 2010.06.25/outbox.cif.g09.slc.cpg/sg12_92_cif.got.tgz:183861.got - 2010.06.28 00:19:55.
