data_PCOD8094768
_publ_section_title
;
Structure prediction by ZEFSAII (Michael W. Deem and Ramdas Pophale) SiO2 
 PCOD8094768
Probable space group: C 2/M
;
_chemical_formula_sum "Si O2"
_cell_formula_units_Z 48
_cell_length_a 17.512115
_cell_length_b 18.138837
_cell_length_c 9.335398
_cell_angle_alpha 90.000000
_cell_angle_beta 49.108078
_cell_angle_gamma 90.000000
_cell_volume 2241.669171
_symmetry_space_group_name_H-M "C 2/M"
_symmetry_group_IT_number 12
_symmetry_cell_setting 'monoclinic'
loop_
_space_group_symop_operation_xyz
x,y,z
-x,y,-z
-x,-y,-z
x,-y,z
1/2+x,1/2+y,z
1/2-x,1/2+y,-z
1/2-x,1/2-y,-z
1/2+x,1/2-y,z
loop_
_atom_site_type_symbol
_atom_site_label
_atom_site_fract_x
_atom_site_fract_y
_atom_site_fract_z
Si Si1 0.263818 0.143572 0.567783
Si Si2 0.681334 0.414992 0.945221
Si Si3 0.863099 0.790801 0.504341
Si Si4 0.104293 0.415269 0.823989
Si Si5 0.051178 0.777590 0.091977
Si Si6 0.769939 0.659547 0.104369
O O1 0.239285 0.085874 0.722621
O O2 0.170202 0.147699 0.571701
O O3 0.281663 0.224840 0.606206
O O4 0.365999 0.119476 0.363706
O O5 0.653025 0.500000 0.017272
O O6 0.582180 0.363871 0.054063
O O7 0.756766 0.379294 0.968754
O O8 0.842446 0.820110 0.692308
O O9 0.975547 0.765763 0.321028
O O10 0.086601 0.500000 0.818045
O O11 0.187244 0.402478 0.842799
O O12 0.000000 0.376557 0.000000
O O13 0.151189 0.728202 0.999886
O O14 0.000000 0.759223 0.000000
#
# Coordination Sequence:
#
# PCOD8094768 Si02
#       6
#     8   8   8   8   8   8
#     4  10  19  39  63  94 124 172 211 273 319 377
#     4  12  26  43  63  97 141 174 207 263 339 395
#     4  10  20  38  67  95 122 160 233 266 310 380
#     4  10  20  36  61  92 126 171 219 263 318 387
#     4  12  22  42  70  99 124 169 226 274 316 379
#     4  11  23  42  64  93 130 173 214 269 327 378
#
# _framework density 21.412616
#
# number of rings (size 3 to 8) (size 9 to 14) (size 15 to 20)
#    0.000    1.167    3.333    5.000    0.000    1.000 
#    0.000    5.000    0.000    6.000    0.000    0.000 
#    0.000    0.000    0.000    0.000    0.000    0.000 
#
# Total GULP energy -297396.004525 kJ/mol
# GULP energy per Si atom -12391.500189 kJ/mol
# Density = 2.136388 g / cm^3
# Si number density = 21.412616 Si / 1000 Ang^3
#
#
#
# Elastic Constant Matrix: (Units=GPa)
#
#
# Indices 1 2 3 4 5 6 
#
# 1 55.5026 26.6968 26.6129 0.0000 1.0788 0.0000
# 2 26.6968 101.1799 21.6976 0.0000 6.8658 0.0000
# 3 26.6129 21.6976 128.9613 0.0000 -15.2679 0.0000
# 4 0.0000 0.0000 0.0000 28.4350 0.0000 -1.6906
# 5 1.0788 6.8658 -15.2679 0.0000 30.1606 0.0000
# 6 0.0000 0.0000 0.0000 -1.6906 0.0000 27.4138
#
#
#
# Elastic Compliance Matrix: (Units=1/GPa)
#
#
# Indices 1 2 3 4 5 6 
#
# 1 0.022326 -0.004923 -0.003979 0.000000 -0.001692 0.000000
# 2 -0.004923 0.011680 -0.001322 0.000000 -0.003152 0.000000
# 3 -0.003979 -0.001322 0.009415 0.000000 0.005209 0.000000
# 4 0.000000 0.000000 0.000000 0.035297 0.000000 0.002177
# 5 -0.001692 -0.003152 0.005209 0.000000 0.036571 0.000000
# 6 0.000000 0.000000 0.000000 0.002177 0.000000 0.036612
#
#
# Mechanical properties :
#
#
# Convention : Reuss Voigt Hill
#
# Bulk Modulus (GPa) = 43.53227 48.40648 45.96938
# Shear Modulus (GPa) = 27.77670 31.24431 29.51050
#
# Velocity S-wave (km/s) = 3.60559 3.82403 3.71642
# Velocity P-wave (km/s) = 6.14069 6.49255 6.31907
#
# Compressibility (1/GPa) = 0.02297147
#
# Stress axis : x y z
#
# Youngs Moduli (GPa) = 44.79101 85.61844 106.21685
#
# Poissons Ratio (x) = 0.42146 0.42268
# Poissons Ratio (y) = 0.22049 0.14047
# Poissons Ratio (z) = 0.17824 0.11323
#
# Static dielectric constant tensor:
#      x y z
#    x 3.642440 0.000000 -0.021700 
#    y 0.000000 3.740820 0.000000 
#    z -0.021700 0.000000 4.154430 
# 
# 
# High freq. dielectric constant tensor:
#      x y z
#    x 1.814290 0.000000 0.001280 
#    y 0.000000 1.832230 0.000000 
#    z 0.001280 0.000000 1.858540 
# 
# From -- ./inp_files/87719.got.cif
#   From: 2010.06.25/outbox.cif.g09.slc.cpg/sg12_44_cif.got.tgz:87719.got - 2010.06.28 00:19:55.
