data_PCOD8094172
_publ_section_title
;
Structure prediction by ZEFSAII (Michael W. Deem and Ramdas Pophale) SiO2 
 PCOD8094172
Probable space group: C 2/M
;
_chemical_formula_sum "Si O2"
_cell_formula_units_Z 52
_cell_length_a 19.770198
_cell_length_b 20.452434
_cell_length_c 16.200996
_cell_angle_alpha 90.000000
_cell_angle_beta 26.177261
_cell_angle_gamma 90.000000
_cell_volume 2889.906182
_symmetry_space_group_name_H-M "C 2/M"
_symmetry_group_IT_number 12
_symmetry_cell_setting 'monoclinic'
loop_
_space_group_symop_operation_xyz
x,y,z
-x,y,-z
-x,-y,-z
x,-y,z
1/2+x,1/2+y,z
1/2-x,1/2+y,-z
1/2-x,1/2-y,-z
1/2+x,1/2-y,z
loop_
_atom_site_type_symbol
_atom_site_label
_atom_site_fract_x
_atom_site_fract_y
_atom_site_fract_z
Si Si1 0.764826 0.325602 0.465282
Si Si2 0.767994 0.731481 0.849357
Si Si3 0.696437 0.927354 0.001199
Si Si4 0.574205 0.676721 0.201292
Si Si5 0.453365 0.844093 0.959666
Si Si6 0.583036 0.076356 0.576382
Si Si7 0.500000 0.857456 0.500000
O O1 0.750000 0.250000 0.500000
O O2 0.601249 0.345783 0.607707
O O3 0.894319 0.325491 0.255130
O O4 0.802213 0.374029 0.501331
O O5 0.892993 0.759330 0.778115
O O6 0.859508 0.687302 0.684496
O O7 0.639980 0.689383 0.037723
O O8 0.675787 0.787660 0.901841
O O9 0.610694 0.910324 0.010221
O O10 0.585026 0.915366 0.200762
O O11 0.756990 0.000000 0.930234
O O12 0.845269 0.884188 0.845616
O O13 0.500000 0.861114 0.000000
O O14 0.569523 0.096845 0.495691
O O15 0.637718 0.000000 0.523599
#
# Coordination Sequence:
#
# PCOD8094172 Si02
#       7
#     8   8   8   8   8   8   4
#     4  11  21  36  61  83 114 152 190 237 287 336
#     4  10  21  33  55  84 115 144 188 235 280 332
#     4   9  19  39  60  78 110 156 193 228 279 345
#     4  10  19  37  55  82 111 146 191 232 279 336
#     4  10  22  36  55  87 117 142 186 240 290 336
#     4  10  22  38  57  84 117 154 194 230 282 345
#     4  12  21  34  62  84 113 154 190 236 279 332
#
# _framework density 17.993663999999999
#
# number of rings (size 3 to 8) (size 9 to 14) (size 15 to 20)
#    0.000    1.846    3.077    1.154    4.308    0.923 
#    0.000    0.000    0.000    1.846    0.000    0.000 
#    0.000    0.000    0.000    0.000    0.000    0.000 
#
# Total GULP energy -322308.221549 kJ/mol
# GULP energy per Si atom -12396.470060 kJ/mol
# Density = 1.795271 g / cm^3
# Si number density = 17.993664 Si / 1000 Ang^3
#
#
#
# Elastic Constant Matrix: (Units=GPa)
#
#
# Indices 1 2 3 4 5 6 
#
# 1 109.8451 41.1813 41.2079 -0.0034 6.0508 0.0030
# 2 41.1813 105.9015 36.9968 0.0001 1.1325 0.0033
# 3 41.2079 36.9968 70.7288 -0.0038 -8.5077 0.0086
# 4 -0.0034 0.0001 -0.0038 14.7889 0.0086 0.2511
# 5 6.0508 1.1325 -8.5077 0.0086 33.2801 -0.0081
# 6 0.0030 0.0033 0.0086 0.2511 -0.0081 21.2540
#
#
#
# Elastic Compliance Matrix: (Units=1/GPa)
#
#
# Indices 1 2 3 4 5 6 
#
# 1 0.012753 -0.002641 -0.006518 0.000004 -0.003895 0.000000
# 2 -0.002641 0.012231 -0.005006 -0.000001 -0.001216 0.000000
# 3 -0.006518 -0.005006 0.021374 0.000000 0.006819 -0.000004
# 4 0.000004 -0.000001 0.000000 0.067632 -0.000018 -0.000799
# 5 -0.003895 -0.001216 0.006819 -0.000018 0.032541 0.000011
# 6 0.000000 0.000000 -0.000004 -0.000799 0.000011 0.047059
#
#
# Mechanical properties :
#
#
# Convention : Reuss Voigt Hill
#
# Bulk Modulus (GPa) = 55.45939 58.36082 56.91010
# Shear Modulus (GPa) = 21.93663 25.00390 23.47027
#
# Velocity S-wave (km/s) = 3.49539 3.73177 3.61551
# Velocity P-wave (km/s) = 6.86869 7.14651 7.00898
#
# Compressibility (1/GPa) = 0.01803121
#
# Stress axis : x y z
#
# Youngs Moduli (GPa) = 78.41089 81.75694 46.78488
#
# Poissons Ratio (x) = 0.21590 0.30492
# Poissons Ratio (y) = 0.20706 0.23419
# Poissons Ratio (z) = 0.51104 0.40925
#
# Static dielectric constant tensor:
#      x y z
#    x 3.424810 -0.000020 -0.123610 
#    y -0.000020 3.352020 0.000030 
#    z -0.123610 0.000030 3.250060 
# 
# 
# High freq. dielectric constant tensor:
#      x y z
#    x 1.695980 0.000000 -0.003760 
#    y 0.000000 1.698590 0.000000 
#    z -0.003760 0.000000 1.690790 
# 
# From -- ./inp_files/78076.got.cif
#   From: 2010.06.25/outbox.cif.g09.slc.cpg/sg12_40_cif.got.tgz:78076.got - 2010.06.28 00:19:55.
