data_PCOD8094423
_publ_section_title
;
Structure prediction by ZEFSAII (Michael W. Deem and Ramdas Pophale) SiO2 
 PCOD8094423
Probable space group: C 2/M
;
_chemical_formula_sum "Si O2"
_cell_formula_units_Z 56
_cell_length_a 18.923500
_cell_length_b 8.746442
_cell_length_c 18.854134
_cell_angle_alpha 90.000000
_cell_angle_beta 118.860101
_cell_angle_gamma 90.000000
_cell_volume 2733.032779
_symmetry_space_group_name_H-M "C 2/M"
_symmetry_group_IT_number 12
_symmetry_cell_setting 'monoclinic'
loop_
_space_group_symop_operation_xyz
x,y,z
-x,y,-z
-x,-y,-z
x,-y,z
1/2+x,1/2+y,z
1/2-x,1/2+y,-z
1/2-x,1/2-y,-z
1/2+x,1/2-y,z
loop_
_atom_site_type_symbol
_atom_site_label
_atom_site_fract_x
_atom_site_fract_y
_atom_site_fract_z
Si Si1 0.431631 0.671659 0.920436
Si Si2 0.097516 0.319564 0.344941
Si Si3 0.921143 0.318571 0.502772
Si Si4 0.260891 0.319805 0.814492
Si Si5 0.319062 0.179406 0.082147
Si Si6 0.243225 0.682119 0.647804
Si Si7 0.516920 0.328491 0.818365
O O1 0.425077 0.500000 0.948925
O O2 0.344723 0.753506 0.884748
O O3 0.449476 0.668096 0.845910
O O4 0.500000 0.759629 0.000000
O O5 0.108045 0.500000 0.345211
O O6 0.079828 0.264361 0.416279
O O7 0.179259 0.244131 0.356105
O O8 0.018339 0.270434 0.262964
O O9 0.923295 0.500000 0.498857
O O10 0.838825 0.256365 0.427605
O O11 0.000000 0.251883 0.500000
O O12 0.274478 0.500000 0.812682
O O13 0.193777 0.282635 0.840523
O O14 0.239282 0.253962 0.726683
O O15 0.404842 0.253916 0.106904
O O16 0.321225 0.000000 0.068762
O O17 0.250000 0.250000 0.000000
O O18 0.247763 0.500000 0.647490
O O19 0.536507 0.500000 0.801502
#
# Coordination Sequence:
#
# PCOD8094423 Si02
#       7
#     8   8   8   8   8   8   8
#     4   9  16  30  55  82 105 138 191 240 275 329
#     4  11  22  37  59  89 122 152 188 242 300 351
#     4   9  20  36  60  89 115 152 201 242 281 347
#     4   9  18  33  57  85 109 149 201 240 279 343
#     4  11  23  39  60  87 120 158 200 247 297 349
#     4  10  19  37  63  86 112 152 202 245 286 347
#     4  11  22  38  61  86 117 156 198 243 291 350
#
# _framework density 20.490057
#
# number of rings (size 3 to 8) (size 9 to 14) (size 15 to 20)
#    0.000    2.000    1.429    2.571    2.000    2.286 
#    0.000    2.143    0.000    3.857    0.000    0.000 
#    0.000    0.000    0.000    0.000    0.000    0.000 
#
# Total GULP energy -347110.476988 kJ/mol
# GULP energy per Si atom -12396.802750 kJ/mol
# Density = 2.044342 g / cm^3
# Si number density = 20.490057 Si / 1000 Ang^3
#
#
#
# Elastic Constant Matrix: (Units=GPa)
#
#
# Indices 1 2 3 4 5 6 
#
# 1 86.7422 20.7475 20.2884 0.0000 8.0084 0.0000
# 2 20.7475 48.3544 15.3302 0.0000 0.6605 0.0000
# 3 20.2884 15.3302 113.2866 0.0000 10.3857 0.0000
# 4 0.0000 0.0000 0.0000 24.3283 0.0000 0.9173
# 5 8.0084 0.6605 10.3857 0.0000 43.3405 0.0000
# 6 0.0000 0.0000 0.0000 0.9173 0.0000 22.7575
#
#
#
# Elastic Compliance Matrix: (Units=1/GPa)
#
#
# Indices 1 2 3 4 5 6 
#
# 1 0.013311 -0.005210 -0.001493 0.000000 -0.002022 0.000000
# 2 -0.005210 0.023653 -0.002375 0.000000 0.001171 0.000000
# 3 -0.001493 -0.002375 0.009598 0.000000 -0.001988 0.000000
# 4 0.000000 0.000000 0.000000 0.041167 0.000000 -0.001659
# 5 -0.002022 0.001171 -0.001988 0.000000 0.023905 0.000000
# 6 0.000000 0.000000 0.000000 -0.001659 0.000000 0.044008
#
#
# Mechanical properties :
#
#
# Convention : Reuss Voigt Hill
#
# Bulk Modulus (GPa) = 35.20526 40.12393 37.66459
# Shear Modulus (GPa) = 27.28242 30.88639 29.08441
#
# Velocity S-wave (km/s) = 3.65293 3.88672 3.77163
# Velocity P-wave (km/s) = 5.91699 6.30609 6.11463
#
# Compressibility (1/GPa) = 0.02840485
#
# Stress axis : x y z
#
# Youngs Moduli (GPa) = 75.12808 42.27761 104.18553
#
# Poissons Ratio (x) = 0.22027 0.15559
# Poissons Ratio (y) = 0.39143 0.24745
# Poissons Ratio (z) = 0.11219 0.10041
#
# Static dielectric constant tensor:
#      x y z
#    x 3.810370 0.000000 0.047700 
#    y 0.000000 3.284630 0.000000 
#    z 0.047700 0.000000 3.962650 
# 
# 
# High freq. dielectric constant tensor:
#      x y z
#    x 1.811830 0.000000 0.004380 
#    y 0.000000 1.753190 0.000000 
#    z 0.004380 0.000000 1.818650 
# 
# From -- ./inp_files/281727.got.cif
#   From: 2010.06.25/outbox.cif.g09.slc.cpg/sg12_141_cif.got.tgz:281727.got - 2010.06.28 00:19:55.
