data_PCOD8094328
_publ_section_title
;
Structure prediction by ZEFSAII (Michael W. Deem and Ramdas Pophale) SiO2 
 PCOD8094328
Probable space group: C 2/M
;
_chemical_formula_sum "Si O2"
_cell_formula_units_Z 48
_cell_length_a 25.069951
_cell_length_b 8.710785
_cell_length_c 12.331540
_cell_angle_alpha 90.000000
_cell_angle_beta 71.123089
_cell_angle_gamma 90.000000
_cell_volume 2548.110737
_symmetry_space_group_name_H-M "C 2/M"
_symmetry_group_IT_number 12
_symmetry_cell_setting 'monoclinic'
loop_
_space_group_symop_operation_xyz
x,y,z
-x,y,-z
-x,-y,-z
x,-y,z
1/2+x,1/2+y,z
1/2-x,1/2+y,-z
1/2-x,1/2-y,-z
1/2+x,1/2-y,z
loop_
_atom_site_type_symbol
_atom_site_label
_atom_site_fract_x
_atom_site_fract_y
_atom_site_fract_z
Si Si1 0.868365 0.181555 0.223716
Si Si2 0.441420 0.179575 0.746988
Si Si3 0.941268 0.822821 0.978357
Si Si4 0.941238 0.818772 0.375893
Si Si5 0.636610 0.679936 0.371311
Si Si6 0.751079 0.681594 0.618505
O O1 0.908188 0.246641 0.293064
O O2 0.804602 0.239874 0.281142
O O3 0.871355 0.000000 0.231437
O O4 0.891525 0.233516 0.091446
O O5 0.439454 0.216566 0.875076
O O6 0.499063 0.235881 0.654414
O O7 0.389255 0.265118 0.724844
O O8 0.434879 0.000000 0.732857
O O9 0.933688 0.000000 0.948466
O O10 0.000000 0.799785 0.000000
O O11 0.905457 0.774361 0.504566
O O12 0.952361 0.000000 0.360863
O O13 0.648043 0.500000 0.361664
O O14 0.695822 0.763688 0.348043
O O15 0.751261 0.500000 0.607293
O O16 0.750000 0.750000 0.500000
#
# Coordination Sequence:
#
# PCOD8094328 Si02
#       6
#     8   8   8   8   8   8
#     4   9  18  35  60  89 116 148 195 239 281 339
#     4  12  25  38  55  87 125 154 189 242 300 350
#     4  10  19  37  64  85 110 154 201 237 279 345
#     4  10  19  37  61  86 116 154 195 236 285 349
#     4  11  23  40  61  85 116 158 202 240 287 349
#     4  11  21  37  60  89 122 155 193 240 290 343
#
# _framework density 18.837485999999998
#
# number of rings (size 3 to 8) (size 9 to 14) (size 15 to 20)
#    0.000    1.500    3.333    3.000    0.000    3.667 
#    0.000    2.500    0.000    0.000    0.000    0.000 
#    0.000    0.000    0.000    0.000    0.000    0.000 
#
# Total GULP energy -297685.966209 kJ/mol
# GULP energy per Si atom -12403.581925 kJ/mol
# Density = 1.879461 g / cm^3
# Si number density = 18.837486 Si / 1000 Ang^3
#
#
#
# Elastic Constant Matrix: (Units=GPa)
#
#
# Indices 1 2 3 4 5 6 
#
# 1 123.2036 25.1304 36.9611 0.0000 -11.6766 0.0000
# 2 25.1304 50.2695 22.1765 0.0000 -8.3056 0.0000
# 3 36.9611 22.1765 84.0862 0.0000 -15.9895 0.0000
# 4 0.0000 0.0000 0.0000 22.7917 0.0000 0.1563
# 5 -11.6766 -8.3056 -15.9895 0.0000 35.4450 0.0000
# 6 0.0000 0.0000 0.0000 0.1563 0.0000 31.7034
#
#
#
# Elastic Compliance Matrix: (Units=1/GPa)
#
#
# Indices 1 2 3 4 5 6 
#
# 1 0.009871 -0.003327 -0.003272 0.000000 0.000996 0.000000
# 2 -0.003327 0.023898 -0.004358 0.000000 0.002538 0.000000
# 3 -0.003272 -0.004358 0.015402 0.000000 0.004849 0.000000
# 4 0.000000 0.000000 0.000000 0.043877 0.000000 -0.000216
# 5 0.000996 0.002538 0.004849 0.000000 0.031323 0.000000
# 6 0.000000 0.000000 0.000000 -0.000216 0.000000 0.031543
#
#
# Mechanical properties :
#
#
# Convention : Reuss Voigt Hill
#
# Bulk Modulus (GPa) = 36.68662 47.34391 42.01527
# Shear Modulus (GPa) = 26.75028 29.54077 28.14552
#
# Velocity S-wave (km/s) = 3.77245 3.96433 3.86958
# Velocity P-wave (km/s) = 6.20426 6.79279 6.50518
#
# Compressibility (1/GPa) = 0.02725789
#
# Stress axis : x y z
#
# Youngs Moduli (GPa) = 101.30385 41.84527 64.92551
#
# Poissons Ratio (x) = 0.13920 0.21245
# Poissons Ratio (y) = 0.33700 0.28293
# Poissons Ratio (z) = 0.33149 0.18235
#
# Static dielectric constant tensor:
#      x y z
#    x 3.648940 0.000000 -0.155870 
#    y 0.000000 3.310590 0.000000 
#    z -0.155870 0.000000 3.637380 
# 
# 
# High freq. dielectric constant tensor:
#      x y z
#    x 1.737210 0.000000 -0.002610 
#    y 0.000000 1.715950 0.000000 
#    z -0.002610 0.000000 1.734140 
# 
# From -- ./inp_files/172414.got.cif
#   From: 2010.06.25/outbox.cif.g09.slc.cpg/sg12_87_cif.got.tgz:172414.got - 2010.06.28 00:19:55.
