data_PCOD8094663
_publ_section_title
;
Structure prediction by ZEFSAII (Michael W. Deem and Ramdas Pophale) SiO2 
 PCOD8094663
Probable space group: C 2/M
;
_chemical_formula_sum "Si O2"
_cell_formula_units_Z 56
_cell_length_a 18.591156
_cell_length_b 8.862140
_cell_length_c 27.180911
_cell_angle_alpha 90.000000
_cell_angle_beta 141.097194
_cell_angle_gamma 90.000000
_cell_volume 2812.350617
_symmetry_space_group_name_H-M "C 2/M"
_symmetry_group_IT_number 12
_symmetry_cell_setting 'monoclinic'
loop_
_space_group_symop_operation_xyz
x,y,z
-x,y,-z
-x,-y,-z
x,-y,z
1/2+x,1/2+y,z
1/2-x,1/2+y,-z
1/2-x,1/2-y,-z
1/2+x,1/2-y,z
loop_
_atom_site_type_symbol
_atom_site_label
_atom_site_fract_x
_atom_site_fract_y
_atom_site_fract_z
Si Si1 0.421287 0.678710 0.296530
Si Si2 0.263010 0.178785 0.724738
Si Si3 0.089838 0.176202 0.006913
Si Si4 0.632155 0.331528 0.559346
Si Si5 0.019931 0.678813 0.868889
Si Si6 0.851847 0.676182 0.161002
Si Si7 0.639349 0.823358 0.463464
O O1 0.434655 0.500000 0.304969
O O2 0.307058 0.733231 0.264531
O O3 0.416614 0.734060 0.238124
O O4 0.528883 0.748657 0.380937
O O5 0.200092 0.236029 0.642132
O O6 0.391416 0.244780 0.794918
O O7 0.265815 0.000000 0.725169
O O8 0.217434 0.212596 0.093120
O O9 0.071076 0.000000 0.987657
O O10 0.074396 0.259639 0.947454
O O11 0.000000 0.236496 0.000000
O O12 0.500000 0.347555 0.500000
O O13 0.678329 0.500000 0.569517
O O14 0.647871 0.209103 0.525617
O O15 0.017988 0.500000 0.871301
O O16 0.096894 0.732218 0.863768
O O17 0.876563 0.500000 0.181485
O O18 0.750000 0.750000 0.500000
O O19 0.636203 0.000000 0.451659
#
# Coordination Sequence:
#
# PCOD8094663 Si02
#       7
#     8   8   8   8   8   8   8
#     4  11  22  40  62  87 117 156 201 244 298 363
#     4   9  19  36  59  86 117 153 195 244 301 358
#     4  10  21  38  59  84 119 158 196 243 300 352
#     4  10  19  38  64  87 118 160 200 247 305 361
#     4  10  21  37  59  87 117 152 197 243 294 358
#     4  10  22  38  57  86 121 156 196 248 302 354
#     4  12  26  42  61  88 122 159 204 253 303 358
#
# _framework density 19.91217
#
# number of rings (size 3 to 8) (size 9 to 14) (size 15 to 20)
#    0.000    1.714    1.429    3.000    2.000    1.714 
#    0.000    1.429    0.000    0.000    0.000    0.000 
#    0.000    0.000    0.000    0.000    0.000    0.000 
#
# Total GULP energy -347257.749854 kJ/mol
# GULP energy per Si atom -12402.062495 kJ/mol
# Density = 1.986685 g / cm^3
# Si number density = 19.912170 Si / 1000 Ang^3
#
#
#
# Elastic Constant Matrix: (Units=GPa)
#
#
# Indices 1 2 3 4 5 6 
#
# 1 139.8572 40.5123 34.5208 0.0000 -7.5137 0.0001
# 2 40.5123 59.4101 29.4027 -0.0001 -5.2862 0.0002
# 3 34.5208 29.4027 69.1801 0.0000 -16.6113 0.0001
# 4 0.0000 -0.0001 0.0000 32.9887 0.0000 -8.0212
# 5 -7.5137 -5.2862 -16.6113 0.0000 42.0779 0.0000
# 6 0.0001 0.0002 0.0001 -8.0212 0.0000 37.4401
#
#
#
# Elastic Compliance Matrix: (Units=1/GPa)
#
#
# Indices 1 2 3 4 5 6 
#
# 1 0.009225 -0.005083 -0.002431 0.000000 0.000049 0.000000
# 2 -0.005083 0.024154 -0.007975 0.000000 -0.001021 0.000000
# 3 -0.002431 -0.007975 0.020672 0.000000 0.006725 0.000000
# 4 0.000000 0.000000 0.000000 0.031979 0.000000 0.006851
# 5 0.000049 -0.001021 0.006725 0.000000 0.026301 0.000000
# 6 0.000000 0.000000 0.000000 0.006851 0.000000 0.028177
#
#
# Mechanical properties :
#
#
# Convention : Reuss Voigt Hill
#
# Bulk Modulus (GPa) = 43.33946 53.03543 48.18745
# Shear Modulus (GPa) = 27.90506 33.43543 30.67025
#
# Velocity S-wave (km/s) = 3.74760 4.10218 3.92889
# Velocity P-wave (km/s) = 6.36699 7.00926 6.69583
#
# Compressibility (1/GPa) = 0.02307366
#
# Stress axis : x y z
#
# Youngs Moduli (GPa) = 108.39716 41.40038 48.37370
#
# Poissons Ratio (x) = 0.21045 0.11761
# Poissons Ratio (y) = 0.55101 0.38577
# Poissons Ratio (z) = 0.26354 0.33016
#
# Static dielectric constant tensor:
#      x y z
#    x 3.848420 0.000000 0.081560 
#    y 0.000000 3.483960 0.000000 
#    z 0.081560 0.000000 3.771880 
# 
# 
# High freq. dielectric constant tensor:
#      x y z
#    x 1.790510 0.000000 0.000320 
#    y 0.000000 1.754700 0.000000 
#    z 0.000320 0.000000 1.790450 
# 
# From -- ./inp_files/363125.got.cif
#   From: 2010.06.25/outbox.cif.g09.slc.cpg/sg12_182_cif.got.tgz:363125.got - 2010.06.28 00:19:55.
