data_PCOD8094681
_publ_section_title
;
Structure prediction by ZEFSAII (Michael W. Deem and Ramdas Pophale) SiO2 
 PCOD8094681
Probable space group: C 2/M
;
_chemical_formula_sum "Si O2"
_cell_formula_units_Z 56
_cell_length_a 23.818876
_cell_length_b 8.772866
_cell_length_c 13.808320
_cell_angle_alpha 90.000000
_cell_angle_beta 75.039028
_cell_angle_gamma 90.000000
_cell_volume 2787.574860
_symmetry_space_group_name_H-M "C 2/M"
_symmetry_group_IT_number 12
_symmetry_cell_setting 'monoclinic'
loop_
_space_group_symop_operation_xyz
x,y,z
-x,y,-z
-x,-y,-z
x,-y,z
1/2+x,1/2+y,z
1/2-x,1/2+y,-z
1/2-x,1/2-y,-z
1/2+x,1/2-y,z
loop_
_atom_site_type_symbol
_atom_site_label
_atom_site_fract_x
_atom_site_fract_y
_atom_site_fract_z
Si Si1 0.781823 0.679943 0.846807
Si Si2 0.685688 0.181391 0.534879
Si Si3 0.363819 0.181451 0.646143
Si Si4 0.674057 0.176404 0.968044
Si Si5 0.990668 0.671417 0.617571
Si Si6 0.087657 0.179088 0.700358
Si Si7 0.443279 0.177596 0.082196
O O1 0.782426 0.500000 0.841099
O O2 0.814663 0.748112 0.739194
O O3 0.715762 0.737630 0.873693
O O4 0.814540 0.738792 0.928875
O O5 0.750000 0.250000 0.500000
O O6 0.650158 0.237155 0.455994
O O7 0.648815 0.241690 0.643299
O O8 0.690653 0.000000 0.539162
O O9 0.425751 0.239125 0.659786
O O10 0.365143 0.000000 0.645704
O O11 0.608247 0.209769 0.969921
O O12 0.689853 0.000000 0.954538
O O13 0.997063 0.500000 0.658170
O O14 0.000000 0.664888 0.500000
O O15 0.036662 0.780094 0.648306
O O16 0.067441 0.230019 0.815383
O O17 0.098167 0.000000 0.694988
O O18 0.448781 0.000000 0.106922
O O19 0.500000 0.236130 0.000000
#
# Coordination Sequence:
#
# PCOD8094681 Si02
#       7
#     8   8   8   8   8   8   8
#     4   9  18  34  58  86 116 150 187 238 300 362
#     4  11  23  42  63  92 127 165 210 253 305 369
#     4   9  19  35  61  90 116 152 199 245 300 362
#     4   9  19  36  57  85 115 147 194 244 296 358
#     4  10  19  38  65  88 115 156 201 249 301 360
#     4  12  26  42  61  90 126 166 205 255 315 370
#     4  10  23  42  65  89 116 158 210 258 307 370
#
# _framework density 20.089146
#
# number of rings (size 3 to 8) (size 9 to 14) (size 15 to 20)
#    0.000    2.000    1.429    1.714    4.000    1.143 
#    0.000    1.429    0.000    0.000    0.000    0.000 
#    0.000    0.000    0.000    0.000    0.000    0.000 
#
# Total GULP energy -347184.517520 kJ/mol
# GULP energy per Si atom -12399.447054 kJ/mol
# Density = 2.004342 g / cm^3
# Si number density = 20.089146 Si / 1000 Ang^3
#
#
#
# Elastic Constant Matrix: (Units=GPa)
#
#
# Indices 1 2 3 4 5 6 
#
# 1 120.1921 39.6578 48.5845 0.0000 -23.5776 0.0000
# 2 39.6578 67.7150 40.3512 0.0000 -5.4091 0.0000
# 3 48.5845 40.3512 122.7659 0.0000 -26.2974 0.0000
# 4 0.0000 0.0000 0.0000 24.9040 0.0000 -2.9373
# 5 -23.5776 -5.4091 -26.2974 0.0000 36.5575 0.0000
# 6 0.0000 0.0000 0.0000 -2.9373 0.0000 29.1697
#
#
#
# Elastic Compliance Matrix: (Units=1/GPa)
#
#
# Indices 1 2 3 4 5 6 
#
# 1 0.011941 -0.005531 -0.001694 0.000000 0.005664 0.000000
# 2 -0.005531 0.021042 -0.005703 0.000000 -0.004557 0.000000
# 3 -0.001694 -0.005703 0.012148 0.000000 0.006802 0.000000
# 4 0.000000 0.000000 0.000000 0.040637 0.000000 0.004092
# 5 0.005664 -0.004557 0.006802 0.000000 0.035226 0.000000
# 6 0.000000 0.000000 0.000000 0.004092 0.000000 0.034694
#
#
# Mechanical properties :
#
#
# Convention : Reuss Voigt Hill
#
# Bulk Modulus (GPa) = 51.88618 63.09555 57.49086
# Shear Modulus (GPa) = 26.60012 30.26487 28.43249
#
# Velocity S-wave (km/s) = 3.64277 3.88561 3.76615
# Velocity P-wave (km/s) = 6.60129 7.18377 6.89868
#
# Compressibility (1/GPa) = 0.01927296
#
# Stress axis : x y z
#
# Youngs Moduli (GPa) = 83.74458 47.52468 82.32063
#
# Poissons Ratio (x) = 0.26287 0.13948
# Poissons Ratio (y) = 0.46321 0.46948
# Poissons Ratio (z) = 0.14189 0.27104
#
# Static dielectric constant tensor:
#      x y z
#    x 4.126690 0.000000 -0.127810 
#    y 0.000000 3.406590 0.000000 
#    z -0.127810 0.000000 3.902870 
# 
# 
# High freq. dielectric constant tensor:
#      x y z
#    x 1.796040 0.000000 -0.008350 
#    y 0.000000 1.755500 0.000000 
#    z -0.008350 0.000000 1.791480 
# 
# From -- ./inp_files/237332.got.cif
#   From: 2010.06.25/outbox.cif.g09.slc.cpg/sg12_119_cif.got.tgz:237332.got - 2010.06.28 00:19:55.
