data_PCOD8094895
_publ_section_title
;
Structure prediction by ZEFSAII (Michael W. Deem and Ramdas Pophale) SiO2 
 PCOD8094895
Probable space group: C 2/M
;
_chemical_formula_sum "Si O2"
_cell_formula_units_Z 64
_cell_length_a 9.948519
_cell_length_b 29.552181
_cell_length_c 14.627906
_cell_angle_alpha 90.000000
_cell_angle_beta 79.479902
_cell_angle_gamma 90.000000
_cell_volume 4228.321419
_symmetry_space_group_name_H-M "C 2/M"
_symmetry_group_IT_number 12
_symmetry_cell_setting 'monoclinic'
loop_
_space_group_symop_operation_xyz
x,y,z
-x,y,-z
-x,-y,-z
x,-y,z
1/2+x,1/2+y,z
1/2-x,1/2+y,-z
1/2-x,1/2-y,-z
1/2+x,1/2-y,z
loop_
_atom_site_type_symbol
_atom_site_label
_atom_site_fract_x
_atom_site_fract_y
_atom_site_fract_z
Si Si1 0.819789 0.374120 0.609307
Si Si2 0.145231 0.195145 0.953775
Si Si3 0.907749 0.709078 0.258515
Si Si4 0.680218 0.449653 0.389457
Si Si5 0.873099 0.372065 0.394990
Si Si6 0.878639 0.950037 0.389740
Si Si7 0.867490 0.302643 0.062854
Si Si8 0.274909 0.795094 0.751112
O O1 0.810620 0.363134 0.502814
O O2 0.716722 0.414231 0.650586
O O3 0.775847 0.329619 0.667922
O O4 0.971544 0.389439 0.618485
O O5 0.134096 0.248877 0.948631
O O6 0.206102 0.180227 0.847797
O O7 0.238186 0.177482 0.025583
O O8 0.000000 0.173673 0.000000
O O9 0.863333 0.675667 0.344635
O O10 0.870483 0.683802 0.168549
O O11 0.816921 0.754107 0.275259
O O12 0.070296 0.721067 0.242602
O O13 0.728651 0.500000 0.351741
O O14 0.791243 0.411297 0.350934
O O15 0.537768 0.436790 0.357800
O O16 0.659932 0.450611 0.499810
O O17 0.852446 0.000000 0.351500
O O18 0.000000 0.324152 0.000000
#
# Coordination Sequence:
#
# PCOD8094895 Si02
#       8
#     8   8   8   8   8   8   8   8
#     4   9  18  31  44  59  88 118 146 177 207 244
#     4   9  17  27  43  62  81 102 135 178 222 259
#     4  10  20  30  43  61  85 115 150 179 210 250
#     4   8  14  26  44  64  85 107 136 175 216 254
#     4   9  18  31  43  61  87 117 147 178 206 243
#     4   8  14  26  44  64  84 108 137 173 217 256
#     4   9  15  27  43  60  79 105 133 176 226 256
#     4  10  20  31  42  61  85 116 148 180 211 248
#
# _framework density 15.136030999999999
#
# number of rings (size 3 to 8) (size 9 to 14) (size 15 to 20)
#    0.000    3.000    1.250    0.750    5.250    2.000 
#    0.000    2.500    0.000    0.000    0.000    0.000 
#    0.000    2.000    0.000    0.125    0.000    0.000 
#
# Total GULP energy -396544.727079 kJ/mol
# GULP energy per Si atom -12392.022721 kJ/mol
# Density = 1.510158 g / cm^3
# Si number density = 15.136031 Si / 1000 Ang^3
#
#
#
# Elastic Constant Matrix: (Units=GPa)
#
#
# Indices 1 2 3 4 5 6 
#
# 1 118.8431 57.4040 46.1714 0.0000 0.2304 0.0000
# 2 57.4040 69.0247 35.1699 0.0000 -0.0896 0.0000
# 3 46.1714 35.1699 62.7282 0.0000 -0.1669 0.0000
# 4 0.0000 0.0000 0.0000 1.0455 0.0000 -0.1829
# 5 0.2304 -0.0896 -0.1669 0.0000 20.8917 0.0000
# 6 0.0000 0.0000 0.0000 -0.1829 0.0000 25.9011
#
#
#
# Elastic Compliance Matrix: (Units=1/GPa)
#
#
# Indices 1 2 3 4 5 6 
#
# 1 0.015454 -0.009879 -0.005837 0.000000 -0.000259 0.000000
# 2 -0.009879 0.026596 -0.007640 0.000000 0.000162 0.000000
# 3 -0.005837 -0.007640 0.024523 0.000000 0.000227 0.000000
# 4 0.000000 0.000000 0.000000 0.957652 0.000000 0.006761
# 5 -0.000259 0.000162 0.000227 0.000000 0.047871 0.000000
# 6 0.000000 0.000000 0.000000 0.006761 0.000000 0.038656
#
#
# Mechanical properties :
#
#
# Convention : Reuss Voigt Hill
#
# Bulk Modulus (GPa) = 50.34972 58.67629 54.51300
# Shear Modulus (GPa) = 4.29522 17.02438 10.65980
#
# Velocity S-wave (km/s) = 1.68639 3.35738 2.65668
# Velocity P-wave (km/s) = 6.09335 7.34026 6.74568
#
# Compressibility (1/GPa) = 0.01986108
#
# Stress axis : x y z
#
# Youngs Moduli (GPa) = 64.70642 37.59945 40.77881
#
# Poissons Ratio (x) = 0.37143 0.23804
# Poissons Ratio (y) = 0.63921 0.31155
# Poissons Ratio (z) = 0.37771 0.28726
#
# Static dielectric constant tensor:
#      x y z
#    x 3.241630 0.000000 -0.019670 
#    y 0.000000 2.729990 0.000000 
#    z -0.019670 0.000000 2.814170 
# 
# 
# High freq. dielectric constant tensor:
#      x y z
#    x 1.597960 0.000000 0.000570 
#    y 0.000000 1.540130 0.000000 
#    z 0.000570 0.000000 1.555890 
# 
# From -- ./inp_files/200564.got.cif
#   From: 2010.06.25/outbox.cif.g09.slc.cpg/sg12_101_cif.got.tgz:200564.got - 2010.06.28 00:19:55.
