data_PCOD8094330
_publ_section_title
;
Structure prediction by ZEFSAII (Michael W. Deem and Ramdas Pophale) SiO2 
 PCOD8094330
Probable space group: C 2/M
;
_chemical_formula_sum "Si O2"
_cell_formula_units_Z 56
_cell_length_a 29.902122
_cell_length_b 9.316160
_cell_length_c 12.489267
_cell_angle_alpha 90.000000
_cell_angle_beta 52.132060
_cell_angle_gamma 90.000000
_cell_volume 2746.554692
_symmetry_space_group_name_H-M "C 2/M"
_symmetry_group_IT_number 12
_symmetry_cell_setting 'monoclinic'
loop_
_space_group_symop_operation_xyz
x,y,z
-x,y,-z
-x,-y,-z
x,-y,z
1/2+x,1/2+y,z
1/2-x,1/2+y,-z
1/2-x,1/2-y,-z
1/2+x,1/2-y,z
loop_
_atom_site_type_symbol
_atom_site_label
_atom_site_fract_x
_atom_site_fract_y
_atom_site_fract_z
Si Si1 0.874072 0.339867 0.674528
Si Si2 0.951079 0.333611 0.362310
Si Si3 0.758986 0.337414 0.755076
Si Si4 0.369006 0.669549 0.060892
Si Si5 0.561559 0.329228 0.246181
Si Si6 0.094171 0.159219 0.761949
Si Si7 0.213102 0.843971 0.478316
O O1 0.893439 0.500000 0.682930
O O2 0.896579 0.315179 0.519517
O O3 0.804904 0.332621 0.784088
O O4 0.898552 0.218018 0.715088
O O5 0.966521 0.500000 0.323221
O O6 0.943447 0.265521 0.254825
O O7 0.002014 0.250415 0.345929
O O8 0.754624 0.500000 0.715867
O O9 0.695483 0.279355 0.872003
O O10 0.790427 0.232813 0.628656
O O11 0.368591 0.500000 0.069048
O O12 0.393346 0.728042 0.138722
O O13 0.409491 0.722532 0.906819
O O14 0.553089 0.500000 0.263484
O O15 0.152116 0.137461 0.616506
O O16 0.065055 0.000000 0.814270
O O17 0.250000 0.750000 0.500000
O O18 0.241556 0.000000 0.422795
#
# Coordination Sequence:
#
# PCOD8094330 Si02
#       7
#     8   8   8   8   8   8   8
#     4  10  22  39  62  88 116 150 190 244 303 347
#     4  11  23  40  62  88 117 149 192 245 302 348
#     4  10  19  37  61  86 118 155 191 235 292 350
#     4   9  20  39  60  85 119 160 195 229 284 351
#     4  11  24  41  61  83 114 157 203 243 282 342
#     4  10  20  36  60  87 118 153 193 237 286 348
#     4  11  20  31  54  87 121 155 190 236 290 346
#
# _framework density 20.38918
#
# number of rings (size 3 to 8) (size 9 to 14) (size 15 to 20)
#    0.000    1.714    2.857    1.714    0.000    5.143 
#    0.000    5.714    0.000    0.000    0.000    0.000 
#    0.000    0.000    0.000    0.000    0.000    0.000 
#
# Total GULP energy -347005.966767 kJ/mol
# GULP energy per Si atom -12393.070242 kJ/mol
# Density = 2.034277 g / cm^3
# Si number density = 20.389180 Si / 1000 Ang^3
#
#
#
# Elastic Constant Matrix: (Units=GPa)
#
#
# Indices 1 2 3 4 5 6 
#
# 1 96.1921 42.1018 11.7271 0.0000 11.7907 0.0000
# 2 42.1018 105.1587 21.3508 0.0000 7.0644 0.0000
# 3 11.7271 21.3508 58.3889 0.0000 7.6852 0.0000
# 4 0.0000 0.0000 0.0000 19.5585 0.0000 3.4089
# 5 11.7907 7.0644 7.6852 0.0000 19.4433 0.0000
# 6 0.0000 0.0000 0.0000 3.4089 0.0000 33.6439
#
#
#
# Elastic Compliance Matrix: (Units=1/GPa)
#
#
# Indices 1 2 3 4 5 6 
#
# 1 0.013315 -0.004898 -0.000058 0.000000 -0.006272 0.000000
# 2 -0.004898 0.012178 -0.003458 0.000000 -0.000088 0.000000
# 3 -0.000058 -0.003458 0.019233 0.000000 -0.006311 0.000000
# 4 0.000000 0.000000 0.000000 0.052048 0.000000 -0.005274
# 5 -0.006272 -0.000088 -0.006311 0.000000 0.057762 0.000000
# 6 0.000000 0.000000 0.000000 -0.005274 0.000000 0.030257
#
#
# Mechanical properties :
#
#
# Convention : Reuss Voigt Hill
#
# Bulk Modulus (GPa) = 35.84258 45.56658 40.70458
# Shear Modulus (GPa) = 23.70554 26.83313 25.26934
#
# Velocity S-wave (km/s) = 3.41347 3.63167 3.52426
# Velocity P-wave (km/s) = 5.75787 6.32316 6.04712
#
# Compressibility (1/GPa) = 0.02789978
#
# Stress axis : x y z
#
# Youngs Moduli (GPa) = 75.10054 82.11272 51.99338
#
# Poissons Ratio (x) = 0.40218 0.00300
# Poissons Ratio (y) = 0.36784 0.17979
# Poissons Ratio (z) = 0.00434 0.28394
#
# Static dielectric constant tensor:
#      x y z
#    x 3.712280 0.000000 -0.027620 
#    y 0.000000 3.667420 0.000000 
#    z -0.027620 0.000000 3.616260 
# 
# 
# High freq. dielectric constant tensor:
#      x y z
#    x 1.805610 0.000000 -0.003000 
#    y 0.000000 1.787150 0.000000 
#    z -0.003000 0.000000 1.778320 
# 
# From -- ./inp_files/187191.got.cif
#   From: 2010.06.25/outbox.cif.g09.slc.cpg/sg12_94_cif.got.tgz:187191.got - 2010.06.28 00:19:55.
