data_PCOD8094046
_publ_section_title
;
Structure prediction by ZEFSAII (Michael W. Deem and Ramdas Pophale) SiO2 
 PCOD8094046
Probable space group: C 2/M
;
_chemical_formula_sum "Si O2"
_cell_formula_units_Z 48
_cell_length_a 27.252845
_cell_length_b 8.727051
_cell_length_c 16.864287
_cell_angle_alpha 90.000000
_cell_angle_beta 143.533331
_cell_angle_gamma 90.000000
_cell_volume 2383.928933
_symmetry_space_group_name_H-M "C 2/M"
_symmetry_group_IT_number 12
_symmetry_cell_setting 'monoclinic'
loop_
_space_group_symop_operation_xyz
x,y,z
-x,y,-z
-x,-y,-z
x,-y,z
1/2+x,1/2+y,z
1/2-x,1/2+y,-z
1/2-x,1/2-y,-z
1/2+x,1/2-y,z
loop_
_atom_site_type_symbol
_atom_site_label
_atom_site_fract_x
_atom_site_fract_y
_atom_site_fract_z
Si Si1 0.650534 0.679155 0.025860
Si Si2 0.267029 0.320266 0.606852
Si Si3 0.176858 0.177598 0.772049
Si Si4 0.946687 0.819727 0.255560
Si Si5 0.905846 0.320277 0.885521
Si Si6 0.873056 0.177129 0.470986
O O1 0.646002 0.500000 0.040897
O O2 0.585547 0.724303 0.873246
O O3 0.741508 0.720677 0.114562
O O4 0.629193 0.778313 0.074425
O O5 0.268471 0.500000 0.599772
O O6 0.250000 0.250000 0.500000
O O7 0.356206 0.265105 0.752200
O O8 0.198334 0.273555 0.580855
O O9 0.114709 0.245391 0.757197
O O10 0.132866 0.197840 0.630627
O O11 0.199611 0.000000 0.817172
O O12 0.039010 0.754336 0.386489
O O13 0.950689 0.000000 0.273771
O O14 0.895165 0.500000 0.858753
O O15 0.000000 0.266924 0.000000
O O16 0.862385 0.000000 0.482005
#
# Coordination Sequence:
#
# PCOD8094046 Si02
#       6
#     8   8   8   8   8   8
#     4  11  22  37  59  89 127 163 204 253 307 367
#     4  12  26  44  67  94 126 161 203 252 310 370
#     4  10  19  36  62  87 121 165 210 254 302 361
#     4   9  20  36  58  91 123 164 211 250 299 363
#     4  11  25  45  67  92 122 159 207 257 312 371
#     4  10  20  38  63  90 123 163 208 255 305 360
#
# _framework density 20.134830000000001
#
# number of rings (size 3 to 8) (size 9 to 14) (size 15 to 20)
#    0.000    1.500    1.667    3.500    2.333    3.333 
#    0.000    2.500    0.000    2.000    0.000    0.000 
#    0.000    0.000    0.000    0.000    0.000    0.000 
#
# Total GULP energy -297731.296480 kJ/mol
# GULP energy per Si atom -12405.470687 kJ/mol
# Density = 2.008900 g / cm^3
# Si number density = 20.134830 Si / 1000 Ang^3
#
#
#
# Elastic Constant Matrix: (Units=GPa)
#
#
# Indices 1 2 3 4 5 6 
#
# 1 84.0082 30.7312 37.3558 0.0000 2.4973 0.0000
# 2 30.7312 81.8337 47.0285 0.0000 0.3782 0.0000
# 3 37.3558 47.0285 145.9279 0.0000 9.1722 0.0000
# 4 0.0000 0.0000 0.0000 26.2264 0.0000 -3.3278
# 5 2.4973 0.3782 9.1722 0.0000 38.9208 0.0000
# 6 0.0000 0.0000 0.0000 -3.3278 0.0000 12.8137
#
#
#
# Elastic Compliance Matrix: (Units=1/GPa)
#
#
# Indices 1 2 3 4 5 6 
#
# 1 0.014454 -0.004065 -0.002369 0.000000 -0.000330 0.000000
# 2 -0.004065 0.016180 -0.004243 0.000000 0.001104 0.000000
# 3 -0.002369 -0.004243 0.008947 0.000000 -0.001915 0.000000
# 4 0.000000 0.000000 0.000000 0.039429 0.000000 0.010240
# 5 -0.000330 0.001104 -0.001915 0.000000 0.026155 0.000000
# 6 0.000000 0.000000 0.000000 0.010240 0.000000 0.080701
#
#
# Mechanical properties :
#
#
# Convention : Reuss Voigt Hill
#
# Bulk Modulus (GPa) = 54.86600 60.22229 57.54415
# Shear Modulus (GPa) = 23.44168 28.70245 26.07206
#
# Velocity S-wave (km/s) = 3.41579 3.77969 3.60234
# Velocity P-wave (km/s) = 6.54716 7.00161 6.77819
#
# Compressibility (1/GPa) = 0.01822622
#
# Stress axis : x y z
#
# Youngs Moduli (GPa) = 69.18548 61.80589 111.76881
#
# Poissons Ratio (x) = 0.25123 0.26482
# Poissons Ratio (y) = 0.28122 0.47425
# Poissons Ratio (z) = 0.16393 0.26225
#
# Static dielectric constant tensor:
#      x y z
#    x 3.781430 0.000000 0.037240 
#    y 0.000000 3.686490 0.000000 
#    z 0.037240 0.000000 4.036630 
# 
# 
# High freq. dielectric constant tensor:
#      x y z
#    x 1.794720 0.000000 -0.000300 
#    y 0.000000 1.768180 0.000000 
#    z -0.000300 0.000000 1.805720 
# 
# From -- ./inp_files/280798.got.cif
#   From: 2010.06.25/outbox.cif.g09.slc.cpg/sg12_141_cif.got.tgz:280798.got - 2010.06.28 00:19:55.
