data_PCOD8094588
_publ_section_title
;
Structure prediction by ZEFSAII (Michael W. Deem and Ramdas Pophale) SiO2 
 PCOD8094588
Probable space group: C 2/M
;
_chemical_formula_sum "Si O2"
_cell_formula_units_Z 48
_cell_length_a 19.414215
_cell_length_b 14.740417
_cell_length_c 19.488075
_cell_angle_alpha 90.000000
_cell_angle_beta 26.672874
_cell_angle_gamma 90.000000
_cell_volume 2503.480857
_symmetry_space_group_name_H-M "C 2/M"
_symmetry_group_IT_number 12
_symmetry_cell_setting 'monoclinic'
loop_
_space_group_symop_operation_xyz
x,y,z
-x,y,-z
-x,-y,-z
x,-y,z
1/2+x,1/2+y,z
1/2-x,1/2+y,-z
1/2-x,1/2-y,-z
1/2+x,1/2-y,z
loop_
_atom_site_type_symbol
_atom_site_label
_atom_site_fract_x
_atom_site_fract_y
_atom_site_fract_z
Si Si1 0.873736 0.302232 0.433426
Si Si2 0.387133 0.500000 0.662648
Si Si3 0.324286 0.806749 0.636637
Si Si4 0.826985 0.500000 0.632856
Si Si5 0.819095 0.803631 0.874305
Si Si6 0.455161 0.500000 0.753654
Si Si7 0.669912 0.833630 0.867057
Si Si8 0.299979 0.000000 0.496891
O O1 0.750000 0.250000 0.500000
O O2 0.812347 0.297293 0.565640
O O3 0.881660 0.406827 0.397993
O O4 0.036201 0.252664 0.282541
O O5 0.500000 0.500000 0.500000
O O6 0.483658 0.500000 0.646778
O O7 0.283954 0.413121 0.748685
O O8 0.500000 0.788182 0.500000
O O9 0.259082 0.905247 0.720313
O O10 0.206933 0.743573 0.779732
O O11 0.818969 0.500000 0.559638
O O12 0.000000 0.500000 0.500000
O O13 0.862780 0.907684 0.856534
O O14 0.691554 0.803995 0.927234
O O15 0.750000 0.750000 0.000000
O O16 0.619866 0.500000 0.641511
O O17 0.500000 0.866468 0.000000
#
# Coordination Sequence:
#
# PCOD8094588 Si02
#       8
#     8   4   8   4   8   4   8   4
#     4  11  22  37  64  93 120 161 216 258 309 373
#     4  10  23  41  65  92 124 160 206 265 314 367
#     4  10  19  38  61  86 119 159 206 257 304 355
#     4   8  18  32  55  86 118 149 193 260 294 336
#     4  11  25  43  61  89 132 167 202 263 322 373
#     4  10  22  42  61  90 127 160 207 264 316 371
#     4  11  24  40  63  91 127 166 205 254 318 380
#     4  10  20  35  62  92 120 155 206 257 305 363
#
# _framework density 19.173304999999999
#
# number of rings (size 3 to 8) (size 9 to 14) (size 15 to 20)
#    0.000    1.667    3.333    0.750    4.667    0.667 
#    0.000    1.250    0.000    0.000    0.000    0.000 
#    0.000    0.000    0.000    0.000    0.000    0.000 
#
# Total GULP energy -297390.239023 kJ/mol
# GULP energy per Si atom -12391.259959 kJ/mol
# Density = 1.912967 g / cm^3
# Si number density = 19.173305 Si / 1000 Ang^3
#
#
#
# Elastic Constant Matrix: (Units=GPa)
#
#
# Indices 1 2 3 4 5 6 
#
# 1 141.2075 46.3814 48.0925 0.0030 -10.1931 -0.0017
# 2 46.3814 150.4734 34.5409 -0.0073 10.8208 0.0036
# 3 48.0925 34.5409 70.1460 -0.0049 7.7185 0.0040
# 4 0.0030 -0.0073 -0.0049 40.3358 0.0038 -1.1663
# 5 -10.1931 10.8208 7.7185 0.0038 32.2700 -0.0014
# 6 -0.0017 0.0036 0.0040 -1.1663 -0.0014 31.1225
#
#
#
# Elastic Compliance Matrix: (Units=1/GPa)
#
#
# Indices 1 2 3 4 5 6 
#
# 1 0.010481 -0.002079 -0.006781 -0.000002 0.005629 0.000002
# 2 -0.002079 0.007994 -0.002202 0.000002 -0.002810 -0.000001
# 3 -0.006781 -0.002202 0.020689 0.000003 -0.006352 -0.000003
# 4 -0.000002 0.000002 0.000003 0.024819 -0.000005 0.000930
# 5 0.005629 -0.002810 -0.006352 -0.000005 0.035228 0.000003
# 6 0.000002 -0.000001 -0.000003 0.000930 0.000003 0.032166
#
#
# Mechanical properties :
#
#
# Convention : Reuss Voigt Hill
#
# Bulk Modulus (GPa) = 58.68871 68.87294 63.78083
# Shear Modulus (GPa) = 31.41100 36.26647 33.83873
#
# Velocity S-wave (km/s) = 4.05194 4.35387 4.20561
# Velocity P-wave (km/s) = 7.25031 7.82778 7.54457
#
# Compressibility (1/GPa) = 0.01703905
#
# Stress axis : x y z
#
# Youngs Moduli (GPa) = 95.41517 125.09432 48.33583
#
# Poissons Ratio (x) = 0.26003 0.32778
# Poissons Ratio (y) = 0.19833 0.10643
# Poissons Ratio (z) = 0.64705 0.27545
#
# Static dielectric constant tensor:
#      x y z
#    x 3.850530 0.000030 -0.093120 
#    y 0.000030 4.488990 0.000090 
#    z -0.093120 0.000090 2.871380 
# 
# 
# High freq. dielectric constant tensor:
#      x y z
#    x 1.765880 0.000000 -0.008690 
#    y 0.000000 1.776530 0.000000 
#    z -0.008690 0.000000 1.706830 
# 
# From -- ./inp_files/278083.got.cif
#   From: 2010.06.25/outbox.cif.g09.slc.cpg/sg12_140_cif.got.tgz:278083.got - 2010.06.28 00:19:55.
