data_PCOD8094453
_publ_section_title
;
Structure prediction by ZEFSAII (Michael W. Deem and Ramdas Pophale) SiO2 
 PCOD8094453
Probable space group: C 2/M
;
_chemical_formula_sum "Si O2"
_cell_formula_units_Z 56
_cell_length_a 11.264353
_cell_length_b 18.220311
_cell_length_c 19.246743
_cell_angle_alpha 90.000000
_cell_angle_beta 45.983125
_cell_angle_gamma 90.000000
_cell_volume 2840.729078
_symmetry_space_group_name_H-M "C 2/M"
_symmetry_group_IT_number 12
_symmetry_cell_setting 'monoclinic'
loop_
_space_group_symop_operation_xyz
x,y,z
-x,y,-z
-x,-y,-z
x,-y,z
1/2+x,1/2+y,z
1/2-x,1/2+y,-z
1/2-x,1/2-y,-z
1/2+x,1/2-y,z
loop_
_atom_site_type_symbol
_atom_site_label
_atom_site_fract_x
_atom_site_fract_y
_atom_site_fract_z
Si Si1 0.282458 0.155701 0.157470
Si Si2 0.643004 0.308931 0.807196
Si Si3 0.720760 0.665406 0.026518
Si Si4 0.916502 0.190579 0.327304
Si Si5 0.499637 0.148266 0.685945
Si Si6 0.354854 0.915831 0.506397
Si Si7 0.017071 0.415968 0.162088
O O1 0.358666 0.233287 0.149751
O O2 0.304129 0.145404 0.066272
O O3 0.381618 0.091919 0.156423
O O4 0.090902 0.149317 0.254859
O O5 0.474877 0.352330 0.894297
O O6 0.651283 0.293329 0.721828
O O7 0.800594 0.357906 0.762997
O O8 0.750000 0.750000 0.000000
O O9 0.807461 0.618237 0.931595
O O10 0.796579 0.138751 0.419701
O O11 0.938701 0.269200 0.355783
O O12 0.581287 0.093415 0.597891
O O13 0.552644 0.124555 0.741386
O O14 0.500000 0.894409 0.500000
O O15 0.298228 0.000000 0.540509
O O16 0.047094 0.500000 0.167511
#
# Coordination Sequence:
#
# PCOD8094453 Si02
#       7
#     8   8   8   8   8   8   8
#     4  10  21  37  61  90 121 159 202 253 306 355
#     4  10  19  37  63  93 115 153 212 261 295 348
#     4  11  21  37  63  89 120 162 212 255 295 355
#     4  10  20  39  66  93 118 154 210 257 301 367
#     4  11  22  41  64  89 124 161 207 256 305 364
#     4  11  23  40  63  91 122 160 202 255 318 367
#     4  12  25  40  58  90 131 168 202 246 313 373
#
# _framework density 19.713249000000001
#
# number of rings (size 3 to 8) (size 9 to 14) (size 15 to 20)
#    0.000    1.286    4.286    3.000    0.000    3.429 
#    0.000    5.000    0.000    1.714    0.000    0.000 
#    0.000    0.000    0.000    0.000    0.000    0.000 
#
# Total GULP energy -347303.614334 kJ/mol
# GULP energy per Si atom -12403.700512 kJ/mol
# Density = 1.966838 g / cm^3
# Si number density = 19.713249 Si / 1000 Ang^3
#
#
#
# Elastic Constant Matrix: (Units=GPa)
#
#
# Indices 1 2 3 4 5 6 
#
# 1 93.0572 25.6649 39.8485 0.0012 -1.2425 -0.0009
# 2 25.6649 90.4812 44.6112 0.0011 -13.3713 -0.0011
# 3 39.8485 44.6112 115.3602 0.0023 7.9006 -0.0022
# 4 0.0012 0.0011 0.0023 26.9170 -0.0017 -2.3770
# 5 -1.2425 -13.3713 7.9006 -0.0017 25.2498 0.0014
# 6 -0.0009 -0.0011 -0.0022 -2.3770 0.0014 21.9114
#
#
#
# Elastic Compliance Matrix: (Units=1/GPa)
#
#
# Indices 1 2 3 4 5 6 
#
# 1 0.012866 -0.001572 -0.003906 0.000000 0.001023 0.000000
# 2 -0.001572 0.016241 -0.006460 0.000001 0.010545 0.000000
# 3 -0.003906 -0.006460 0.013043 -0.000001 -0.007694 0.000001
# 4 0.000000 0.000001 -0.000001 0.037511 0.000003 0.004069
# 5 0.001023 0.010545 -0.007694 0.000003 0.047646 -0.000003
# 6 0.000000 0.000000 0.000001 0.004069 -0.000003 0.046080
#
#
# Mechanical properties :
#
#
# Convention : Reuss Voigt Hill
#
# Bulk Modulus (GPa) = 54.72418 57.68310 56.20364
# Shear Modulus (GPa) = 24.58761 27.40056 25.99408
#
# Velocity S-wave (km/s) = 3.53549 3.73226 3.63521
# Velocity P-wave (km/s) = 6.66983 6.92081 6.79648
#
# Compressibility (1/GPa) = 0.01827346
#
# Stress axis : x y z
#
# Youngs Moduli (GPa) = 77.72349 61.57192 76.67055
#
# Poissons Ratio (x) = 0.09681 0.29950
# Poissons Ratio (y) = 0.12221 0.49527
# Poissons Ratio (z) = 0.30361 0.39773
#
# Static dielectric constant tensor:
#      x y z
#    x 3.981720 0.000000 -0.215690 
#    y 0.000000 3.275600 0.000000 
#    z -0.215690 0.000000 3.811140 
# 
# 
# High freq. dielectric constant tensor:
#      x y z
#    x 1.777450 0.000000 0.001790 
#    y 0.000000 1.742600 0.000000 
#    z 0.001790 0.000000 1.773970 
# 
# From -- ./inp_files/264212.got.cif
#   From: 2010.06.25/outbox.cif.g09.slc.cpg/sg12_133_cif.got.tgz:264212.got - 2010.06.28 00:19:55.
