data_PCOD8094680
_publ_section_title
;
Structure prediction by ZEFSAII (Michael W. Deem and Ramdas Pophale) SiO2 
 PCOD8094680
Probable space group: C 2/M
;
_chemical_formula_sum "Si O2"
_cell_formula_units_Z 64
_cell_length_a 30.574938
_cell_length_b 8.879972
_cell_length_c 12.081030
_cell_angle_alpha 90.000000
_cell_angle_beta 88.574914
_cell_angle_gamma 90.000000
_cell_volume 3279.040606
_symmetry_space_group_name_H-M "C 2/M"
_symmetry_group_IT_number 12
_symmetry_cell_setting 'monoclinic'
loop_
_space_group_symop_operation_xyz
x,y,z
-x,y,-z
-x,-y,-z
x,-y,z
1/2+x,1/2+y,z
1/2-x,1/2+y,-z
1/2-x,1/2-y,-z
1/2+x,1/2-y,z
loop_
_atom_site_type_symbol
_atom_site_label
_atom_site_fract_x
_atom_site_fract_y
_atom_site_fract_z
Si Si1 0.203825 0.824660 0.002307
Si Si2 0.746803 0.178457 0.620910
Si Si3 0.170513 0.177831 0.767572
Si Si4 0.449756 0.665252 0.518592
Si Si5 0.005837 0.821305 0.126629
Si Si6 0.074017 0.178865 0.718430
Si Si7 0.422122 0.823876 0.732826
Si Si8 0.830468 0.177017 0.762185
O O1 0.178755 0.776962 0.893629
O O2 0.212246 0.000000 0.007961
O O3 0.250000 0.750000 0.000000
O O4 0.177056 0.771886 0.110992
O O5 0.750000 0.250000 0.500000
O O6 0.703480 0.237874 0.683984
O O7 0.789365 0.225906 0.689141
O O8 0.743475 0.000000 0.609879
O O9 0.121378 0.236449 0.752778
O O10 0.175369 0.000000 0.745963
O O11 0.500000 0.633945 0.500000
O O12 0.428098 0.500000 0.547002
O O13 0.430943 0.735999 0.406822
O O14 0.444340 0.785737 0.615210
O O15 0.051281 0.754256 0.169276
O O16 0.964447 0.757782 0.199494
O O17 0.009419 0.000000 0.136632
O O18 0.000000 0.770884 0.000000
O O19 0.071198 0.000000 0.722759
O O20 0.372945 0.765889 0.722044
O O21 0.422549 0.000000 0.754561
O O22 0.839041 0.000000 0.751189
#
# Coordination Sequence:
#
# PCOD8094680 Si02
#       8
#     8   8   8   8   8   8   8   8
#     4  10  20  37  63  89 118 152 197 252 299 355
#     4  11  24  42  62  86 121 160 202 249 300 359
#     4  10  21  37  61  92 122 153 195 246 300 356
#     4  10  19  38  65  87 115 154 203 251 292 353
#     4  10  21  40  67  91 119 161 208 248 289 356
#     4   9  19  36  60  91 118 151 197 244 292 346
#     4  12  26  40  59  90 127 159 198 253 311 358
#     4  10  23  42  63  87 118 162 209 246 292 359
#
# _framework density 19.517904000000001
#
# number of rings (size 3 to 8) (size 9 to 14) (size 15 to 20)
#    0.000    1.750    2.500    1.500    3.500    2.000 
#    0.000    0.625    0.000    0.000    0.000    0.000 
#    0.000    0.000    0.000    0.000    0.000    0.000 
#
# Total GULP energy -396794.562951 kJ/mol
# GULP energy per Si atom -12399.830092 kJ/mol
# Density = 1.947348 g / cm^3
# Si number density = 19.517904 Si / 1000 Ang^3
#
#
#
# Elastic Constant Matrix: (Units=GPa)
#
#
# Indices 1 2 3 4 5 6 
#
# 1 115.8384 27.2602 44.5207 0.0000 14.0867 0.0000
# 2 27.2602 41.1317 33.4320 0.0000 2.7919 0.0000
# 3 44.5207 33.4320 143.2229 0.0000 15.5024 0.0000
# 4 0.0000 0.0000 0.0000 29.5879 0.0000 -0.5708
# 5 14.0867 2.7919 15.5024 0.0000 36.2458 0.0000
# 6 0.0000 0.0000 0.0000 -0.5708 0.0000 29.1975
#
#
#
# Elastic Compliance Matrix: (Units=1/GPa)
#
#
# Indices 1 2 3 4 5 6 
#
# 1 0.011020 -0.005654 -0.001771 0.000000 -0.003090 0.000000
# 2 -0.005654 0.032924 -0.006177 0.000000 0.002303 0.000000
# 3 -0.001771 -0.006177 0.009278 0.000000 -0.002804 0.000000
# 4 0.000000 0.000000 0.000000 0.033810 0.000000 0.000661
# 5 -0.003090 0.002303 -0.002804 0.000000 0.029812 0.000000
# 6 0.000000 0.000000 0.000000 0.000661 0.000000 0.034262
#
#
# Mechanical properties :
#
#
# Convention : Reuss Voigt Hill
#
# Bulk Modulus (GPa) = 38.43638 56.73545 47.58591
# Shear Modulus (GPa) = 26.74033 32.00489 29.37261
#
# Velocity S-wave (km/s) = 3.70542 4.05380 3.88352
# Velocity P-wave (km/s) = 6.16786 7.14441 6.67402
#
# Compressibility (1/GPa) = 0.02601702
#
# Stress axis : x y z
#
# Youngs Moduli (GPa) = 90.74613 30.37323 107.78050
#
# Poissons Ratio (x) = 0.17173 0.19091
# Poissons Ratio (y) = 0.51308 0.66577
# Poissons Ratio (z) = 0.16074 0.18762
#
# Static dielectric constant tensor:
#      x y z
#    x 3.653460 0.000000 0.100960 
#    y 0.000000 3.304950 0.000000 
#    z 0.100960 0.000000 3.659990 
# 
# 
# High freq. dielectric constant tensor:
#      x y z
#    x 1.770110 0.000000 0.004340 
#    y 0.000000 1.733220 0.000000 
#    z 0.004340 0.000000 1.777100 
# 
# From -- ./inp_files/187392.got.cif
#   From: 2010.06.25/outbox.cif.g09.slc.cpg/sg12_94_cif.got.tgz:187392.got - 2010.06.28 00:19:55.
