data_PCOD8094211
_publ_section_title
;
Structure prediction by ZEFSAII (Michael W. Deem and Ramdas Pophale) SiO2 
 PCOD8094211
Probable space group: C 2/M
;
_chemical_formula_sum "Si O2"
_cell_formula_units_Z 52
_cell_length_a 19.052145
_cell_length_b 17.848542
_cell_length_c 14.990650
_cell_angle_alpha 90.000000
_cell_angle_beta 146.170291
_cell_angle_gamma 90.000000
_cell_volume 2837.977329
_symmetry_space_group_name_H-M "C 2/M"
_symmetry_group_IT_number 12
_symmetry_cell_setting 'monoclinic'
loop_
_space_group_symop_operation_xyz
x,y,z
-x,y,-z
-x,-y,-z
x,-y,z
1/2+x,1/2+y,z
1/2-x,1/2+y,-z
1/2-x,1/2-y,-z
1/2+x,1/2-y,z
loop_
_atom_site_type_symbol
_atom_site_label
_atom_site_fract_x
_atom_site_fract_y
_atom_site_fract_z
Si Si1 0.000000 0.780001 0.500000
Si Si2 0.940716 0.585965 0.032753
Si Si3 0.646947 0.585402 0.139232
Si Si4 0.413337 0.211246 0.720779
Si Si5 0.292633 0.793894 0.402823
Si Si6 0.293543 0.331091 0.161496
Si Si7 0.353531 0.683742 0.027563
O O1 0.100484 0.729321 0.553916
O O2 0.072316 0.832503 0.646897
O O3 0.957677 0.500000 0.077412
O O4 0.011763 0.636011 0.179699
O O5 0.793618 0.608228 0.880543
O O6 0.000000 0.603422 0.000000
O O7 0.694226 0.500000 0.194773
O O8 0.725135 0.631669 0.295150
O O9 0.500000 0.592986 0.000000
O O10 0.664176 0.615179 0.057639
O O11 0.350956 0.191234 0.561046
O O12 0.311465 0.228368 0.691352
O O13 0.505550 0.283242 0.812602
O O14 0.309244 0.350878 0.074424
O O15 0.236377 0.247891 0.107061
#
# Coordination Sequence:
#
# PCOD8094211 Si02
#       7
#     4   8   8   8   8   8   8
#     4  12  20  34  56  90 116 146 190 246 286 336
#     4  10  22  39  59  84 112 151 196 239 294 344
#     4  11  23  38  59  86 121 157 191 237 293 355
#     4  10  21  37  61  85 113 153 194 252 283 340
#     4  11  22  36  58  89 118 150 199 237 293 341
#     4  10  21  34  60  85 115 147 191 245 284 339
#     4  10  19  37  58  86 111 150 201 237 282 338
#
# _framework density 18.322908999999999
#
# number of rings (size 3 to 8) (size 9 to 14) (size 15 to 20)
#    0.000    1.538    4.615    0.923    2.154    1.231 
#    0.000    0.769    0.000    0.923    0.000    0.000 
#    0.000    0.000    0.000    0.000    0.000    0.000 
#
# Total GULP energy -322379.731883 kJ/mol
# GULP energy per Si atom -12399.220457 kJ/mol
# Density = 1.828121 g / cm^3
# Si number density = 18.322909 Si / 1000 Ang^3
#
#
#
# Elastic Constant Matrix: (Units=GPa)
#
#
# Indices 1 2 3 4 5 6 
#
# 1 118.4147 51.2026 33.6256 0.0000 7.6133 0.0000
# 2 51.2026 76.2758 53.3689 0.0000 -18.9361 0.0000
# 3 33.6256 53.3689 110.1899 0.0000 0.2124 0.0000
# 4 0.0000 0.0000 0.0000 18.9265 0.0000 3.4162
# 5 7.6133 -18.9361 0.2124 0.0000 18.1802 0.0000
# 6 0.0000 0.0000 0.0000 3.4162 0.0000 13.1110
#
#
#
# Elastic Compliance Matrix: (Units=1/GPa)
#
#
# Indices 1 2 3 4 5 6 
#
# 1 0.022284 -0.031298 0.008440 0.000000 -0.042030 0.000000
# 2 -0.031298 0.076758 -0.027806 0.000000 0.093382 0.000000
# 3 0.008440 -0.027806 0.020030 0.000000 -0.032730 0.000000
# 4 0.000000 0.000000 0.000000 0.055443 0.000000 -0.014446
# 5 -0.042030 0.093382 -0.032730 0.000000 0.170253 0.000000
# 6 0.000000 0.000000 0.000000 -0.014446 0.000000 0.080036
#
#
# Mechanical properties :
#
#
# Convention : Reuss Voigt Hill
#
# Bulk Modulus (GPa) = 56.35786 64.58604 60.47195
# Shear Modulus (GPa) = 9.39765 21.15578 15.27671
#
# Velocity S-wave (km/s) = 2.26717 3.40164 2.89060
# Velocity P-wave (km/s) = 6.13826 7.12415 6.64950
#
# Compressibility (1/GPa) = 0.01774376
#
# Stress axis : x y z
#
# Youngs Moduli (GPa) = 44.87521 13.02789 49.92464
#
# Poissons Ratio (x) = 0.40775 -0.42135
# Poissons Ratio (y) = 1.40452 1.38819
# Poissons Ratio (z) = -0.37873 0.36225
#
# Static dielectric constant tensor:
#      x y z
#    x 3.576560 0.000000 0.119570 
#    y 0.000000 3.146230 0.000000 
#    z 0.119570 0.000000 3.548280 
# 
# 
# High freq. dielectric constant tensor:
#      x y z
#    x 1.727930 0.000000 0.000530 
#    y 0.000000 1.680800 0.000000 
#    z 0.000530 0.000000 1.721270 
# 
# From -- ./inp_files/227430.got.cif
#   From: 2010.06.25/outbox.cif.g09.slc.cpg/sg12_114_cif.got.tgz:227430.got - 2010.06.28 00:19:55.
