data_PCOD8094552
_publ_section_title
;
Structure prediction by ZEFSAII (Michael W. Deem and Ramdas Pophale) SiO2 
 PCOD8094552
Probable space group: C 2/M
;
_chemical_formula_sum "Si O2"
_cell_formula_units_Z 40
_cell_length_a 13.834066
_cell_length_b 20.563748
_cell_length_c 13.656594
_cell_angle_alpha 90.000000
_cell_angle_beta 148.771959
_cell_angle_gamma 90.000000
_cell_volume 2014.177230
_symmetry_space_group_name_H-M "C 2/M"
_symmetry_group_IT_number 12
_symmetry_cell_setting 'monoclinic'
loop_
_space_group_symop_operation_xyz
x,y,z
-x,y,-z
-x,-y,-z
x,-y,z
1/2+x,1/2+y,z
1/2-x,1/2+y,-z
1/2-x,1/2-y,-z
1/2+x,1/2-y,z
loop_
_atom_site_type_symbol
_atom_site_label
_atom_site_fract_x
_atom_site_fract_y
_atom_site_fract_z
Si Si1 0.097691 0.698574 0.983111
Si Si2 0.485179 0.573390 0.101955
Si Si3 0.403460 0.075173 0.136738
Si Si4 0.498069 0.262379 0.692933
Si Si5 0.214738 0.356828 0.515938
O O1 0.081287 0.621696 0.944385
O O2 0.017102 0.741890 0.824507
O O3 0.311034 0.715481 0.188465
O O4 0.000000 0.715386 0.000000
O O5 0.514690 0.500000 0.163762
O O6 0.656370 0.615983 0.287321
O O7 0.500000 0.579213 0.000000
O O8 0.282537 0.597172 0.964480
O O9 0.589782 0.085209 0.362898
O O10 0.393289 0.000000 0.095398
O O11 0.351923 0.321993 0.555642
O O12 0.424422 0.200212 0.567415
#
# Coordination Sequence:
#
# PCOD8094552 Si02
#       5
#     8   8   8   8   8
#     4  10  20  39  62  85 119 151 195 242 283 346
#     4  10  21  37  58  85 118 156 195 238 287 341
#     4  10  21  38  60  86 118 155 194 239 291 341
#     4   9  20  38  57  87 116 153 192 235 294 339
#     4  10  19  38  59  83 120 151 193 239 288 344
#
# _framework density 19.859226
#
# number of rings (size 3 to 8) (size 9 to 14) (size 15 to 20)
#    0.000    2.200    2.000    0.600    0.000    2.000 
#    3.600   11.000    0.000    1.200    0.000    0.000 
#    0.000    0.000    0.000    0.000    0.000    0.000 
#
# Total GULP energy -247873.158022 kJ/mol
# GULP energy per Si atom -12393.657901 kJ/mol
# Density = 1.981403 g / cm^3
# Si number density = 19.859226 Si / 1000 Ang^3
#
#
#
# Elastic Constant Matrix: (Units=GPa)
#
#
# Indices 1 2 3 4 5 6 
#
# 1 85.0488 27.4067 29.4455 0.0000 12.3791 0.0000
# 2 27.4067 84.5493 53.7758 0.0000 3.1048 0.0000
# 3 29.4455 53.7758 129.5977 0.0000 25.9724 0.0000
# 4 0.0000 0.0000 0.0000 42.2565 0.0000 2.2554
# 5 12.3791 3.1048 25.9724 0.0000 21.3529 0.0000
# 6 0.0000 0.0000 0.0000 2.2554 0.0000 20.0703
#
#
#
# Elastic Compliance Matrix: (Units=1/GPa)
#
#
# Indices 1 2 3 4 5 6 
#
# 1 0.014272 -0.004450 0.000175 0.000000 -0.007840 0.000000
# 2 -0.004450 0.018455 -0.008762 0.000000 0.010554 0.000000
# 3 0.000175 -0.008762 0.014648 0.000000 -0.016644 0.000000
# 4 0.000000 0.000000 0.000000 0.023808 0.000000 -0.002675
# 5 -0.007840 0.010554 -0.016644 0.000000 0.070087 0.000000
# 6 0.000000 0.000000 0.000000 -0.002675 0.000000 0.050125
#
#
# Mechanical properties :
#
#
# Convention : Reuss Voigt Hill
#
# Bulk Modulus (GPa) = 46.94471 57.82798 52.38635
# Shear Modulus (GPa) = 22.26478 29.30713 25.78596
#
# Velocity S-wave (km/s) = 3.35196 3.84571 3.60729
# Velocity P-wave (km/s) = 6.21859 6.99296 6.61711
#
# Compressibility (1/GPa) = 0.02130165
#
# Stress axis : x y z
#
# Youngs Moduli (GPa) = 70.06503 54.18583 68.26989
#
# Poissons Ratio (x) = 0.24111 -0.01193
# Poissons Ratio (y) = 0.31177 0.59817
# Poissons Ratio (z) = -0.01224 0.47477
#
# Static dielectric constant tensor:
#      x y z
#    x 3.190630 0.000000 0.316130 
#    y 0.000000 3.872330 0.000000 
#    z 0.316130 0.000000 3.830280 
# 
# 
# High freq. dielectric constant tensor:
#      x y z
#    x 1.733600 0.000000 0.028290 
#    y 0.000000 1.786180 0.000000 
#    z 0.028290 0.000000 1.791640 
# 
# From -- ./inp_files/217488.got.cif
#   From: 2010.06.25/outbox.cif.g09.slc.cpg/sg12_109_cif.got.tgz:217488.got - 2010.06.28 00:19:55.
