data_PCOD8094340
_publ_section_title
;
Structure prediction by ZEFSAII (Michael W. Deem and Ramdas Pophale) SiO2 
 PCOD8094340
Probable space group: C 2/M
;
_chemical_formula_sum "Si O2"
_cell_formula_units_Z 64
_cell_length_a 30.675616
_cell_length_b 13.056617
_cell_length_c 21.999341
_cell_angle_alpha 90.000000
_cell_angle_beta 19.765388
_cell_angle_gamma 90.000000
_cell_volume 2979.669098
_symmetry_space_group_name_H-M "C 2/M"
_symmetry_group_IT_number 12
_symmetry_cell_setting 'monoclinic'
loop_
_space_group_symop_operation_xyz
x,y,z
-x,y,-z
-x,-y,-z
x,-y,z
1/2+x,1/2+y,z
1/2-x,1/2+y,-z
1/2-x,1/2-y,-z
1/2+x,1/2-y,z
loop_
_atom_site_type_symbol
_atom_site_label
_atom_site_fract_x
_atom_site_fract_y
_atom_site_fract_z
Si Si1 0.600541 0.115171 0.566005
Si Si2 0.574444 0.800541 0.726369
Si Si3 0.718459 0.805906 0.853634
Si Si4 0.656028 0.311977 0.429561
Si Si5 0.695803 0.383489 0.508511
Si Si6 0.647072 0.117399 0.287074
Si Si7 0.178492 0.379716 0.110059
Si Si8 0.384600 0.379640 0.745868
O O1 0.629997 0.129900 0.598442
O O2 0.678366 0.193925 0.421369
O O3 0.449998 0.141704 0.758877
O O4 0.634107 0.000000 0.500405
O O5 0.591132 0.681438 0.684940
O O6 0.663147 0.832148 0.667108
O O7 0.427403 0.824431 0.934984
O O8 0.736002 0.846114 0.761315
O O9 0.757636 0.685719 0.797383
O O10 0.816318 0.863367 0.770518
O O11 0.663047 0.382909 0.479849
O O12 0.520353 0.322747 0.572485
O O13 0.690432 0.500000 0.538481
O O14 0.500000 0.130430 0.500000
O O15 0.665436 0.164819 0.195241
O O16 0.690634 0.000000 0.235450
O O17 0.200529 0.500000 0.088208
O O18 0.297725 0.332809 0.915275
O O19 0.405256 0.500000 0.727655
#
# Coordination Sequence:
#
# PCOD8094340 Si02
#       8
#     8   8   8   8   8   8   8   8
#     4  10  19  37  61  88 119 157 202 251 301 356
#     4  10  23  41  68  94 118 155 205 257 306 365
#     4  12  24  39  60  93 127 161 204 250 305 365
#     4  11  25  39  60  91 125 166 203 248 304 366
#     4  10  23  46  68  90 119 157 204 257 309 360
#     4  10  21  36  55  87 132 173 203 242 303 369
#     4   9  18  31  54  83 114 159 206 241 287 352
#     4  11  23  38  57  87 127 167 206 250 300 360
#
# _framework density 21.478895999999999
#
# number of rings (size 3 to 8) (size 9 to 14) (size 15 to 20)
#    0.000    1.625    1.250    3.375    3.500    5.500 
#    0.000    0.625    0.000    0.000    0.000    6.125 
#    0.000    0.000    0.000    0.000    0.000    0.000 
#
# Total GULP energy -396798.974238 kJ/mol
# GULP energy per Si atom -12399.967945 kJ/mol
# Density = 2.143001 g / cm^3
# Si number density = 21.478896 Si / 1000 Ang^3
#
#
#
# Elastic Constant Matrix: (Units=GPa)
#
#
# Indices 1 2 3 4 5 6 
#
# 1 89.9494 12.6066 43.6844 0.0001 7.2055 -0.0001
# 2 12.6066 82.3310 9.9214 0.0001 6.8037 -0.0001
# 3 43.6844 9.9214 70.8084 0.0001 15.1185 -0.0001
# 4 0.0001 0.0001 0.0001 19.6400 -0.0001 -1.8272
# 5 7.2055 6.8037 15.1185 -0.0001 37.9914 0.0001
# 6 -0.0001 -0.0001 -0.0001 -1.8272 0.0001 19.6052
#
#
#
# Elastic Compliance Matrix: (Units=1/GPa)
#
#
# Indices 1 2 3 4 5 6 
#
# 1 0.016052 -0.001353 -0.009961 0.000000 0.001162 0.000000
# 2 -0.001353 0.012566 -0.000546 0.000000 -0.001776 0.000000
# 3 -0.009961 -0.000546 0.021770 0.000000 -0.006676 0.000000
# 4 0.000000 0.000000 0.000000 0.051362 0.000000 0.004787
# 5 0.001162 -0.001776 -0.006676 0.000000 0.029076 0.000000
# 6 0.000000 0.000000 0.000000 0.004787 0.000000 0.051453
#
#
# Mechanical properties :
#
#
# Convention : Reuss Voigt Hill
#
# Bulk Modulus (GPa) = 37.50197 41.72375 39.61286
# Shear Modulus (GPa) = 23.26767 27.23906 25.25336
#
# Velocity S-wave (km/s) = 3.29489 3.56501 3.43261
# Velocity P-wave (km/s) = 5.65446 6.03435 5.84749
#
# Compressibility (1/GPa) = 0.02666527
#
# Stress axis : x y z
#
# Youngs Moduli (GPa) = 62.29832 79.58000 45.93426
#
# Poissons Ratio (x) = 0.10771 0.45757
# Poissons Ratio (y) = 0.08432 0.02510
# Poissons Ratio (z) = 0.62058 0.04349
#
# Static dielectric constant tensor:
#      x y z
#    x 3.896200 0.000000 0.173770 
#    y 0.000000 3.949650 0.000000 
#    z 0.173770 0.000000 3.679160 
# 
# 
# High freq. dielectric constant tensor:
#      x y z
#    x 1.840900 0.000000 0.014090 
#    y 0.000000 1.858030 0.000000 
#    z 0.014090 0.000000 1.816890 
# 
# From -- ./inp_files/330355.got.cif
#   From: 2010.06.25/outbox.cif.g09.slc.cpg/sg12_166_cif.got.tgz:330355.got - 2010.06.28 00:19:55.
