data_PCOD8094373
_publ_section_title
;
Structure prediction by ZEFSAII (Michael W. Deem and Ramdas Pophale) SiO2 
 PCOD8094373
Probable space group: C 2/M
;
_chemical_formula_sum "Si O2"
_cell_formula_units_Z 48
_cell_length_a 13.719400
_cell_length_b 18.844292
_cell_length_c 10.313128
_cell_angle_alpha 90.000000
_cell_angle_beta 72.230162
_cell_angle_gamma 90.000000
_cell_volume 2539.069921
_symmetry_space_group_name_H-M "C 2/M"
_symmetry_group_IT_number 12
_symmetry_cell_setting 'monoclinic'
loop_
_space_group_symop_operation_xyz
x,y,z
-x,y,-z
-x,-y,-z
x,-y,z
1/2+x,1/2+y,z
1/2-x,1/2+y,-z
1/2-x,1/2-y,-z
1/2+x,1/2-y,z
loop_
_atom_site_type_symbol
_atom_site_label
_atom_site_fract_x
_atom_site_fract_y
_atom_site_fract_z
Si Si1 0.826788 0.306721 0.032575
Si Si2 0.800232 0.079156 0.487819
Si Si3 0.682443 0.416601 0.219808
Si Si4 0.027603 0.303605 0.795818
Si Si5 0.925548 0.580724 0.420721
Si Si6 0.514883 0.337245 0.647144
O O1 0.763131 0.377428 0.093188
O O2 0.887174 0.277333 0.135009
O O3 0.750000 0.250000 0.000000
O O4 0.916984 0.325304 0.896386
O O5 0.788833 0.099556 0.643506
O O6 0.687845 0.084846 0.472125
O O7 0.872982 0.129807 0.374065
O O8 0.845996 0.000000 0.459376
O O9 0.683557 0.500000 0.185787
O O10 0.569262 0.384100 0.242729
O O11 0.068727 0.374110 0.711672
O O12 0.011793 0.242411 0.697499
O O13 0.954171 0.500000 0.372088
O O14 0.000000 0.611748 0.500000
O O15 0.500000 0.339338 0.500000
#
# Coordination Sequence:
#
# PCOD8094373 Si02
#       6
#     8   8   8   8   8   8
#     4  11  23  40  58  81 117 155 198 246 283 334
#     4   9  18  34  56  86 119 148 187 239 290 344
#     4  10  19  37  62  86 113 150 194 241 287 344
#     4  11  23  37  59  84 115 157 196 239 294 345
#     4  10  21  37  56  85 122 154 190 240 293 349
#     4  10  20  35  59  92 116 146 190 238 300 356
#
# _framework density 18.90456
#
# number of rings (size 3 to 8) (size 9 to 14) (size 15 to 20)
#    0.000    1.833    3.333    1.000    0.000    4.667 
#    0.000    1.667    0.000    3.000    0.000    0.000 
#    0.000    0.000    0.000    0.000    0.000    0.000 
#
# Total GULP energy -297536.088114 kJ/mol
# GULP energy per Si atom -12397.337005 kJ/mol
# Density = 1.886153 g / cm^3
# Si number density = 18.904560 Si / 1000 Ang^3
#
#
#
# Elastic Constant Matrix: (Units=GPa)
#
#
# Indices 1 2 3 4 5 6 
#
# 1 112.7340 42.3958 38.0678 0.0000 -17.3497 0.0000
# 2 42.3958 106.1311 48.7386 0.0000 -19.3582 0.0000
# 3 38.0678 48.7386 73.5937 0.0000 -25.4804 0.0000
# 4 0.0000 0.0000 0.0000 32.3527 0.0000 -8.0038
# 5 -17.3497 -19.3582 -25.4804 0.0000 29.7473 0.0000
# 6 0.0000 0.0000 0.0000 -8.0038 0.0000 28.2419
#
#
#
# Elastic Compliance Matrix: (Units=1/GPa)
#
#
# Indices 1 2 3 4 5 6 
#
# 1 0.011309 -0.002566 -0.003476 0.000000 0.001949 0.000000
# 2 -0.002566 0.014177 -0.007656 0.000000 0.001171 0.000000
# 3 -0.003476 -0.007656 0.025631 0.000000 0.014945 0.000000
# 4 0.000000 0.000000 0.000000 0.033240 0.000000 0.009420
# 5 0.001949 0.001171 0.014945 0.000000 0.048317 0.000000
# 6 0.000000 0.000000 0.000000 0.009420 0.000000 0.038078
#
#
# Mechanical properties :
#
#
# Convention : Reuss Voigt Hill
#
# Bulk Modulus (GPa) = 42.15640 61.20703 51.68172
# Shear Modulus (GPa) = 24.26554 28.95215 26.60884
#
# Velocity S-wave (km/s) = 3.58660 3.91767 3.75578
# Velocity P-wave (km/s) = 6.28487 7.27402 6.79746
#
# Compressibility (1/GPa) = 0.02372119
#
# Stress axis : x y z
#
# Youngs Moduli (GPa) = 88.42504 70.53756 39.01569
#
# Poissons Ratio (x) = 0.18100 0.13561
# Poissons Ratio (y) = 0.22689 0.29871
# Poissons Ratio (z) = 0.30734 0.54004
#
# Static dielectric constant tensor:
#      x y z
#    x 3.717970 0.000000 -0.196410 
#    y 0.000000 3.352300 0.000000 
#    z -0.196410 0.000000 3.327280 
# 
# 
# High freq. dielectric constant tensor:
#      x y z
#    x 1.749110 0.000000 -0.019460 
#    y 0.000000 1.731390 0.000000 
#    z -0.019460 0.000000 1.714310 
# 
# From -- ./inp_files/131670.got.cif
#   From: 2010.06.25/outbox.cif.g09.slc.cpg/sg12_66_cif.got.tgz:131670.got - 2010.06.28 00:19:55.
