data_PCOD8094198
_publ_section_title
;
Structure prediction by ZEFSAII (Michael W. Deem and Ramdas Pophale) SiO2 
 PCOD8094198
Probable space group: C 2/M
;
_chemical_formula_sum "Si O2"
_cell_formula_units_Z 48
_cell_length_a 9.747940
_cell_length_b 15.602616
_cell_length_c 20.610375
_cell_angle_alpha 90.000000
_cell_angle_beta 127.397045
_cell_angle_gamma 90.000000
_cell_volume 2490.350719
_symmetry_space_group_name_H-M "C 2/M"
_symmetry_group_IT_number 12
_symmetry_cell_setting 'monoclinic'
loop_
_space_group_symop_operation_xyz
x,y,z
-x,y,-z
-x,-y,-z
x,-y,z
1/2+x,1/2+y,z
1/2-x,1/2+y,-z
1/2-x,1/2-y,-z
1/2+x,1/2-y,z
loop_
_atom_site_type_symbol
_atom_site_label
_atom_site_fract_x
_atom_site_fract_y
_atom_site_fract_z
Si Si1 0.451472 0.595478 0.057098
Si Si2 0.781116 0.402960 0.594828
Si Si3 0.625182 0.739880 0.188573
Si Si4 0.385792 0.173021 0.031389
Si Si5 0.982114 0.752693 0.700154
Si Si6 0.458408 0.597064 0.593446
O O1 0.524398 0.500000 0.086386
O O2 0.542696 0.652700 0.137635
O O3 0.500000 0.632364 0.000000
O O4 0.241166 0.591106 0.004251
O O5 0.854108 0.500000 0.622343
O O6 0.933476 0.334235 0.647746
O O7 0.701498 0.389546 0.500893
O O8 0.636503 0.386262 0.607381
O O9 0.517861 0.821703 0.130078
O O10 0.630291 0.739524 0.267378
O O11 0.820505 0.748581 0.220714
O O12 0.500000 0.177146 0.000000
O O13 0.250000 0.250000 0.000000
O O14 0.939277 0.836462 0.646101
O O15 0.455470 0.500000 0.620310
#
# Coordination Sequence:
#
# PCOD8094198 Si02
#       6
#     8   8   8   8   8   8
#     4  10  21  39  59  79 110 154 195 234 286 348
#     4   9  19  38  61  82 112 157 203 235 277 349
#     4  11  22  34  56  84 117 145 182 240 298 341
#     4  10  19  37  58  78 104 145 192 229 274 341
#     4  12  21  36  57  91 120 150 190 239 301 351
#     4   9  19  38  60  82 114 157 198 238 281 344
#
# _framework density 19.274394000000001
#
# number of rings (size 3 to 8) (size 9 to 14) (size 15 to 20)
#    0.000    1.833    1.667    6.500    0.000    1.667 
#    0.000    1.667    0.000    2.000    0.000    0.000 
#    0.000    0.000    0.000    0.000    0.000    0.000 
#
# Total GULP energy -297525.528733 kJ/mol
# GULP energy per Si atom -12396.897031 kJ/mol
# Density = 1.923052 g / cm^3
# Si number density = 19.274394 Si / 1000 Ang^3
#
#
#
# Elastic Constant Matrix: (Units=GPa)
#
#
# Indices 1 2 3 4 5 6 
#
# 1 82.4618 17.7739 23.9668 0.0000 -4.4742 0.0000
# 2 17.7739 104.1077 52.5382 0.0000 -2.4191 0.0000
# 3 23.9668 52.5382 95.6876 0.0000 -1.7967 0.0000
# 4 0.0000 0.0000 0.0000 24.6623 0.0000 0.2024
# 5 -4.4742 -2.4191 -1.7967 0.0000 35.8842 0.0000
# 6 0.0000 0.0000 0.0000 0.2024 0.0000 18.8564
#
#
#
# Elastic Compliance Matrix: (Units=1/GPa)
#
#
# Indices 1 2 3 4 5 6 
#
# 1 0.013202 -0.000782 -0.002850 0.000000 0.001451 0.000000
# 2 -0.000782 0.013343 -0.007122 0.000000 0.000445 0.000000
# 3 -0.002850 -0.007122 0.015074 0.000000 -0.000081 0.000000
# 4 0.000000 0.000000 0.000000 0.040551 0.000000 -0.000435
# 5 0.001451 0.000445 -0.000081 0.000000 0.028074 0.000000
# 6 0.000000 0.000000 0.000000 -0.000435 0.000000 0.053037
#
#
# Mechanical properties :
#
#
# Convention : Reuss Voigt Hill
#
# Bulk Modulus (GPa) = 49.72437 52.31276 51.01856
# Shear Modulus (GPa) = 26.11042 28.41246 27.26144
#
# Velocity S-wave (km/s) = 3.68458 3.84357 3.76491
# Velocity P-wave (km/s) = 6.62990 6.84817 6.73992
#
# Compressibility (1/GPa) = 0.02011086
#
# Stress axis : x y z
#
# Youngs Moduli (GPa) = 75.74335 74.94286 66.34137
#
# Poissons Ratio (x) = 0.05860 0.18909
# Poissons Ratio (y) = 0.05922 0.47249
# Poissons Ratio (z) = 0.21589 0.53376
#
# Static dielectric constant tensor:
#      x y z
#    x 3.642110 0.000000 0.176330 
#    y 0.000000 3.627760 0.000000 
#    z 0.176330 0.000000 3.544550 
# 
# 
# High freq. dielectric constant tensor:
#      x y z
#    x 1.746600 0.000000 0.001870 
#    y 0.000000 1.743950 0.000000 
#    z 0.001870 0.000000 1.751050 
# 
# From -- ./inp_files/300493.got.cif
#   From: 2010.06.25/outbox.cif.g09.slc.cpg/sg12_151_cif.got.tgz:300493.got - 2010.06.28 00:19:55.
