data_PCOD8094774
_publ_section_title
;
Structure prediction by ZEFSAII (Michael W. Deem and Ramdas Pophale) SiO2 
 PCOD8094774
Probable space group: C 2/M
;
_chemical_formula_sum "Si O2"
_cell_formula_units_Z 64
_cell_length_a 26.209937
_cell_length_b 29.499668
_cell_length_c 9.580746
_cell_angle_alpha 90.000000
_cell_angle_beta 152.956070
_cell_angle_gamma 90.000000
_cell_volume 3368.077648
_symmetry_space_group_name_H-M "C 2/M"
_symmetry_group_IT_number 12
_symmetry_cell_setting 'monoclinic'
loop_
_space_group_symop_operation_xyz
x,y,z
-x,y,-z
-x,-y,-z
x,-y,z
1/2+x,1/2+y,z
1/2-x,1/2+y,-z
1/2-x,1/2-y,-z
1/2+x,1/2-y,z
loop_
_atom_site_type_symbol
_atom_site_label
_atom_site_fract_x
_atom_site_fract_y
_atom_site_fract_z
Si Si1 0.892141 0.448414 0.826696
Si Si2 0.000335 0.839621 0.161464
Si Si3 0.046613 0.599294 0.757059
Si Si4 0.655317 0.834015 0.665285
Si Si5 0.249545 0.866377 0.393841
Si Si6 0.800103 0.710773 0.718362
Si Si7 0.768136 0.150726 0.220540
Si Si8 0.019281 0.749886 0.380787
O O1 0.851637 0.500000 0.711011
O O2 0.789757 0.417350 0.523553
O O3 0.934891 0.440602 0.088206
O O4 0.000000 0.436540 0.000000
O O5 0.026452 0.799497 0.334008
O O6 0.108939 0.872371 0.452687
O O7 0.885084 0.864777 0.917837
O O8 0.000000 0.822698 0.000000
O O9 0.000000 0.577548 0.500000
O O10 0.958622 0.637707 0.589874
O O11 0.168889 0.620582 0.038639
O O12 0.716655 0.848692 0.674942
O O13 0.627822 0.780430 0.606262
O O14 0.748958 0.841802 0.010955
O O15 0.312440 0.834351 0.656249
O O16 0.750000 0.750000 0.500000
O O17 0.726993 0.698110 0.677718
O O18 0.920179 0.724522 0.062338
O O19 0.000000 0.751998 0.500000
#
# Coordination Sequence:
#
# PCOD8094774 Si02
#       8
#     8   8   8   8   8   8   8   8
#     4  11  22  40  65  97 126 150 195 261 318 373
#     4  12  26  40  55  82 122 163 213 254 292 355
#     4  10  19  39  64  90 120 156 194 245 315 364
#     4  11  23  37  62  85 121 162 202 257 306 366
#     4  12  25  40  62  89 120 165 206 247 317 368
#     4  12  22  39  58  84 120 161 211 249 299 360
#     4  11  22  40  59  82 123 168 203 251 301 359
#     4  12  24  38  57  86 121 164 211 258 308 353
#
# _framework density 19.001937999999999
#
# number of rings (size 3 to 8) (size 9 to 14) (size 15 to 20)
#    0.000    0.625    7.500    0.375    5.250    0.750 
#    0.000    0.000    0.000    3.375    0.000    0.875 
#    0.000    0.000    0.000    0.000    0.000    0.000 
#
# Total GULP energy -396600.567555 kJ/mol
# GULP energy per Si atom -12393.767736 kJ/mol
# Density = 1.895869 g / cm^3
# Si number density = 19.001938 Si / 1000 Ang^3
#
#
#
# Elastic Constant Matrix: (Units=GPa)
#
#
# Indices 1 2 3 4 5 6 
#
# 1 126.5987 35.7381 67.2953 0.0000 -8.9291 0.0000
# 2 35.7381 72.4311 38.0395 0.0000 2.5253 0.0000
# 3 67.2953 38.0395 138.8304 0.0000 1.9937 0.0000
# 4 0.0000 0.0000 0.0000 4.7575 0.0000 2.9195
# 5 -8.9291 2.5253 1.9937 0.0000 36.0397 0.0000
# 6 0.0000 0.0000 0.0000 2.9195 0.0000 16.7182
#
#
#
# Elastic Compliance Matrix: (Units=1/GPa)
#
#
# Indices 1 2 3 4 5 6 
#
# 1 0.011612 -0.003347 -0.004760 0.000000 0.003375 0.000000
# 2 -0.003347 0.017120 -0.003042 0.000000 -0.001861 0.000000
# 3 -0.004760 -0.003042 0.010366 0.000000 -0.001540 0.000000
# 4 0.000000 0.000000 0.000000 0.235424 0.000000 -0.041112
# 5 0.003375 -0.001861 -0.001540 0.000000 0.028799 0.000000
# 6 0.000000 0.000000 0.000000 -0.041112 0.000000 0.066994
#
#
# Mechanical properties :
#
#
# Convention : Reuss Voigt Hill
#
# Bulk Modulus (GPa) = 59.52329 68.88954 64.20642
# Shear Modulus (GPa) = 12.55606 24.62223 18.58914
#
# Velocity S-wave (km/s) = 2.57335 3.60359 3.13113
# Velocity P-wave (km/s) = 6.34211 7.32442 6.85089
#
# Compressibility (1/GPa) = 0.01680015
#
# Stress axis : x y z
#
# Youngs Moduli (GPa) = 86.11599 58.41083 96.46988
#
# Poissons Ratio (x) = 0.19552 0.45921
# Poissons Ratio (y) = 0.28826 0.29343
# Poissons Ratio (z) = 0.40992 0.17766
#
# Static dielectric constant tensor:
#      x y z
#    x 3.549940 0.000000 0.398860 
#    y 0.000000 3.100730 0.000000 
#    z 0.398860 0.000000 3.056770 
# 
# 
# High freq. dielectric constant tensor:
#      x y z
#    x 1.757420 0.000000 -0.011310 
#    y 0.000000 1.688740 0.000000 
#    z -0.011310 0.000000 1.759960 
# 
# From -- ./inp_files/100259.got.cif
#   From: 2010.06.25/outbox.cif.g09.slc.cpg/sg12_51_cif.got.tgz:100259.got - 2010.06.28 00:19:55.
