data_PCOD8094974
_publ_section_title
;
Structure prediction by ZEFSAII (Michael W. Deem and Ramdas Pophale) SiO2 
 PCOD8094974
Probable space group: C 2/M
;
_chemical_formula_sum "Si O2"
_cell_formula_units_Z 64
_cell_length_a 25.788248
_cell_length_b 8.897942
_cell_length_c 21.235269
_cell_angle_alpha 90.000000
_cell_angle_beta 126.466629
_cell_angle_gamma 90.000000
_cell_volume 3918.636286
_symmetry_space_group_name_H-M "C 2/M"
_symmetry_group_IT_number 12
_symmetry_cell_setting 'monoclinic'
loop_
_space_group_symop_operation_xyz
x,y,z
-x,y,-z
-x,-y,-z
x,-y,z
1/2+x,1/2+y,z
1/2-x,1/2+y,-z
1/2-x,1/2-y,-z
1/2+x,1/2-y,z
loop_
_atom_site_type_symbol
_atom_site_label
_atom_site_fract_x
_atom_site_fract_y
_atom_site_fract_z
Si Si1 0.058647 0.822452 0.315122
Si Si2 0.473609 0.823154 0.835579
Si Si3 0.099541 0.322072 0.585418
Si Si4 0.864778 0.177121 0.840305
Si Si5 0.556595 0.666515 0.990099
Si Si6 0.986562 0.322057 0.591894
Si Si7 0.741802 0.822341 0.680324
Si Si8 0.706325 0.677955 0.415501
O O1 0.022283 0.747934 0.230280
O O2 0.021840 0.769023 0.350469
O O3 0.132817 0.768792 0.371392
O O4 0.053870 0.000000 0.304646
O O5 0.410479 0.764114 0.825216
O O6 0.538824 0.778782 0.920772
O O7 0.470198 0.000000 0.827357
O O8 0.101730 0.500000 0.587685
O O9 0.069482 0.271950 0.497002
O O10 0.171333 0.252121 0.643918
O O11 0.055032 0.270679 0.611559
O O12 0.791068 0.222469 0.771866
O O13 0.877009 0.000000 0.837532
O O14 0.880074 0.219291 0.924430
O O15 0.567110 0.500000 0.969178
O O16 0.500000 0.662799 0.000000
O O17 0.984250 0.500000 0.603389
O O18 0.768952 0.760863 0.633848
O O19 0.735476 0.000000 0.671009
O O20 0.712164 0.500000 0.424398
O O21 0.750000 0.750000 0.500000
#
# Coordination Sequence:
#
# PCOD8094974 Si02
#       8
#     8   8   8   8   8   8   8   8
#     4  11  21  33  47  66  93 126 157 190 231 277
#     4  11  20  29  44  66  93 123 154 192 229 271
#     4   8  15  28  49  71  92 119 154 197 237 271
#     4   9  16  29  46  65  93 125 156 187 225 277
#     4   8  15  27  44  63  88 123 154 184 224 275
#     4   9  17  31  49  70  92 119 158 199 235 270
#     4   9  15  27  46  67  91 122 155 187 224 272
#     4  10  20  31  45  64  91 122 155 187 223 272
#
# _framework density 16.332212999999999
#
# number of rings (size 3 to 8) (size 9 to 14) (size 15 to 20)
#    0.000    2.625    1.250    3.750    0.000    4.250 
#    0.000    1.250    0.000    1.500    0.000    0.875 
#    0.000    0.000    0.000    0.000    0.000    0.000 
#
# Total GULP energy -396653.281043 kJ/mol
# GULP energy per Si atom -12395.415033 kJ/mol
# Density = 1.629504 g / cm^3
# Si number density = 16.332213 Si / 1000 Ang^3
#
#
#
# Elastic Constant Matrix: (Units=GPa)
#
#
# Indices 1 2 3 4 5 6 
#
# 1 94.1902 26.3659 67.3168 0.0000 0.5452 0.0000
# 2 26.3659 53.3798 41.7547 0.0000 -5.3266 0.0000
# 3 67.3168 41.7547 153.3491 0.0000 3.7299 0.0000
# 4 0.0000 0.0000 0.0000 23.7793 0.0000 -5.2120
# 5 0.5452 -5.3266 3.7299 0.0000 20.7302 0.0000
# 6 0.0000 0.0000 0.0000 -5.2120 0.0000 16.7403
#
#
#
# Elastic Compliance Matrix: (Units=1/GPa)
#
#
# Indices 1 2 3 4 5 6 
#
# 1 0.015847 -0.003046 -0.006125 0.000000 -0.000098 0.000000
# 2 -0.003046 0.025547 -0.005806 0.000000 0.007689 0.000000
# 3 -0.006125 -0.005806 0.010871 0.000000 -0.003287 0.000000
# 4 0.000000 0.000000 0.000000 0.045133 0.000000 0.014052
# 5 -0.000098 0.007689 -0.003287 0.000000 0.050809 0.000000
# 6 0.000000 0.000000 0.000000 0.014052 0.000000 0.064111
#
#
# Mechanical properties :
#
#
# Convention : Reuss Voigt Hill
#
# Bulk Modulus (GPa) = 44.82081 63.53265 54.17673
# Shear Modulus (GPa) = 20.02330 23.28205 21.65268
#
# Velocity S-wave (km/s) = 3.50523 3.77971 3.64506
# Velocity P-wave (km/s) = 6.62457 7.61794 7.13855
#
# Compressibility (1/GPa) = 0.02231106
#
# Stress axis : x y z
#
# Youngs Moduli (GPa) = 63.10155 39.14341 91.99186
#
# Poissons Ratio (x) = 0.11924 0.56344
# Poissons Ratio (y) = 0.19223 0.53409
# Poissons Ratio (z) = 0.38649 0.22726
#
# Static dielectric constant tensor:
#      x y z
#    x 3.116400 0.000000 0.235110 
#    y 0.000000 2.818640 0.000000 
#    z 0.235110 0.000000 3.485430 
# 
# 
# High freq. dielectric constant tensor:
#      x y z
#    x 1.594980 0.000000 0.004910 
#    y 0.000000 1.604620 0.000000 
#    z 0.004910 0.000000 1.639570 
# 
# From -- ./inp_files/323726.got.cif
#   From: 2010.06.25/outbox.cif.g09.slc.cpg/sg12_162_cif.got.tgz:323726.got - 2010.06.28 00:19:55.
