data_PCOD8094141
_publ_section_title
;
Structure prediction by ZEFSAII (Michael W. Deem and Ramdas Pophale) SiO2 
 PCOD8094141
Probable space group: C 2/M
;
_chemical_formula_sum "Si O2"
_cell_formula_units_Z 44
_cell_length_a 17.829312
_cell_length_b 14.978165
_cell_length_c 17.210696
_cell_angle_alpha 90.000000
_cell_angle_beta 153.643379
_cell_angle_gamma 90.000000
_cell_volume 2040.480467
_symmetry_space_group_name_H-M "C 2/M"
_symmetry_group_IT_number 12
_symmetry_cell_setting 'monoclinic'
loop_
_space_group_symop_operation_xyz
x,y,z
-x,y,-z
-x,-y,-z
x,-y,z
1/2+x,1/2+y,z
1/2-x,1/2+y,-z
1/2-x,1/2-y,-z
1/2+x,1/2-y,z
loop_
_atom_site_type_symbol
_atom_site_label
_atom_site_fract_x
_atom_site_fract_y
_atom_site_fract_z
Si Si1 0.957544 0.835763 0.626959
Si Si2 0.604286 0.897752 0.261307
Si Si3 0.500000 0.298892 0.500000
Si Si4 0.026385 0.900308 0.854574
Si Si5 0.632930 0.737288 0.187682
Si Si6 0.645062 0.823336 0.856391
O O1 0.758760 0.852372 0.451127
O O2 0.010219 0.862127 0.586817
O O3 0.042113 0.892540 0.774693
O O4 0.006502 0.730099 0.676838
O O5 0.574878 0.837536 0.157542
O O6 0.443931 0.893158 0.168736
O O7 0.639648 0.000000 0.270328
O O8 0.329701 0.237599 0.344931
O O9 0.888311 0.831151 0.759594
O O10 0.972918 0.000000 0.828671
O O11 0.214904 0.878260 0.063312
O O12 0.500000 0.703901 0.000000
O O13 0.750000 0.750000 0.000000
#
# Coordination Sequence:
#
# PCOD8094141 Si02
#       6
#     8   8   4   8   8   8
#     4  10  21  41  63  93 128 169 214 266 329 384
#     4  11  22  38  63  97 129 167 217 268 326 394
#     4  10  24  38  68  96 128 180 216 268 334 396
#     4  11  23  41  68  97 128 172 223 271 324 393
#     4  11  24  44  65  95 134 177 222 273 333 387
#     4  10  19  36  65  92 123 169 215 267 324 380
#
# _framework density 21.563548999999998
#
# number of rings (size 3 to 8) (size 9 to 14) (size 15 to 20)
#    0.000    1.455    3.636    2.727    5.091    0.727 
#    0.000   11.818    0.000    0.000    0.000    0.000 
#    0.000    0.000    0.000    0.000    0.000    0.000 
#
# Total GULP energy -272543.401526 kJ/mol
# GULP energy per Si atom -12388.336433 kJ/mol
# Density = 2.151447 g / cm^3
# Si number density = 21.563549 Si / 1000 Ang^3
#
#
#
# Elastic Constant Matrix: (Units=GPa)
#
#
# Indices 1 2 3 4 5 6 
#
# 1 98.9581 46.9175 41.6971 -0.0004 18.3257 -0.0003
# 2 46.9175 123.0799 38.9288 -0.0007 1.2394 -0.0004
# 3 41.6971 38.9288 88.7106 -0.0013 17.6942 -0.0010
# 4 -0.0004 -0.0007 -0.0013 23.0477 -0.0007 0.8318
# 5 18.3257 1.2394 17.6942 -0.0007 44.5215 -0.0003
# 6 -0.0003 -0.0004 -0.0010 0.8318 -0.0003 15.1060
#
#
#
# Elastic Compliance Matrix: (Units=1/GPa)
#
#
# Indices 1 2 3 4 5 6 
#
# 1 0.014659 -0.004220 -0.004191 0.000000 -0.004251 0.000000
# 2 -0.004220 0.010742 -0.003277 0.000000 0.002740 0.000000
# 3 -0.004191 -0.003277 0.015551 0.000001 -0.004364 0.000001
# 4 0.000000 0.000000 0.000001 0.043475 0.000001 -0.002394
# 5 -0.004251 0.002740 -0.004364 0.000001 0.025869 0.000000
# 6 0.000000 0.000000 0.000001 -0.002394 0.000000 0.066331
#
#
# Mechanical properties :
#
#
# Convention : Reuss Voigt Hill
#
# Bulk Modulus (GPa) = 56.89199 62.87062 59.88130
# Shear Modulus (GPa) = 24.28830 28.74872 26.51851
#
# Velocity S-wave (km/s) = 3.35977 3.65527 3.51063
# Velocity P-wave (km/s) = 6.44138 6.85813 6.65302
#
# Compressibility (1/GPa) = 0.01757717
#
# Stress axis : x y z
#
# Youngs Moduli (GPa) = 68.21826 93.09027 64.30461
#
# Poissons Ratio (x) = 0.39281 0.26947
# Poissons Ratio (y) = 0.28786 0.21074
# Poissons Ratio (z) = 0.28588 0.30508
#
# Static dielectric constant tensor:
#      x y z
#    x 3.894080 0.000000 0.069900 
#    y 0.000000 3.806820 -0.000010 
#    z 0.069900 -0.000010 4.358820 
# 
# 
# High freq. dielectric constant tensor:
#      x y z
#    x 1.839810 0.000000 0.013970 
#    y 0.000000 1.814220 0.000000 
#    z 0.013970 0.000000 1.852810 
# 
# From -- ./inp_files/277919.got.cif
#   From: 2010.06.25/outbox.cif.g09.slc.cpg/sg12_139_cif.got.tgz:277919.got - 2010.06.28 00:19:55.
