data_PCOD8094865
_publ_section_title
;
Structure prediction by ZEFSAII (Michael W. Deem and Ramdas Pophale) SiO2 
 PCOD8094865
Probable space group: C 2/M
;
_chemical_formula_sum "Si O2"
_cell_formula_units_Z 64
_cell_length_a 18.931646
_cell_length_b 16.643386
_cell_length_c 23.093213
_cell_angle_alpha 90.000000
_cell_angle_beta 23.602366
_cell_angle_gamma 90.000000
_cell_volume 2913.360665
_symmetry_space_group_name_H-M "C 2/M"
_symmetry_group_IT_number 12
_symmetry_cell_setting 'monoclinic'
loop_
_space_group_symop_operation_xyz
x,y,z
-x,y,-z
-x,-y,-z
x,-y,z
1/2+x,1/2+y,z
1/2-x,1/2+y,-z
1/2-x,1/2-y,-z
1/2+x,1/2-y,z
loop_
_atom_site_type_symbol
_atom_site_label
_atom_site_fract_x
_atom_site_fract_y
_atom_site_fract_z
Si Si1 0.020256 0.153751 0.596984
Si Si2 0.907005 0.909187 0.918770
Si Si3 0.902220 0.850145 0.327773
Si Si4 0.137736 0.142700 0.848431
Si Si5 0.356208 0.166882 0.151866
Si Si6 0.558385 0.173537 0.206778
Si Si7 0.994053 0.661598 0.387368
Si Si8 0.823023 0.590599 0.296668
O O1 0.086612 0.134144 0.611963
O O2 0.030361 0.247163 0.574326
O O3 0.127512 0.108314 0.466624
O O4 0.820445 0.125621 0.739610
O O5 0.971402 0.908239 0.803710
O O6 0.073224 0.887266 0.834592
O O7 0.838452 0.000000 0.983519
O O8 0.762290 0.838443 0.035368
O O9 0.703106 0.873220 0.457310
O O10 0.966542 0.759547 0.263879
O O11 0.143563 0.237739 0.851376
O O12 0.345506 0.115833 0.699247
O O13 0.000000 0.107469 0.000000
O O14 0.387582 0.144565 0.194844
O O15 0.500000 0.131311 0.000000
O O16 0.556421 0.155349 0.275188
O O17 0.452475 0.105596 0.252732
O O18 0.835984 0.500000 0.265867
#
# Coordination Sequence:
#
# PCOD8094865 Si02
#       8
#     8   8   8   8   8   8   8   8
#     4  10  21  40  64  93 124 160 213 275 319 384
#     4  12  27  42  61 100 140 175 214 266 336 398
#     4  11  22  41  71  97 127 166 222 280 326 374
#     4  10  21  42  68  93 125 170 219 268 322 387
#     4  10  24  40  64  94 123 163 221 269 318 383
#     4  11  21  43  68  96 124 172 227 272 311 385
#     4  10  19  41  70  97 120 161 227 276 318 369
#     4  12  24  40  62  92 130 173 211 260 334 394
#
# _framework density 21.967756999999999
#
# number of rings (size 3 to 8) (size 9 to 14) (size 15 to 20)
#    0.000    1.250    3.750    2.625    3.500    2.500 
#    0.000    1.250    0.000    0.000    0.000    0.000 
#    0.000    0.000    0.000    0.000    0.000    0.000 
#
# Total GULP energy -396604.761681 kJ/mol
# GULP energy per Si atom -12393.898803 kJ/mol
# Density = 2.191776 g / cm^3
# Si number density = 21.967757 Si / 1000 Ang^3
#
#
#
# Elastic Constant Matrix: (Units=GPa)
#
#
# Indices 1 2 3 4 5 6 
#
# 1 -7022.0420 1214.1427-6326.3853 1.9262 279.0950 -2.9000
# 2 1214.1427 -168.0486 1097.8658 -0.3095 -51.3633 0.4671
# 3 -6326.3853 1097.8658-5590.2671 1.6861 257.0156 -2.6454
# 4 1.9262 -0.3095 1.6861 12.2335 -0.0818 -2.6077
# 5 279.0950 -51.3633 257.0156 -0.0818 32.8054 0.1292
# 6 -2.9000 0.4671 -2.6454 -2.6077 0.1292 7.2657
#
#
#
# Elastic Compliance Matrix: (Units=1/GPa)
#
#
# Indices 1 2 3 4 5 6 
#
# 1 0.008534 0.005120 -0.008544 -0.000040 0.002352 -0.000090
# 2 0.005120 0.024106 -0.000976 -0.000029 0.001830 0.000095
# 3 -0.008544 -0.000976 0.009242 0.000051 -0.001242 0.000058
# 4 -0.000040 -0.000029 0.000051 0.088514 -0.000008 0.031773
# 5 0.002352 0.001830 -0.001242 -0.000008 0.023067 -0.000044
# 6 -0.000090 0.000095 0.000058 0.031773 -0.000044 0.149016
#
#
# Mechanical properties :
#
#
# Convention : Reuss Voigt Hill
#
# Bulk Modulus (GPa) = 30.22886 -2312.12349 -1140.94732
# Shear Modulus (GPa) = 15.51321 -573.93782 -279.21231
#
# Velocity S-wave (km/s) = 2.66029 -16.18119 -11.28614
# Velocity P-wave (km/s) = 4.81940 37.46866 26.27426
#
# Compressibility (1/GPa) = 0.03308097
#
# Stress axis : x y z
#
# Youngs Moduli (GPa) = 117.17817 41.48399 108.20677
#
# Poissons Ratio (x) = -0.21239 0.92453
# Poissons Ratio (y) = -0.59993 0.10560
# Poissons Ratio (z) = 1.00118 0.04048
#
# Static dielectric constant tensor:
#      x y z
#    x 4.054960 -0.000050 -0.232170 
#    y -0.000050 3.626880 0.000100 
#    z -0.232170 0.000100 4.271350 
# 
# 
# High freq. dielectric constant tensor:
#      x y z
#    x 1.871260 0.000000 -0.006660 
#    y 0.000000 1.823940 0.000010 
#    z -0.006660 0.000010 1.879270 
# 
# From -- ./inp_files/347843.got.cif
#   From: 2010.06.25/outbox.cif.g09.slc.cpg/sg12_174_cif.got.tgz:347843.got - 2010.06.28 00:19:55.
