data_PCOD8094530
_publ_section_title
;
Structure prediction by ZEFSAII (Michael W. Deem and Ramdas Pophale) SiO2 
 PCOD8094530
Probable space group: C 2/M
;
_chemical_formula_sum "Si O2"
_cell_formula_units_Z 36
_cell_length_a 8.726915
_cell_length_b 30.436680
_cell_length_c 11.846061
_cell_angle_alpha 90.000000
_cell_angle_beta 34.652976
_cell_angle_gamma 90.000000
_cell_volume 1789.131827
_symmetry_space_group_name_H-M "C 2/M"
_symmetry_group_IT_number 12
_symmetry_cell_setting 'monoclinic'
loop_
_space_group_symop_operation_xyz
x,y,z
-x,y,-z
-x,-y,-z
x,-y,z
1/2+x,1/2+y,z
1/2-x,1/2+y,-z
1/2-x,1/2-y,-z
1/2+x,1/2-y,z
loop_
_atom_site_type_symbol
_atom_site_label
_atom_site_fract_x
_atom_site_fract_y
_atom_site_fract_z
Si Si1 0.000000 0.254239 0.500000
Si Si2 0.944912 0.886984 0.699339
Si Si3 0.422651 0.051713 0.419269
Si Si4 0.581334 0.888970 0.132476
Si Si5 0.634170 0.812469 0.619055
O O1 0.741326 0.222579 0.645440
O O2 0.027216 0.285696 0.376869
O O3 0.714707 0.890515 0.744908
O O4 0.125566 0.930146 0.575039
O O5 0.120189 0.842430 0.579870
O O6 0.821342 0.890525 0.898886
O O7 0.500000 0.065636 0.500000
O O8 0.618092 0.072963 0.205097
O O9 0.430746 0.000000 0.397963
O O10 0.595103 0.842143 0.185816
#
# Coordination Sequence:
#
# PCOD8094530 Si02
#       5
#     4   8   8   8   8
#     4  10  20  34  60  78 114 148 190 230 282 324
#     4  10  21  38  59  83 115 151 187 228 277 334
#     4  10  22  39  59  85 115 146 183 231 281 330
#     4  10  21  38  59  83 115 151 187 228 277 334
#     4  10  19  38  54  83 112 153 184 232 278 330
#
# _framework density 20.121490999999999
#
# number of rings (size 3 to 8) (size 9 to 14) (size 15 to 20)
#    0.000    2.000    2.222    2.000    6.222    3.556 
#    0.000   11.111    0.000    0.000    0.000    0.000 
#    0.000    0.000    0.000    0.000    0.000    0.000 
#
# Total GULP energy -223110.245496 kJ/mol
# GULP energy per Si atom -12395.013639 kJ/mol
# Density = 2.007569 g / cm^3
# Si number density = 20.121491 Si / 1000 Ang^3
#
#
#
# Elastic Constant Matrix: (Units=GPa)
#
#
# Indices 1 2 3 4 5 6 
#
# 1 86.7873 55.8646 24.0840 0.0000 25.5261 0.0000
# 2 55.8646 122.6514 35.3538 0.0000 27.4884 0.0000
# 3 24.0840 35.3538 83.5435 0.0000 24.7357 0.0000
# 4 0.0000 0.0000 0.0000 2.2922 0.0000 5.1700
# 5 25.5261 27.4884 24.7357 0.0000 28.5823 0.0000
# 6 0.0000 0.0000 0.0000 5.1700 0.0000 58.6775
#
#
#
# Elastic Compliance Matrix: (Units=1/GPa)
#
#
# Indices 1 2 3 4 5 6 
#
# 1 0.018606 -0.006121 0.000542 0.000000 -0.011199 0.000000
# 2 -0.006121 0.012645 -0.002157 0.000000 -0.004828 0.000000
# 3 0.000542 -0.002157 0.016478 0.000000 -0.012670 0.000000
# 4 0.000000 0.000000 0.000000 0.544467 0.000000 -0.047973
# 5 -0.011199 -0.004828 -0.012670 0.000000 0.060596 0.000000
# 6 0.000000 0.000000 0.000000 -0.047973 0.000000 0.021269
#
#
# Mechanical properties :
#
#
# Convention : Reuss Voigt Hill
#
# Bulk Modulus (GPa) = 31.00095 58.17635 44.58865
# Shear Modulus (GPa) = 7.13996 29.75570 18.44783
#
# Velocity S-wave (km/s) = 1.88577 3.84969 3.03119
# Velocity P-wave (km/s) = 4.49242 6.98108 5.87015
#
# Compressibility (1/GPa) = 0.03225707
#
# Stress axis : x y z
#
# Youngs Moduli (GPa) = 53.74670 79.08361 60.68829
#
# Poissons Ratio (x) = 0.48406 -0.03292
# Poissons Ratio (y) = 0.32898 0.13091
# Poissons Ratio (z) = -0.02915 0.17059
#
# Static dielectric constant tensor:
#      x y z
#    x 3.872580 0.000000 0.314250 
#    y 0.000000 3.745120 0.000000 
#    z 0.314250 0.000000 3.560780 
# 
# 
# High freq. dielectric constant tensor:
#      x y z
#    x 1.798180 0.000000 0.020630 
#    y 0.000000 1.793010 0.000000 
#    z 0.020630 0.000000 1.765190 
# 
# From -- ./inp_files/124692.got.cif
#   From: 2010.06.25/outbox.cif.g09.slc.cpg/sg12_63_cif.got.tgz:124692.got - 2010.06.28 00:19:55.
