data_PCOD8094784
_publ_section_title
;
Structure prediction by ZEFSAII (Michael W. Deem and Ramdas Pophale) SiO2 
 PCOD8094784
Probable space group: C 2/M
;
_chemical_formula_sum "Si O2"
_cell_formula_units_Z 64
_cell_length_a 19.352057
_cell_length_b 8.986943
_cell_length_c 30.192511
_cell_angle_alpha 90.000000
_cell_angle_beta 141.389012
_cell_angle_gamma 90.000000
_cell_volume 3276.751068
_symmetry_space_group_name_H-M "C 2/M"
_symmetry_group_IT_number 12
_symmetry_cell_setting 'monoclinic'
loop_
_space_group_symop_operation_xyz
x,y,z
-x,y,-z
-x,-y,-z
x,-y,z
1/2+x,1/2+y,z
1/2-x,1/2+y,-z
1/2-x,1/2-y,-z
1/2+x,1/2-y,z
loop_
_atom_site_type_symbol
_atom_site_label
_atom_site_fract_x
_atom_site_fract_y
_atom_site_fract_z
Si Si1 0.320811 0.828344 0.124721
Si Si2 0.970106 0.324624 0.118830
Si Si3 0.564803 0.675728 0.490322
Si Si4 0.463095 0.167795 0.280933
Si Si5 0.408137 0.175353 0.988579
Si Si6 0.602206 0.674755 0.666405
Si Si7 0.817677 0.175988 0.735841
Si Si8 0.802613 0.671035 0.636285
O O1 0.371671 0.776615 0.103038
O O2 0.413941 0.796873 0.208107
O O3 0.211694 0.738882 0.083436
O O4 0.287353 0.000000 0.105875
O O5 0.993340 0.500000 0.134783
O O6 0.081065 0.237669 0.185186
O O7 0.937539 0.276377 0.053107
O O8 0.500000 0.744777 0.500000
O O9 0.559092 0.500000 0.490334
O O10 0.505510 0.728051 0.415463
O O11 0.692599 0.728103 0.555711
O O12 0.414919 0.285585 0.291122
O O13 0.595484 0.186085 0.346230
O O14 0.431380 0.000000 0.279610
O O15 0.400608 0.000000 0.980250
O O16 0.500000 0.237524 0.000000
O O17 0.624211 0.500000 0.672520
O O18 0.706122 0.762528 0.700549
O O19 0.827305 0.225989 0.690227
O O20 0.818290 0.000000 0.738835
O O21 0.788754 0.500000 0.645611
#
# Coordination Sequence:
#
# PCOD8094784 Si02
#       8
#     8   8   8   8   8   8   8   8
#     4  10  21  39  63  87 117 160 200 236 290 355
#     4  10  21  41  64  86 118 162 202 237 293 357
#     4   9  17  33  61  88 111 152 206 246 289 360
#     4  10  22  39  59  88 124 158 197 245 298 352
#     4  10  23  40  60  91 123 152 195 246 294 345
#     4  11  23  39  60  86 119 159 202 247 302 359
#     4  12  24  37  59  92 122 152 202 254 298 348
#     4  10  19  39  65  86 118 161 200 242 298 358
#
# _framework density 19.531542000000002
#
# number of rings (size 3 to 8) (size 9 to 14) (size 15 to 20)
#    0.000    1.750    2.500    1.875    1.750    2.750 
#    0.000    1.875    0.000    0.000    0.000    0.000 
#    0.000    0.000    0.000    0.000    0.000    0.000 
#
# Total GULP energy -396867.100013 kJ/mol
# GULP energy per Si atom -12402.096875 kJ/mol
# Density = 1.948709 g / cm^3
# Si number density = 19.531542 Si / 1000 Ang^3
#
#
#
# Elastic Constant Matrix: (Units=GPa)
#
#
# Indices 1 2 3 4 5 6 
#
# 1 430.1148 104.5477 142.5415 0.0004 92.5987 0.0007
# 2 104.5477 69.3738 56.7353 0.0001 27.8587 0.0003
# 3 142.5415 56.7353 132.8155 0.0001 45.1202 0.0003
# 4 0.0004 0.0001 0.0001 19.1360 0.0001 -1.1272
# 5 92.5987 27.8587 45.1202 0.0001 62.6498 0.0002
# 6 0.0007 0.0003 0.0003 -1.1272 0.0002 17.6197
#
#
#
# Elastic Compliance Matrix: (Units=1/GPa)
#
#
# Indices 1 2 3 4 5 6 
#
# 1 0.004837 -0.003956 -0.002211 0.000000 -0.003798 0.000000
# 2 -0.003956 0.026182 -0.006579 0.000000 -0.001057 0.000000
# 3 -0.002211 -0.006579 0.014045 0.000000 -0.003921 0.000000
# 4 0.000000 0.000000 0.000000 0.052455 0.000000 0.003356
# 5 -0.003798 -0.001057 -0.003921 0.000000 0.024869 0.000000
# 6 0.000000 0.000000 0.000000 0.003356 0.000000 0.056969
#
#
# Mechanical properties :
#
#
# Convention : Reuss Voigt Hill
#
# Bulk Modulus (GPa) = 51.09751 137.77258 94.43504
# Shear Modulus (GPa) = 23.65487 41.77974 32.71730
#
# Velocity S-wave (km/s) = 3.48388 4.63005 4.09724
# Velocity P-wave (km/s) = 6.51165 9.96367 8.41654
#
# Compressibility (1/GPa) = 0.01957043
#
# Stress axis : x y z
#
# Youngs Moduli (GPa) = 206.74564 38.19479 71.19998
#
# Poissons Ratio (x) = 0.15110 0.15743
# Poissons Ratio (y) = 0.81789 0.46845
# Poissons Ratio (z) = 0.45713 0.25130
#
# Static dielectric constant tensor:
#      x y z
#    x 3.654160 0.000000 0.051950 
#    y 0.000000 3.362250 0.000000 
#    z 0.051950 0.000000 3.811040 
# 
# 
# High freq. dielectric constant tensor:
#      x y z
#    x 1.765040 0.000000 0.006310 
#    y 0.000000 1.739050 0.000000 
#    z 0.006310 0.000000 1.772900 
# 
# From -- ./inp_files/378284.got.cif
#   From: 2010.06.25/outbox.cif.g09.slc.cpg/sg12_190_cif.got.tgz:378284.got - 2010.06.28 00:19:55.
