data_PCOD8094436
_publ_section_title
;
Structure prediction by ZEFSAII (Michael W. Deem and Ramdas Pophale) SiO2 
 PCOD8094436
Probable space group: C 2/M
;
_chemical_formula_sum "Si O2"
_cell_formula_units_Z 40
_cell_length_a 13.261620
_cell_length_b 29.425029
_cell_length_c 5.089283
_cell_angle_alpha 90.000000
_cell_angle_beta 74.764141
_cell_angle_gamma 90.000000
_cell_volume 1916.156062
_symmetry_space_group_name_H-M "C 2/M"
_symmetry_group_IT_number 12
_symmetry_cell_setting 'monoclinic'
loop_
_space_group_symop_operation_xyz
x,y,z
-x,y,-z
-x,-y,-z
x,-y,z
1/2+x,1/2+y,z
1/2-x,1/2+y,-z
1/2-x,1/2-y,-z
1/2+x,1/2-y,z
loop_
_atom_site_type_symbol
_atom_site_label
_atom_site_fract_x
_atom_site_fract_y
_atom_site_fract_z
Si Si1 0.114036 0.255777 0.335865
Si Si2 0.938928 0.054098 0.291900
Si Si3 0.809596 0.304030 0.213203
Si Si4 0.880074 0.598667 0.058529
Si Si5 0.797176 0.447274 0.600904
O O1 0.151641 0.292871 0.521415
O O2 0.190082 0.212445 0.267079
O O3 0.000000 0.238149 0.500000
O O4 0.114429 0.280206 0.052348
O O5 0.820287 0.071304 0.357634
O O6 0.000000 0.074356 0.500000
O O7 0.940113 0.000000 0.302144
O O8 0.000000 0.073043 0.000000
O O9 0.809202 0.357907 0.173858
O O10 0.856931 0.559177 0.285207
O O11 0.854888 0.581010 0.786030
O O12 0.000000 0.613348 0.000000
O O13 0.798540 0.500000 0.679113
#
# Coordination Sequence:
#
# PCOD8094436 Si02
#       5
#     8   8   8   8   8
#     4  10  19  37  63  88 120 153 186 232 288 350
#     4   9  17  33  57  80 103 136 182 236 293 349
#     4  10  22  37  59  91 118 152 196 233 283 353
#     4  12  24  39  59  84 119 158 201 249 295 346
#     4  11  24  40  59  85 116 155 205 252 294 346
#
# _framework density 20.875128
#
# number of rings (size 3 to 8) (size 9 to 14) (size 15 to 20)
#    0.000    1.600    0.000    5.400    0.000    5.600 
#    0.000    3.000    0.000    2.400    0.000    0.000 
#    0.000    0.000    0.000    0.000    0.000    0.000 
#
# Total GULP energy -248079.829948 kJ/mol
# GULP energy per Si atom -12403.991497 kJ/mol
# Density = 2.082762 g / cm^3
# Si number density = 20.875128 Si / 1000 Ang^3
#
#
#
# Elastic Constant Matrix: (Units=GPa)
#
#
# Indices 1 2 3 4 5 6 
#
# 1 115.7153 31.7816 39.7892 0.0000 -2.5022 0.0000
# 2 31.7816 73.0862 10.8504 0.0000 -2.5734 0.0000
# 3 39.7892 10.8504 120.3393 0.0000 1.5396 0.0000
# 4 0.0000 0.0000 0.0000 23.0165 0.0000 -4.9753
# 5 -2.5022 -2.5734 1.5396 0.0000 45.3000 0.0000
# 6 0.0000 0.0000 0.0000 -4.9753 0.0000 17.3551
#
#
#
# Elastic Compliance Matrix: (Units=1/GPa)
#
#
# Indices 1 2 3 4 5 6 
#
# 1 0.010935 -0.004258 -0.003238 0.000000 0.000472 0.000000
# 2 -0.004258 0.015557 -0.000003 0.000000 0.000649 0.000000
# 3 -0.003238 -0.000003 0.009387 0.000000 -0.000498 0.000000
# 4 0.000000 0.000000 0.000000 0.046317 0.000000 0.013278
# 5 0.000472 0.000649 -0.000498 0.000000 0.022155 0.000000
# 6 0.000000 0.000000 0.000000 0.013278 0.000000 0.061426
#
#
# Mechanical properties :
#
#
# Convention : Reuss Voigt Hill
#
# Bulk Modulus (GPa) = 47.88849 52.66482 50.27666
# Shear Modulus (GPa) = 26.63321 32.24895 29.44108
#
# Velocity S-wave (km/s) = 3.57576 3.93472 3.75953
# Velocity P-wave (km/s) = 6.32758 6.77687 6.55608
#
# Compressibility (1/GPa) = 0.02088184
#
# Stress axis : x y z
#
# Youngs Moduli (GPa) = 91.45135 64.27869 106.53034
#
# Poissons Ratio (x) = 0.27368 0.34491
# Poissons Ratio (y) = 0.38937 0.00035
# Poissons Ratio (z) = 0.29609 0.00021
#
# Static dielectric constant tensor:
#      x y z
#    x 3.879330 0.000000 0.008670 
#    y 0.000000 3.340830 0.000000 
#    z 0.008670 0.000000 3.980710 
# 
# 
# High freq. dielectric constant tensor:
#      x y z
#    x 1.825180 0.000000 0.002520 
#    y 0.000000 1.784680 0.000000 
#    z 0.002520 0.000000 1.838080 
# 
# From -- ./inp_files/8330.got.cif
#   From: 2010.06.25/outbox.cif.g09.slc.cpg/sg12_5_cif.got.tgz:8330.got - 2010.06.28 00:19:55.
