data_PCOD8094205
_publ_section_title
;
Structure prediction by ZEFSAII (Michael W. Deem and Ramdas Pophale) SiO2 
 PCOD8094205
Probable space group: C 2/M
;
_chemical_formula_sum "Si O2"
_cell_formula_units_Z 52
_cell_length_a 18.152557
_cell_length_b 13.606225
_cell_length_c 14.117097
_cell_angle_alpha 90.000000
_cell_angle_beta 134.497366
_cell_angle_gamma 90.000000
_cell_volume 2487.038620
_symmetry_space_group_name_H-M "C 2/M"
_symmetry_group_IT_number 12
_symmetry_cell_setting 'monoclinic'
loop_
_space_group_symop_operation_xyz
x,y,z
-x,y,-z
-x,-y,-z
x,-y,z
1/2+x,1/2+y,z
1/2-x,1/2+y,-z
1/2-x,1/2-y,-z
1/2+x,1/2-y,z
loop_
_atom_site_type_symbol
_atom_site_label
_atom_site_fract_x
_atom_site_fract_y
_atom_site_fract_z
Si Si1 0.097342 0.389166 0.856392
Si Si2 0.719552 0.252562 0.630766
Si Si3 0.385011 0.214124 0.933924
Si Si4 0.178219 0.109548 0.006243
Si Si5 0.032183 0.188714 0.733562
Si Si6 0.678037 0.613668 0.414755
Si Si7 0.000000 0.778933 0.500000
O O1 0.049291 0.500000 0.810598
O O2 0.020437 0.307597 0.740977
O O3 0.128613 0.362362 0.992165
O O4 0.198555 0.386411 0.882028
O O5 0.797438 0.303130 0.775848
O O6 0.710431 0.333399 0.540630
O O7 0.763002 0.152755 0.624817
O O8 0.607659 0.221634 0.574749
O O9 0.500000 0.199200 0.000000
O O10 0.370260 0.325872 0.954420
O O11 0.141341 0.151676 0.871186
O O12 0.137282 0.000000 0.984997
O O13 0.943065 0.134180 0.712231
O O14 0.024441 0.158048 0.616208
O O15 0.703151 0.500000 0.447930
#
# Coordination Sequence:
#
# PCOD8094205 Si02
#       7
#     8   8   8   8   8   8   4
#     4  10  21  37  57  82 116 157 195 235 289 349
#     4  10  21  39  59  86 119 152 194 239 286 340
#     4  11  22  37  59  86 118 153 192 242 288 337
#     4  10  20  35  58  85 115 154 194 236 290 346
#     4  10  19  37  58  83 117 150 192 241 289 340
#     4  10  22  40  61  83 114 155 193 235 288 346
#     4  10  20  36  60  84 114 154 190 238 290 334
#
# _framework density 20.908401000000001
#
# number of rings (size 3 to 8) (size 9 to 14) (size 15 to 20)
#    0.000    1.846    0.000    6.000    0.000    1.846 
#    0.000   24.231    0.000    0.000    0.000    0.000 
#    0.000    0.000    0.000    0.000    0.000    0.000 
#
# Total GULP energy -322224.341145 kJ/mol
# GULP energy per Si atom -12393.243890 kJ/mol
# Density = 2.086081 g / cm^3
# Si number density = 20.908401 Si / 1000 Ang^3
#
#
#
# Elastic Constant Matrix: (Units=GPa)
#
#
# Indices 1 2 3 4 5 6 
#
# 1 98.2462 0.8418 14.7282 0.0000 22.1165 0.0000
# 2 0.8418 96.1247 -17.1178 0.0000 8.7765 0.0000
# 3 14.7282 -17.1178 75.8371 0.0000 1.1804 0.0000
# 4 0.0000 0.0000 0.0000 19.3715 0.0000 6.5505
# 5 22.1165 8.7765 1.1804 0.0000 27.9085 0.0000
# 6 0.0000 0.0000 0.0000 6.5505 0.0000 24.2241
#
#
#
# Elastic Compliance Matrix: (Units=1/GPa)
#
#
# Indices 1 2 3 4 5 6 
#
# 1 0.012802 0.000420 -0.002233 0.000000 -0.010183 0.000000
# 2 0.000420 0.011208 0.002510 0.000000 -0.003964 0.000000
# 3 -0.002233 0.002510 0.014180 0.000000 0.000380 0.000000
# 4 0.000000 0.000000 0.000000 0.056818 0.000000 -0.015364
# 5 -0.010183 -0.003964 0.000380 0.000000 0.045131 0.000000
# 6 0.000000 0.000000 0.000000 -0.015364 0.000000 0.045436
#
#
# Mechanical properties :
#
#
# Convention : Reuss Voigt Hill
#
# Bulk Modulus (GPa) = 25.26214 29.67913 27.47063
# Shear Modulus (GPa) = 25.33234 32.41790 28.87512
#
# Velocity S-wave (km/s) = 3.48456 3.94188 3.72025
# Velocity P-wave (km/s) = 5.31959 5.91130 5.62324
#
# Compressibility (1/GPa) = 0.03958494
#
# Stress axis : x y z
#
# Youngs Moduli (GPa) = 78.11325 89.21908 70.51952
#
# Poissons Ratio (x) = -0.03747 0.15747
# Poissons Ratio (y) = -0.03281 -0.17701
# Poissons Ratio (z) = 0.17442 -0.22395
#
# Static dielectric constant tensor:
#      x y z
#    x 3.909890 0.000000 0.045080 
#    y 0.000000 3.658050 0.000000 
#    z 0.045080 0.000000 3.922070 
# 
# 
# High freq. dielectric constant tensor:
#      x y z
#    x 1.825370 0.000000 0.001230 
#    y 0.000000 1.793780 0.000000 
#    z 0.001230 0.000000 1.824930 
# 
# From -- ./inp_files/225793.got.cif
#   From: 2010.06.25/outbox.cif.g09.slc.cpg/sg12_113_cif.got.tgz:225793.got - 2010.06.28 00:19:55.
