data_PCOD8094102
_publ_section_title
;
Structure prediction by ZEFSAII (Michael W. Deem and Ramdas Pophale) SiO2 
 PCOD8094102
Probable space group: C 2/M
;
_chemical_formula_sum "Si O2"
_cell_formula_units_Z 40
_cell_length_a 15.258223
_cell_length_b 14.012239
_cell_length_c 13.505860
_cell_angle_alpha 90.000000
_cell_angle_beta 135.189836
_cell_angle_gamma 90.000000
_cell_volume 2035.049746
_symmetry_space_group_name_H-M "C 2/M"
_symmetry_group_IT_number 12
_symmetry_cell_setting 'monoclinic'
loop_
_space_group_symop_operation_xyz
x,y,z
-x,y,-z
-x,-y,-z
x,-y,z
1/2+x,1/2+y,z
1/2-x,1/2+y,-z
1/2-x,1/2-y,-z
1/2+x,1/2-y,z
loop_
_atom_site_type_symbol
_atom_site_label
_atom_site_fract_x
_atom_site_fract_y
_atom_site_fract_z
Si Si1 0.860550 0.105752 0.855521
Si Si2 0.982059 0.110332 0.370707
Si Si3 0.299405 0.389124 0.588251
Si Si4 0.311672 0.233735 0.155620
Si Si5 0.525313 0.112998 0.405261
O O1 0.862912 0.133457 0.743193
O O2 0.793587 0.189743 0.859567
O O3 0.796741 0.000000 0.819226
O O4 0.000000 0.099183 0.000000
O O5 0.107365 0.152735 0.420070
O O6 0.000000 0.127639 0.500000
O O7 0.859184 0.164793 0.234721
O O8 0.960762 0.000000 0.326288
O O9 0.285786 0.500000 0.556348
O O10 0.159596 0.346883 0.477008
O O11 0.427118 0.160035 0.251125
O O12 0.250000 0.250000 0.000000
O O13 0.500000 0.143514 0.500000
O O14 0.515740 0.000000 0.387980
#
# Coordination Sequence:
#
# PCOD8094102 Si02
#       5
#     8   8   8   8   8
#     4  10  20  37  62  92 124 153 195 257 316 363
#     4  10  23  43  62  84 120 166 209 243 289 364
#     4   9  18  36  64  90 112 150 201 254 309 351
#     4  12  24  37  56  90 125 161 198 244 305 364
#     4  10  19  36  63  93 121 146 193 262 319 359
#
# _framework density 19.655539999999998
#
# number of rings (size 3 to 8) (size 9 to 14) (size 15 to 20)
#    0.000    1.800    2.000    2.400    0.000    4.000 
#    3.600    0.000    0.000    0.600    0.000    0.000 
#    0.000    0.000    0.000    0.000    0.000    0.000 
#
# Total GULP energy -247880.907597 kJ/mol
# GULP energy per Si atom -12394.045380 kJ/mol
# Density = 1.961080 g / cm^3
# Si number density = 19.655540 Si / 1000 Ang^3
#
#
#
# Elastic Constant Matrix: (Units=GPa)
#
#
# Indices 1 2 3 4 5 6 
#
# 1 152.6565 42.9416 61.6148 0.0000 -9.3428 0.0000
# 2 42.9416 95.2874 45.3878 0.0000 0.2446 0.0000
# 3 61.6148 45.3878 144.7682 0.0000 3.1499 0.0000
# 4 0.0000 0.0000 0.0000 33.1779 0.0000 13.5915
# 5 -9.3428 0.2446 3.1499 0.0000 23.7839 0.0000
# 6 0.0000 0.0000 0.0000 13.5915 0.0000 8.9362
#
#
#
# Elastic Compliance Matrix: (Units=1/GPa)
#
#
# Indices 1 2 3 4 5 6 
#
# 1 0.008701 -0.002501 -0.003003 0.000000 0.003841 0.000000
# 2 -0.002501 0.013059 -0.003014 0.000000 -0.000717 0.000000
# 3 -0.003003 -0.003014 0.009182 0.000000 -0.002365 0.000000
# 4 0.000000 0.000000 0.000000 0.079964 0.000000 -0.121622
# 5 0.003841 -0.000717 -0.002365 0.000000 0.043875 0.000000
# 6 0.000000 0.000000 0.000000 -0.121622 0.000000 0.296887
#
#
# Mechanical properties :
#
#
# Convention : Reuss Voigt Hill
#
# Bulk Modulus (GPa) = 71.90833 76.95561 74.43197
# Shear Modulus (GPa) = 10.56324 29.36410 19.96367
#
# Velocity S-wave (km/s) = 2.32074 3.86934 3.19043
# Velocity P-wave (km/s) = 6.62154 7.69412 7.17789
#
# Compressibility (1/GPa) = 0.01390659
#
# Stress axis : x y z
#
# Youngs Moduli (GPa) = 114.92637 76.57435 108.90675
#
# Poissons Ratio (x) = 0.19149 0.32703
# Poissons Ratio (y) = 0.28740 0.32829
# Poissons Ratio (z) = 0.34511 0.23082
#
# Static dielectric constant tensor:
#      x y z
#    x 3.891190 0.000000 0.143140 
#    y 0.000000 3.673540 0.000000 
#    z 0.143140 0.000000 3.546040 
# 
# 
# High freq. dielectric constant tensor:
#      x y z
#    x 1.769020 0.000000 0.010060 
#    y 0.000000 1.768510 0.000000 
#    z 0.010060 0.000000 1.763510 
# 
# From -- ./inp_files/142508.got.cif
#   From: 2010.06.25/outbox.cif.g09.slc.cpg/sg12_72_cif.got.tgz:142508.got - 2010.06.28 00:19:55.
