data_PCOD8094675
_publ_section_title
;
Structure prediction by ZEFSAII (Michael W. Deem and Ramdas Pophale) SiO2 
 PCOD8094675
Probable space group: C 2/M
;
_chemical_formula_sum "Si O2"
_cell_formula_units_Z 40
_cell_length_a 22.880578
_cell_length_b 7.684643
_cell_length_c 16.368322
_cell_angle_alpha 90.000000
_cell_angle_beta 135.487803
_cell_angle_gamma 90.000000
_cell_volume 2017.672652
_symmetry_space_group_name_H-M "C 2/M"
_symmetry_group_IT_number 12
_symmetry_cell_setting 'monoclinic'
loop_
_space_group_symop_operation_xyz
x,y,z
-x,y,-z
-x,-y,-z
x,-y,z
1/2+x,1/2+y,z
1/2-x,1/2+y,-z
1/2-x,1/2-y,-z
1/2+x,1/2-y,z
loop_
_atom_site_type_symbol
_atom_site_label
_atom_site_fract_x
_atom_site_fract_y
_atom_site_fract_z
Si Si1 0.319497 0.301707 0.506429
Si Si2 0.732939 0.191201 0.714509
Si Si3 0.068486 0.204782 0.631807
Si Si4 0.484942 0.000000 0.119460
Si Si5 0.636613 0.000000 0.153452
Si Si6 0.003647 0.200926 0.743950
O O1 0.309988 0.500000 0.468056
O O2 0.250000 0.250000 0.500000
O O3 0.312015 0.187861 0.418079
O O4 0.405804 0.269309 0.637185
O O5 0.661250 0.225598 0.709363
O O6 0.807407 0.328083 0.791826
O O7 0.771368 0.000000 0.768970
O O8 0.000000 0.283419 0.500000
O O9 0.046773 0.257450 0.702492
O O10 0.068605 0.000000 0.620149
O O11 0.466884 0.826984 0.154367
O O12 0.578697 0.000000 0.176429
O O13 0.418410 0.000000 0.981742
O O14 0.024374 0.000000 0.787034
#
# Coordination Sequence:
#
# PCOD8094675 Si02
#       6
#     8   8   8   4   4   8
#     4  11  21  35  56  93 136 164 203 261 320 383
#     4  12  24  39  65  96 130 172 215 263 323 389
#     4  10  19  38  64  94 138 175 204 259 325 392
#     4  11  26  46  73  86 126 176 221 270 324 389
#     4  11  26  50  65  92 126 174 223 274 320 383
#     4  10  23  39  63  98 129 166 212 264 323 386
#
# _framework density 19.824822000000001
#
# number of rings (size 3 to 8) (size 9 to 14) (size 15 to 20)
#    0.000    1.200    4.000    1.800    4.200    3.600 
#    0.000    3.000    0.000    0.000    0.000    0.000 
#    0.000    0.000    0.000    0.000    0.000    0.000 
#
# Total GULP energy -248032.673110 kJ/mol
# GULP energy per Si atom -12401.633656 kJ/mol
# Density = 1.977970 g / cm^3
# Si number density = 19.824822 Si / 1000 Ang^3
#
#
#
# Elastic Constant Matrix: (Units=GPa)
#
#
# Indices 1 2 3 4 5 6 
#
# 1 100.1680 40.9271 25.2142 0.0000 -19.3751 0.0000
# 2 40.9271 93.8709 39.9733 0.0000 -15.6464 0.0000
# 3 25.2142 39.9733 62.2333 0.0000 -14.8955 0.0000
# 4 0.0000 0.0000 0.0000 15.6384 0.0000 -5.5425
# 5 -19.3751 -15.6464 -14.8955 0.0000 26.2093 0.0000
# 6 0.0000 0.0000 0.0000 -5.5425 0.0000 26.8194
#
#
#
# Elastic Compliance Matrix: (Units=1/GPa)
#
#
# Indices 1 2 3 4 5 6 
#
# 1 0.013267 -0.004216 -0.001068 0.000000 0.006684 0.000000
# 2 -0.004216 0.016363 -0.008345 0.000000 0.001909 0.000000
# 3 -0.001068 -0.008345 0.023705 0.000000 0.007701 0.000000
# 4 0.000000 0.000000 0.000000 0.068999 0.000000 0.014259
# 5 0.006684 0.001909 0.007701 0.000000 0.048612 0.000000
# 6 0.000000 0.000000 0.000000 0.014259 0.000000 0.040233
#
#
# Mechanical properties :
#
#
# Convention : Reuss Voigt Hill
#
# Bulk Modulus (GPa) = 38.34684 52.05572 45.20128
# Shear Modulus (GPa) = 20.23240 23.74393 21.98816
#
# Velocity S-wave (km/s) = 3.19808 3.46452 3.33396
# Velocity P-wave (km/s) = 5.74646 6.50528 6.13761
#
# Compressibility (1/GPa) = 0.02607777
#
# Stress axis : x y z
#
# Youngs Moduli (GPa) = 75.37284 61.11442 42.18604
#
# Poissons Ratio (x) = 0.25764 0.04504
# Poissons Ratio (y) = 0.31775 0.35205
# Poissons Ratio (z) = 0.08047 0.51001
#
# Static dielectric constant tensor:
#      x y z
#    x 3.853030 0.000000 -0.051300 
#    y 0.000000 3.699150 0.000000 
#    z -0.051300 0.000000 3.338490 
# 
# 
# High freq. dielectric constant tensor:
#      x y z
#    x 1.792680 0.000000 -0.005290 
#    y 0.000000 1.781640 0.000000 
#    z -0.005290 0.000000 1.744050 
# 
# From -- ./inp_files/230650.got.cif
#   From: 2010.06.25/outbox.cif.g09.slc.cpg/sg12_116_cif.got.tgz:230650.got - 2010.06.28 00:19:55.
