data_PCOD8094615
_publ_section_title
;
Structure prediction by ZEFSAII (Michael W. Deem and Ramdas Pophale) SiO2 
 PCOD8094615
Probable space group: C 2/M
;
_chemical_formula_sum "Si O2"
_cell_formula_units_Z 56
_cell_length_a 25.831886
_cell_length_b 11.629990
_cell_length_c 25.917311
_cell_angle_alpha 90.000000
_cell_angle_beta 159.452144
_cell_angle_gamma 90.000000
_cell_volume 2732.874303
_symmetry_space_group_name_H-M "C 2/M"
_symmetry_group_IT_number 12
_symmetry_cell_setting 'monoclinic'
loop_
_space_group_symop_operation_xyz
x,y,z
-x,y,-z
-x,-y,-z
x,-y,z
1/2+x,1/2+y,z
1/2-x,1/2+y,-z
1/2-x,1/2-y,-z
1/2+x,1/2-y,z
loop_
_atom_site_type_symbol
_atom_site_label
_atom_site_fract_x
_atom_site_fract_y
_atom_site_fract_z
Si Si1 0.553706 0.129973 0.186503
Si Si2 0.817694 0.874923 0.792957
Si Si3 0.684402 0.630805 0.412450
Si Si4 0.311735 0.798078 0.428472
Si Si5 0.591581 0.868729 0.736616
Si Si6 0.117567 0.793173 0.041767
Si Si7 0.919838 0.723516 0.163530
O O1 0.719289 0.180510 0.342239
O O2 0.474521 0.147159 0.167068
O O3 0.577788 0.000000 0.195788
O O4 0.450023 0.175844 0.043495
O O5 0.696371 0.851142 0.636243
O O6 0.812526 0.782136 0.835188
O O7 0.784894 0.000000 0.786665
O O8 0.978645 0.879499 0.915999
O O9 0.710793 0.500000 0.461759
O O10 0.750000 0.750000 0.500000
O O11 0.743671 0.620108 0.409430
O O12 0.508577 0.655130 0.248091
O O13 0.485870 0.785036 0.603750
O O14 0.761828 0.838372 0.885964
O O15 0.550405 0.851544 0.757811
O O16 0.560356 0.000000 0.692025
O O17 0.750000 0.750000 0.000000
#
# Coordination Sequence:
#
# PCOD8094615 Si02
#       7
#     8   8   8   8   8   8   8
#     4  10  22  42  63  85 123 169 211 256 305 363
#     4  10  19  38  62  88 122 159 198 254 311 371
#     4  11  23  40  63  91 126 168 208 250 307 374
#     4  10  23  39  58  90 124 161 210 248 306 371
#     4  12  22  37  60  91 128 159 195 257 315 368
#     4  10  21  37  59  91 118 153 206 247 307 371
#     4  11  23  41  57  91 125 161 209 252 308 368
#
# _framework density 20.491247000000001
#
# number of rings (size 3 to 8) (size 9 to 14) (size 15 to 20)
#    0.000    1.429    2.857    3.429    0.000    4.000 
#    0.000    7.857    0.000    0.000    0.000   10.000 
#    0.000    0.000    0.000    0.000    0.000    0.000 
#
# Total GULP energy -346875.764920 kJ/mol
# GULP energy per Si atom -12388.420176 kJ/mol
# Density = 2.044461 g / cm^3
# Si number density = 20.491247 Si / 1000 Ang^3
#
#
#
# Elastic Constant Matrix: (Units=GPa)
#
#
# Indices 1 2 3 4 5 6 
#
# 1 84.1210 35.3467 21.6519 0.0034 -19.9402 0.0005
# 2 35.3467 145.1283 49.6817 0.0017 -9.6121 0.0002
# 3 21.6519 49.6817 99.6497 0.0045 -15.0127 0.0004
# 4 0.0034 0.0017 0.0045 19.3086 0.0006 -5.1302
# 5 -19.9402 -9.6121 -15.0127 0.0006 43.2358 0.0001
# 6 0.0005 0.0002 0.0004 -5.1302 0.0001 16.7948
#
#
#
# Elastic Compliance Matrix: (Units=1/GPa)
#
#
# Indices 1 2 3 4 5 6 
#
# 1 0.014714 -0.002898 -0.000872 -0.000003 0.005839 -0.000001
# 2 -0.002898 0.008887 -0.003909 0.000001 -0.000718 0.000000
# 3 -0.000872 -0.003909 0.012644 -0.000003 0.003119 -0.000001
# 4 -0.000003 0.000001 -0.000003 0.056365 -0.000003 0.017218
# 5 0.005839 -0.000718 0.003119 -0.000003 0.026745 -0.000001
# 6 -0.000001 0.000000 -0.000001 0.017218 -0.000001 0.064802
#
#
# Mechanical properties :
#
#
# Convention : Reuss Voigt Hill
#
# Bulk Modulus (GPa) = 47.88186 60.25105 54.06645
# Shear Modulus (GPa) = 24.21567 30.68242 27.44904
#
# Velocity S-wave (km/s) = 3.44140 3.87375 3.66396
# Velocity P-wave (km/s) = 6.26168 7.03385 6.65897
#
# Compressibility (1/GPa) = 0.02088474
#
# Stress axis : x y z
#
# Youngs Moduli (GPa) = 67.96217 112.52375 79.09160
#
# Poissons Ratio (x) = 0.32613 0.06900
# Poissons Ratio (y) = 0.19698 0.30919
# Poissons Ratio (z) = 0.05929 0.43988
#
# Static dielectric constant tensor:
#      x y z
#    x 3.897180 0.000000 -0.129970 
#    y 0.000000 3.608850 -0.000010 
#    z -0.129970 -0.000010 3.966580 
# 
# 
# High freq. dielectric constant tensor:
#      x y z
#    x 1.802320 0.000000 -0.006640 
#    y 0.000000 1.767620 0.000000 
#    z -0.006640 0.000000 1.811330 
# 
# From -- ./inp_files/369426.got.cif
#   From: 2010.06.25/outbox.cif.g09.slc.cpg/sg12_185_cif.got.tgz:369426.got - 2010.06.28 00:19:55.
