data_PCOD8094857
_publ_section_title
;
Structure prediction by ZEFSAII (Michael W. Deem and Ramdas Pophale) SiO2 
 PCOD8094857
Probable space group: C 2/M
;
_chemical_formula_sum "Si O2"
_cell_formula_units_Z 40
_cell_length_a 26.985898
_cell_length_b 13.724533
_cell_length_c 17.548389
_cell_angle_alpha 90.000000
_cell_angle_beta 160.376251
_cell_angle_gamma 90.000000
_cell_volume 2182.763784
_symmetry_space_group_name_H-M "C 2/M"
_symmetry_group_IT_number 12
_symmetry_cell_setting 'monoclinic'
loop_
_space_group_symop_operation_xyz
x,y,z
-x,y,-z
-x,-y,-z
x,-y,z
1/2+x,1/2+y,z
1/2-x,1/2+y,-z
1/2-x,1/2-y,-z
1/2+x,1/2-y,z
loop_
_atom_site_type_symbol
_atom_site_label
_atom_site_fract_x
_atom_site_fract_y
_atom_site_fract_z
Si Si1 0.163184 0.363182 0.066427
Si Si2 0.044757 0.500000 0.151481
Si Si3 0.137716 0.000000 0.324747
Si Si4 0.877463 0.865133 0.982960
Si Si5 0.605404 0.000000 0.852438
Si Si6 0.238405 0.500000 0.663837
Si Si7 0.825528 0.000000 0.042271
Si Si8 0.580940 0.500000 0.536196
O O1 0.316427 0.403358 0.324363
O O2 0.145983 0.248916 0.047044
O O3 0.159986 0.402558 0.975043
O O4 0.021631 0.404263 0.905636
O O5 0.220362 0.500000 0.415613
O O6 0.000000 0.500000 0.000000
O O7 0.044375 0.902364 0.209195
O O8 0.172987 0.000000 0.286630
O O9 0.826023 0.904722 0.990255
O O10 0.777078 0.904231 0.768540
O O11 0.431649 0.000000 0.599789
O O12 0.671720 0.000000 0.864397
O O13 0.963935 0.000000 0.299265
O O14 0.500000 0.500000 0.500000
#
# Coordination Sequence:
#
# PCOD8094857 Si02
#       8
#     8   4   4   8   4   4   4   4
#     4  10  22  39  57  92 116 149 204 239 292 349
#     4  10  22  38  60  88 121 153 189 248 297 343
#     4  10  20  42  63  79 123 159 187 241 300 347
#     4  10  24  36  60  92 114 154 203 240 285 350
#     4  10  20  41  60  80 125 156 190 243 294 347
#     4  10  20  43  59  81 122 162 186 241 301 345
#     4  10  21  41  61  85 121 158 192 242 298 344
#     4  10  19  41  62  78 121 160 187 240 298 343
#
# _framework density 18.325392000000001
#
# number of rings (size 3 to 8) (size 9 to 14) (size 15 to 20)
#    0.000    2.400    4.000    1.200    5.600    6.400 
#    3.600    0.000    0.000    0.000    0.000    0.000 
#    0.000    0.000    0.000    0.000    0.000    0.000 
#
# Total GULP energy -247914.602626 kJ/mol
# GULP energy per Si atom -12395.730131 kJ/mol
# Density = 1.828368 g / cm^3
# Si number density = 18.325392 Si / 1000 Ang^3
#
#
#
# Elastic Constant Matrix: (Units=GPa)
#
#
# Indices 1 2 3 4 5 6 
#
# 1 131.0521 49.1371 8.8214 0.0000 1.1190 0.0000
# 2 49.1371 188.8646 26.3277 0.0000 3.1074 0.0000
# 3 8.8214 26.3277 38.0231 0.0000 0.6655 0.0000
# 4 0.0000 0.0000 0.0000 6.6942 0.0000 1.8075
# 5 1.1190 3.1074 0.6655 0.0000 36.2970 0.0000
# 6 0.0000 0.0000 0.0000 1.8075 0.0000 15.9748
#
#
#
# Elastic Compliance Matrix: (Units=1/GPa)
#
#
# Indices 1 2 3 4 5 6 
#
# 1 0.008464 -0.002133 -0.000485 0.000000 -0.000069 0.000000
# 2 -0.002133 0.006405 -0.003933 0.000000 -0.000410 0.000000
# 3 -0.000485 -0.003933 0.029139 0.000000 -0.000183 0.000000
# 4 0.000000 0.000000 0.000000 0.154090 0.000000 -0.017435
# 5 -0.000069 -0.000410 -0.000183 0.000000 0.027591 0.000000
# 6 0.000000 0.000000 0.000000 -0.017435 0.000000 0.064572
#
#
# Mechanical properties :
#
#
# Convention : Reuss Voigt Hill
#
# Bulk Modulus (GPa) = 32.35751 58.50135 45.42943
# Shear Modulus (GPa) = 15.94067 30.03676 22.98872
#
# Velocity S-wave (km/s) = 2.95255 4.05295 3.54570
# Velocity P-wave (km/s) = 5.41470 7.34131 6.45034
#
# Compressibility (1/GPa) = 0.03090473
#
# Stress axis : x y z
#
# Youngs Moduli (GPa) = 118.15245 156.13389 34.31869
#
# Poissons Ratio (x) = 0.33307 0.01665
# Poissons Ratio (y) = 0.25204 0.13496
# Poissons Ratio (z) = 0.05734 0.61402
#
# Static dielectric constant tensor:
#      x y z
#    x 3.644200 0.000000 -0.013890 
#    y 0.000000 3.080150 0.000000 
#    z -0.013890 0.000000 3.533760 
# 
# 
# High freq. dielectric constant tensor:
#      x y z
#    x 1.726000 0.000000 0.000700 
#    y 0.000000 1.689110 0.000000 
#    z 0.000700 0.000000 1.721460 
# 
# From -- ./inp_files/293563.got.cif
#   From: 2010.06.25/outbox.cif.g09.slc.cpg/sg12_147_cif.got.tgz:293563.got - 2010.06.28 00:19:55.
