data_PCOD8094511
_publ_section_title
;
Structure prediction by ZEFSAII (Michael W. Deem and Ramdas Pophale) SiO2 
 PCOD8094511
Probable space group: C 2/M
;
_chemical_formula_sum "Si O2"
_cell_formula_units_Z 48
_cell_length_a 13.370626
_cell_length_b 24.177997
_cell_length_c 19.075909
_cell_angle_alpha 90.000000
_cell_angle_beta 158.783238
_cell_angle_gamma 90.000000
_cell_volume 2231.735156
_symmetry_space_group_name_H-M "C 2/M"
_symmetry_group_IT_number 12
_symmetry_cell_setting 'monoclinic'
loop_
_space_group_symop_operation_xyz
x,y,z
-x,y,-z
-x,-y,-z
x,-y,z
1/2+x,1/2+y,z
1/2-x,1/2+y,-z
1/2-x,1/2-y,-z
1/2+x,1/2-y,z
loop_
_atom_site_type_symbol
_atom_site_label
_atom_site_fract_x
_atom_site_fract_y
_atom_site_fract_z
Si Si1 0.242855 0.325241 0.277896
Si Si2 0.993492 0.562068 0.298585
Si Si3 0.088086 0.940536 0.638064
Si Si4 0.161515 0.372019 0.671512
Si Si5 0.277066 0.161563 0.076275
Si Si6 0.053596 0.730467 0.682119
O O1 0.500000 0.321193 0.500000
O O2 0.224974 0.385955 0.229313
O O3 0.267812 0.280352 0.232918
O O4 0.954475 0.312768 0.128674
O O5 0.891513 0.500000 0.215108
O O6 0.844118 0.581022 0.272573
O O7 0.909981 0.602543 0.181438
O O8 0.325929 0.564548 0.519174
O O9 0.000000 0.942222 0.500000
O O10 0.238137 0.000000 0.752824
O O11 0.000874 0.317585 0.591417
O O12 0.000000 0.397110 0.500000
O O13 0.467097 0.351560 0.850731
O O14 0.283359 0.204668 0.145035
O O15 0.750000 0.750000 0.500000
#
# Coordination Sequence:
#
# PCOD8094511 Si02
#       6
#     8   8   8   8   8   8
#     4  11  18  34  61  93 126 159 199 251 312 368
#     4  10  19  37  67  94 123 162 204 253 310 369
#     4   9  16  30  58  96 127 154 195 247 301 361
#     4  11  26  44  57  86 128 165 208 260 299 359
#     4  11  23  40  62  93 126 159 209 255 304 370
#     4  11  21  38  63  87 122 160 198 256 310 369
#
# _framework density 21.507929000000001
#
# number of rings (size 3 to 8) (size 9 to 14) (size 15 to 20)
#    0.000    1.500    5.000    3.500    0.000    2.333 
#    3.000    0.000    0.000    0.000    0.000    2.333 
#    0.000    0.000    0.000    0.000    0.000    0.167 
#
# Total GULP energy -297493.349149 kJ/mol
# GULP energy per Si atom -12395.556215 kJ/mol
# Density = 2.145898 g / cm^3
# Si number density = 21.507929 Si / 1000 Ang^3
#
#
#
# Elastic Constant Matrix: (Units=GPa)
#
#
# Indices 1 2 3 4 5 6 
#
# 1 112.9922 49.7758 40.6323 -0.0317 32.5130 0.0514
# 2 49.7758 158.4506 10.4021 0.0954 1.2020 0.0013
# 3 40.6323 10.4021 74.3206 0.6319 13.2056 -0.3144
# 4 -0.0317 0.0954 0.6319 11.4885 0.0736 6.9237
# 5 32.5130 1.2020 13.2056 0.0736 29.2459 -0.2719
# 6 0.0514 0.0013 -0.3144 6.9237 -0.2719 15.7876
#
#
#
# Elastic Compliance Matrix: (Units=1/GPa)
#
#
# Indices 1 2 3 4 5 6 
#
# 1 0.018442 -0.005251 -0.006257 0.001146 -0.017473 -0.000988
# 2 -0.005251 0.007865 0.000862 -0.000318 0.005128 0.000261
# 3 -0.006257 0.000862 0.016897 -0.001573 -0.000696 0.001035
# 4 0.001146 -0.000318 -0.001573 0.118498 -0.001332 -0.052025
# 5 -0.017473 0.005128 -0.000696 -0.001332 0.053739 0.001552
# 6 -0.000988 0.000261 0.001035 -0.052025 0.001552 0.086207
#
#
# Mechanical properties :
#
#
# Convention : Reuss Voigt Hill
#
# Bulk Modulus (GPa) = 45.63381 60.82042 53.22712
# Shear Modulus (GPa) = 15.14042 27.63462 21.38752
#
# Velocity S-wave (km/s) = 2.65608 3.58838 3.15683
# Velocity P-wave (km/s) = 5.53801 6.74597 6.17162
#
# Compressibility (1/GPa) = 0.02191357
#
# Stress axis : x y z
#
# Youngs Moduli (GPa) = 54.22497 127.14184 59.18383
#
# Poissons Ratio (x) = 0.66758 0.37030
# Poissons Ratio (y) = 0.28472 -0.05104
# Poissons Ratio (z) = 0.33927 -0.10966
#
# Static dielectric constant tensor:
#      x y z
#    x 4.111240 0.000180 0.272120 
#    y 0.000180 4.459570 -0.000240 
#    z 0.272120 -0.000240 3.385120 
# 
# 
# High freq. dielectric constant tensor:
#      x y z
#    x 1.847350 -0.000010 0.032780 
#    y -0.000010 1.863110 -0.000040 
#    z 0.032780 -0.000040 1.795840 
# 
# From -- ./inp_files/312522.got.cif
#   From: 2010.06.25/outbox.cif.g09.slc.cpg/sg12_157_cif.got.tgz:312522.got - 2010.06.28 00:19:55.
