data_PCOD8094630
_publ_section_title
;
Structure prediction by ZEFSAII (Michael W. Deem and Ramdas Pophale) SiO2 
 PCOD8094630
Probable space group: C 2/M
;
_chemical_formula_sum "Si O2"
_cell_formula_units_Z 64
_cell_length_a 28.338745
_cell_length_b 8.896701
_cell_length_c 18.608026
_cell_angle_alpha 90.000000
_cell_angle_beta 135.915607
_cell_angle_gamma 90.000000
_cell_volume 3263.943457
_symmetry_space_group_name_H-M "C 2/M"
_symmetry_group_IT_number 12
_symmetry_cell_setting 'monoclinic'
loop_
_space_group_symop_operation_xyz
x,y,z
-x,y,-z
-x,-y,-z
x,-y,z
1/2+x,1/2+y,z
1/2-x,1/2+y,-z
1/2-x,1/2-y,-z
1/2+x,1/2-y,z
loop_
_atom_site_type_symbol
_atom_site_label
_atom_site_fract_x
_atom_site_fract_y
_atom_site_fract_z
Si Si1 0.902737 0.176831 0.512732
Si Si2 0.648110 0.678697 0.695193
Si Si3 0.161762 0.177021 0.231138
Si Si4 0.949694 0.178312 0.287423
Si Si5 0.415771 0.827614 0.103513
Si Si6 0.026442 0.675867 0.107080
Si Si7 0.301901 0.825457 0.870792
Si Si8 0.770237 0.176509 0.447885
O O1 0.878363 0.245251 0.409663
O O2 0.848533 0.214197 0.515754
O O3 0.975151 0.245265 0.615496
O O4 0.909988 0.000000 0.510196
O O5 0.645821 0.500000 0.691273
O O6 0.600370 0.742237 0.706106
O O7 0.724896 0.732298 0.794548
O O8 0.094281 0.230831 0.198553
O O9 0.158599 0.227217 0.144930
O O10 0.226683 0.256728 0.335912
O O11 0.169111 0.000000 0.247137
O O12 0.922241 0.226548 0.180416
O O13 0.951450 0.000000 0.291499
O O14 0.471401 0.777987 0.105965
O O15 0.426762 0.000000 0.137526
O O16 0.340819 0.802479 0.988614
O O17 0.043566 0.500000 0.128180
O O18 0.000000 0.723392 0.000000
O O19 0.305361 0.000000 0.850634
O O20 0.750000 0.250000 0.500000
O O21 0.757467 0.000000 0.438583
#
# Coordination Sequence:
#
# PCOD8094630 Si02
#       8
#     8   8   8   8   8   8   8   8
#     4   9  18  35  61  87 113 147 193 241 288 342
#     4   9  17  34  63  89 109 146 199 247 292 345
#     4  12  24  37  57  88 120 152 192 245 301 351
#     4  10  21  36  58  89 119 148 190 246 300 348
#     4  10  22  38  57  83 117 157 197 235 289 353
#     4  10  20  38  61  82 109 155 201 233 278 348
#     4  10  19  38  63  84 112 157 205 242 282 350
#     4  11  23  40  60  86 120 158 194 240 292 352
#
# _framework density 19.608181999999999
#
# number of rings (size 3 to 8) (size 9 to 14) (size 15 to 20)
#    0.000    1.875    2.500    1.875    1.750    3.250 
#    0.000    1.250    0.000    0.750    0.000    0.000 
#    0.000    0.000    0.000    0.000    0.000    0.000 
#
# Total GULP energy -396870.288857 kJ/mol
# GULP energy per Si atom -12402.196527 kJ/mol
# Density = 1.956355 g / cm^3
# Si number density = 19.608182 Si / 1000 Ang^3
#
#
#
# Elastic Constant Matrix: (Units=GPa)
#
#
# Indices 1 2 3 4 5 6 
#
# 1 138.1438 36.0977 64.7400 0.0000 0.8486 0.0000
# 2 36.0977 51.2041 26.7040 0.0000 2.8809 0.0000
# 3 64.7400 26.7040 122.2038 0.0000 7.8490 0.0000
# 4 0.0000 0.0000 0.0000 28.5266 0.0000 -6.7413
# 5 0.8486 2.8809 7.8490 0.0000 39.0497 0.0000
# 6 0.0000 0.0000 0.0000 -6.7413 0.0000 20.2948
#
#
#
# Elastic Compliance Matrix: (Units=1/GPa)
#
#
# Indices 1 2 3 4 5 6 
#
# 1 0.010772 -0.005239 -0.004631 0.000000 0.001083 0.000000
# 2 -0.005239 0.024607 -0.002525 0.000000 -0.001194 0.000000
# 3 -0.004631 -0.002525 0.011316 0.000000 -0.001988 0.000000
# 4 0.000000 0.000000 0.000000 0.038041 0.000000 0.012636
# 5 0.001083 -0.001194 -0.001988 0.000000 0.026072 0.000000
# 6 0.000000 0.000000 0.000000 0.012636 0.000000 0.053471
#
#
# Mechanical properties :
#
#
# Convention : Reuss Voigt Hill
#
# Bulk Modulus (GPa) = 45.65373 62.95944 54.30659
# Shear Modulus (GPa) = 25.46194 29.84155 27.65175
#
# Velocity S-wave (km/s) = 3.60743 3.90538 3.75936
# Velocity P-wave (km/s) = 6.37848 7.24668 6.82640
#
# Compressibility (1/GPa) = 0.02190401
#
# Stress axis : x y z
#
# Youngs Moduli (GPa) = 92.83652 40.63840 88.37145
#
# Poissons Ratio (x) = 0.21292 0.40926
# Poissons Ratio (y) = 0.48641 0.22312
# Poissons Ratio (z) = 0.42994 0.10260
#
# Static dielectric constant tensor:
#      x y z
#    x 3.715350 0.000000 0.169200 
#    y 0.000000 3.209620 0.000000 
#    z 0.169200 0.000000 3.648440 
# 
# 
# High freq. dielectric constant tensor:
#      x y z
#    x 1.772100 0.000000 0.008590 
#    y 0.000000 1.726400 0.000000 
#    z 0.008590 0.000000 1.773600 
# 
# From -- ./inp_files/295694.got.cif
#   From: 2010.06.25/outbox.cif.g09.slc.cpg/sg12_148_cif.got.tgz:295694.got - 2010.06.28 00:19:55.
