data_PCOD8094866
_publ_section_title
;
Structure prediction by ZEFSAII (Michael W. Deem and Ramdas Pophale) SiO2 
 PCOD8094866
Probable space group: C 2/M
;
_chemical_formula_sum "Si O2"
_cell_formula_units_Z 44
_cell_length_a 18.317955
_cell_length_b 7.713465
_cell_length_c 14.435074
_cell_angle_alpha 90.000000
_cell_angle_beta 86.842990
_cell_angle_gamma 90.000000
_cell_volume 2036.507038
_symmetry_space_group_name_H-M "C 2/M"
_symmetry_group_IT_number 12
_symmetry_cell_setting 'monoclinic'
loop_
_space_group_symop_operation_xyz
x,y,z
-x,y,-z
-x,-y,-z
x,-y,z
1/2+x,1/2+y,z
1/2-x,1/2+y,-z
1/2-x,1/2-y,-z
1/2+x,1/2-y,z
loop_
_atom_site_type_symbol
_atom_site_label
_atom_site_fract_x
_atom_site_fract_y
_atom_site_fract_z
Si Si1 0.454683 0.500000 0.910161
Si Si2 0.576471 0.815132 0.338837
Si Si3 0.351414 0.803084 0.863413
Si Si4 0.794267 0.702213 0.212958
Si Si5 0.404520 0.500000 0.225994
Si Si6 0.784960 0.799647 0.593052
Si Si7 0.984089 0.000000 0.391731
O O1 0.401918 0.669549 0.916761
O O2 0.512258 0.500000 0.820582
O O3 0.500000 0.500000 0.000000
O O4 0.619863 0.797942 0.241785
O O5 0.637383 0.797645 0.414258
O O6 0.515530 0.673598 0.347879
O O7 0.536604 0.000000 0.351600
O O8 0.266872 0.740301 0.861997
O O9 0.355917 0.000000 0.904396
O O10 0.817894 0.500000 0.205389
O O11 0.765426 0.753140 0.317087
O O12 0.863530 0.827550 0.191194
O O13 0.406560 0.500000 0.341030
O O14 0.750000 0.750000 0.500000
O O15 0.804590 0.000000 0.598497
O O16 0.000000 0.000000 0.500000
#
# Coordination Sequence:
#
# PCOD8094866 Si02
#       7
#     4   8   8   8   4   8   4
#     4  12  26  46  74 104 135 172 217 274 336 416
#     4  10  20  37  60  86 117 171 223 263 319 386
#     4  10  19  41  73  96 127 177 220 261 330 405
#     4  10  22  39  66  96 129 176 220 273 335 382
#     4  12  26  44  66 100 138 167 227 282 335 390
#     4  10  20  32  55  88 125 163 224 275 308 377
#     4  12  26  40  58  86 138 179 213 272 339 386
#
# _framework density 21.605620999999999
#
# number of rings (size 3 to 8) (size 9 to 14) (size 15 to 20)
#    0.000    1.455    4.545    0.545    5.091    2.182 
#    0.000    0.909    0.000    0.000    0.000    0.000 
#    0.000    0.000    0.000    0.000    0.000    0.000 
#
# Total GULP energy -272570.379653 kJ/mol
# GULP energy per Si atom -12389.562711 kJ/mol
# Density = 2.155645 g / cm^3
# Si number density = 21.605621 Si / 1000 Ang^3
#
#
#
# Elastic Constant Matrix: (Units=GPa)
#
#
# Indices 1 2 3 4 5 6 
#
# 1 81.7599 48.8707 19.1175 0.0000 29.3486 0.0000
# 2 48.8707 153.5490 15.8360 0.0000 17.4495 0.0000
# 3 19.1175 15.8360 71.3843 0.0000 35.8251 0.0000
# 4 0.0000 0.0000 0.0000 21.2080 0.0000 18.8542
# 5 29.3486 17.4495 35.8251 0.0000 36.0514 0.0000
# 6 0.0000 0.0000 0.0000 18.8542 0.0000 75.0917
#
#
#
# Elastic Compliance Matrix: (Units=1/GPa)
#
#
# Indices 1 2 3 4 5 6 
#
# 1 0.021294 -0.005027 0.005767 0.000000 -0.020632 0.000000
# 2 -0.005027 0.008082 -0.001072 0.000000 0.001246 0.000000
# 3 0.005767 -0.001072 0.029520 0.000000 -0.033511 0.000000
# 4 0.000000 0.000000 0.000000 0.060702 0.000000 -0.015241
# 5 -0.020632 0.001246 -0.033511 0.000000 0.077232 0.000000
# 6 0.000000 0.000000 0.000000 -0.015241 0.000000 0.017144
#
#
# Mechanical properties :
#
#
# Convention : Reuss Voigt Hill
#
# Bulk Modulus (GPa) = 17.17297 52.70460 34.93879
# Shear Modulus (GPa) = 21.36332 41.32815 31.34573
#
# Velocity S-wave (km/s) = 3.14791 4.37835 3.81309
# Velocity P-wave (km/s) = 4.60196 7.07155 5.96594
#
# Compressibility (1/GPa) = 0.05823103
#
# Stress axis : x y z
#
# Youngs Moduli (GPa) = 46.96240 123.73829 33.87575
#
# Poissons Ratio (x) = 0.62207 -0.19537
# Poissons Ratio (y) = 0.23609 0.03631
# Poissons Ratio (z) = -0.27084 0.13263
#
# Static dielectric constant tensor:
#      x y z
#    x 3.959400 0.000000 0.187490 
#    y 0.000000 4.270590 0.000000 
#    z 0.187490 0.000000 3.676130 
# 
# 
# High freq. dielectric constant tensor:
#      x y z
#    x 1.836590 0.000000 0.026900 
#    y 0.000000 1.868700 0.000000 
#    z 0.026900 0.000000 1.824260 
# 
# From -- ./inp_files/221091.got.cif
#   From: 2010.06.25/outbox.cif.g09.slc.cpg/sg12_111_cif.got.tgz:221091.got - 2010.06.28 00:19:55.
