data_PCOD8094879
_publ_section_title
;
Structure prediction by ZEFSAII (Michael W. Deem and Ramdas Pophale) SiO2 
 PCOD8094879
Probable space group: C 2/M
;
_chemical_formula_sum "Si O2"
_cell_formula_units_Z 64
_cell_length_a 17.862288
_cell_length_b 29.626941
_cell_length_c 8.525918
_cell_angle_alpha 90.000000
_cell_angle_beta 116.674951
_cell_angle_gamma 90.000000
_cell_volume 4031.740140
_symmetry_space_group_name_H-M "C 2/M"
_symmetry_group_IT_number 12
_symmetry_cell_setting 'monoclinic'
loop_
_space_group_symop_operation_xyz
x,y,z
-x,y,-z
-x,-y,-z
x,-y,z
1/2+x,1/2+y,z
1/2-x,1/2+y,-z
1/2-x,1/2-y,-z
1/2+x,1/2-y,z
loop_
_atom_site_type_symbol
_atom_site_label
_atom_site_fract_x
_atom_site_fract_y
_atom_site_fract_z
Si Si1 0.177606 0.634309 0.014124
Si Si2 0.722825 0.216504 0.610501
Si Si3 0.010410 0.311533 0.837104
Si Si4 0.702752 0.294899 0.008500
Si Si5 0.905306 0.550903 0.581643
Si Si6 0.072013 0.760401 0.668286
Si Si7 0.404816 0.948867 0.213727
Si Si8 0.841033 0.637222 0.649927
O O1 0.201464 0.638377 0.219365
O O2 0.095654 0.661998 0.899626
O O3 0.252719 0.657911 0.990764
O O4 0.159762 0.583168 0.941380
O O5 0.750000 0.250000 0.500000
O O6 0.800345 0.209342 0.804940
O O7 0.641790 0.235698 0.626220
O O8 0.708647 0.167865 0.519482
O O9 0.012662 0.274589 0.704578
O O10 0.936337 0.346452 0.740276
O O11 0.000000 0.289229 0.000000
O O12 0.750000 0.250000 0.000000
O O13 0.613228 0.294033 0.835626
O O14 0.875492 0.500000 0.588766
O O15 0.901773 0.561038 0.394629
O O16 0.839976 0.585010 0.598902
O O17 0.998026 0.558191 0.742767
O O18 0.000000 0.786596 0.500000
O O19 0.376812 0.000000 0.149368
#
# Coordination Sequence:
#
# PCOD8094879 Si02
#       8
#     8   8   8   8   8   8   8   8
#     4  11  19  32  45  65  93 124 159 200 240 280
#     4  11  22  33  48  69  93 123 162 200 242 282
#     4  10  20  29  44  69  91 124 165 199 232 279
#     4  10  20  33  48  63  92 119 154 196 235 280
#     4   9  18  29  42  63  88 120 160 201 234 273
#     4  11  21  34  50  68  90 125 157 200 237 286
#     4   9  18  30  44  61  88 122 160 198 237 275
#     4  11  20  29  46  66  92 124 162 201 234 280
#
# _framework density 15.874039
#
# number of rings (size 3 to 8) (size 9 to 14) (size 15 to 20)
#    0.000    1.750    5.000    3.000    1.750    0.500 
#    0.000    1.250    0.000    0.000    0.000    0.000 
#    0.000    0.500    0.000    0.250    0.000   25.250 
#
# Total GULP energy -396526.170224 kJ/mol
# GULP energy per Si atom -12391.442819 kJ/mol
# Density = 1.583791 g / cm^3
# Si number density = 15.874039 Si / 1000 Ang^3
#
#
#
# Elastic Constant Matrix: (Units=GPa)
#
#
# Indices 1 2 3 4 5 6 
#
# 1 38.1222 24.5082 30.5117 0.0000 -6.8412 0.0000
# 2 24.5082 84.3923 45.7419 0.0000 -2.2742 0.0000
# 3 30.5117 45.7419 127.3376 0.0000 4.1318 0.0000
# 4 0.0000 0.0000 0.0000 28.6627 0.0000 -0.3544
# 5 -6.8412 -2.2742 4.1318 0.0000 24.0221 0.0000
# 6 0.0000 0.0000 0.0000 -0.3544 0.0000 21.5053
#
#
#
# Elastic Compliance Matrix: (Units=1/GPa)
#
#
# Indices 1 2 3 4 5 6 
#
# 1 0.038473 -0.007033 -0.007065 0.000000 0.011506 0.000000
# 2 -0.007033 0.016129 -0.004116 0.000000 0.000232 0.000000
# 3 -0.007065 -0.004116 0.011165 0.000000 -0.004322 0.000000
# 4 0.000000 0.000000 0.000000 0.034896 0.000000 0.000575
# 5 0.011506 0.000232 -0.004322 0.000000 0.045670 0.000000
# 6 0.000000 0.000000 0.000000 0.000575 0.000000 0.046510
#
#
# Mechanical properties :
#
#
# Convention : Reuss Voigt Hill
#
# Bulk Modulus (GPa) = 34.08631 50.15286 42.11958
# Shear Modulus (GPa) = 20.91602 24.77738 22.84670
#
# Velocity S-wave (km/s) = 3.63385 3.95508 3.79786
# Velocity P-wave (km/s) = 6.25508 7.24705 6.76926
#
# Compressibility (1/GPa) = 0.02933729
#
# Stress axis : x y z
#
# Youngs Moduli (GPa) = 25.99246 61.99935 89.56596
#
# Poissons Ratio (x) = 0.43605 0.63282
# Poissons Ratio (y) = 0.18281 0.36867
# Poissons Ratio (z) = 0.18365 0.25520
#
# Static dielectric constant tensor:
#      x y z
#    x 2.969230 0.000000 0.272180 
#    y 0.000000 3.046550 0.000000 
#    z 0.272180 0.000000 4.173560 
# 
# 
# High freq. dielectric constant tensor:
#      x y z
#    x 1.565610 0.000000 -0.021350 
#    y 0.000000 1.589100 0.000000 
#    z -0.021350 0.000000 1.626130 
# 
# From -- ./inp_files/90418.got.cif
#   From: 2010.06.25/outbox.cif.g09.slc.cpg/sg12_46_cif.got.tgz:90418.got - 2010.06.28 00:19:55.
