data_PCOD8094562
_publ_section_title
;
Structure prediction by ZEFSAII (Michael W. Deem and Ramdas Pophale) SiO2 
 PCOD8094562
Probable space group: C 2/M
;
_chemical_formula_sum "Si O2"
_cell_formula_units_Z 64
_cell_length_a 14.908090
_cell_length_b 24.096763
_cell_length_c 13.351226
_cell_angle_alpha 90.000000
_cell_angle_beta 41.218547
_cell_angle_gamma 90.000000
_cell_volume 3160.407683
_symmetry_space_group_name_H-M "C 2/M"
_symmetry_group_IT_number 12
_symmetry_cell_setting 'monoclinic'
loop_
_space_group_symop_operation_xyz
x,y,z
-x,y,-z
-x,-y,-z
x,-y,z
1/2+x,1/2+y,z
1/2-x,1/2+y,-z
1/2-x,1/2-y,-z
1/2+x,1/2-y,z
loop_
_atom_site_type_symbol
_atom_site_label
_atom_site_fract_x
_atom_site_fract_y
_atom_site_fract_z
Si Si1 0.719085 0.435040 0.162822
Si Si2 0.411537 0.855174 0.669182
Si Si3 0.378176 0.341213 0.176460
Si Si4 0.638229 0.784183 0.827933
Si Si5 0.426996 0.728578 0.665796
Si Si6 0.775508 0.608921 0.332230
Si Si7 0.957226 0.436975 0.813117
Si Si8 0.539159 0.627284 0.681243
O O1 0.706991 0.500000 0.192337
O O2 0.724813 0.404056 0.263509
O O3 0.588351 0.413966 0.212189
O O4 0.852433 0.419410 0.987633
O O5 0.500000 0.872987 0.500000
O O6 0.255478 0.860218 0.769124
O O7 0.451120 0.793091 0.672123
O O8 0.442245 0.897025 0.731901
O O9 0.373771 0.276483 0.210404
O O10 0.395208 0.375280 0.264099
O O11 0.500000 0.354819 0.000000
O O12 0.765881 0.784267 0.797327
O O13 0.664405 0.828378 0.717364
O O14 0.500000 0.801204 0.000000
O O15 0.500000 0.713406 0.500000
O O16 0.493010 0.690265 0.695553
O O17 0.648918 0.603765 0.512011
O O18 0.891509 0.566397 0.268902
O O19 0.929706 0.500000 0.801499
#
# Coordination Sequence:
#
# PCOD8094562 Si02
#       8
#     8   8   8   8   8   8   8   8
#     4  11  24  43  64  90 128 162 202 258 311 368
#     4  10  22  42  64  90 122 165 209 260 306 354
#     4  10  23  41  59  88 128 163 204 254 300 358
#     4  10  20  36  56  88 127 160 197 241 301 367
#     4  10  19  38  59  92 129 158 199 251 310 373
#     4  12  23  38  62  94 126 160 197 255 310 375
#     4  11  25  43  64  90 120 166 214 253 309 366
#     4  12  23  39  65  93 124 167 205 249 308 369
#
# _framework density 20.250551999999999
#
# number of rings (size 3 to 8) (size 9 to 14) (size 15 to 20)
#    0.000    1.250    2.500    3.375    1.750    3.250 
#    0.000    3.125    0.000    2.250    0.000    0.000 
#    0.000    0.000    0.000    0.000    0.000    0.000 
#
# Total GULP energy -396963.492025 kJ/mol
# GULP energy per Si atom -12405.109126 kJ/mol
# Density = 2.020446 g / cm^3
# Si number density = 20.250552 Si / 1000 Ang^3
#
#
#
# Elastic Constant Matrix: (Units=GPa)
#
#
# Indices 1 2 3 4 5 6 
#
# 1 42.9586 -0.6256 19.2999 -0.0004 -7.2928 0.0002
# 2 -0.6256 55.5999 34.3121 0.0000 4.5999 -0.0001
# 3 19.2999 34.3121 93.4841 -0.0013 -13.6812 0.0008
# 4 -0.0004 0.0000 -0.0013 29.5555 0.0006 -0.4579
# 5 -7.2928 4.5999 -13.6812 0.0006 37.3215 -0.0004
# 6 0.0002 -0.0001 0.0008 -0.4579 -0.0004 31.1832
#
#
#
# Elastic Compliance Matrix: (Units=1/GPa)
#
#
# Indices 1 2 3 4 5 6 
#
# 1 0.026763 0.004302 -0.006780 0.000000 0.002214 0.000000
# 2 0.004302 0.025453 -0.011166 0.000000 -0.006389 0.000000
# 3 -0.006780 -0.011166 0.017121 0.000001 0.006327 0.000000
# 4 0.000000 0.000000 0.000001 0.033842 0.000000 0.000497
# 5 0.002214 -0.006389 0.006327 0.000000 0.030334 0.000000
# 6 0.000000 0.000000 0.000000 0.000497 0.000000 0.032076
#
#
# Mechanical properties :
#
#
# Convention : Reuss Voigt Hill
#
# Bulk Modulus (GPa) = 23.78126 33.11283 28.44704
# Shear Modulus (GPa) = 24.16708 28.88245 26.52477
#
# Velocity S-wave (km/s) = 3.45832 3.78068 3.62308
# Velocity P-wave (km/s) = 5.26456 5.95358 5.61964
#
# Compressibility (1/GPa) = 0.04204991
#
# Stress axis : x y z
#
# Youngs Moduli (GPa) = 37.36513 39.28776 58.40780
#
# Poissons Ratio (x) = -0.16903 0.39603
# Poissons Ratio (y) = -0.16076 0.65216
# Poissons Ratio (z) = 0.25335 0.43867
#
# Static dielectric constant tensor:
#      x y z
#    x 3.553160 0.000000 -0.280120 
#    y 0.000000 3.690920 0.000000 
#    z -0.280120 0.000000 3.760230 
# 
# 
# High freq. dielectric constant tensor:
#      x y z
#    x 1.788180 0.000000 -0.018320 
#    y 0.000000 1.786990 0.000000 
#    z -0.018320 0.000000 1.799540 
# 
# From -- ./inp_files/149763.got.cif
#   From: 2010.06.25/outbox.cif.g09.slc.cpg/sg12_75_cif.got.tgz:149763.got - 2010.06.28 00:19:55.
