data_PCOD8094994
_publ_section_title
;
Structure prediction by ZEFSAII (Michael W. Deem and Ramdas Pophale) SiO2 
 PCOD8094994
Probable space group: C 2/M
;
_chemical_formula_sum "Si O2"
_cell_formula_units_Z 64
_cell_length_a 27.556513
_cell_length_b 9.164707
_cell_length_c 15.468755
_cell_angle_alpha 90.000000
_cell_angle_beta 112.705343
_cell_angle_gamma 90.000000
_cell_volume 3603.840568
_symmetry_space_group_name_H-M "C 2/M"
_symmetry_group_IT_number 12
_symmetry_cell_setting 'monoclinic'
loop_
_space_group_symop_operation_xyz
x,y,z
-x,y,-z
-x,-y,-z
x,-y,z
1/2+x,1/2+y,z
1/2-x,1/2+y,-z
1/2-x,1/2-y,-z
1/2+x,1/2-y,z
loop_
_atom_site_type_symbol
_atom_site_label
_atom_site_fract_x
_atom_site_fract_y
_atom_site_fract_z
Si Si1 0.419191 0.667657 0.404051
Si Si2 0.029422 0.329917 0.212130
Si Si3 0.695777 0.667418 0.460579
Si Si4 0.544240 0.335290 0.957884
Si Si5 0.325116 0.171424 0.392901
Si Si6 0.794859 0.834115 0.724661
Si Si7 0.022383 0.831777 0.379730
Si Si8 0.883596 0.669581 0.871223
O O1 0.401134 0.500000 0.392895
O O2 0.367922 0.769831 0.353473
O O3 0.446104 0.710894 0.512942
O O4 0.460312 0.694771 0.354795
O O5 0.016411 0.500000 0.208384
O O6 0.079098 0.299675 0.184948
O O7 0.977642 0.248019 0.141008
O O8 0.042584 0.268801 0.315843
O O9 0.703236 0.500000 0.493672
O O10 0.750000 0.750000 0.500000
O O11 0.659186 0.748289 0.505597
O O12 0.675658 0.677901 0.348188
O O13 0.559856 0.500000 0.942666
O O14 0.500000 0.334886 0.000000
O O15 0.595203 0.251887 0.029340
O O16 0.266295 0.214280 0.322275
O O17 0.329966 0.000000 0.410024
O O18 0.825252 0.729225 0.811366
O O19 0.798468 0.000000 0.760805
O O20 0.032894 0.000000 0.362272
O O21 0.880160 0.500000 0.890942
#
# Coordination Sequence:
#
# PCOD8094994 Si02
#       8
#     8   8   8   8   8   8   8   8
#     4   9  19  35  52  70  94 126 164 207 247 285
#     4  10  20  32  48  73 101 127 158 198 243 286
#     4   9  17  29  43  61  87 121 159 199 235 274
#     4   9  17  31  50  70  94 128 162 192 233 287
#     4  10  20  32  47  67  93 126 163 202 245 288
#     4   9  19  32  44  64  93 127 164 196 230 284
#     4   9  19  35  52  71  95 125 164 203 244 293
#     4  10  20  31  46  71 102 130 158 198 239 279
#
# _framework density 17.758832000000002
#
# number of rings (size 3 to 8) (size 9 to 14) (size 15 to 20)
#    0.000    2.625    0.000    3.375    1.750    7.000 
#    0.000    1.250    0.000    0.000    0.000    0.875 
#    0.000    0.000    0.000    0.000    0.000    0.000 
#
# Total GULP energy -396693.228820 kJ/mol
# GULP energy per Si atom -12396.663401 kJ/mol
# Density = 1.771841 g / cm^3
# Si number density = 17.758832 Si / 1000 Ang^3
#
#
#
# Elastic Constant Matrix: (Units=GPa)
#
#
# Indices 1 2 3 4 5 6 
#
# 1 54.9529 26.9410 6.9897 0.0000 13.4059 0.0000
# 2 26.9410 99.4400 30.0617 0.0000 13.0163 0.0000
# 3 6.9897 30.0617 48.0822 0.0000 11.3529 0.0000
# 4 0.0000 0.0000 0.0000 28.1945 0.0000 1.1555
# 5 13.4059 13.0163 11.3529 0.0000 21.8550 0.0000
# 6 0.0000 0.0000 0.0000 1.1555 0.0000 25.4881
#
#
#
# Elastic Compliance Matrix: (Units=1/GPa)
#
#
# Indices 1 2 3 4 5 6 
#
# 1 0.023710 -0.005698 0.003133 0.000000 -0.012777 0.000000
# 2 -0.005698 0.014057 -0.007761 0.000000 -0.000845 0.000000
# 3 0.003133 -0.007761 0.027990 0.000000 -0.011839 0.000000
# 4 0.000000 0.000000 0.000000 0.035534 0.000000 -0.001611
# 5 -0.012777 -0.000845 -0.011839 0.000000 0.060247 0.000000
# 6 0.000000 0.000000 0.000000 -0.001611 0.000000 0.039307
#
#
# Mechanical properties :
#
#
# Convention : Reuss Voigt Hill
#
# Bulk Modulus (GPa) = 22.17087 36.71777 29.44432
# Shear Modulus (GPa) = 21.13887 24.33970 22.73928
#
# Velocity S-wave (km/s) = 3.45386 3.70614 3.58222
# Velocity P-wave (km/s) = 5.33076 6.24777 5.80739
#
# Compressibility (1/GPa) = 0.04510423
#
# Stress axis : x y z
#
# Youngs Moduli (GPa) = 42.17712 71.13960 35.72727
#
# Poissons Ratio (x) = 0.40536 -0.11193
# Poissons Ratio (y) = 0.24033 0.27727
# Poissons Ratio (z) = -0.13213 0.55209
#
# Static dielectric constant tensor:
#      x y z
#    x 3.159060 0.000000 0.049600 
#    y 0.000000 3.342130 0.000000 
#    z 0.049600 0.000000 3.119310 
# 
# 
# High freq. dielectric constant tensor:
#      x y z
#    x 1.661970 0.000000 0.016300 
#    y 0.000000 1.696840 0.000000 
#    z 0.016300 0.000000 1.660020 
# 
# From -- ./inp_files/244197.got.cif
#   From: 2010.06.25/outbox.cif.g09.slc.cpg/sg12_123_cif.got.tgz:244197.got - 2010.06.28 00:19:55.
