data_PCOD8094973
_publ_section_title
;
Structure prediction by ZEFSAII (Michael W. Deem and Ramdas Pophale) SiO2 
 PCOD8094973
Probable space group: C 2/M
;
_chemical_formula_sum "Si O2"
_cell_formula_units_Z 56
_cell_length_a 27.131152
_cell_length_b 9.122923
_cell_length_c 15.810513
_cell_angle_alpha 90.000000
_cell_angle_beta 113.543395
_cell_angle_gamma 90.000000
_cell_volume 3587.590136
_symmetry_space_group_name_H-M "C 2/M"
_symmetry_group_IT_number 12
_symmetry_cell_setting 'monoclinic'
loop_
_space_group_symop_operation_xyz
x,y,z
-x,y,-z
-x,-y,-z
x,-y,z
1/2+x,1/2+y,z
1/2-x,1/2+y,-z
1/2-x,1/2-y,-z
1/2+x,1/2-y,z
loop_
_atom_site_type_symbol
_atom_site_label
_atom_site_fract_x
_atom_site_fract_y
_atom_site_fract_z
Si Si1 0.432641 0.173097 0.540793
Si Si2 0.697992 0.668759 0.997086
Si Si3 0.753147 0.834169 0.799201
Si Si4 0.553323 0.172670 0.638421
Si Si5 0.643653 0.170733 0.823773
Si Si6 0.264817 0.171004 0.636309
Si Si7 0.333204 0.671647 0.549951
O O1 0.491767 0.212561 0.617382
O O2 0.429231 0.231713 0.441947
O O3 0.390489 0.259103 0.568607
O O4 0.421266 0.000000 0.538554
O O5 0.701005 0.500000 0.971893
O O6 0.698142 0.683495 0.099317
O O7 0.750000 0.750000 0.000000
O O8 0.646861 0.743872 0.915955
O O9 0.696354 0.798957 0.804029
O O10 0.762957 0.719878 0.731782
O O11 0.752325 0.000000 0.762588
O O12 0.592499 0.235585 0.737751
O O13 0.560306 0.000000 0.638526
O O14 0.637023 0.000000 0.839910
O O15 0.312201 0.257843 0.622212
O O16 0.207782 0.208010 0.554118
O O17 0.278001 0.000000 0.640188
O O18 0.339986 0.500000 0.569124
#
# Coordination Sequence:
#
# PCOD8094973 Si02
#       7
#     8   8   8   8   8   8   8
#     4   9  16  29  47  64  86 117 150 179 208 249
#     4   9  17  28  41  60  86 116 146 175 213 257
#     4   9  17  28  43  63  88 115 142 177 216 252
#     4   8  15  27  45  67  88 115 149 179 209 248
#     4   9  16  27  43  64  90 118 146 176 212 252
#     4  10  20  31  45  64  84 112 148 178 210 257
#     4  10  20  32  44  62  89 115 141 178 218 252
#
# _framework density 15.609363999999999
#
# number of rings (size 3 to 8) (size 9 to 14) (size 15 to 20)
#    0.000    2.857    0.000    3.857    0.000    5.714 
#    0.000    2.857    0.000    0.000    0.000    1.000 
#    0.000    8.000    0.000    0.000    0.000    0.000 
#
# Total GULP energy -347088.188952 kJ/mol
# GULP energy per Si atom -12396.006748 kJ/mol
# Density = 1.557384 g / cm^3
# Si number density = 15.609364 Si / 1000 Ang^3
#
#
#
# Elastic Constant Matrix: (Units=GPa)
#
#
# Indices 1 2 3 4 5 6 
#
# 1 79.9778 36.8643 39.0436 0.0000 6.0232 0.0000
# 2 36.8643 70.7373 42.2768 0.0000 -0.0200 0.0000
# 3 39.0436 42.2768 106.2305 0.0000 15.3475 0.0000
# 4 0.0000 0.0000 0.0000 27.8577 0.0000 -2.9178
# 5 6.0232 -0.0200 15.3475 0.0000 22.6192 0.0000
# 6 0.0000 0.0000 0.0000 -2.9178 0.0000 22.8811
#
#
#
# Elastic Compliance Matrix: (Units=1/GPa)
#
#
# Indices 1 2 3 4 5 6 
#
# 1 0.017608 -0.007250 -0.003224 0.000000 -0.002508 0.000000
# 2 -0.007250 0.022190 -0.007149 0.000000 0.006801 0.000000
# 3 -0.003224 -0.007149 0.014768 0.000000 -0.009168 0.000000
# 4 0.000000 0.000000 0.000000 0.036383 0.000000 0.004640
# 5 -0.002508 0.006801 -0.009168 0.000000 0.051105 0.000000
# 6 0.000000 0.000000 0.000000 0.004640 0.000000 0.044296
#
#
# Mechanical properties :
#
#
# Convention : Reuss Voigt Hill
#
# Bulk Modulus (GPa) = 51.75990 54.81278 53.28634
# Shear Modulus (GPa) = 21.92652 23.92233 22.92442
#
# Velocity S-wave (km/s) = 3.75200 3.91904 3.83643
# Velocity P-wave (km/s) = 7.21121 7.46124 7.33729
#
# Compressibility (1/GPa) = 0.01931998
#
# Stress axis : x y z
#
# Youngs Moduli (GPa) = 56.79216 45.06614 67.71434
#
# Poissons Ratio (x) = 0.32674 0.21831
# Poissons Ratio (y) = 0.41176 0.48407
# Poissons Ratio (z) = 0.18309 0.32216
#
# Static dielectric constant tensor:
#      x y z
#    x 2.805970 0.000000 0.277020 
#    y 0.000000 2.941060 0.000000 
#    z 0.277020 0.000000 3.528560 
# 
# 
# High freq. dielectric constant tensor:
#      x y z
#    x 1.566540 0.000000 0.007580 
#    y 0.000000 1.594990 0.000000 
#    z 0.007580 0.000000 1.597980 
# 
# From -- ./inp_files/237864.got.cif
#   From: 2010.06.25/outbox.cif.g09.slc.cpg/sg12_119_cif.got.tgz:237864.got - 2010.06.28 00:19:55.
