data_PCOD8094322
_publ_section_title
;
Structure prediction by ZEFSAII (Michael W. Deem and Ramdas Pophale) SiO2 
 PCOD8094322
Probable space group: C 2/M
;
_chemical_formula_sum "Si O2"
_cell_formula_units_Z 56
_cell_length_a 19.079587
_cell_length_b 8.916274
_cell_length_c 18.750199
_cell_angle_alpha 90.000000
_cell_angle_beta 112.575899
_cell_angle_gamma 90.000000
_cell_volume 2945.336080
_symmetry_space_group_name_H-M "C 2/M"
_symmetry_group_IT_number 12
_symmetry_cell_setting 'monoclinic'
loop_
_space_group_symop_operation_xyz
x,y,z
-x,y,-z
-x,-y,-z
x,-y,z
1/2+x,1/2+y,z
1/2-x,1/2+y,-z
1/2-x,1/2-y,-z
1/2+x,1/2-y,z
loop_
_atom_site_type_symbol
_atom_site_label
_atom_site_fract_x
_atom_site_fract_y
_atom_site_fract_z
Si Si1 0.779705 0.677420 0.859080
Si Si2 0.084073 0.824018 0.005627
Si Si3 0.942934 0.332779 0.542395
Si Si4 0.719991 0.177138 0.699984
Si Si5 0.793052 0.175950 0.452291
Si Si6 0.938832 0.325166 0.295790
Si Si7 0.120180 0.824136 0.860460
O O1 0.781108 0.500000 0.849153
O O2 0.856553 0.730604 0.925450
O O3 0.776675 0.756544 0.781073
O O4 0.706760 0.727895 0.878029
O O5 0.101758 0.000000 0.020539
O O6 0.094138 0.769856 0.928102
O O7 0.000000 0.784953 0.000000
O O8 0.907203 0.500000 0.539467
O O9 0.881372 0.209822 0.498288
O O10 0.000000 0.343434 0.500000
O O11 0.985998 0.280370 0.631103
O O12 0.739649 0.252174 0.632564
O O13 0.634161 0.222543 0.686455
O O14 0.731491 0.000000 0.698605
O O15 0.750000 0.250000 0.500000
O O16 0.779003 0.000000 0.444398
O O17 0.936041 0.500000 0.279196
O O18 0.938541 0.243705 0.219553
O O19 0.113377 0.000000 0.851053
#
# Coordination Sequence:
#
# PCOD8094322 Si02
#       7
#     8   8   8   8   8   8   8
#     4  10  20  35  58  87 112 141 184 237 285 334
#     4  10  21  38  57  79 111 152 188 226 282 343
#     4  10  19  37  61  85 116 152 193 238 288 345
#     4  10  19  37  61  85 114 150 190 234 286 344
#     4  12  25  40  58  84 117 156 198 241 289 342
#     4   9  18  33  58  87 113 146 186 233 288 339
#     4   9  19  35  56  82 112 143 186 237 279 332
#
# _framework density 19.013110000000001
#
# number of rings (size 3 to 8) (size 9 to 14) (size 15 to 20)
#    0.000    2.000    1.429    2.571    0.000    2.857 
#    2.571    0.000    0.000    0.000    0.000    0.000 
#    0.000    0.000    0.000    0.000    0.000    0.000 
#
# Total GULP energy -347249.374876 kJ/mol
# GULP energy per Si atom -12401.763388 kJ/mol
# Density = 1.896984 g / cm^3
# Si number density = 19.013110 Si / 1000 Ang^3
#
#
#
# Elastic Constant Matrix: (Units=GPa)
#
#
# Indices 1 2 3 4 5 6 
#
# 1 70.7183 33.4404 60.3067 0.0000 -11.1831 0.0000
# 2 33.4404 82.7047 63.4968 0.0000 -6.8971 0.0000
# 3 60.3067 63.4968 173.0040 0.0000 -11.8592 0.0000
# 4 0.0000 0.0000 0.0000 37.2671 0.0000 0.6183
# 5 -11.1831 -6.8971 -11.8592 0.0000 28.8789 0.0000
# 6 0.0000 0.0000 0.0000 0.6183 0.0000 23.9537
#
#
#
# Elastic Compliance Matrix: (Units=1/GPa)
#
#
# Indices 1 2 3 4 5 6 
#
# 1 0.021738 -0.003919 -0.005789 0.000000 0.005104 0.000000
# 2 -0.003919 0.017607 -0.005054 0.000000 0.000612 0.000000
# 3 -0.005789 -0.005054 0.009690 0.000000 0.000530 0.000000
# 4 0.000000 0.000000 0.000000 0.026845 0.000000 -0.000693
# 5 0.005104 0.000612 0.000530 0.000000 0.036968 0.000000
# 6 0.000000 0.000000 0.000000 -0.000693 0.000000 0.041765
#
#
# Mechanical properties :
#
#
# Convention : Reuss Voigt Hill
#
# Bulk Modulus (GPa) = 51.25626 71.21276 61.23451
# Shear Modulus (GPa) = 26.22732 29.29879 27.76306
#
# Velocity S-wave (km/s) = 3.71810 3.92979 3.82541
# Velocity P-wave (km/s) = 6.74161 7.62410 7.19639
#
# Compressibility (1/GPa) = 0.01950981
#
# Stress axis : x y z
#
# Youngs Moduli (GPa) = 46.00265 56.79483 103.20302
#
# Poissons Ratio (x) = 0.22258 0.59747
# Poissons Ratio (y) = 0.18028 0.52161
# Poissons Ratio (z) = 0.26632 0.28706
#
# Static dielectric constant tensor:
#      x y z
#    x 3.245200 0.000000 -0.090660 
#    y 0.000000 3.626320 0.000000 
#    z -0.090660 0.000000 3.659970 
# 
# 
# High freq. dielectric constant tensor:
#      x y z
#    x 1.718880 0.000000 -0.001340 
#    y 0.000000 1.737550 0.000000 
#    z -0.001340 0.000000 1.755700 
# 
# From -- ./inp_files/275517.got.cif
#   From: 2010.06.25/outbox.cif.g09.slc.cpg/sg12_138_cif.got.tgz:275517.got - 2010.06.28 00:19:55.
