data_PCOD8094191
_publ_section_title
;
Structure prediction by ZEFSAII (Michael W. Deem and Ramdas Pophale) SiO2 
 PCOD8094191
Probable space group: C 2/M
;
_chemical_formula_sum "Si O2"
_cell_formula_units_Z 56
_cell_length_a 18.842081
_cell_length_b 13.763429
_cell_length_c 17.768495
_cell_angle_alpha 90.000000
_cell_angle_beta 141.089173
_cell_angle_gamma 90.000000
_cell_volume 2894.289310
_symmetry_space_group_name_H-M "C 2/M"
_symmetry_group_IT_number 12
_symmetry_cell_setting 'monoclinic'
loop_
_space_group_symop_operation_xyz
x,y,z
-x,y,-z
-x,-y,-z
x,-y,z
1/2+x,1/2+y,z
1/2-x,1/2+y,-z
1/2-x,1/2-y,-z
1/2+x,1/2-y,z
loop_
_atom_site_type_symbol
_atom_site_label
_atom_site_fract_x
_atom_site_fract_y
_atom_site_fract_z
Si Si1 0.379179 0.108179 0.433338
Si Si2 0.288621 0.703263 0.410877
Si Si3 0.521455 0.388481 0.342796
Si Si4 0.947639 0.223637 0.779903
Si Si5 0.403130 0.211578 0.973803
Si Si6 0.805650 0.886684 0.261436
Si Si7 0.154952 0.891536 0.168816
O O1 0.500000 0.135483 0.500000
O O2 0.344807 0.189444 0.466503
O O3 0.289910 0.110411 0.291075
O O4 0.379905 0.000000 0.471180
O O5 0.355878 0.628897 0.518946
O O6 0.157794 0.706063 0.328598
O O7 0.293199 0.673652 0.327284
O O8 0.512459 0.500000 0.311442
O O9 0.502593 0.324836 0.253323
O O10 0.425953 0.360955 0.324428
O O11 0.903063 0.143172 0.801589
O O12 0.049488 0.285508 0.901782
O O13 0.292779 0.144185 0.878022
O O14 0.377483 0.322174 0.926897
O O15 0.500000 0.166291 0.000000
O O16 0.795886 0.000000 0.271962
O O17 0.112994 0.000000 0.114884
#
# Coordination Sequence:
#
# PCOD8094191 Si02
#       7
#     8   8   8   8   8   8   8
#     4   9  16  27  49  80 111 140 177 232 290 333
#     4  11  20  38  59  84 115 153 198 238 285 343
#     4  11  24  38  58  87 120 155 192 240 294 344
#     4  10  21  37  56  81 119 149 187 234 291 345
#     4  10  19  37  57  85 112 146 196 238 290 341
#     4  11  22  38  60  87 116 153 199 243 285 338
#     4   9  17  30  54  83 109 141 187 237 283 341
#
# _framework density 19.348447
#
# number of rings (size 3 to 8) (size 9 to 14) (size 15 to 20)
#    0.000    1.857    4.286    2.571    0.000    5.714 
#    0.000    0.000    0.000    0.857    0.000    0.000 
#    0.000    0.000    0.000    0.000    0.000    0.000 
#
# Total GULP energy -347178.588145 kJ/mol
# GULP energy per Si atom -12399.235291 kJ/mol
# Density = 1.930441 g / cm^3
# Si number density = 19.348447 Si / 1000 Ang^3
#
#
#
# Elastic Constant Matrix: (Units=GPa)
#
#
# Indices 1 2 3 4 5 6 
#
# 1 47.3652 21.4504 15.2316 0.0000 -4.3993 0.0000
# 2 21.4504 59.7247 7.0598 0.0000 4.8263 0.0000
# 3 15.2316 7.0598 86.9953 0.0000 5.4584 0.0000
# 4 0.0000 0.0000 0.0000 23.4898 0.0000 -1.3889
# 5 -4.3993 4.8263 5.4584 0.0000 22.4826 0.0000
# 6 0.0000 0.0000 0.0000 -1.3889 0.0000 19.3558
#
#
#
# Elastic Compliance Matrix: (Units=1/GPa)
#
#
# Indices 1 2 3 4 5 6 
#
# 1 0.028060 -0.010242 -0.004635 0.000000 0.008815 0.000000
# 2 -0.010242 0.020896 0.000513 0.000000 -0.006614 0.000000
# 3 -0.004635 0.000513 0.012519 0.000000 -0.004056 0.000000
# 4 0.000000 0.000000 0.000000 0.042753 0.000000 0.003068
# 5 0.008815 -0.006614 -0.004056 0.000000 0.048608 0.000000
# 6 0.000000 0.000000 0.000000 0.003068 0.000000 0.051884
#
#
# Mechanical properties :
#
#
# Convention : Reuss Voigt Hill
#
# Bulk Modulus (GPa) = 30.53789 31.28542 30.91165
# Shear Modulus (GPa) = 20.46114 23.08854 21.77484
#
# Velocity S-wave (km/s) = 3.25546 3.45817 3.35835
# Velocity P-wave (km/s) = 5.47249 5.67008 5.57216
#
# Compressibility (1/GPa) = 0.03274621
#
# Stress axis : x y z
#
# Youngs Moduli (GPa) = 35.63769 47.85606 79.87683
#
# Poissons Ratio (x) = 0.49016 0.37021
# Poissons Ratio (y) = 0.36501 -0.04094
# Poissons Ratio (z) = 0.16517 -0.02453
#
# Static dielectric constant tensor:
#      x y z
#    x 3.213380 0.000000 0.258120 
#    y 0.000000 3.574760 0.000000 
#    z 0.258120 0.000000 3.768750 
# 
# 
# High freq. dielectric constant tensor:
#      x y z
#    x 1.718660 0.000000 0.019850 
#    y 0.000000 1.750300 0.000000 
#    z 0.019850 0.000000 1.765360 
# 
# From -- ./inp_files/277871.got.cif
#   From: 2010.06.25/outbox.cif.g09.slc.cpg/sg12_139_cif.got.tgz:277871.got - 2010.06.28 00:19:55.
