data_PCOD8094315
_publ_section_title
;
Structure prediction by ZEFSAII (Michael W. Deem and Ramdas Pophale) SiO2 
 PCOD8094315
Probable space group: C 2/M
;
_chemical_formula_sum "Si O2"
_cell_formula_units_Z 64
_cell_length_a 23.756522
_cell_length_b 9.134616
_cell_length_c 16.320429
_cell_angle_alpha 90.000000
_cell_angle_beta 69.639478
_cell_angle_gamma 90.000000
_cell_volume 3320.367584
_symmetry_space_group_name_H-M "C 2/M"
_symmetry_group_IT_number 12
_symmetry_cell_setting 'monoclinic'
loop_
_space_group_symop_operation_xyz
x,y,z
-x,y,-z
-x,-y,-z
x,-y,z
1/2+x,1/2+y,z
1/2-x,1/2+y,-z
1/2-x,1/2-y,-z
1/2+x,1/2-y,z
loop_
_atom_site_type_symbol
_atom_site_label
_atom_site_fract_x
_atom_site_fract_y
_atom_site_fract_z
Si Si1 0.172398 0.831328 0.322989
Si Si2 0.119048 0.831465 0.082087
Si Si3 0.266734 0.828988 0.408464
Si Si4 0.343315 0.667487 0.112791
Si Si5 0.615407 0.171992 0.747979
Si Si6 0.537497 0.668937 0.407529
Si Si7 0.707138 0.171186 0.146622
Si Si8 0.505676 0.674229 0.244252
O O1 0.221424 0.771831 0.361715
O O2 0.106972 0.811692 0.395603
O O3 0.173058 0.734528 0.242139
O O4 0.184919 0.000000 0.292914
O O5 0.177435 0.742634 0.081725
O O6 0.058258 0.774716 0.155856
O O7 0.130527 0.000000 0.099659
O O8 0.112504 0.812161 0.987361
O O9 0.250000 0.750000 0.500000
O O10 0.334084 0.791618 0.345640
O O11 0.257354 0.000000 0.427462
O O12 0.345139 0.500000 0.143911
O O13 0.363141 0.775459 0.174106
O O14 0.277039 0.710822 0.116166
O O15 0.555719 0.254770 0.753415
O O16 0.603296 0.000000 0.759165
O O17 0.500000 0.745807 0.500000
O O18 0.519136 0.500000 0.411855
O O19 0.521459 0.735840 0.326766
O O20 0.696107 0.000000 0.147972
O O21 0.498693 0.500000 0.245683
#
# Coordination Sequence:
#
# PCOD8094315 Si02
#       8
#     8   8   8   8   8   8   8   8
#     4  10  19  37  61  84 114 151 190 234 283 342
#     4  10  21  39  61  85 115 153 196 238 287 349
#     4  10  23  39  60  87 116 154 193 237 287 341
#     4  10  22  39  60  86 115 152 197 240 285 345
#     4  11  24  41  59  83 118 154 192 241 294 345
#     4   9  18  33  58  88 111 141 191 238 279 333
#     4  11  21  34  57  90 121 149 185 237 294 342
#     4  10  21  38  61  84 112 153 195 241 289 342
#
# _framework density 19.274975000000001
#
# number of rings (size 3 to 8) (size 9 to 14) (size 15 to 20)
#    0.000    1.875    2.500    1.125    1.750    3.500 
#    0.000    2.500    0.000    0.750    0.000    0.000 
#    0.000    0.000    0.000    0.000    0.000    0.000 
#
# Total GULP energy -396856.281753 kJ/mol
# GULP energy per Si atom -12401.758805 kJ/mol
# Density = 1.923110 g / cm^3
# Si number density = 19.274975 Si / 1000 Ang^3
#
#
#
# Elastic Constant Matrix: (Units=GPa)
#
#
# Indices 1 2 3 4 5 6 
#
# 1 99.7643 36.2312 31.9371 0.0000 -5.0955 0.0000
# 2 36.2312 43.6503 29.0284 0.0000 1.7415 0.0000
# 3 31.9371 29.0284 114.4502 0.0000 -11.1282 0.0000
# 4 0.0000 0.0000 0.0000 24.8562 0.0000 7.0462
# 5 -5.0955 1.7415 -11.1282 0.0000 28.8109 0.0000
# 6 0.0000 0.0000 0.0000 7.0462 0.0000 29.1896
#
#
#
# Elastic Compliance Matrix: (Units=1/GPa)
#
#
# Indices 1 2 3 4 5 6 
#
# 1 0.014723 -0.011791 -0.000827 0.000000 0.002997 0.000000
# 2 -0.011791 0.037582 -0.006926 0.000000 -0.007032 0.000000
# 3 -0.000827 -0.006926 0.011171 0.000000 0.004587 0.000000
# 4 0.000000 0.000000 0.000000 0.043187 0.000000 -0.010425
# 5 0.002997 -0.007032 0.004587 0.000000 0.037436 0.000000
# 6 0.000000 0.000000 0.000000 -0.010425 0.000000 0.036775
#
#
# Mechanical properties :
#
#
# Convention : Reuss Voigt Hill
#
# Bulk Modulus (GPa) = 40.99978 50.25091 45.62535
# Shear Modulus (GPa) = 21.92108 27.28253 24.60181
#
# Velocity S-wave (km/s) = 3.37602 3.76631 3.57649
# Velocity P-wave (km/s) = 6.04267 6.71123 6.38571
#
# Compressibility (1/GPa) = 0.02439037
#
# Stress axis : x y z
#
# Youngs Moduli (GPa) = 67.91926 26.60816 89.52011
#
# Poissons Ratio (x) = 0.31373 0.07399
# Poissons Ratio (y) = 0.80082 0.61999
# Poissons Ratio (z) = 0.05614 0.18428
#
# Static dielectric constant tensor:
#      x y z
#    x 3.590510 0.000000 -0.037540 
#    y 0.000000 3.370260 0.000000 
#    z -0.037540 0.000000 3.721280 
# 
# 
# High freq. dielectric constant tensor:
#      x y z
#    x 1.754910 0.000000 -0.004390 
#    y 0.000000 1.728140 0.000000 
#    z -0.004390 0.000000 1.761130 
# 
# From -- ./inp_files/243832.got.cif
#   From: 2010.06.25/outbox.cif.g09.slc.cpg/sg12_122_cif.got.tgz:243832.got - 2010.06.28 00:19:55.
