data_PCOD8094185
_publ_section_title
;
Structure prediction by ZEFSAII (Michael W. Deem and Ramdas Pophale) SiO2 
 PCOD8094185
Probable space group: C 2/M
;
_chemical_formula_sum "Si O2"
_cell_formula_units_Z 56
_cell_length_a 20.899777
_cell_length_b 29.667032
_cell_length_c 9.394657
_cell_angle_alpha 90.000000
_cell_angle_beta 29.891932
_cell_angle_gamma 90.000000
_cell_volume 2902.985016
_symmetry_space_group_name_H-M "C 2/M"
_symmetry_group_IT_number 12
_symmetry_cell_setting 'monoclinic'
loop_
_space_group_symop_operation_xyz
x,y,z
-x,y,-z
-x,-y,-z
x,-y,z
1/2+x,1/2+y,z
1/2-x,1/2+y,-z
1/2-x,1/2-y,-z
1/2+x,1/2-y,z
loop_
_atom_site_type_symbol
_atom_site_label
_atom_site_fract_x
_atom_site_fract_y
_atom_site_fract_z
Si Si1 0.618436 0.086287 0.686090
Si Si2 0.069893 0.129263 0.723858
Si Si3 0.486173 0.947050 0.685241
Si Si4 0.521721 0.293400 0.618679
Si Si5 0.707744 0.753635 0.804954
Si Si6 0.265717 0.552285 0.651233
Si Si7 0.202102 0.318666 0.575360
O O1 0.606726 0.071410 0.544441
O O2 0.739171 0.064110 0.534826
O O3 0.609390 0.140559 0.709127
O O4 0.500000 0.064793 0.000000
O O5 0.115477 0.085549 0.542976
O O6 0.182798 0.160544 0.559066
O O7 0.988897 0.162378 0.777697
O O8 0.000000 0.111572 0.000000
O O9 0.500000 0.926314 0.500000
O O10 0.498943 0.000000 0.653230
O O11 0.351223 0.933451 0.019008
O O12 0.500000 0.308770 0.500000
O O13 0.668946 0.276019 0.354899
O O14 0.414200 0.255004 0.857419
O O15 0.755044 0.706257 0.650086
O O16 0.643201 0.783192 0.801880
O O17 0.303282 0.500000 0.597413
#
# Coordination Sequence:
#
# PCOD8094185 Si02
#       7
#     8   8   8   8   8   8   8
#     4   9  17  29  50  79 108 139 178 237 277 324
#     4  10  19  37  57  77 109 146 187 227 285 336
#     4   9  17  32  52  77 113 152 184 223 287 349
#     4  11  23  40  59  84 116 148 187 235 290 341
#     4  10  21  36  60  81 107 151 185 233 278 341
#     4   9  18  33  54  81 108 143 189 236 277 331
#     4   9  19  32  55  81 106 136 190 228 273 333
#
# _framework density 19.290489999999998
#
# number of rings (size 3 to 8) (size 9 to 14) (size 15 to 20)
#    0.000    2.429    1.429    0.857    2.000    2.000 
#    2.571    0.714    0.000    0.429    0.000    0.000 
#    0.000    0.000    0.000    0.000    0.000    0.000 
#
# Total GULP energy -346877.861683 kJ/mol
# GULP energy per Si atom -12388.495060 kJ/mol
# Density = 1.924658 g / cm^3
# Si number density = 19.290490 Si / 1000 Ang^3
#
#
#
# Elastic Constant Matrix: (Units=GPa)
#
#
# Indices 1 2 3 4 5 6 
#
# 1 77.4462 26.9635 46.0568 -0.0001 20.9979 0.0000
# 2 26.9635 71.8234 31.8604 0.0000 3.9546 0.0000
# 3 46.0568 31.8604 79.6265 -0.0001 10.0046 0.0000
# 4 -0.0001 0.0000 -0.0001 40.8992 0.0001 -4.8984
# 5 20.9979 3.9546 10.0046 0.0001 27.5781 0.0000
# 6 0.0000 0.0000 0.0000 -4.8984 0.0000 19.1492
#
#
#
# Elastic Compliance Matrix: (Units=1/GPa)
#
#
# Indices 1 2 3 4 5 6 
#
# 1 0.024525 -0.003555 -0.010982 0.000000 -0.014180 0.000000
# 2 -0.003555 0.017443 -0.005185 0.000000 0.002087 0.000000
# 3 -0.010982 -0.005185 0.020789 0.000000 0.001563 0.000000
# 4 0.000000 0.000000 0.000000 0.025223 0.000000 0.006452
# 5 -0.014180 0.002087 0.001563 0.000000 0.046191 0.000000
# 6 0.000000 0.000000 0.000000 0.006452 0.000000 0.053872
#
#
# Mechanical properties :
#
#
# Convention : Reuss Voigt Hill
#
# Bulk Modulus (GPa) = 42.89399 48.73969 45.81684
# Shear Modulus (GPa) = 21.25336 25.79301 23.52318
#
# Velocity S-wave (km/s) = 3.32287 3.66058 3.49581
# Velocity P-wave (km/s) = 6.08326 6.57172 6.33220
#
# Compressibility (1/GPa) = 0.02331329
#
# Stress axis : x y z
#
# Youngs Moduli (GPa) = 40.77462 57.33008 48.10291
#
# Poissons Ratio (x) = 0.20381 0.52824
# Poissons Ratio (y) = 0.14495 0.24942
# Poissons Ratio (z) = 0.44777 0.29727
#
# Static dielectric constant tensor:
#      x y z
#    x 3.571590 0.000000 0.106840 
#    y 0.000000 3.710550 0.000000 
#    z 0.106840 0.000000 3.479800 
# 
# 
# High freq. dielectric constant tensor:
#      x y z
#    x 1.731840 0.000000 0.003740 
#    y 0.000000 1.749590 0.000000 
#    z 0.003740 0.000000 1.733920 
# 
# From -- ./inp_files/91524.got.cif
#   From: 2010.06.25/outbox.cif.g09.slc.cpg/sg12_46_cif.got.tgz:91524.got - 2010.06.28 00:19:55.
