data_PCOD8094533
_publ_section_title
;
Structure prediction by ZEFSAII (Michael W. Deem and Ramdas Pophale) SiO2 
 PCOD8094533
Probable space group: C 2/M
;
_chemical_formula_sum "Si O2"
_cell_formula_units_Z 56
_cell_length_a 22.503218
_cell_length_b 26.178094
_cell_length_c 18.713582
_cell_angle_alpha 90.000000
_cell_angle_beta 162.398828
_cell_angle_gamma 90.000000
_cell_volume 3333.543460
_symmetry_space_group_name_H-M "C 2/M"
_symmetry_group_IT_number 12
_symmetry_cell_setting 'monoclinic'
loop_
_space_group_symop_operation_xyz
x,y,z
-x,y,-z
-x,-y,-z
x,-y,z
1/2+x,1/2+y,z
1/2-x,1/2+y,-z
1/2-x,1/2-y,-z
1/2+x,1/2-y,z
loop_
_atom_site_type_symbol
_atom_site_label
_atom_site_fract_x
_atom_site_fract_y
_atom_site_fract_z
Si Si1 0.045069 0.329819 0.178488
Si Si2 0.973393 0.289072 0.685540
Si Si3 0.752241 0.000000 0.374814
Si Si4 0.076106 0.892192 0.396976
Si Si5 0.620152 0.314441 0.917437
Si Si6 0.554714 0.718026 0.141559
Si Si7 0.704206 0.000000 0.150190
Si Si8 0.662631 0.607814 0.740089
O O1 0.053843 0.321181 0.273528
O O2 0.229908 0.360868 0.361471
O O3 0.026790 0.278480 0.112756
O O4 0.859331 0.363437 0.945686
O O5 0.778938 0.296558 0.415864
O O6 0.999745 0.229374 0.736039
O O7 0.151903 0.310664 0.842793
O O8 0.865217 0.951683 0.538761
O O9 0.753050 0.000000 0.290143
O O10 0.523838 0.000000 0.134089
O O11 0.975641 0.869815 0.209919
O O12 0.908240 0.880190 0.261932
O O13 0.596047 0.307213 0.974624
O O14 0.500000 0.697968 0.000000
O O15 0.808828 0.047647 0.234405
O O16 0.500000 0.628761 0.500000
#
# Coordination Sequence:
#
# PCOD8094533 Si02
#       8
#     8   8   4   8   8   8   4   8
#     4  11  22  36  54  79 108 150 187 220 267 324
#     4  10  19  38  56  78 105 144 183 220 272 328
#     4  11  23  34  57  75 105 151 187 225 275 314
#     4  12  21  37  57  76 105 150 187 227 266 320
#     4  10  20  36  59  75 106 147 182 220 274 320
#     4  11  23  35  54  82 115 138 177 233 272 326
#     4  11  22  39  46  73 119 147 181 234 272 304
#     4  12  24  34  52  76 109 153 193 228 266 303
#
# _framework density 16.798940999999999
#
# number of rings (size 3 to 8) (size 9 to 14) (size 15 to 20)
#    0.000    1.000    7.143    1.500    2.000    0.571 
#    0.000    0.000    0.000    0.000    0.000    0.500 
#    0.000    1.143    0.000    0.000    0.000    0.000 
#
# Total GULP energy -347221.812507 kJ/mol
# GULP energy per Si atom -12400.779018 kJ/mol
# Density = 1.676071 g / cm^3
# Si number density = 16.798941 Si / 1000 Ang^3
#
#
#
# Elastic Constant Matrix: (Units=GPa)
#
#
# Indices 1 2 3 4 5 6 
#
# 1 89.3541 25.5963 37.5442 -0.0004 1.8711 0.0004
# 2 25.5963 81.3629 22.6666 -0.0009 -3.1679 0.0003
# 3 37.5442 22.6666 83.9503 -0.0011 1.5868 0.0021
# 4 -0.0004 -0.0009 -0.0011 26.9884 -0.0008 4.9131
# 5 1.8711 -3.1679 1.5868 -0.0008 31.3700 0.0011
# 6 0.0004 0.0003 0.0021 4.9131 0.0011 18.8693
#
#
#
# Elastic Compliance Matrix: (Units=1/GPa)
#
#
# Indices 1 2 3 4 5 6 
#
# 1 0.014436 -0.003008 -0.005627 0.000000 -0.000880 0.000000
# 2 -0.003008 0.013990 -0.002465 0.000000 0.001717 0.000000
# 3 -0.005627 -0.002465 0.015107 0.000001 -0.000677 -0.000002
# 4 0.000000 0.000000 0.000001 0.038897 0.000001 -0.010128
# 5 -0.000880 0.001717 -0.000677 0.000001 0.032138 -0.000002
# 6 0.000000 0.000000 -0.000002 -0.010128 -0.000002 0.055633
#
#
# Mechanical properties :
#
#
# Convention : Reuss Voigt Hill
#
# Bulk Modulus (GPa) = 46.87524 47.36462 47.11993
# Shear Modulus (GPa) = 25.06122 26.70288 25.88205
#
# Velocity S-wave (km/s) = 3.86662 3.99125 3.92943
# Velocity P-wave (km/s) = 6.92088 7.03536 6.97835
#
# Compressibility (1/GPa) = 0.02133323
#
# Stress axis : x y z
#
# Youngs Moduli (GPa) = 69.27143 71.47759 66.19594
#
# Poissons Ratio (x) = 0.21501 0.37250
# Poissons Ratio (y) = 0.20837 0.16315
# Poissons Ratio (z) = 0.38981 0.17616
#
# Static dielectric constant tensor:
#      x y z
#    x 3.127530 0.000000 0.255880 
#    y 0.000000 3.184380 -0.000010 
#    z 0.255880 -0.000010 3.221820 
# 
# 
# High freq. dielectric constant tensor:
#      x y z
#    x 1.640240 0.000000 0.029010 
#    y 0.000000 1.629350 0.000000 
#    z 0.029010 0.000000 1.655140 
# 
# From -- ./inp_files/286365.got.cif
#   From: 2010.06.25/outbox.cif.g09.slc.cpg/sg12_144_cif.got.tgz:286365.got - 2010.06.28 00:19:55.
