data_PCOD8094684
_publ_section_title
;
Structure prediction by ZEFSAII (Michael W. Deem and Ramdas Pophale) SiO2 
 PCOD8094684
Probable space group: C 2/M
;
_chemical_formula_sum "Si O2"
_cell_formula_units_Z 48
_cell_length_a 13.805754
_cell_length_b 16.898647
_cell_length_c 17.065411
_cell_angle_alpha 90.000000
_cell_angle_beta 36.169212
_cell_angle_gamma 90.000000
_cell_volume 2349.672797
_symmetry_space_group_name_H-M "C 2/M"
_symmetry_group_IT_number 12
_symmetry_cell_setting 'monoclinic'
loop_
_space_group_symop_operation_xyz
x,y,z
-x,y,-z
-x,-y,-z
x,-y,z
1/2+x,1/2+y,z
1/2-x,1/2+y,-z
1/2-x,1/2-y,-z
1/2+x,1/2-y,z
loop_
_atom_site_type_symbol
_atom_site_label
_atom_site_fract_x
_atom_site_fract_y
_atom_site_fract_z
Si Si1 0.619731 0.406484 0.246350
Si Si2 0.775010 0.158575 0.498938
Si Si3 0.202511 0.406345 0.710336
Si Si4 0.474122 0.092893 0.602955
Si Si5 0.170299 0.593956 0.035950
Si Si6 0.318650 0.405480 0.100741
O O1 0.598053 0.500000 0.254228
O O2 0.444188 0.366631 0.348074
O O3 0.696548 0.382004 0.278988
O O4 0.737872 0.373577 0.100857
O O5 0.750000 0.250000 0.500000
O O6 0.784768 0.139373 0.584546
O O7 0.627751 0.109058 0.557918
O O8 0.211492 0.500000 0.688521
O O9 0.016641 0.376458 0.842805
O O10 0.500000 0.131654 0.500000
O O11 0.308175 0.127281 0.750878
O O12 0.452772 0.000000 0.607845
O O13 0.172047 0.500000 0.033962
O O14 0.261842 0.626640 0.053246
O O15 0.318374 0.500000 0.101035
O O16 0.500000 0.372154 0.000000
#
# Coordination Sequence:
#
# PCOD8094684 Si02
#       6
#     8   8   8   8   8   8
#     4  10  21  36  63  95 117 147 194 244 293 350
#     4  12  25  39  56  82 120 162 196 236 285 348
#     4  10  19  38  65  90 117 150 192 244 299 347
#     4  10  21  37  59  84 112 148 195 244 289 338
#     4   9  17  32  59  92 121 142 182 247 303 348
#     4   9  17  30  53  85 117 147 181 234 295 345
#
# _framework density 20.428377000000001
#
# number of rings (size 3 to 8) (size 9 to 14) (size 15 to 20)
#    0.000    2.000    1.667    2.500    2.333    4.667 
#    0.000    0.833    0.000    0.000    0.000    0.000 
#    0.000    0.000    0.000    0.000    0.000    0.000 
#
# Total GULP energy -297648.893891 kJ/mol
# GULP energy per Si atom -12402.037245 kJ/mol
# Density = 2.038188 g / cm^3
# Si number density = 20.428377 Si / 1000 Ang^3
#
#
#
# Elastic Constant Matrix: (Units=GPa)
#
#
# Indices 1 2 3 4 5 6 
#
# 1 116.3045 16.6030 55.6322 0.0006 3.2298 -0.0006
# 2 16.6030 22.2478 19.8400 0.0083 6.5380 -0.0013
# 3 55.6322 19.8400 149.9364 0.0176 3.3852 -0.0053
# 4 0.0006 0.0083 0.0176 4.4060 -0.0053 -2.4150
# 5 3.2298 6.5380 3.3852 -0.0053 50.9698 -0.0002
# 6 -0.0006 -0.0013 -0.0053 -2.4150 -0.0002 8.0025
#
#
#
# Elastic Compliance Matrix: (Units=1/GPa)
#
#
# Indices 1 2 3 4 5 6 
#
# 1 0.010954 -0.005221 -0.003378 0.000025 0.000200 0.000005
# 2 -0.005221 0.055416 -0.005251 -0.000105 -0.006429 -0.000027
# 3 -0.003378 -0.005251 0.008610 -0.000025 0.000316 -0.000003
# 4 0.000025 -0.000105 -0.000025 0.271949 0.000042 0.082071
# 5 0.000200 -0.006429 0.000316 0.000042 0.020410 0.000012
# 6 0.000005 -0.000027 -0.000003 0.082071 0.000012 0.149729
#
#
# Mechanical properties :
#
#
# Convention : Reuss Voigt Hill
#
# Bulk Modulus (GPa) = 21.14984 52.51545 36.83265
# Shear Modulus (GPa) = 8.92016 25.76990 17.34503
#
# Velocity S-wave (km/s) = 2.09190 3.55558 2.91703
# Velocity P-wave (km/s) = 4.02621 6.52833 5.42353
#
# Compressibility (1/GPa) = 0.04728167
#
# Stress axis : x y z
#
# Youngs Moduli (GPa) = 91.29404 18.04528 116.13785
#
# Poissons Ratio (x) = 0.09421 0.39230
# Poissons Ratio (y) = 0.47663 0.60978
# Poissons Ratio (z) = 0.30838 0.09475
#
# Static dielectric constant tensor:
#      x y z
#    x 4.256830 -0.000020 0.085910 
#    y -0.000020 3.101250 0.000000 
#    z 0.085910 0.000000 4.099500 
# 
# 
# High freq. dielectric constant tensor:
#      x y z
#    x 1.810480 0.000000 0.000670 
#    y 0.000000 1.740450 0.000000 
#    z 0.000670 0.000000 1.819930 
# 
# From -- ./inp_files/271580.got.cif
#   From: 2010.06.25/outbox.cif.g09.slc.cpg/sg12_136_cif.got.tgz:271580.got - 2010.06.28 00:19:55.
