data_PCOD8094161
_publ_section_title
;
Structure prediction by ZEFSAII (Michael W. Deem and Ramdas Pophale) SiO2 
 PCOD8094161
Probable space group: C 2/M
;
_chemical_formula_sum "Si O2"
_cell_formula_units_Z 52
_cell_length_a 19.512903
_cell_length_b 18.811974
_cell_length_c 14.895090
_cell_angle_alpha 90.000000
_cell_angle_beta 149.486772
_cell_angle_gamma 90.000000
_cell_volume 2776.121282
_symmetry_space_group_name_H-M "C 2/M"
_symmetry_group_IT_number 12
_symmetry_cell_setting 'monoclinic'
loop_
_space_group_symop_operation_xyz
x,y,z
-x,y,-z
-x,-y,-z
x,-y,z
1/2+x,1/2+y,z
1/2-x,1/2+y,-z
1/2-x,1/2-y,-z
1/2+x,1/2-y,z
loop_
_atom_site_type_symbol
_atom_site_label
_atom_site_fract_x
_atom_site_fract_y
_atom_site_fract_z
Si Si1 0.892485 0.208565 0.583768
Si Si2 0.116865 0.658716 0.308459
Si Si3 0.500000 0.203057 0.000000
Si Si4 0.150193 0.421568 0.704616
Si Si5 0.231592 0.724551 0.733074
Si Si6 0.182001 0.197077 0.853177
Si Si7 0.382570 0.081156 0.123989
O O1 0.915598 0.262314 0.692117
O O2 0.780522 0.149433 0.487588
O O3 0.838299 0.254261 0.438698
O O4 0.034939 0.171225 0.722409
O O5 0.057792 0.651600 0.141829
O O6 0.040005 0.600766 0.282698
O O7 0.613452 0.254056 0.088008
O O8 0.214345 0.500000 0.759434
O O9 0.231505 0.360783 0.744239
O O10 0.149941 0.404252 0.809543
O O11 0.000000 0.420736 0.500000
O O12 0.155218 0.763388 0.728880
O O13 0.250000 0.250000 0.000000
O O14 0.279544 0.129167 0.949324
O O15 0.359171 0.000000 0.069986
#
# Coordination Sequence:
#
# PCOD8094161 Si02
#       7
#     8   8   4   8   8   8   8
#     4  10  21  32  58  84 109 137 188 231 272 318
#     4  10  19  37  52  83 111 140 180 230 273 328
#     4  10  20  32  56  82 108 138 182 230 268 322
#     4  10  20  33  52  80 111 142 178 220 273 336
#     4  11  19  33  56  82 110 140 184 227 277 323
#     4  12  19  34  57  82 111 144 184 235 271 318
#     4  11  22  36  57  82 113 150 183 223 279 333
#
# _framework density 18.731169999999999
#
# number of rings (size 3 to 8) (size 9 to 14) (size 15 to 20)
#    0.000    1.385    4.615    2.308    0.000    0.000 
#    0.000    1.538    0.000    1.846    0.000    0.000 
#    0.000    0.000    0.000    0.000    0.000    0.000 
#
# Total GULP energy -322345.562441 kJ/mol
# GULP energy per Si atom -12397.906248 kJ/mol
# Density = 1.868854 g / cm^3
# Si number density = 18.731170 Si / 1000 Ang^3
#
#
#
# Elastic Constant Matrix: (Units=GPa)
#
#
# Indices 1 2 3 4 5 6 
#
# 1 60.0891 15.9788 15.7918 0.0000 23.8650 0.0000
# 2 15.9788 85.0891 14.0075 0.0000 12.2122 0.0000
# 3 15.7918 14.0075 60.3891 0.0000 11.6611 0.0000
# 4 0.0000 0.0000 0.0000 19.6475 0.0000 10.4716
# 5 23.8650 12.2122 11.6611 0.0000 47.5380 0.0000
# 6 0.0000 0.0000 0.0000 10.4716 0.0000 42.1802
#
#
#
# Elastic Compliance Matrix: (Units=1/GPa)
#
#
# Indices 1 2 3 4 5 6 
#
# 1 0.021929 -0.002182 -0.003370 0.000000 -0.009622 0.000000
# 2 -0.002182 0.012742 -0.002062 0.000000 -0.001672 0.000000
# 3 -0.003370 -0.002062 0.018360 0.000000 -0.002282 0.000000
# 4 0.000000 0.000000 0.000000 0.058658 0.000000 -0.014562
# 5 -0.009622 -0.001672 -0.002282 0.000000 0.026855 0.000000
# 6 0.000000 0.000000 0.000000 -0.014562 0.000000 0.027323
#
#
# Mechanical properties :
#
#
# Convention : Reuss Voigt Hill
#
# Bulk Modulus (GPa) = 26.45422 33.01370 29.73396
# Shear Modulus (GPa) = 25.81351 32.52576 29.16963
#
# Velocity S-wave (km/s) = 3.71631 4.17160 3.95052
# Velocity P-wave (km/s) = 5.70687 6.39267 6.05948
#
# Compressibility (1/GPa) = 0.03780116
#
# Stress axis : x y z
#
# Youngs Moduli (GPa) = 45.60094 78.48309 54.46752
#
# Poissons Ratio (x) = 0.17128 0.18358
# Poissons Ratio (y) = 0.09952 0.11231
# Poissons Ratio (z) = 0.15369 0.16183
#
# Static dielectric constant tensor:
#      x y z
#    x 3.811720 0.000000 0.064560 
#    y 0.000000 3.319540 0.000000 
#    z 0.064560 0.000000 3.533140 
# 
# 
# High freq. dielectric constant tensor:
#      x y z
#    x 1.739270 0.000000 -0.004400 
#    y 0.000000 1.686700 0.000000 
#    z -0.004400 0.000000 1.731330 
# 
# From -- ./inp_files/234473.got.cif
#   From: 2010.06.25/outbox.cif.g09.slc.cpg/sg12_118_cif.got.tgz:234473.got - 2010.06.28 00:19:55.
