data_PCOD8094495
_publ_section_title
;
Structure prediction by ZEFSAII (Michael W. Deem and Ramdas Pophale) SiO2 
 PCOD8094495
Probable space group: C 2/M
;
_chemical_formula_sum "Si O2"
_cell_formula_units_Z 40
_cell_length_a 9.724622
_cell_length_b 14.967961
_cell_length_c 13.068283
_cell_angle_alpha 90.000000
_cell_angle_beta 91.530209
_cell_angle_gamma 90.000000
_cell_volume 1901.511687
_symmetry_space_group_name_H-M "C 2/M"
_symmetry_group_IT_number 12
_symmetry_cell_setting 'monoclinic'
loop_
_space_group_symop_operation_xyz
x,y,z
-x,y,-z
-x,-y,-z
x,-y,z
1/2+x,1/2+y,z
1/2-x,1/2+y,-z
1/2-x,1/2-y,-z
1/2+x,1/2-y,z
loop_
_atom_site_type_symbol
_atom_site_label
_atom_site_fract_x
_atom_site_fract_y
_atom_site_fract_z
Si Si1 0.709437 0.602862 0.258814
Si Si2 0.618461 0.736210 0.429069
Si Si3 0.607588 0.098444 0.079828
Si Si4 0.340504 0.336120 0.970363
Si Si5 0.967328 0.397481 0.705509
O O1 0.659806 0.500000 0.266438
O O2 0.633606 0.662210 0.341788
O O3 0.669942 0.642303 0.148460
O O4 0.870755 0.610197 0.277998
O O5 0.500000 0.699452 0.500000
O O6 0.750000 0.750000 0.500000
O O7 0.581616 0.834337 0.386165
O O8 0.604608 0.142313 0.192335
O O9 0.545565 0.000000 0.097180
O O10 0.500000 0.148231 0.000000
O O11 0.762015 0.089611 0.037135
O O12 0.500000 0.328696 0.000000
O O13 0.250000 0.250000 0.000000
O O14 0.922997 0.500000 0.680150
#
# Coordination Sequence:
#
# PCOD8094495 Si02
#       5
#     8   8   8   8   8
#     4  11  25  45  71 102 138 182 231 284 343 409
#     4  12  26  45  70  99 134 175 232 296 354 403
#     4  10  19  37  65  96 131 171 213 263 328 406
#     4  12  26  40  65 100 142 183 224 273 336 408
#     4  10  22  43  73 102 135 180 231 276 338 423
#
# _framework density 21.035893999999999
#
# number of rings (size 3 to 8) (size 9 to 14) (size 15 to 20)
#    0.000    1.000    4.000    2.400    2.800    4.800 
#    0.000    2.000    0.000    0.000    0.000    0.000 
#    0.000    0.000    0.000    0.000    0.000    0.000 
#
# Total GULP energy -247887.062633 kJ/mol
# GULP energy per Si atom -12394.353132 kJ/mol
# Density = 2.098802 g / cm^3
# Si number density = 21.035894 Si / 1000 Ang^3
#
#
#
# Elastic Constant Matrix: (Units=GPa)
#
#
# Indices 1 2 3 4 5 6 
#
# 1 153.0721 47.8698 69.3025 0.0000 -6.7173 0.0000
# 2 47.8698 129.1823 76.2559 0.0000 2.4205 0.0000
# 3 69.3025 76.2559 164.9174 0.0000 -17.2549 0.0000
# 4 0.0000 0.0000 0.0000 23.0905 0.0000 -9.4817
# 5 -6.7173 2.4205 -17.2549 0.0000 46.8383 0.0000
# 6 0.0000 0.0000 0.0000 -9.4817 0.0000 24.4885
#
#
#
# Elastic Compliance Matrix: (Units=1/GPa)
#
#
# Indices 1 2 3 4 5 6 
#
# 1 0.008247 -0.001415 -0.002788 0.000000 0.000229 0.000000
# 2 -0.001415 0.011169 -0.004838 0.000000 -0.002562 0.000000
# 3 -0.002788 -0.004838 0.009836 0.000000 0.003474 0.000000
# 4 0.000000 0.000000 0.000000 0.051495 0.000000 0.019938
# 5 0.000229 -0.002562 0.003474 0.000000 0.022795 0.000000
# 6 0.000000 0.000000 0.000000 0.019938 0.000000 0.048555
#
#
# Mechanical properties :
#
#
# Convention : Reuss Voigt Hill
#
# Bulk Modulus (GPa) = 89.51671 92.66979 91.09325
# Shear Modulus (GPa) = 28.75175 35.79969 32.27572
#
# Velocity S-wave (km/s) = 3.70103 4.12981 3.92128
# Velocity P-wave (km/s) = 7.80449 8.17858 7.99373
#
# Compressibility (1/GPa) = 0.01117110
#
# Stress axis : x y z
#
# Youngs Moduli (GPa) = 121.24922 89.53190 101.67241
#
# Poissons Ratio (x) = 0.12669 0.28342
# Poissons Ratio (y) = 0.17157 0.49189
# Poissons Ratio (z) = 0.33799 0.43315
#
# Static dielectric constant tensor:
#      x y z
#    x 5.419780 0.000000 -0.099510 
#    y 0.000000 3.898980 0.000000 
#    z -0.099510 0.000000 4.273240 
# 
# 
# High freq. dielectric constant tensor:
#      x y z
#    x 1.822030 0.000000 -0.010180 
#    y 0.000000 1.833040 0.000000 
#    z -0.010180 0.000000 1.837610 
# 
# From -- ./inp_files/119077.got.cif
#   From: 2010.06.25/outbox.cif.g09.slc.cpg/sg12_60_cif.got.tgz:119077.got - 2010.06.28 00:19:55.
