data_PCOD8094648
_publ_section_title
;
Structure prediction by ZEFSAII (Michael W. Deem and Ramdas Pophale) SiO2 
 PCOD8094648
Probable space group: C 2/M
;
_chemical_formula_sum "Si O2"
_cell_formula_units_Z 52
_cell_length_a 23.452250
_cell_length_b 19.827640
_cell_length_c 7.913664
_cell_angle_alpha 90.000000
_cell_angle_beta 137.410338
_cell_angle_gamma 90.000000
_cell_volume 2490.330635
_symmetry_space_group_name_H-M "C 2/M"
_symmetry_group_IT_number 12
_symmetry_cell_setting 'monoclinic'
loop_
_space_group_symop_operation_xyz
x,y,z
-x,y,-z
-x,-y,-z
x,-y,z
1/2+x,1/2+y,z
1/2-x,1/2+y,-z
1/2-x,1/2-y,-z
1/2+x,1/2-y,z
loop_
_atom_site_type_symbol
_atom_site_label
_atom_site_fract_x
_atom_site_fract_y
_atom_site_fract_z
Si Si1 0.425467 0.920028 0.145276
Si Si2 0.233303 0.924125 0.249761
Si Si3 0.640983 0.259235 0.438291
Si Si4 0.711558 0.160890 0.335441
Si Si5 0.101403 0.369866 0.545904
Si Si6 0.500000 0.645675 0.000000
Si Si7 0.947638 0.077484 0.229381
O O1 0.516367 0.897557 0.266907
O O2 0.411836 0.878012 0.285271
O O3 0.424160 0.000000 0.173979
O O4 0.347977 0.898892 0.859360
O O5 0.227540 0.872354 0.392275
O O6 0.319186 0.914644 0.333905
O O7 0.230426 0.000000 0.314481
O O8 0.152168 0.911350 0.952098
O O9 0.652732 0.217148 0.291521
O O10 0.726792 0.302402 0.665834
O O11 0.618796 0.208805 0.543429
O O12 0.565935 0.309370 0.243906
O O13 0.462830 0.602098 0.071505
O O14 0.000000 0.112261 0.500000
O O15 0.974209 0.000000 0.285549
#
# Coordination Sequence:
#
# PCOD8094648 Si02
#       7
#     8   8   8   8   8   4   8
#     4  11  22  39  63  96 127 160 214 272 331 386
#     4  10  19  38  63  88 122 163 205 261 320 378
#     4  10  22  39  60  86 125 167 211 255 315 390
#     4  10  21  39  60  90 122 164 208 263 308 387
#     4  10  22  40  60  90 127 167 203 262 320 390
#     4  12  21  42  64  94 125 170 216 270 318 376
#     4  10  23  42  64  94 127 164 216 269 327 381
#
# _framework density 20.880762000000001
#
# number of rings (size 3 to 8) (size 9 to 14) (size 15 to 20)
#    0.000    1.692    1.538    3.462    0.000    3.692 
#    5.538    5.385    0.000    0.000    0.000    0.000 
#    0.000    0.000    0.000    0.000    0.000    0.000 
#
# Total GULP energy -322235.162819 kJ/mol
# GULP energy per Si atom -12393.660108 kJ/mol
# Density = 2.083324 g / cm^3
# Si number density = 20.880762 Si / 1000 Ang^3
#
#
#
# Elastic Constant Matrix: (Units=GPa)
#
#
# Indices 1 2 3 4 5 6 
#
# 1 95.8314 42.5593 41.4747 0.0000 18.4762 0.0000
# 2 42.5593 85.6851 42.7632 0.0000 17.0314 0.0000
# 3 41.4747 42.7632 117.8761 0.0000 20.9506 0.0000
# 4 0.0000 0.0000 0.0000 36.7290 0.0000 3.8005
# 5 18.4762 17.0314 20.9506 0.0000 27.5214 0.0000
# 6 0.0000 0.0000 0.0000 3.8005 0.0000 33.6773
#
#
#
# Elastic Compliance Matrix: (Units=1/GPa)
#
#
# Indices 1 2 3 4 5 6 
#
# 1 0.014702 -0.005115 -0.002458 0.000000 -0.004834 0.000000
# 2 -0.005115 0.016832 -0.003545 0.000000 -0.004284 0.000000
# 3 -0.002458 -0.003545 0.011508 0.000000 -0.004916 0.000000
# 4 0.000000 0.000000 0.000000 0.027548 0.000000 -0.003109
# 5 -0.004834 -0.004284 -0.004916 0.000000 0.045974 0.000000
# 6 0.000000 0.000000 0.000000 -0.003109 0.000000 0.030044
#
#
# Mechanical properties :
#
#
# Convention : Reuss Voigt Hill
#
# Bulk Modulus (GPa) = 48.06377 61.44298 54.75338
# Shear Modulus (GPa) = 28.44438 31.09190 29.76814
#
# Velocity S-wave (km/s) = 3.69484 3.86297 3.77984
# Velocity P-wave (km/s) = 6.42422 7.02753 6.73264
#
# Compressibility (1/GPa) = 0.02080569
#
# Stress axis : x y z
#
# Youngs Moduli (GPa) = 68.01604 59.41056 86.89278
#
# Poissons Ratio (x) = 0.30388 0.21361
# Poissons Ratio (y) = 0.34790 0.30806
# Poissons Ratio (z) = 0.16721 0.21063
#
# Static dielectric constant tensor:
#      x y z
#    x 3.778780 0.000000 0.324390 
#    y 0.000000 3.818860 0.000000 
#    z 0.324390 0.000000 4.010710 
# 
# 
# High freq. dielectric constant tensor:
#      x y z
#    x 1.808860 0.000000 0.025210 
#    y 0.000000 1.823940 0.000000 
#    z 0.025210 0.000000 1.819210 
# 
# From -- ./inp_files/99152.got.cif
#   From: 2010.06.25/outbox.cif.g09.slc.cpg/sg12_50_cif.got.tgz:99152.got - 2010.06.28 00:19:55.
