data_PCOD8094986
_publ_section_title
;
Structure prediction by ZEFSAII (Michael W. Deem and Ramdas Pophale) SiO2 
 PCOD8094986
Probable space group: C 2/M
;
_chemical_formula_sum "Si O2"
_cell_formula_units_Z 48
_cell_length_a 26.463721
_cell_length_b 13.541461
_cell_length_c 26.573480
_cell_angle_alpha 90.000000
_cell_angle_beta 16.407317
_cell_angle_gamma 90.000000
_cell_volume 2689.849089
_symmetry_space_group_name_H-M "C 2/M"
_symmetry_group_IT_number 12
_symmetry_cell_setting 'monoclinic'
loop_
_space_group_symop_operation_xyz
x,y,z
-x,y,-z
-x,-y,-z
x,-y,z
1/2+x,1/2+y,z
1/2-x,1/2+y,-z
1/2-x,1/2-y,-z
1/2+x,1/2-y,z
loop_
_atom_site_type_symbol
_atom_site_label
_atom_site_fract_x
_atom_site_fract_y
_atom_site_fract_z
Si Si1 0.846782 0.206816 0.783318
Si Si2 0.662735 0.884945 0.146275
Si Si3 0.980635 0.615048 0.960617
Si Si4 0.326174 0.884049 0.407056
Si Si5 0.939734 0.115540 0.797542
Si Si6 0.710737 0.614868 0.408409
O O1 0.834159 0.325313 0.804175
O O2 0.833188 0.158944 0.851748
O O3 0.029219 0.178373 0.580221
O O4 0.681000 0.176446 0.907798
O O5 0.499496 0.839087 0.268960
O O6 0.641830 0.000000 0.179212
O O7 0.841544 0.863316 0.943645
O O8 0.937163 0.500000 0.994583
O O9 0.167798 0.642860 0.755239
O O10 0.000000 0.644102 0.000000
O O11 0.326068 0.859739 0.347898
O O12 0.142882 0.842034 0.607235
O O13 0.340581 0.000000 0.402003
O O14 0.950152 0.000000 0.775993
O O15 0.654756 0.500000 0.461486
#
# Coordination Sequence:
#
# PCOD8094986 Si02
#       6
#     8   8   8   8   8   8
#     4  11  20  31  50  73  99 132 168 200 238 289
#     4  10  20  31  45  69 102 137 170 203 233 269
#     4  10  21  36  54  76  99 121 151 198 254 306
#     4   8  15  28  44  65  96 130 161 192 227 271
#     4   9  17  29  46  70 100 133 167 200 236 283
#     4   9  18  32  51  75 101 127 155 192 240 296
#
# _framework density 17.844867000000001
#
# number of rings (size 3 to 8) (size 9 to 14) (size 15 to 20)
#    0.000    2.500    0.000    4.000    0.000    7.333 
#    0.000    2.500    0.000    0.500    0.000    1.167 
#    0.000    0.000    0.000    0.000    0.000    0.000 
#
# Total GULP energy -297586.170779 kJ/mol
# GULP energy per Si atom -12399.423782 kJ/mol
# Density = 1.780425 g / cm^3
# Si number density = 17.844867 Si / 1000 Ang^3
#
#
#
# Elastic Constant Matrix: (Units=GPa)
#
#
# Indices 1 2 3 4 5 6 
#
# 1 91.8965 44.9844 66.8604 -0.0011 3.9368 -0.0038
# 2 44.9844 50.5711 51.3455 0.0498 6.1471 0.0018
# 3 66.8604 51.3455 129.4906 0.0286 10.2634 0.0115
# 4 -0.0011 0.0498 0.0286 14.5165 -0.0138 -4.4463
# 5 3.9368 6.1471 10.2634 -0.0138 21.3761 -0.0064
# 6 -0.0038 0.0018 0.0115 -4.4463 -0.0064 22.0071
#
#
#
# Elastic Compliance Matrix: (Units=1/GPa)
#
#
# Indices 1 2 3 4 5 6 
#
# 1 0.021863 -0.013562 -0.006134 0.000070 0.002819 0.000023
# 2 -0.013562 0.041744 -0.009144 -0.000141 -0.005116 -0.000031
# 3 -0.006134 -0.009144 0.014780 -0.000004 -0.003337 -0.000010
# 4 0.000070 -0.000141 -0.000004 0.073432 0.000082 0.014836
# 5 0.002819 -0.005116 -0.003337 0.000082 0.049336 0.000033
# 6 0.000023 -0.000031 -0.000010 0.014836 0.000033 0.048437
#
#
# Mechanical properties :
#
#
# Convention : Reuss Voigt Hill
#
# Bulk Modulus (GPa) = 48.29505 66.48208 57.38857
# Shear Modulus (GPa) = 15.91461 18.83113 17.37287
#
# Velocity S-wave (km/s) = 2.98959 3.25201 3.12356
# Velocity P-wave (km/s) = 6.24816 7.17198 6.72595
#
# Compressibility (1/GPa) = 0.02070606
#
# Stress axis : x y z
#
# Youngs Moduli (GPa) = 45.73931 23.95536 67.65717
#
# Poissons Ratio (x) = 0.32488 0.41504
# Poissons Ratio (y) = 0.62032 0.61868
# Poissons Ratio (z) = 0.28059 0.21905
#
# Static dielectric constant tensor:
#      x y z
#    x 3.006670 0.000010 -0.017550 
#    y 0.000010 3.250110 0.000100 
#    z -0.017550 0.000100 3.611320 
# 
# 
# High freq. dielectric constant tensor:
#      x y z
#    x 1.647830 0.000000 -0.005430 
#    y 0.000000 1.682350 0.000010 
#    z -0.005430 0.000010 1.706990 
# 
# From -- ./inp_files/325632.got.cif
#   From: 2010.06.25/outbox.cif.g09.slc.cpg/sg12_163_cif.got.tgz:325632.got - 2010.06.28 00:19:55.
