data_PCOD8094780
_publ_section_title
;
Structure prediction by ZEFSAII (Michael W. Deem and Ramdas Pophale) SiO2 
 PCOD8094780
Probable space group: C 2/M
;
_chemical_formula_sum "Si O2"
_cell_formula_units_Z 64
_cell_length_a 18.243601
_cell_length_b 28.472496
_cell_length_c 9.836278
_cell_angle_alpha 90.000000
_cell_angle_beta 36.015467
_cell_angle_gamma 90.000000
_cell_volume 3004.324947
_symmetry_space_group_name_H-M "C 2/M"
_symmetry_group_IT_number 12
_symmetry_cell_setting 'monoclinic'
loop_
_space_group_symop_operation_xyz
x,y,z
-x,y,-z
-x,-y,-z
x,-y,z
1/2+x,1/2+y,z
1/2-x,1/2+y,-z
1/2-x,1/2-y,-z
1/2+x,1/2-y,z
loop_
_atom_site_type_symbol
_atom_site_label
_atom_site_fract_x
_atom_site_fract_y
_atom_site_fract_z
Si Si1 0.991246 0.712374 0.357142
Si Si2 0.122248 0.553248 0.993725
Si Si3 0.718343 0.151599 0.947109
Si Si4 0.745368 0.174180 0.429677
Si Si5 0.343901 0.073561 0.367406
Si Si6 0.623855 0.448767 0.885473
Si Si7 0.133161 0.139490 0.014983
Si Si8 0.401269 0.689375 0.445070
O O1 0.857498 0.704447 0.491526
O O2 0.999332 0.768882 0.334398
O O3 0.000000 0.695645 0.500000
O O4 0.095396 0.684049 0.116097
O O5 0.156449 0.500000 0.995288
O O6 0.194921 0.595925 0.958978
O O7 0.975912 0.561944 0.238961
O O8 0.156522 0.554997 0.784501
O O9 0.768952 0.158991 0.023006
O O10 0.819537 0.173166 0.694341
O O11 0.679632 0.129130 0.595798
O O12 0.812672 0.202553 0.450137
O O13 0.847045 0.162090 0.162916
O O14 0.236593 0.047250 0.610084
O O15 0.595319 0.500000 0.987939
O O16 0.500000 0.428130 0.000000
O O17 0.657945 0.416140 0.962011
O O18 0.990202 0.146062 0.273212
#
# Coordination Sequence:
#
# PCOD8094780 Si02
#       8
#     8   8   8   8   8   8   8   8
#     4  12  26  46  71  99 138 177 218 280 351 403
#     4  11  22  38  66  99 138 177 220 282 345 397
#     4  12  26  45  70  98 141 180 225 280 346 408
#     4  11  22  44  71  97 134 176 222 280 332 398
#     4  10  19  39  64  96 135 174 224 282 338 392
#     4  10  21  38  65  96 133 180 230 276 329 402
#     4  11  24  44  67  95 139 177 220 282 341 398
#     4  12  27  46  70  99 131 179 235 277 331 408
#
# _framework density 21.302620999999998
#
# number of rings (size 3 to 8) (size 9 to 14) (size 15 to 20)
#    0.000    0.875    3.750    4.875    1.750    2.000 
#    2.250    0.000    0.000    4.125    0.000    0.000 
#    0.000    0.000    0.000    0.000    0.000    0.000 
#
# Total GULP energy -396740.700704 kJ/mol
# GULP energy per Si atom -12398.146897 kJ/mol
# Density = 2.125414 g / cm^3
# Si number density = 21.302621 Si / 1000 Ang^3
#
#
#
# Elastic Constant Matrix: (Units=GPa)
#
#
# Indices 1 2 3 4 5 6 
#
# 1 90.8802 24.3559 30.5364 0.0000 0.9044 0.0000
# 2 24.3559 109.4044 50.2669 0.0000 -1.2682 0.0000
# 3 30.5364 50.2669 129.0785 -0.0001 -7.4577 0.0000
# 4 0.0000 0.0000 -0.0001 15.0574 0.0001 -3.5520
# 5 0.9044 -1.2682 -7.4577 0.0001 26.3119 0.0000
# 6 0.0000 0.0000 0.0000 -3.5520 0.0000 29.0178
#
#
#
# Elastic Compliance Matrix: (Units=1/GPa)
#
#
# Indices 1 2 3 4 5 6 
#
# 1 0.012240 -0.001677 -0.002309 0.000000 -0.001156 0.000000
# 2 -0.001677 0.011375 -0.004064 0.000000 -0.000546 0.000000
# 3 -0.002309 -0.004064 0.010034 0.000000 0.002727 0.000000
# 4 0.000000 0.000000 0.000000 0.068387 0.000000 0.008371
# 5 -0.001156 -0.000546 0.002727 0.000000 0.038792 0.000000
# 6 0.000000 0.000000 0.000000 0.008371 0.000000 0.035486
#
#
# Mechanical properties :
#
#
# Convention : Reuss Voigt Hill
#
# Bulk Modulus (GPa) = 56.98966 59.96461 58.47713
# Shear Modulus (GPa) = 25.21860 29.02434 27.12147
#
# Velocity S-wave (km/s) = 3.44441 3.69518 3.57200
# Velocity P-wave (km/s) = 6.52910 6.81292 6.67252
#
# Compressibility (1/GPa) = 0.01754704
#
# Stress axis : x y z
#
# Youngs Moduli (GPa) = 81.69609 87.91249 99.66164
#
# Poissons Ratio (x) = 0.14746 0.23015
# Poissons Ratio (y) = 0.13703 0.40507
# Poissons Ratio (z) = 0.18866 0.35732
#
# Static dielectric constant tensor:
#      x y z
#    x 3.794690 0.000000 -0.090500 
#    y 0.000000 3.995440 0.000000 
#    z -0.090500 0.000000 3.802400 
# 
# 
# High freq. dielectric constant tensor:
#      x y z
#    x 1.825750 0.000000 -0.008170 
#    y 0.000000 1.843150 0.000000 
#    z -0.008170 0.000000 1.840720 
# 
# From -- ./inp_files/80729.got.cif
#   From: 2010.06.25/outbox.cif.g09.slc.cpg/sg12_41_cif.got.tgz:80729.got - 2010.06.28 00:19:55.
