data_PCOD8094930
_publ_section_title
;
Structure prediction by ZEFSAII (Michael W. Deem and Ramdas Pophale) SiO2 
 PCOD8094930
Probable space group: C 2/M
;
_chemical_formula_sum "Si O2"
_cell_formula_units_Z 52
_cell_length_a 8.815608
_cell_length_b 24.292464
_cell_length_c 26.063439
_cell_angle_alpha 90.000000
_cell_angle_beta 29.260564
_cell_angle_gamma 90.000000
_cell_volume 2728.166370
_symmetry_space_group_name_H-M "C 2/M"
_symmetry_group_IT_number 12
_symmetry_cell_setting 'monoclinic'
loop_
_space_group_symop_operation_xyz
x,y,z
-x,y,-z
-x,-y,-z
x,-y,z
1/2+x,1/2+y,z
1/2-x,1/2+y,-z
1/2-x,1/2-y,-z
1/2+x,1/2-y,z
loop_
_atom_site_type_symbol
_atom_site_label
_atom_site_fract_x
_atom_site_fract_y
_atom_site_fract_z
Si Si1 0.106568 0.142941 0.721873
Si Si2 0.000000 0.799288 0.000000
Si Si3 0.706694 0.358880 0.845577
Si Si4 0.849927 0.935171 0.881602
Si Si5 0.216114 0.810501 0.485930
Si Si6 0.420561 0.268744 0.197544
Si Si7 0.366727 0.660447 0.684468
O O1 0.469824 0.157685 0.622557
O O2 0.935150 0.196718 0.796904
O O3 0.979862 0.090031 0.790171
O O4 0.032687 0.132754 0.684249
O O5 0.973639 0.837639 0.957954
O O6 0.303225 0.761884 0.912268
O O7 0.571654 0.414805 0.862119
O O8 0.749023 0.311310 0.790473
O O9 0.039010 0.369976 0.773287
O O10 0.875692 0.000000 0.868836
O O11 0.500000 0.916796 0.000000
O O12 0.250000 0.750000 0.500000
O O13 0.000000 0.807434 0.500000
O O14 0.067481 0.848428 0.574312
O O15 0.168684 0.225712 0.293243
#
# Coordination Sequence:
#
# PCOD8094930 Si02
#       7
#     8   4   8   8   8   8   8
#     4  11  23  37  61  85 121 163 200 253 298 357
#     4  10  20  30  53  80 121 154 194 240 288 370
#     4  10  22  35  56  83 116 160 199 251 298 361
#     4  10  24  45  66  84 112 157 211 262 312 356
#     4  12  23  36  57  88 128 169 202 236 287 357
#     4  10  20  32  50  81 121 166 197 229 290 366
#     4  11  21  36  56  88 128 154 201 236 300 364
#
# _framework density 19.060421000000002
#
# number of rings (size 3 to 8) (size 9 to 14) (size 15 to 20)
#    0.000    1.385    1.538    5.538    8.615    0.000 
#    0.000    1.154    0.000    6.000    0.000    0.000 
#    0.000    0.000    0.000    0.000    0.000    0.000 
#
# Total GULP energy -322300.624670 kJ/mol
# GULP energy per Si atom -12396.177872 kJ/mol
# Density = 1.901704 g / cm^3
# Si number density = 19.060421 Si / 1000 Ang^3
#
#
#
# Elastic Constant Matrix: (Units=GPa)
#
#
# Indices 1 2 3 4 5 6 
#
# 1 154.1222 36.8595 57.8996 -0.3216 3.2331 0.0990
# 2 36.8595 77.0214 46.1308 -0.6056 -0.0851 0.3723
# 3 57.8996 46.1308 125.5520 0.1005 11.5236 0.3645
# 4 -0.3216 -0.6056 0.1005 19.9128 0.1642 0.2744
# 5 3.2331 -0.0851 11.5236 0.1642 35.7788 -0.0810
# 6 0.0990 0.3723 0.3645 0.2744 -0.0810 16.6668
#
#
#
# Elastic Compliance Matrix: (Units=1/GPa)
#
#
# Indices 1 2 3 4 5 6 
#
# 1 0.008107 -0.002087 -0.002993 0.000080 0.000226 0.000064
# 2 -0.002087 0.017340 -0.005595 0.000509 0.002029 -0.000251
# 3 -0.002993 -0.005595 0.011724 -0.000247 -0.003518 -0.000127
# 4 0.000080 0.000509 -0.000247 0.050250 -0.000159 -0.000834
# 5 0.000226 0.002029 -0.003518 -0.000159 0.029068 0.000174
# 6 0.000064 -0.000251 -0.000127 -0.000834 0.000174 0.060022
#
#
# Mechanical properties :
#
#
# Convention : Reuss Voigt Hill
#
# Bulk Modulus (GPa) = 63.20013 70.94169 67.07091
# Shear Modulus (GPa) = 24.61413 28.85871 26.73642
#
# Velocity S-wave (km/s) = 3.59747 3.89532 3.74935
# Velocity P-wave (km/s) = 7.10531 7.58495 7.34905
#
# Compressibility (1/GPa) = 0.01582275
#
# Stress axis : x y z
#
# Youngs Moduli (GPa) = 123.34758 57.66875 85.29293
#
# Poissons Ratio (x) = 0.12033 0.25529
# Poissons Ratio (y) = 0.25737 0.47721
# Poissons Ratio (z) = 0.36919 0.32265
#
# Static dielectric constant tensor:
#      x y z
#    x 3.715280 -0.000350 0.226390 
#    y -0.000350 3.033390 0.001240 
#    z 0.226390 0.001240 3.774920 
# 
# 
# High freq. dielectric constant tensor:
#      x y z
#    x 1.755930 -0.000080 0.012670 
#    y -0.000080 1.684750 0.000090 
#    z 0.012670 0.000090 1.758770 
# 
# From -- ./inp_files/357036.got.cif
#   From: 2010.06.25/outbox.cif.g09.slc.cpg/sg12_179_cif.got.tgz:357036.got - 2010.06.28 00:19:55.
