data_PCOD8094313
_publ_section_title
;
Structure prediction by ZEFSAII (Michael W. Deem and Ramdas Pophale) SiO2 
 PCOD8094313
Probable space group: C 2/M
;
_chemical_formula_sum "Si O2"
_cell_formula_units_Z 56
_cell_length_a 25.150805
_cell_length_b 8.843641
_cell_length_c 14.658433
_cell_angle_alpha 90.000000
_cell_angle_beta 59.952451
_cell_angle_gamma 90.000000
_cell_volume 2822.233140
_symmetry_space_group_name_H-M "C 2/M"
_symmetry_group_IT_number 12
_symmetry_cell_setting 'monoclinic'
loop_
_space_group_symop_operation_xyz
x,y,z
-x,y,-z
-x,-y,-z
x,-y,z
1/2+x,1/2+y,z
1/2-x,1/2+y,-z
1/2-x,1/2-y,-z
1/2+x,1/2-y,z
loop_
_atom_site_type_symbol
_atom_site_label
_atom_site_fract_x
_atom_site_fract_y
_atom_site_fract_z
Si Si1 0.848907 0.178813 0.792312
Si Si2 0.981044 0.827662 0.918004
Si Si3 0.577194 0.672501 0.681288
Si Si4 0.296864 0.178417 0.389537
Si Si5 0.357672 0.821553 0.973641
Si Si6 0.271121 0.178546 0.208939
Si Si7 0.480985 0.320052 0.614661
O O1 0.830406 0.251013 0.904759
O O2 0.797596 0.224760 0.762214
O O3 0.914226 0.243166 0.700907
O O4 0.851670 0.000000 0.804124
O O5 0.928615 0.723314 0.921228
O O6 0.042110 0.817183 0.806444
O O7 0.956546 0.000000 0.943294
O O8 0.000000 0.765043 0.000000
O O9 0.597833 0.500000 0.643123
O O10 0.635377 0.780431 0.635480
O O11 0.532487 0.734902 0.640986
O O12 0.250000 0.250000 0.500000
O O13 0.284713 0.244937 0.298042
O O14 0.288059 0.000000 0.398040
O O15 0.351122 0.000000 0.972369
O O16 0.319863 0.757531 0.093140
O O17 0.278200 0.000000 0.206704
O O18 0.500000 0.255120 0.500000
O O19 0.477598 0.500000 0.616473
#
# Coordination Sequence:
#
# PCOD8094313 Si02
#       7
#     8   8   8   8   8   8   8
#     4  10  19  37  61  84 112 151 196 242 285 338
#     4  10  20  35  57  84 114 152 196 238 280 335
#     4  10  20  37  59  86 115 145 190 238 282 338
#     4  11  24  42  62  86 115 152 195 238 287 342
#     4  11  21  35  55  86 122 152 187 236 295 351
#     4   9  21  38  59  84 114 155 199 235 281 349
#     4   9  18  32  58  88 109 143 195 240 283 338
#
# _framework density 19.842441999999998
#
# number of rings (size 3 to 8) (size 9 to 14) (size 15 to 20)
#    0.000    2.000    1.429    2.143    2.000    0.857 
#    0.000    4.286    0.000    0.857    0.000    0.000 
#    0.000    0.000    0.000    0.000    0.000    0.000 
#
# Total GULP energy -347257.499474 kJ/mol
# GULP energy per Si atom -12402.053553 kJ/mol
# Density = 1.979728 g / cm^3
# Si number density = 19.842442 Si / 1000 Ang^3
#
#
#
# Elastic Constant Matrix: (Units=GPa)
#
#
# Indices 1 2 3 4 5 6 
#
# 1 127.2792 25.4741 58.2627 0.0000 -5.7490 0.0000
# 2 25.4741 40.8438 26.2909 0.0000 -2.8326 0.0000
# 3 58.2627 26.2909 139.9309 0.0000 1.8294 0.0000
# 4 0.0000 0.0000 0.0000 22.9778 0.0000 0.0614
# 5 -5.7490 -2.8326 1.8294 0.0000 31.5146 0.0000
# 6 0.0000 0.0000 0.0000 0.0614 0.0000 28.0988
#
#
#
# Elastic Compliance Matrix: (Units=1/GPa)
#
#
# Indices 1 2 3 4 5 6 
#
# 1 0.010388 -0.004049 -0.003587 0.000000 0.001739 0.000000
# 2 -0.004049 0.029681 -0.003919 0.000000 0.002157 0.000000
# 3 -0.003587 -0.003919 0.009397 0.000000 -0.001552 0.000000
# 4 0.000000 0.000000 0.000000 0.043520 0.000000 -0.000095
# 5 0.001739 0.002157 -0.001552 0.000000 0.032333 0.000000
# 6 0.000000 0.000000 0.000000 -0.000095 0.000000 0.035589
#
#
# Mechanical properties :
#
#
# Convention : Reuss Voigt Hill
#
# Bulk Modulus (GPa) = 37.94331 58.67879 48.31105
# Shear Modulus (GPa) = 25.93325 29.71998 27.82662
#
# Velocity S-wave (km/s) = 3.61911 3.87434 3.74890
# Velocity P-wave (km/s) = 6.05209 7.04632 6.56804
#
# Compressibility (1/GPa) = 0.02635511
#
# Stress axis : x y z
#
# Youngs Moduli (GPa) = 96.26752 33.69142 106.42242
#
# Poissons Ratio (x) = 0.13642 0.38174
# Poissons Ratio (y) = 0.38980 0.41706
# Poissons Ratio (z) = 0.34532 0.13203
#
# Static dielectric constant tensor:
#      x y z
#    x 3.793620 0.000000 0.114640 
#    y 0.000000 3.245930 0.000000 
#    z 0.114640 0.000000 3.892640 
# 
# 
# High freq. dielectric constant tensor:
#      x y z
#    x 1.786350 0.000000 0.003690 
#    y 0.000000 1.734180 0.000000 
#    z 0.003690 0.000000 1.787480 
# 
# From -- ./inp_files/238304.got.cif
#   From: 2010.06.25/outbox.cif.g09.slc.cpg/sg12_120_cif.got.tgz:238304.got - 2010.06.28 00:19:55.
