data_PCOD8094948
_publ_section_title
;
Structure prediction by ZEFSAII (Michael W. Deem and Ramdas Pophale) SiO2 
 PCOD8094948
Probable space group: C 2/M
;
_chemical_formula_sum "Si O2"
_cell_formula_units_Z 64
_cell_length_a 9.084123
_cell_length_b 29.693864
_cell_length_c 15.979547
_cell_angle_alpha 90.000000
_cell_angle_beta 73.486438
_cell_angle_gamma 90.000000
_cell_volume 4132.574441
_symmetry_space_group_name_H-M "C 2/M"
_symmetry_group_IT_number 12
_symmetry_cell_setting 'monoclinic'
loop_
_space_group_symop_operation_xyz
x,y,z
-x,y,-z
-x,-y,-z
x,-y,z
1/2+x,1/2+y,z
1/2-x,1/2+y,-z
1/2-x,1/2-y,-z
1/2+x,1/2-y,z
loop_
_atom_site_type_symbol
_atom_site_label
_atom_site_fract_x
_atom_site_fract_y
_atom_site_fract_z
Si Si1 0.875003 0.390951 0.592479
Si Si2 0.286704 0.446499 0.096017
Si Si3 0.799053 0.946509 0.736076
Si Si4 0.374625 0.791315 0.592672
Si Si5 0.035128 0.446509 0.263924
Si Si6 0.467482 0.390951 0.407521
Si Si7 0.617279 0.553501 0.096017
Si Si8 0.532703 0.708685 0.592672
O O1 0.875932 0.340851 0.634456
O O2 0.907283 0.427021 0.658341
O O3 0.711132 0.401279 0.577737
O O4 0.000000 0.396117 0.500000
O O5 0.285379 0.500000 0.096923
O O6 0.141528 0.428009 0.171094
O O7 0.442613 0.428980 0.114773
O O8 0.282065 0.429536 0.000000
O O9 0.636889 0.929979 0.726222
O O10 0.812622 0.928009 0.828906
O O11 0.934376 0.927021 0.658341
O O12 0.813882 0.000000 0.731224
O O13 0.500000 0.793406 0.500000
O O14 0.426907 0.750000 0.646186
O O15 0.209032 0.779804 0.581936
O O16 0.045106 0.500000 0.268776
O O17 0.500000 0.396117 0.500000
O O18 0.510389 0.340851 0.365543
O O19 0.617697 0.500000 0.096923
O O20 0.500000 0.706594 0.500000
#
# Coordination Sequence:
#
# PCOD8094948 Si02
#       8
#     8   8   8   8   8   8   8   8
#     4  10  20  32  45  61  83 113 147 179 211 249
#     4   8  14  26  44  63  82 106 136 171 213 256
#     4  10  20  31  43  61  85 114 147 180 213 248
#     4   9  16  26  42  62  81 103 132 168 211 254
#     4  10  20  31  43  61  85 114 147 180 213 248
#     4  10  20  32  45  61  83 113 147 179 211 249
#     4   8  14  26  44  63  82 106 136 171 213 256
#     4   9  16  26  42  62  81 103 132 168 211 254
#
# _framework density 15.486715
#
# number of rings (size 3 to 8) (size 9 to 14) (size 15 to 20)
#    0.000    2.750    0.000    3.750    0.000    5.500 
#    0.000    2.500    0.000    0.000    0.000    0.000 
#    0.000    1.000    0.000    3.250    0.000    4.500 
#
# Total GULP energy -396484.999823 kJ/mol
# GULP energy per Si atom -12390.156244 kJ/mol
# Density = 1.545147 g / cm^3
# Si number density = 15.486715 Si / 1000 Ang^3
#
#
#
# Elastic Constant Matrix: (Units=GPa)
#
#
# Indices 1 2 3 4 5 6 
#
# 1 121.4680 33.7976 52.3656 0.0000 1.2068 0.0000
# 2 33.7976 34.6870 28.2544 0.0000 0.3522 0.0000
# 3 52.3656 28.2544 88.5656 0.0000 0.8836 0.0000
# 4 0.0000 0.0000 0.0000 0.2024 0.0000 1.4451
# 5 1.2068 0.3522 0.8836 0.0000 25.0746 0.0000
# 6 0.0000 0.0000 0.0000 1.4451 0.0000 22.9470
#
#
#
# Elastic Compliance Matrix: (Units=1/GPa)
#
#
# Indices 1 2 3 4 5 6 
#
# 1 0.012640 -0.008414 -0.004786 0.000000 -0.000322 0.000000
# 2 -0.008414 0.044553 -0.009239 0.000000 0.000105 0.000000
# 3 -0.004786 -0.009239 0.017071 0.000000 -0.000241 0.000000
# 4 0.000000 0.000000 0.000000 8.977055 0.000000 -0.565324
# 5 -0.000322 0.000105 -0.000241 0.000000 0.039903 0.000000
# 6 0.000000 0.000000 0.000000 -0.565324 0.000000 0.079180
#
#
# Mechanical properties :
#
#
# Convention : Reuss Voigt Hill
#
# Bulk Modulus (GPa) = 34.03173 52.61731 43.32452
# Shear Modulus (GPa) = 0.54200 18.33166 9.43683
#
# Velocity S-wave (km/s) = 0.59223 3.44423 2.47118
# Velocity P-wave (km/s) = 4.74238 7.06162 6.01484
#
# Compressibility (1/GPa) = 0.02938434
#
# Stress axis : x y z
#
# Youngs Moduli (GPa) = 79.11102 22.44531 58.57925
#
# Poissons Ratio (x) = 0.18887 0.28037
# Poissons Ratio (y) = 0.66568 0.54122
# Poissons Ratio (z) = 0.37864 0.20738
#
# Static dielectric constant tensor:
#      x y z
#    x 3.194720 0.000000 0.018820 
#    y 0.000000 3.325910 0.000000 
#    z 0.018820 0.000000 2.898440 
# 
# 
# High freq. dielectric constant tensor:
#      x y z
#    x 1.612370 0.000000 0.003120 
#    y 0.000000 1.567800 0.000000 
#    z 0.003120 0.000000 1.563220 
# 
# From -- ./inp_files/200580.got.cif
#   From: 2010.06.25/outbox.cif.g09.slc.cpg/sg12_101_cif.got.tgz:200580.got - 2010.06.28 00:19:55.
