data_PCOD8094674
_publ_section_title
;
Structure prediction by ZEFSAII (Michael W. Deem and Ramdas Pophale) SiO2 
 PCOD8094674
Probable space group: C 2/M
;
_chemical_formula_sum "Si O2"
_cell_formula_units_Z 52
_cell_length_a 20.568441
_cell_length_b 18.102026
_cell_length_c 8.296677
_cell_angle_alpha 90.000000
_cell_angle_beta 126.151268
_cell_angle_gamma 90.000000
_cell_volume 2494.336397
_symmetry_space_group_name_H-M "C 2/M"
_symmetry_group_IT_number 12
_symmetry_cell_setting 'monoclinic'
loop_
_space_group_symop_operation_xyz
x,y,z
-x,y,-z
-x,-y,-z
x,-y,z
1/2+x,1/2+y,z
1/2-x,1/2+y,-z
1/2-x,1/2-y,-z
1/2+x,1/2-y,z
loop_
_atom_site_type_symbol
_atom_site_label
_atom_site_fract_x
_atom_site_fract_y
_atom_site_fract_z
Si Si1 0.500000 0.382973 0.000000
Si Si2 0.845523 0.082545 0.604289
Si Si3 0.807236 0.642509 0.469203
Si Si4 0.119983 0.784188 0.566973
Si Si5 0.410698 0.142244 0.936212
Si Si6 0.434921 0.000000 0.160871
Si Si7 0.893122 0.500000 0.471397
Si Si8 0.944592 0.775857 0.185747
O O1 0.433330 0.430824 0.810774
O O2 0.551630 0.336526 0.947356
O O3 0.786415 0.122592 0.644788
O O4 0.852321 0.136733 0.461172
O O5 0.814520 0.000000 0.508848
O O6 0.816444 0.718749 0.381471
O O7 0.845877 0.651315 0.701563
O O8 0.844759 0.574677 0.427686
O O9 0.109146 0.800331 0.740544
O O10 0.035838 0.755658 0.369682
O O11 0.500000 0.147544 0.000000
O O12 0.395445 0.067846 0.011086
O O13 0.397993 0.205954 0.047603
O O14 0.416518 0.000000 0.320912
O O15 0.532314 0.000000 0.293104
#
# Coordination Sequence:
#
# PCOD8094674 Si02
#       8
#     4   8   8   8   8   4   4   8
#     4  10  21  44  68  89 108 158 208 259 318 366
#     4  11  24  43  65  88 119 158 209 260 312 364
#     4  12  22  38  61  90 127 163 205 245 304 359
#     4  10  21  38  64  94 123 163 199 254 306 360
#     4  12  19  33  56  89 123 167 201 241 286 369
#     4  11  22  31  52  87 127 173 213 229 288 360
#     4  11  21  36  53  85 130 168 204 253 284 351
#     4  10  19  38  64  93 124 154 208 250 299 368
#
# _framework density 20.847227
#
# number of rings (size 3 to 8) (size 9 to 14) (size 15 to 20)
#    0.000    1.077    4.615    3.231    0.000    2.462 
#    0.000   11.538    0.000    0.000    0.000    0.000 
#    0.000    0.000    0.000    0.000    0.000    0.000 
#
# Total GULP energy -322365.185046 kJ/mol
# GULP energy per Si atom -12398.660963 kJ/mol
# Density = 2.079978 g / cm^3
# Si number density = 20.847227 Si / 1000 Ang^3
#
#
#
# Elastic Constant Matrix: (Units=GPa)
#
#
# Indices 1 2 3 4 5 6 
#
# 1 114.7697 60.1006 26.5440 0.0000 -13.1751 0.0000
# 2 60.1006 141.9197 19.6186 0.0000 -15.7341 0.0000
# 3 26.5440 19.6186 41.4514 0.0000 -11.9759 0.0000
# 4 0.0000 0.0000 0.0000 28.4110 0.0000 -5.9630
# 5 -13.1751 -15.7341 -11.9759 0.0000 34.8272 0.0000
# 6 0.0000 0.0000 0.0000 -5.9630 0.0000 45.6385
#
#
#
# Elastic Compliance Matrix: (Units=1/GPa)
#
#
# Indices 1 2 3 4 5 6 
#
# 1 0.012404 -0.004387 -0.005644 0.000000 0.000770 0.000000
# 2 -0.004387 0.009280 -0.000945 0.000000 0.002208 0.000000
# 3 -0.005644 -0.000945 0.030473 0.000000 0.007917 0.000000
# 4 0.000000 0.000000 0.000000 0.036190 0.000000 0.004728
# 5 0.000770 0.002208 0.007917 0.000000 0.032724 0.000000
# 6 0.000000 0.000000 0.000000 0.004728 0.000000 0.022529
#
#
# Mechanical properties :
#
#
# Convention : Reuss Voigt Hill
#
# Bulk Modulus (GPa) = 33.10768 56.74081 44.92424
# Shear Modulus (GPa) = 28.47027 34.56718 31.51872
#
# Velocity S-wave (km/s) = 3.69950 4.07642 3.89252
# Velocity P-wave (km/s) = 5.84499 7.03084 6.46516
#
# Compressibility (1/GPa) = 0.03020448
#
# Stress axis : x y z
#
# Youngs Moduli (GPa) = 80.61615 107.76330 32.81547
#
# Poissons Ratio (x) = 0.47281 0.18523
# Poissons Ratio (y) = 0.35370 0.03099
# Poissons Ratio (z) = 0.45504 0.10178
#
# Static dielectric constant tensor:
#      x y z
#    x 3.806890 0.000000 -0.065160 
#    y 0.000000 3.801020 0.000000 
#    z -0.065160 0.000000 3.692880 
# 
# 
# High freq. dielectric constant tensor:
#      x y z
#    x 1.816640 0.000000 -0.008900 
#    y 0.000000 1.821520 0.000000 
#    z -0.008900 0.000000 1.801880 
# 
# From -- ./inp_files/88524.got.cif
#   From: 2010.06.25/outbox.cif.g09.slc.cpg/sg12_45_cif.got.tgz:88524.got - 2010.06.28 00:19:55.
