data_PCOD8094371
_publ_section_title
;
Structure prediction by ZEFSAII (Michael W. Deem and Ramdas Pophale) SiO2 
 PCOD8094371
Probable space group: C 2/M
;
_chemical_formula_sum "Si O2"
_cell_formula_units_Z 48
_cell_length_a 25.041917
_cell_length_b 8.470926
_cell_length_c 12.457778
_cell_angle_alpha 90.000000
_cell_angle_beta 109.141286
_cell_angle_gamma 90.000000
_cell_volume 2496.542042
_symmetry_space_group_name_H-M "C 2/M"
_symmetry_group_IT_number 12
_symmetry_cell_setting 'monoclinic'
loop_
_space_group_symop_operation_xyz
x,y,z
-x,y,-z
-x,-y,-z
x,-y,z
1/2+x,1/2+y,z
1/2-x,1/2+y,-z
1/2-x,1/2-y,-z
1/2+x,1/2-y,z
loop_
_atom_site_type_symbol
_atom_site_label
_atom_site_fract_x
_atom_site_fract_y
_atom_site_fract_z
Si Si1 0.307671 0.684357 0.371133
Si Si2 0.004538 0.815812 0.377011
Si Si3 0.621286 0.818023 0.393702
Si Si4 0.688359 0.685086 0.251508
Si Si5 0.693092 0.686349 0.012833
Si Si6 0.383759 0.686810 0.226994
O O1 0.293764 0.500000 0.348814
O O2 0.343743 0.708913 0.501986
O O3 0.249685 0.780321 0.341808
O O4 0.342984 0.752809 0.293654
O O5 0.055027 0.716401 0.359554
O O6 0.000000 0.783989 0.500000
O O7 0.947411 0.750350 0.283557
O O8 0.014856 0.000000 0.360244
O O9 0.640477 0.776523 0.286059
O O10 0.633381 0.000000 0.427352
O O11 0.675895 0.500000 0.248306
O O12 0.684762 0.751329 0.127455
O O13 0.697824 0.500000 0.017804
O O14 0.750000 0.750000 0.000000
O O15 0.640201 0.740871 0.904325
O O16 0.385039 0.500000 0.240939
#
# Coordination Sequence:
#
# PCOD8094371 Si02
#       6
#     8   8   8   8   8   8
#     4  11  20  36  61  87 118 151 187 235 290 348
#     4  10  19  37  62  86 112 150 192 234 285 344
#     4  12  25  39  56  83 119 155 193 238 290 344
#     4  11  23  38  57  85 119 155 195 236 285 343
#     4  10  20  36  59  87 116 150 191 235 281 338
#     4   9  18  34  59  88 116 146 186 231 284 341
#
# _framework density 19.226595
#
# number of rings (size 3 to 8) (size 9 to 14) (size 15 to 20)
#    0.000    1.500    3.333    3.000    0.000    1.000 
#    0.000    1.667    0.000    5.000    0.000    0.000 
#    0.000    0.000    0.000    0.000    0.000    0.000 
#
# Total GULP energy -297691.373663 kJ/mol
# GULP energy per Si atom -12403.807236 kJ/mol
# Density = 1.918283 g / cm^3
# Si number density = 19.226595 Si / 1000 Ang^3
#
#
#
# Elastic Constant Matrix: (Units=GPa)
#
#
# Indices 1 2 3 4 5 6 
#
# 1 133.0875 25.1235 55.9173 0.0000 -1.9154 0.0000
# 2 25.1235 43.2203 16.1183 0.0000 -3.6576 0.0000
# 3 55.9173 16.1183 117.9053 0.0000 2.9134 0.0000
# 4 0.0000 0.0000 0.0000 17.1461 0.0000 -1.2745
# 5 -1.9154 -3.6576 2.9134 0.0000 38.2718 0.0000
# 6 0.0000 0.0000 0.0000 -1.2745 0.0000 31.0527
#
#
#
# Elastic Compliance Matrix: (Units=1/GPa)
#
#
# Indices 1 2 3 4 5 6 
#
# 1 0.010095 -0.004261 -0.004216 0.000000 0.000419 0.000000
# 2 -0.004261 0.026437 -0.001654 0.000000 0.002439 0.000000
# 3 -0.004216 -0.001654 0.010736 0.000000 -0.001186 0.000000
# 4 0.000000 0.000000 0.000000 0.058501 0.000000 0.002401
# 5 0.000419 0.002439 -0.001186 0.000000 0.026473 0.000000
# 6 0.000000 0.000000 0.000000 0.002401 0.000000 0.032302
#
#
# Mechanical properties :
#
#
# Convention : Reuss Voigt Hill
#
# Bulk Modulus (GPa) = 37.02552 54.28126 45.65339
# Shear Modulus (GPa) = 25.79878 30.43107 28.11493
#
# Velocity S-wave (km/s) = 3.66707 3.98271 3.82814
# Velocity P-wave (km/s) = 6.10157 7.03157 6.58301
#
# Compressibility (1/GPa) = 0.02700840
#
# Stress axis : x y z
#
# Youngs Moduli (GPa) = 99.05449 37.82558 93.14376
#
# Poissons Ratio (x) = 0.16117 0.39267
# Poissons Ratio (y) = 0.42205 0.15403
# Poissons Ratio (z) = 0.41759 0.06255
#
# Static dielectric constant tensor:
#      x y z
#    x 3.588050 0.000000 -0.007430 
#    y 0.000000 3.269920 0.000000 
#    z -0.007430 0.000000 3.695140 
# 
# 
# High freq. dielectric constant tensor:
#      x y z
#    x 1.749270 0.000000 0.000320 
#    y 0.000000 1.730900 0.000000 
#    z 0.000320 0.000000 1.749090 
# 
# From -- ./inp_files/172055.got.cif
#   From: 2010.06.25/outbox.cif.g09.slc.cpg/sg12_87_cif.got.tgz:172055.got - 2010.06.28 00:19:55.
