data_PCOD8094314
_publ_section_title
;
Structure prediction by ZEFSAII (Michael W. Deem and Ramdas Pophale) SiO2 
 PCOD8094314
Probable space group: C 2/M
;
_chemical_formula_sum "Si O2"
_cell_formula_units_Z 56
_cell_length_a 25.784890
_cell_length_b 12.314307
_cell_length_c 8.869239
_cell_angle_alpha 90.000000
_cell_angle_beta 102.726899
_cell_angle_gamma 90.000000
_cell_volume 2746.997543
_symmetry_space_group_name_H-M "C 2/M"
_symmetry_group_IT_number 12
_symmetry_cell_setting 'monoclinic'
loop_
_space_group_symop_operation_xyz
x,y,z
-x,y,-z
-x,-y,-z
x,-y,z
1/2+x,1/2+y,z
1/2-x,1/2+y,-z
1/2-x,1/2-y,-z
1/2+x,1/2-y,z
loop_
_atom_site_type_symbol
_atom_site_label
_atom_site_fract_x
_atom_site_fract_y
_atom_site_fract_z
Si Si1 0.061075 0.879559 0.007873
Si Si2 0.620113 0.767628 0.280382
Si Si3 0.226006 0.696039 0.221536
Si Si4 0.789762 0.877191 0.999254
Si Si5 0.386489 0.301212 0.236362
Si Si6 0.937649 0.372196 0.476057
Si Si7 0.677125 0.620843 0.541036
O O1 0.066189 0.851364 0.833072
O O2 0.085337 0.000000 0.056311
O O3 0.086160 0.784767 0.125079
O O4 0.000000 0.881928 0.000000
O O5 0.667653 0.842407 0.242344
O O6 0.583105 0.834169 0.372583
O O7 0.651746 0.669471 0.376503
O O8 0.241814 0.620436 0.089327
O O9 0.270702 0.688627 0.379302
O O10 0.226943 0.822918 0.169341
O O11 0.836175 0.796298 0.090349
O O12 0.809921 0.000000 0.985370
O O13 0.404571 0.186334 0.320985
O O14 0.368565 0.380403 0.359660
O O15 0.927968 0.500000 0.452310
O O16 0.000000 0.342998 0.500000
O O17 0.696011 0.500000 0.519826
#
# Coordination Sequence:
#
# PCOD8094314 Si02
#       7
#     8   8   8   8   8   8   8
#     4  11  22  36  60  93 122 151 194 250 308 361
#     4  11  22  38  61  89 121 153 200 252 301 348
#     4  10  20  35  55  87 118 155 195 238 288 353
#     4  10  20  36  59  86 122 158 188 233 297 365
#     4  10  19  37  61  84 112 155 196 240 294 355
#     4  10  23  43  62  81 113 161 208 251 300 348
#     4  10  21  37  58  84 121 160 193 236 296 362
#
# _framework density 20.385892999999999
#
# number of rings (size 3 to 8) (size 9 to 14) (size 15 to 20)
#    0.000    1.714    1.429    4.286    0.000    1.714 
#    0.000   12.857    0.000   11.571    0.000    0.000 
#    0.000    0.000    0.000    0.000    0.000    0.000 
#
# Total GULP energy -346957.585114 kJ/mol
# GULP energy per Si atom -12391.342325 kJ/mol
# Density = 2.033949 g / cm^3
# Si number density = 20.385893 Si / 1000 Ang^3
#
#
#
# Elastic Constant Matrix: (Units=GPa)
#
#
# Indices 1 2 3 4 5 6 
#
# 1 138.1966 48.6531 31.0814 0.0000 -22.6730 0.0000
# 2 48.6531 110.2131 39.5107 0.0000 12.9725 0.0000
# 3 31.0814 39.5107 58.6797 0.0000 3.5501 0.0000
# 4 0.0000 0.0000 0.0000 20.4693 0.0000 -0.5440
# 5 -22.6730 12.9725 3.5501 0.0000 32.9337 0.0000
# 6 0.0000 0.0000 0.0000 -0.5440 0.0000 -3.8216
#
#
#
# Elastic Compliance Matrix: (Units=1/GPa)
#
#
# Indices 1 2 3 4 5 6 
#
# 1 0.011436 -0.005087 -0.003251 0.000000 0.010227 0.000000
# 2 -0.005087 0.014733 -0.006707 0.000000 -0.008582 0.000000
# 3 -0.003251 -0.006707 0.023408 0.000000 -0.002120 0.000000
# 4 0.000000 0.000000 0.000000 0.048669 0.000000 -0.006928
# 5 0.010227 -0.008582 -0.002120 0.000000 0.041014 0.000000
# 6 0.000000 0.000000 0.000000 -0.006928 0.000000 -0.260685
#
#
# Mechanical properties :
#
#
# Convention : Reuss Voigt Hill
#
# Bulk Modulus (GPa) = 51.31386 60.61995 55.96691
# Shear Modulus (GPa) = -58.93457 22.43925 -18.24766
#
# Velocity S-wave (km/s) = -5.38259 3.32132 -2.99509
# Velocity P-wave (km/s) = 3.66111 6.67150 3.94368
#
# Compressibility (1/GPa) = 0.01948791
#
# Stress axis : x y z
#
# Youngs Moduli (GPa) = 87.44377 67.87340 42.72066
#
# Poissons Ratio (x) = 0.34524 0.13889
# Poissons Ratio (y) = 0.44479 0.28652
# Poissons Ratio (z) = 0.28429 0.45522
#
# Static dielectric constant tensor:
#      x y z
#    x 4.062450 0.000000 -0.304380 
#    y 0.000000 3.575750 0.000000 
#    z -0.304380 0.000000 3.761520 
# 
# 
# High freq. dielectric constant tensor:
#      x y z
#    x 1.812790 0.000000 -0.018450 
#    y 0.000000 1.774320 0.000000 
#    z -0.018450 0.000000 1.795430 
# 
# From -- ./inp_files/103254.got.cif
#   From: 2010.06.25/outbox.cif.g09.slc.cpg/sg12_52_cif.got.tgz:103254.got - 2010.06.28 00:19:55.
