data_PCOD8094212
_publ_section_title
;
Structure prediction by ZEFSAII (Michael W. Deem and Ramdas Pophale) SiO2 
 PCOD8094212
Probable space group: C 2/M
;
_chemical_formula_sum "Si O2"
_cell_formula_units_Z 56
_cell_length_a 7.465165
_cell_length_b 30.561162
_cell_length_c 11.350334
_cell_angle_alpha 90.000000
_cell_angle_beta 69.907727
_cell_angle_gamma 90.000000
_cell_volume 2431.915759
_symmetry_space_group_name_H-M "C 2/M"
_symmetry_group_IT_number 12
_symmetry_cell_setting 'monoclinic'
loop_
_space_group_symop_operation_xyz
x,y,z
-x,y,-z
-x,-y,-z
x,-y,z
1/2+x,1/2+y,z
1/2-x,1/2+y,-z
1/2-x,1/2-y,-z
1/2+x,1/2-y,z
loop_
_atom_site_type_symbol
_atom_site_label
_atom_site_fract_x
_atom_site_fract_y
_atom_site_fract_z
Si Si1 0.288270 0.093121 0.362678
Si Si2 0.583006 0.176669 0.785019
Si Si3 0.380248 0.591524 0.352706
Si Si4 0.333181 0.050534 0.812878
Si Si5 0.657143 0.745639 0.149361
Si Si6 0.212633 0.372341 0.021654
Si Si7 0.048537 0.164266 0.820422
O O1 0.339218 0.144808 0.334110
O O2 0.265560 0.085146 0.507143
O O3 0.455701 0.062270 0.278972
O O4 0.094657 0.078855 0.341205
O O5 0.402212 0.207207 0.782486
O O6 0.734817 0.212796 0.788738
O O7 0.506414 0.146031 0.911613
O O8 0.318361 0.562155 0.255281
O O9 0.370823 0.643024 0.317811
O O10 0.289137 0.075883 0.946690
O O11 0.318167 0.000000 0.847388
O O12 0.459100 0.717299 0.173966
O O13 0.750000 0.750000 0.000000
O O14 0.325867 0.349553 0.100219
O O15 0.330317 0.357873 0.878467
#
# Coordination Sequence:
#
# PCOD8094212 Si02
#       7
#     8   8   8   8   8   8   8
#     4  10  22  41  64  88 122 165 208 249 301 370
#     4  11  22  37  53  87 120 156 202 252 307 345
#     4  10  21  40  65  88 120 166 204 246 303 369
#     4  10  22  41  66  96 123 154 201 257 310 367
#     4  12  22  31  56  89 117 149 203 256 289 349
#     4   9  20  36  59  85 120 158 192 243 312 373
#     4  10  19  37  58  87 118 159 203 243 305 360
#
# _framework density 23.027111000000001
#
# number of rings (size 3 to 8) (size 9 to 14) (size 15 to 20)
#    0.000    1.714    2.857    1.714    2.000    1.714 
#    0.000    7.857    0.000    0.857    0.000    0.000 
#    0.000    0.000    0.000    0.000    0.000    0.000 
#
# Total GULP energy -346937.153734 kJ/mol
# GULP energy per Si atom -12390.612633 kJ/mol
# Density = 2.297470 g / cm^3
# Si number density = 23.027111 Si / 1000 Ang^3
#
#
#
# Elastic Constant Matrix: (Units=GPa)
#
#
# Indices 1 2 3 4 5 6 
#
# 1 57.9408 3.5976 -10.2476 0.0000 -12.5181 0.0000
# 2 3.5976 162.3642 18.8647 0.0000 -7.6053 0.0000
# 3 -10.2476 18.8647 54.2393 0.0000 -7.7320 0.0000
# 4 0.0000 0.0000 0.0000 20.7806 0.0000 -8.1954
# 5 -12.5181 -7.6053 -7.7320 0.0000 20.8522 0.0000
# 6 0.0000 0.0000 0.0000 -8.1954 0.0000 17.8359
#
#
#
# Elastic Compliance Matrix: (Units=1/GPa)
#
#
# Indices 1 2 3 4 5 6 
#
# 1 0.021728 -0.000518 0.006459 0.000000 0.015250 0.000000
# 2 -0.000518 0.006481 -0.002174 0.000000 0.001247 0.000000
# 3 0.006459 -0.002174 0.022017 0.000000 0.011249 0.000000
# 4 0.000000 0.000000 0.000000 0.058772 0.000000 0.027005
# 5 0.015250 0.001247 0.011249 0.000000 0.061738 0.000000
# 6 0.000000 0.000000 0.000000 0.027005 0.000000 0.068475
#
#
# Mechanical properties :
#
#
# Convention : Reuss Voigt Hill
#
# Bulk Modulus (GPa) = 17.31256 33.21930 25.26593
# Shear Modulus (GPa) = 19.92582 29.38238 24.65410
#
# Velocity S-wave (km/s) = 2.94482 3.57598 3.27564
# Velocity P-wave (km/s) = 4.37005 5.61317 5.03016
#
# Compressibility (1/GPa) = 0.05776152
#
# Stress axis : x y z
#
# Youngs Moduli (GPa) = 46.02270 154.28530 45.41957
#
# Poissons Ratio (x) = 0.07986 -0.29338
# Poissons Ratio (y) = 0.02382 0.09876
# Poissons Ratio (z) = -0.29727 0.33547
#
# Static dielectric constant tensor:
#      x y z
#    x 5.729140 0.000000 -1.119290 
#    y 0.000000 4.380020 0.000000 
#    z -1.119290 0.000000 5.443890 
# 
# 
# High freq. dielectric constant tensor:
#      x y z
#    x 1.959490 0.000000 -0.010140 
#    y 0.000000 1.899260 0.000000 
#    z -0.010140 0.000000 1.867980 
# 
# From -- ./inp_files/125617.got.cif
#   From: 2010.06.25/outbox.cif.g09.slc.cpg/sg12_63_cif.got.tgz:125617.got - 2010.06.28 00:19:55.
