data_PCOD8094474
_publ_section_title
;
Structure prediction by ZEFSAII (Michael W. Deem and Ramdas Pophale) SiO2 
 PCOD8094474
Probable space group: C 2/M
;
_chemical_formula_sum "Si O2"
_cell_formula_units_Z 64
_cell_length_a 20.266389
_cell_length_b 8.729377
_cell_length_c 25.608126
_cell_angle_alpha 90.000000
_cell_angle_beta 133.699891
_cell_angle_gamma 90.000000
_cell_volume 3275.342902
_symmetry_space_group_name_H-M "C 2/M"
_symmetry_group_IT_number 12
_symmetry_cell_setting 'monoclinic'
loop_
_space_group_symop_operation_xyz
x,y,z
-x,y,-z
-x,-y,-z
x,-y,z
1/2+x,1/2+y,z
1/2-x,1/2+y,-z
1/2-x,1/2-y,-z
1/2+x,1/2-y,z
loop_
_atom_site_type_symbol
_atom_site_label
_atom_site_fract_x
_atom_site_fract_y
_atom_site_fract_z
Si Si1 0.696570 0.318351 0.815007
Si Si2 0.827304 0.681694 0.579140
Si Si3 0.217556 0.819761 0.036387
Si Si4 0.230724 0.320578 0.340922
Si Si5 0.161427 0.682071 0.194036
Si Si6 0.468188 0.180529 0.331627
Si Si7 0.472661 0.176128 0.044674
Si Si8 0.586952 0.174887 0.583024
O O1 0.701987 0.500000 0.822079
O O2 0.767775 0.254122 0.810553
O O3 0.594289 0.266908 0.744644
O O4 0.720802 0.249027 0.884086
O O5 0.817627 0.500000 0.571267
O O6 0.750000 0.750000 0.500000
O O7 0.814395 0.744873 0.631061
O O8 0.927370 0.735946 0.616121
O O9 0.111694 0.782712 0.987531
O O10 0.231783 0.000000 0.042852
O O11 0.250000 0.750000 0.000000
O O12 0.215783 0.500000 0.330966
O O13 0.185707 0.247963 0.264123
O O14 0.337237 0.283220 0.400113
O O15 0.169206 0.500000 0.197699
O O16 0.058537 0.733291 0.125537
O O17 0.434683 0.228700 0.370436
O O18 0.460819 0.000000 0.317707
O O19 0.446762 0.000000 0.042651
O O20 0.500000 0.195328 0.000000
O O21 0.500000 0.197322 0.500000
O O22 0.621099 0.000000 0.600787
#
# Coordination Sequence:
#
# PCOD8094474 Si02
#       8
#     8   8   8   8   8   8   8   8
#     4  11  21  39  64  90 122 160 199 247 306 367
#     4  10  22  39  59  82 117 157 201 247 301 363
#     4  12  26  43  63  92 128 164 207 256 304 361
#     4  10  20  36  57  84 111 147 195 242 288 346
#     4   9  18  34  59  88 121 156 194 242 300 359
#     4  10  21  37  57  86 119 157 200 247 304 362
#     4  10  19  37  64  92 122 162 204 245 303 366
#     4  10  20  34  54  81 115 152 191 239 293 348
#
# _framework density 19.539936999999998
#
# number of rings (size 3 to 8) (size 9 to 14) (size 15 to 20)
#    0.000    1.750    2.500    2.250    0.000    3.500 
#    0.000    3.125    0.000    0.000    0.000    0.000 
#    0.000    0.000    0.000    0.000    0.000    0.000 
#
# Total GULP energy -396866.504442 kJ/mol
# GULP energy per Si atom -12402.078264 kJ/mol
# Density = 1.949546 g / cm^3
# Si number density = 19.539937 Si / 1000 Ang^3
#
#
#
# Elastic Constant Matrix: (Units=GPa)
#
#
# Indices 1 2 3 4 5 6 
#
# 1 86.3775 32.8629 50.1218 0.0000 6.2154 0.0000
# 2 32.8629 54.1399 38.3260 0.0000 -1.7135 0.0000
# 3 50.1218 38.3260 144.5685 0.0000 -0.7060 0.0000
# 4 0.0000 0.0000 0.0000 31.4248 0.0000 3.3846
# 5 6.2154 -1.7135 -0.7060 0.0000 36.0064 0.0000
# 6 0.0000 0.0000 0.0000 3.3846 0.0000 27.4403
#
#
#
# Elastic Compliance Matrix: (Units=1/GPa)
#
#
# Indices 1 2 3 4 5 6 
#
# 1 0.016987 -0.007678 -0.003870 0.000000 -0.003374 0.000000
# 2 -0.007678 0.026242 -0.004283 0.000000 0.002490 0.000000
# 3 -0.003870 -0.004283 0.009398 0.000000 0.000649 0.000000
# 4 0.000000 0.000000 0.000000 0.032250 0.000000 -0.003978
# 5 -0.003374 0.002490 0.000649 0.000000 0.028486 0.000000
# 6 0.000000 0.000000 0.000000 -0.003978 0.000000 0.036933
#
#
# Mechanical properties :
#
#
# Convention : Reuss Voigt Hill
#
# Bulk Modulus (GPa) = 47.70062 58.63413 53.16738
# Shear Modulus (GPa) = 26.46256 29.89265 28.17760
#
# Velocity S-wave (km/s) = 3.68405 3.91554 3.80156
# Velocity P-wave (km/s) = 6.52389 7.10735 6.82186
#
# Compressibility (1/GPa) = 0.02096409
#
# Stress axis : x y z
#
# Youngs Moduli (GPa) = 58.86946 38.10719 106.41095
#
# Poissons Ratio (x) = 0.29258 0.41184
# Poissons Ratio (y) = 0.45199 0.45573
# Poissons Ratio (z) = 0.22784 0.16320
#
# Static dielectric constant tensor:
#      x y z
#    x 3.676820 0.000000 -0.117260 
#    y 0.000000 3.349780 0.000000 
#    z -0.117260 0.000000 3.889890 
# 
# 
# High freq. dielectric constant tensor:
#      x y z
#    x 1.764830 0.000000 -0.001120 
#    y 0.000000 1.737970 0.000000 
#    z -0.001120 0.000000 1.780110 
# 
# From -- ./inp_files/346137.got.cif
#   From: 2010.06.25/outbox.cif.g09.slc.cpg/sg12_174_cif.got.tgz:346137.got - 2010.06.28 00:19:55.
