data_PCOD8094837
_publ_section_title
;
Structure prediction by ZEFSAII (Michael W. Deem and Ramdas Pophale) SiO2 
 PCOD8094837
Probable space group: C 2/M
;
_chemical_formula_sum "Si O2"
_cell_formula_units_Z 48
_cell_length_a 14.713353
_cell_length_b 14.320363
_cell_length_c 10.512142
_cell_angle_alpha 90.000000
_cell_angle_beta 101.596236
_cell_angle_gamma 90.000000
_cell_volume 2169.704348
_symmetry_space_group_name_H-M "C 2/M"
_symmetry_group_IT_number 12
_symmetry_cell_setting 'monoclinic'
loop_
_space_group_symop_operation_xyz
x,y,z
-x,y,-z
-x,-y,-z
x,-y,z
1/2+x,1/2+y,z
1/2-x,1/2+y,-z
1/2-x,1/2-y,-z
1/2+x,1/2-y,z
loop_
_atom_site_type_symbol
_atom_site_label
_atom_site_fract_x
_atom_site_fract_y
_atom_site_fract_z
Si Si1 0.853507 0.000000 0.808077
Si Si2 0.743396 0.000000 0.522052
Si Si3 0.700438 0.808344 0.591696
Si Si4 0.342126 0.500000 0.276680
Si Si5 0.884760 0.195184 0.787853
Si Si6 0.436175 0.300067 0.285861
Si Si7 0.850677 0.295267 0.020849
Si Si8 0.211635 0.500000 0.992387
O O1 0.825216 0.000000 0.649694
O O2 0.913701 0.092951 0.851678
O O3 0.767002 0.000000 0.877655
O O4 0.678173 0.090104 0.527056
O O5 0.783693 0.000000 0.390731
O O6 0.750000 0.750000 0.500000
O O7 0.774878 0.812280 0.727088
O O8 0.605876 0.759984 0.610876
O O9 0.405870 0.407863 0.290192
O O10 0.273933 0.500000 0.137029
O O11 0.951194 0.211100 0.682999
O O12 0.898508 0.273398 0.898579
O O13 0.409585 0.254406 0.145166
O O14 0.750000 0.250000 0.000000
O O15 0.851500 0.407366 0.030167
#
# Coordination Sequence:
#
# PCOD8094837 Si02
#       8
#     4   4   8   4   8   8   8   4
#     4  10  19  40  62  96 131 163 202 272 331 392
#     4  10  22  38  66  92 128 167 216 255 327 387
#     4  11  22  42  63  88 128 171 209 260 319 382
#     4  12  21  38  64 103 126 162 214 276 326 387
#     4  11  23  40  64  97 129 164 212 266 323 383
#     4  12  24  40  66  96 130 166 215 264 327 381
#     4  12  21  41  64  94 128 168 210 259 320 387
#     4  12  22  38  73  90 128 175 218 257 329 390
#
# _framework density 22.12283
#
# number of rings (size 3 to 8) (size 9 to 14) (size 15 to 20)
#    0.000    0.667    6.667    2.000    0.000    0.667 
#    0.000    6.667    0.000    1.000    0.000    0.000 
#    0.000    0.000    0.000    0.000    0.000    0.000 
#
# Total GULP energy -297462.678571 kJ/mol
# GULP energy per Si atom -12394.278274 kJ/mol
# Density = 2.207248 g / cm^3
# Si number density = 22.122830 Si / 1000 Ang^3
#
#
#
# Elastic Constant Matrix: (Units=GPa)
#
#
# Indices 1 2 3 4 5 6 
#
# 1 62.9182 29.3246 12.0342 0.0000 -38.7163 0.0000
# 2 29.3246 191.2657 33.3857 0.0000 -33.7262 0.0000
# 3 12.0342 33.3857 102.4182 0.0000 -30.4241 0.0000
# 4 0.0000 0.0000 0.0000 37.5395 0.0000 -9.2563
# 5 -38.7163 -33.7262 -30.4241 0.0000 42.2931 0.0000
# 6 0.0000 0.0000 0.0000 -9.2563 0.0000 18.8782
#
#
#
# Elastic Compliance Matrix: (Units=1/GPa)
#
#
# Indices 1 2 3 4 5 6 
#
# 1 0.041035 -0.000061 0.008066 0.000000 0.043319 0.000000
# 2 -0.000061 0.006122 -0.000706 0.000000 0.004319 0.000000
# 3 0.008066 -0.000706 0.014082 0.000000 0.016951 0.000000
# 4 0.000000 0.000000 0.000000 0.030302 0.000000 0.014858
# 5 0.043319 0.004319 0.016951 0.000000 0.078938 0.000000
# 6 0.000000 0.000000 0.000000 0.014858 0.000000 0.060256
#
#
# Mechanical properties :
#
#
# Convention : Reuss Voigt Hill
#
# Bulk Modulus (GPa) = 13.18579 56.23232 34.70906
# Shear Modulus (GPa) = 20.71112 38.53266 29.62189
#
# Velocity S-wave (km/s) = 3.06304 4.17797 3.66317
# Velocity P-wave (km/s) = 4.29916 6.98193 5.79785
#
# Compressibility (1/GPa) = 0.07583922
#
# Stress axis : x y z
#
# Youngs Moduli (GPa) = 24.36917 163.33491 71.01445
#
# Poissons Ratio (x) = 0.00996 -0.57284
# Poissons Ratio (y) = 0.00149 0.05011
# Poissons Ratio (z) = -0.19657 0.11526
#
# Static dielectric constant tensor:
#      x y z
#    x 4.036220 0.000000 -0.208600 
#    y 0.000000 7.503010 0.000000 
#    z -0.208600 0.000000 4.030140 
# 
# 
# High freq. dielectric constant tensor:
#      x y z
#    x 1.837550 0.000000 -0.024120 
#    y 0.000000 1.890220 0.000000 
#    z -0.024120 0.000000 1.881780 
# 
# From -- ./inp_files/142936.got.cif
#   From: 2010.06.25/outbox.cif.g09.slc.cpg/sg12_72_cif.got.tgz:142936.got - 2010.06.28 00:19:55.
