data_PCOD8094456
_publ_section_title
;
Structure prediction by ZEFSAII (Michael W. Deem and Ramdas Pophale) SiO2 
 PCOD8094456
Probable space group: C 2/M
;
_chemical_formula_sum "Si O2"
_cell_formula_units_Z 64
_cell_length_a 21.480442
_cell_length_b 15.232015
_cell_length_c 25.078419
_cell_angle_alpha 90.000000
_cell_angle_beta 21.423539
_cell_angle_gamma 90.000000
_cell_volume 2997.105038
_symmetry_space_group_name_H-M "C 2/M"
_symmetry_group_IT_number 12
_symmetry_cell_setting 'monoclinic'
loop_
_space_group_symop_operation_xyz
x,y,z
-x,y,-z
-x,-y,-z
x,-y,z
1/2+x,1/2+y,z
1/2-x,1/2+y,-z
1/2-x,1/2-y,-z
1/2+x,1/2-y,z
loop_
_atom_site_type_symbol
_atom_site_label
_atom_site_fract_x
_atom_site_fract_y
_atom_site_fract_z
Si Si1 0.754288 0.815276 0.945760
Si Si2 0.216516 0.602323 0.164485
Si Si3 0.361841 0.900421 0.497440
Si Si4 0.432615 0.097616 0.824081
Si Si5 0.014962 0.757330 0.046114
Si Si6 0.707508 0.602027 0.427315
Si Si7 0.926946 0.901366 0.352923
Si Si8 0.178468 0.264870 0.381669
O O1 0.944782 0.830075 0.773503
O O2 0.750000 0.750000 0.000000
O O3 0.684118 0.903764 0.029874
O O4 0.628539 0.797002 0.996860
O O5 0.261120 0.500000 0.123786
O O6 0.160194 0.645338 0.152047
O O7 0.061905 0.619226 0.328772
O O8 0.388870 0.650993 0.044202
O O9 0.261150 0.887887 0.521989
O O10 0.279303 0.832862 0.604776
O O11 0.338317 0.000000 0.537503
O O12 0.612315 0.140740 0.696023
O O13 0.471344 0.000000 0.772511
O O14 0.827494 0.772559 0.219376
O O15 0.000000 0.709168 0.000000
O O16 0.718184 0.500000 0.399569
O O17 0.576901 0.612372 0.580381
O O18 0.653113 0.664636 0.422139
O O19 0.991014 0.000000 0.289365
O O20 0.000000 0.296311 0.500000
#
# Coordination Sequence:
#
# PCOD8094456 Si02
#       8
#     8   8   8   8   8   8   8   8
#     4  12  23  38  63  97 129 169 214 266 319 384
#     4  10  21  40  66  94 131 173 209 259 326 389
#     4  10  22  41  66 101 135 166 211 266 325 391
#     4  10  19  37  63  93 128 164 206 263 325 381
#     4  12  27  44  61  92 132 170 218 267 323 393
#     4  10  22  42  68  97 129 166 215 275 330 383
#     4  10  22  39  65 100 134 164 207 269 332 388
#     4  12  27  44  67  90 123 178 224 269 322 384
#
# _framework density 21.353940000000001
#
# number of rings (size 3 to 8) (size 9 to 14) (size 15 to 20)
#    0.000    1.250    3.750    1.875    3.500    1.750 
#    0.000    0.000    0.000    1.875    0.000    0.000 
#    0.000    0.000    0.000    0.000    0.000    0.000 
#
# Total GULP energy -396689.671049 kJ/mol
# GULP energy per Si atom -12396.552220 kJ/mol
# Density = 2.130534 g / cm^3
# Si number density = 21.353940 Si / 1000 Ang^3
#
#
#
# Elastic Constant Matrix: (Units=GPa)
#
#
# Indices 1 2 3 4 5 6 
#
# 1 96.5700 26.5588 31.3863 -0.0079 10.3776 0.0020
# 2 26.5588 68.1958 36.1649 0.0066 8.9587 0.0169
# 3 31.3863 36.1649 138.0291 0.0003 8.6609 0.0108
# 4 -0.0079 0.0066 0.0003 34.5511 0.0204 -0.2831
# 5 10.3776 8.9587 8.6609 0.0204 36.6920 -0.0161
# 6 0.0020 0.0169 0.0108 -0.2831 -0.0161 22.5359
#
#
#
# Elastic Compliance Matrix: (Units=1/GPa)
#
#
# Indices 1 2 3 4 5 6 
#
# 1 0.012110 -0.003535 -0.001692 0.000005 -0.002163 0.000001
# 2 -0.003535 0.018428 -0.003862 -0.000003 -0.002588 -0.000014
# 3 -0.001692 -0.003862 0.008681 0.000001 -0.000628 -0.000002
# 4 0.000005 -0.000003 0.000001 0.028946 -0.000017 0.000364
# 5 -0.002163 -0.002588 -0.000628 -0.000017 0.028646 0.000023
# 6 0.000001 -0.000014 -0.000002 0.000364 0.000023 0.044378
#
#
# Mechanical properties :
#
#
# Convention : Reuss Voigt Hill
#
# Bulk Modulus (GPa) = 47.52564 54.55720 51.04142
# Shear Modulus (GPa) = 30.05176 32.66814 31.35995
#
# Velocity S-wave (km/s) = 3.75549 3.91556 3.83636
# Velocity P-wave (km/s) = 6.41166 6.78577 6.60137
#
# Compressibility (1/GPa) = 0.02104127
#
# Stress axis : x y z
#
# Youngs Moduli (GPa) = 82.57943 54.26388 115.19602
#
# Poissons Ratio (x) = 0.19181 0.19488
# Poissons Ratio (y) = 0.29190 0.44492
# Poissons Ratio (z) = 0.13970 0.20958
#
# Static dielectric constant tensor:
#      x y z
#    x 3.904590 0.000000 0.120540 
#    y 0.000000 3.858760 0.000100 
#    z 0.120540 0.000100 3.913080 
# 
# 
# High freq. dielectric constant tensor:
#      x y z
#    x 1.830270 0.000000 0.005250 
#    y 0.000000 1.831050 0.000010 
#    z 0.005250 0.000010 1.843720 
# 
# From -- ./inp_files/347850.got.cif
#   From: 2010.06.25/outbox.cif.g09.slc.cpg/sg12_174_cif.got.tgz:347850.got - 2010.06.28 00:19:55.
