data_PCOD8094113
_publ_section_title
;
Structure prediction by ZEFSAII (Michael W. Deem and Ramdas Pophale) SiO2 
 PCOD8094113
Probable space group: C 2/M
;
_chemical_formula_sum "Si O2"
_cell_formula_units_Z 40
_cell_length_a 18.798087
_cell_length_b 15.933876
_cell_length_c 12.536157
_cell_angle_alpha 90.000000
_cell_angle_beta 29.131418
_cell_angle_gamma 90.000000
_cell_volume 1827.944313
_symmetry_space_group_name_H-M "C 2/M"
_symmetry_group_IT_number 12
_symmetry_cell_setting 'monoclinic'
loop_
_space_group_symop_operation_xyz
x,y,z
-x,y,-z
-x,-y,-z
x,-y,z
1/2+x,1/2+y,z
1/2-x,1/2+y,-z
1/2-x,1/2-y,-z
1/2+x,1/2-y,z
loop_
_atom_site_type_symbol
_atom_site_label
_atom_site_fract_x
_atom_site_fract_y
_atom_site_fract_z
Si Si1 0.865236 0.099778 0.491715
Si Si2 0.315063 0.340413 0.939134
Si Si3 0.351243 0.900871 0.409405
Si Si4 0.845333 0.400727 0.655395
Si Si5 0.839109 0.594605 0.054964
O O1 0.786547 0.120961 0.483253
O O2 0.764092 0.136040 0.719952
O O3 0.011822 0.154108 0.304889
O O4 0.898421 0.000000 0.459297
O O5 0.237306 0.404915 0.960451
O O6 0.250000 0.250000 0.000000
O O7 0.283076 0.364013 0.103220
O O8 0.325552 0.864304 0.561723
O O9 0.376228 0.000000 0.386021
O O10 0.500798 0.861904 0.163033
O O11 0.831646 0.500000 0.673520
O O12 0.000000 0.370903 0.500000
O O13 0.861472 0.500000 0.064592
#
# Coordination Sequence:
#
# PCOD8094113 Si02
#       5
#     8   8   8   8   8
#     4  10  21  38  64  95 122 149 197 257 306 354
#     4  12  25  38  56  83 124 167 203 246 294 355
#     4   9  18  35  65  98 119 147 192 253 314 358
#     4  10  19  36  64  88 114 154 203 250 296 357
#     4  10  19  38  65  90 118 154 199 249 304 361
#
# _framework density 21.882503
#
# number of rings (size 3 to 8) (size 9 to 14) (size 15 to 20)
#    0.000    1.800    2.000    3.000    0.000    6.400 
#    0.000    4.000    4.400    0.000    0.000    0.000 
#    0.000    0.000    0.000    0.000    0.000    0.000 
#
# Total GULP energy -247986.067675 kJ/mol
# GULP energy per Si atom -12399.303384 kJ/mol
# Density = 2.183270 g / cm^3
# Si number density = 21.882503 Si / 1000 Ang^3
#
#
#
# Elastic Constant Matrix: (Units=GPa)
#
#
# Indices 1 2 3 4 5 6 
#
# 1 123.2353 29.1806 62.3104 -0.0002 -0.2752 0.0001
# 2 29.1806 28.9935 33.5149 -0.0002 -1.8028 0.0001
# 3 62.3104 33.5149 146.7951 -0.0005 2.2960 0.0003
# 4 -0.0002 -0.0002 -0.0005 15.6180 0.0002 -6.9905
# 5 -0.2752 -1.8028 2.2960 0.0002 45.8163 -0.0002
# 6 0.0001 0.0001 0.0003 -6.9905 -0.0002 12.8889
#
#
#
# Elastic Compliance Matrix: (Units=1/GPa)
#
#
# Indices 1 2 3 4 5 6 
#
# 1 0.011587 -0.008130 -0.003061 0.000000 -0.000097 0.000000
# 2 -0.008130 0.052822 -0.008647 0.000000 0.002463 0.000000
# 3 -0.003061 -0.008647 0.010099 0.000000 -0.000865 0.000000
# 4 0.000000 0.000000 0.000000 0.084555 0.000000 0.045860
# 5 -0.000097 0.002463 -0.000865 0.000000 0.021966 0.000000
# 6 0.000000 0.000000 0.000000 0.045860 0.000000 0.102459
#
#
# Mechanical properties :
#
#
# Convention : Reuss Voigt Hill
#
# Bulk Modulus (GPa) = 28.70905 61.00394 44.85650
# Shear Modulus (GPa) = 14.93544 26.46585 20.70065
#
# Velocity S-wave (km/s) = 2.61536 3.48149 3.07903
# Velocity P-wave (km/s) = 4.71893 6.64075 5.76055
#
# Compressibility (1/GPa) = 0.03483223
#
# Stress axis : x y z
#
# Youngs Moduli (GPa) = 86.30426 18.93156 99.01740
#
# Poissons Ratio (x) = 0.15391 0.30306
# Poissons Ratio (y) = 0.70163 0.85625
# Poissons Ratio (z) = 0.26415 0.16371
#
# Static dielectric constant tensor:
#      x y z
#    x 4.115980 0.000000 0.243300 
#    y 0.000000 3.451660 0.000000 
#    z 0.243300 0.000000 4.191560 
# 
# 
# High freq. dielectric constant tensor:
#      x y z
#    x 1.864080 0.000000 0.009470 
#    y 0.000000 1.813970 0.000000 
#    z 0.009470 0.000000 1.874640 
# 
# From -- ./inp_files/46944.got.cif
#   From: 2010.06.25/outbox.cif.g09.slc.cpg/sg12_24_cif.got.tgz:46944.got - 2010.06.28 00:19:55.
