data_PCOD8094432
_publ_section_title
;
Structure prediction by ZEFSAII (Michael W. Deem and Ramdas Pophale) SiO2 
 PCOD8094432
Probable space group: C 2/M
;
_chemical_formula_sum "Si O2"
_cell_formula_units_Z 64
_cell_length_a 23.719365
_cell_length_b 8.906320
_cell_length_c 33.467632
_cell_angle_alpha 90.000000
_cell_angle_beta 152.694351
_cell_angle_gamma 90.000000
_cell_volume 3243.323463
_symmetry_space_group_name_H-M "C 2/M"
_symmetry_group_IT_number 12
_symmetry_cell_setting 'monoclinic'
loop_
_space_group_symop_operation_xyz
x,y,z
-x,y,-z
-x,-y,-z
x,-y,z
1/2+x,1/2+y,z
1/2-x,1/2+y,-z
1/2-x,1/2-y,-z
1/2+x,1/2-y,z
loop_
_atom_site_type_symbol
_atom_site_label
_atom_site_fract_x
_atom_site_fract_y
_atom_site_fract_z
Si Si1 0.387737 0.822787 0.751902
Si Si2 0.899599 0.827033 0.322517
Si Si3 0.124990 0.170481 0.411348
Si Si4 0.000362 0.822658 0.901081
Si Si5 0.489756 0.677279 0.246959
Si Si6 0.295207 0.176655 0.924248
Si Si7 0.816572 0.823820 0.855767
Si Si8 0.113915 0.822762 0.596475
O O1 0.448487 0.742058 0.827578
O O2 0.453328 0.768401 0.753496
O O3 0.243510 0.778637 0.658115
O O4 0.403769 0.000000 0.767249
O O5 0.818517 0.727244 0.242113
O O6 0.890205 0.759882 0.361069
O O7 0.039279 0.812846 0.396110
O O8 0.854188 0.000000 0.291437
O O9 0.250000 0.250000 0.500000
O O10 0.057877 0.235187 0.329772
O O11 0.157707 0.000000 0.423143
O O12 0.910503 0.775309 0.880418
O O13 0.013779 0.000000 0.905203
O O14 0.133269 0.750331 0.993428
O O15 0.506167 0.500000 0.250376
O O16 0.347137 0.719589 0.161073
O O17 0.352100 0.243126 0.919321
O O18 0.315803 0.000000 0.937380
O O19 0.819797 0.000000 0.865677
O O20 0.000000 0.751505 0.500000
O O21 0.096289 0.000000 0.587485
#
# Coordination Sequence:
#
# PCOD8094432 Si02
#       8
#     8   8   8   8   8   8   8   8
#     4  11  23  39  64  91 116 156 206 247 294 357
#     4  10  19  37  63  87 120 159 200 248 296 351
#     4  10  22  39  61  89 121 160 201 246 301 353
#     4  11  24  41  61  89 126 159 192 244 307 358
#     4  10  23  43  61  83 121 160 196 249 306 352
#     4  11  23  41  65  89 117 158 205 246 294 356
#     4  11  22  37  60  91 127 158 192 243 305 357
#     4   9  19  35  59  90 120 151 195 249 295 343
#
# _framework density 19.732845000000001
#
# number of rings (size 3 to 8) (size 9 to 14) (size 15 to 20)
#    0.000    1.625    2.500    1.875    1.750    5.500 
#    0.000    0.000    0.000    1.875    0.000    0.000 
#    0.000    0.000    0.000    0.000    0.000    0.000 
#
# Total GULP energy -396906.946924 kJ/mol
# GULP energy per Si atom -12403.342091 kJ/mol
# Density = 1.968793 g / cm^3
# Si number density = 19.732845 Si / 1000 Ang^3
#
#
#
# Elastic Constant Matrix: (Units=GPa)
#
#
# Indices 1 2 3 4 5 6 
#
# 1 109.9809 45.4649 36.7242 0.0002 -2.0992 -0.0013
# 2 45.4649 62.1564 41.8236 0.0008 4.5331 -0.0018
# 3 36.7242 41.8236 131.8233 -0.0001 6.7497 -0.0011
# 4 0.0002 0.0008 -0.0001 31.1690 -0.0004 -3.0258
# 5 -2.0992 4.5331 6.7497 -0.0004 28.4066 0.0002
# 6 -0.0013 -0.0018 -0.0011 -3.0258 0.0002 29.2440
#
#
#
# Elastic Compliance Matrix: (Units=1/GPa)
#
#
# Indices 1 2 3 4 5 6 
#
# 1 0.013293 -0.009326 -0.000882 0.000000 0.002680 0.000000
# 2 -0.009326 0.027083 -0.005809 -0.000001 -0.003631 0.000001
# 3 -0.000882 -0.005809 0.009749 0.000000 -0.001455 0.000000
# 4 0.000000 -0.000001 0.000000 0.032409 0.000001 0.003353
# 5 0.002680 -0.003631 -0.001455 0.000001 0.036326 0.000000
# 6 0.000000 0.000001 0.000000 0.003353 0.000000 0.034542
#
#
# Mechanical properties :
#
#
# Convention : Reuss Voigt Hill
#
# Bulk Modulus (GPa) = 55.26994 61.33180 58.30087
# Shear Modulus (GPa) = 26.11440 29.76046 27.93743
#
# Velocity S-wave (km/s) = 3.64180 3.88773 3.76677
# Velocity P-wave (km/s) = 6.76414 7.16248 6.96616
#
# Compressibility (1/GPa) = 0.01809302
#
# Stress axis : x y z
#
# Youngs Moduli (GPa) = 75.22669 36.92345 102.57449
#
# Poissons Ratio (x) = 0.34433 0.09045
# Poissons Ratio (y) = 0.70153 0.59583
# Poissons Ratio (z) = 0.06634 0.21448
#
# Static dielectric constant tensor:
#      x y z
#    x 3.896120 0.000010 -0.298810 
#    y 0.000010 3.440720 -0.000010 
#    z -0.298810 -0.000010 4.050540 
# 
# 
# High freq. dielectric constant tensor:
#      x y z
#    x 1.774210 0.000000 -0.000470 
#    y 0.000000 1.755430 0.000000 
#    z -0.000470 0.000000 1.783010 
# 
# From -- ./inp_files/382420.got.cif
#   From: 2010.06.25/outbox.cif.g09.slc.cpg/sg12_192_cif.got.tgz:382420.got - 2010.06.28 00:19:55.
