data_PCOD8094189
_publ_section_title
;
Structure prediction by ZEFSAII (Michael W. Deem and Ramdas Pophale) SiO2 
 PCOD8094189
Probable space group: C 2/M
;
_chemical_formula_sum "Si O2"
_cell_formula_units_Z 44
_cell_length_a 10.457602
_cell_length_b 22.855593
_cell_length_c 14.367532
_cell_angle_alpha 90.000000
_cell_angle_beta 137.955171
_cell_angle_gamma 90.000000
_cell_volume 2299.824829
_symmetry_space_group_name_H-M "C 2/M"
_symmetry_group_IT_number 12
_symmetry_cell_setting 'monoclinic'
loop_
_space_group_symop_operation_xyz
x,y,z
-x,y,-z
-x,-y,-z
x,-y,z
1/2+x,1/2+y,z
1/2-x,1/2+y,-z
1/2-x,1/2-y,-z
1/2+x,1/2-y,z
loop_
_atom_site_type_symbol
_atom_site_label
_atom_site_fract_x
_atom_site_fract_y
_atom_site_fract_z
Si Si1 0.282085 0.377782 0.005741
Si Si2 0.273231 0.500000 0.070647
Si Si3 0.620088 0.880226 0.275314
Si Si4 0.746219 0.687735 0.825122
Si Si5 0.000000 0.794061 0.000000
Si Si6 0.329817 0.000000 0.782274
Si Si7 0.124198 0.800195 0.475786
O O1 0.366033 0.442295 0.074069
O O2 0.198996 0.350652 0.056009
O O3 0.449895 0.336329 0.059160
O O4 0.110037 0.383838 0.836425
O O5 0.305820 0.500000 0.199866
O O6 0.048202 0.500000 0.931159
O O7 0.641322 0.835862 0.201959
O O8 0.734163 0.854508 0.425406
O O9 0.714018 0.942966 0.303391
O O10 0.520225 0.682914 0.684835
O O11 0.815044 0.754660 0.876944
O O12 0.250000 0.750000 0.500000
O O13 0.000000 0.781237 0.500000
#
# Coordination Sequence:
#
# PCOD8094189 Si02
#       7
#     8   4   8   8   4   4   8
#     4  11  21  36  57  81 113 146 191 229 283 334
#     4   9  18  33  57  82 108 145 183 240 279 329
#     4  10  19  37  57  84 107 143 185 235 278 333
#     4  11  21  35  55  81 111 144 185 227 282 330
#     4  12  24  31  56  85 116 152 184 232 274 348
#     4   9  16  32  60  83 104 140 188 235 285 315
#     4  10  23  37  54  81 115 147 183 230 281 338
#
# _framework density 19.131892000000001
#
# number of rings (size 3 to 8) (size 9 to 14) (size 15 to 20)
#    0.000    1.636    3.636    1.636    5.091    0.364 
#    0.000    5.000    0.000    0.000    0.000    0.636 
#    0.000    0.000    0.000    0.000    0.000    0.000 
#
# Total GULP energy -272698.395020 kJ/mol
# GULP energy per Si atom -12395.381592 kJ/mol
# Density = 1.908835 g / cm^3
# Si number density = 19.131892 Si / 1000 Ang^3
#
#
#
# Elastic Constant Matrix: (Units=GPa)
#
#
# Indices 1 2 3 4 5 6 
#
# 1 30.1185 31.2377 9.7524 0.0000 -1.1177 0.0000
# 2 31.2377 163.1618 43.8136 0.0000 -7.7358 0.0000
# 3 9.7524 43.8136 113.9950 0.0000 9.2105 0.0000
# 4 0.0000 0.0000 0.0000 20.3385 0.0000 -8.3668
# 5 -1.1177 -7.7358 9.2105 0.0000 15.2328 0.0000
# 6 0.0000 0.0000 0.0000 -8.3668 0.0000 28.5355
#
#
#
# Elastic Compliance Matrix: (Units=1/GPa)
#
#
# Indices 1 2 3 4 5 6 
#
# 1 0.041466 -0.007840 -0.000482 0.000000 -0.000648 0.000000
# 2 -0.007840 0.008753 -0.003160 0.000000 0.005781 0.000000
# 3 -0.000482 -0.003160 0.010683 0.000000 -0.008100 0.000000
# 4 0.000000 0.000000 0.000000 0.055912 0.000000 0.016394
# 5 -0.000648 0.005781 -0.008100 0.000000 0.073433 0.000000
# 6 0.000000 0.000000 0.000000 0.016394 0.000000 0.039851
#
#
# Mechanical properties :
#
#
# Convention : Reuss Voigt Hill
#
# Bulk Modulus (GPa) = 26.35991 52.98697 39.67344
# Shear Modulus (GPa) = 18.81776 27.65279 23.23528
#
# Velocity S-wave (km/s) = 3.13961 3.80594 3.48872
# Velocity P-wave (km/s) = 5.19141 6.86071 6.08359
#
# Compressibility (1/GPa) = 0.03793639
#
# Stress axis : x y z
#
# Youngs Moduli (GPa) = 24.11640 114.25198 93.60994
#
# Poissons Ratio (x) = 0.89574 0.04510
# Poissons Ratio (y) = 0.18907 0.29584
# Poissons Ratio (z) = 0.01162 0.36108
#
# Static dielectric constant tensor:
#      x y z
#    x 3.177030 0.000000 0.085420 
#    y 0.000000 3.741150 0.000000 
#    z 0.085420 0.000000 3.914530 
# 
# 
# High freq. dielectric constant tensor:
#      x y z
#    x 1.710470 0.000000 0.002750 
#    y 0.000000 1.750530 0.000000 
#    z 0.002750 0.000000 1.734710 
# 
# From -- ./inp_files/49317.got.cif
#   From: 2010.06.25/outbox.cif.g09.slc.cpg/sg12_25_cif.got.tgz:49317.got - 2010.06.28 00:19:55.
