data_PCOD8094244
_publ_section_title
;
Structure prediction by ZEFSAII (Michael W. Deem and Ramdas Pophale) SiO2 
 PCOD8094244
Probable space group: C 2/M
;
_chemical_formula_sum "Si O2"
_cell_formula_units_Z 64
_cell_length_a 23.820134
_cell_length_b 21.400831
_cell_length_c 16.998728
_cell_angle_alpha 90.000000
_cell_angle_beta 160.186820
_cell_angle_gamma 90.000000
_cell_volume 2937.192898
_symmetry_space_group_name_H-M "C 2/M"
_symmetry_group_IT_number 12
_symmetry_cell_setting 'monoclinic'
loop_
_space_group_symop_operation_xyz
x,y,z
-x,y,-z
-x,-y,-z
x,-y,z
1/2+x,1/2+y,z
1/2-x,1/2+y,-z
1/2-x,1/2-y,-z
1/2+x,1/2-y,z
loop_
_atom_site_type_symbol
_atom_site_label
_atom_site_fract_x
_atom_site_fract_y
_atom_site_fract_z
Si Si1 0.622261 0.677966 0.491850
Si Si2 0.452150 0.071466 0.717086
Si Si3 0.626113 0.262094 0.736884
Si Si4 0.151463 0.760081 0.291105
Si Si5 0.736089 0.069521 0.799436
Si Si6 0.966037 0.374294 0.341839
Si Si7 0.400106 0.385347 0.707097
Si Si8 0.365181 0.169510 0.944963
O O1 0.435483 0.692045 0.274015
O O2 0.715203 0.745373 0.601650
O O3 0.619781 0.637438 0.409447
O O4 0.725165 0.646191 0.698854
O O5 0.496884 0.109995 0.698601
O O6 0.256503 0.072178 0.477668
O O7 0.510508 0.000000 0.787221
O O8 0.551610 0.105324 0.917534
O O9 0.500000 0.265323 0.500000
O O10 0.628097 0.192221 0.773843
O O11 0.799393 0.288372 0.932109
O O12 0.250000 0.750000 0.500000
O O13 0.088071 0.830830 0.211109
O O14 0.001095 0.712202 0.081388
O O15 0.662022 0.075802 0.789764
O O16 0.642179 0.120916 0.621204
O O17 0.698630 0.000000 0.717531
O O18 0.932933 0.076444 0.061985
#
# Coordination Sequence:
#
# PCOD8094244 Si02
#       8
#     8   8   8   8   8   8   8   8
#     4  10  22  40  64  93 133 163 205 272 331 380
#     4  12  26  44  63  91 132 177 225 263 311 383
#     4  10  21  38  64 100 125 157 207 265 329 389
#     4  10  19  37  59  93 126 160 204 264 329 376
#     4  11  23  43  66  91 130 172 218 262 314 395
#     4  11  23  43  66  96 127 169 212 265 334 391
#     4  11  24  41  63  99 128 171 217 268 323 380
#     4  11  23  41  65  95 134 168 214 267 326 386
#
# _framework density 21.789511999999998
#
# number of rings (size 3 to 8) (size 9 to 14) (size 15 to 20)
#    0.000    1.250    3.750    3.750    5.250    1.000 
#    2.250    3.125    0.000    3.375    0.000    0.000 
#    0.000    0.000    0.000    0.000    0.000    0.000 
#
# Total GULP energy -396611.958359 kJ/mol
# GULP energy per Si atom -12394.123699 kJ/mol
# Density = 2.173992 g / cm^3
# Si number density = 21.789512 Si / 1000 Ang^3
#
#
#
# Elastic Constant Matrix: (Units=GPa)
#
#
# Indices 1 2 3 4 5 6 
#
# 1 68.5323 4.9266 4.2305 0.0000 14.1936 0.0000
# 2 4.9266 76.9720 20.4839 0.0000 3.3917 0.0000
# 3 4.2305 20.4839 79.0896 0.0000 10.7295 0.0000
# 4 0.0000 0.0000 0.0000 22.1661 0.0000 7.7008
# 5 14.1936 3.3917 10.7295 0.0000 32.3781 0.0000
# 6 0.0000 0.0000 0.0000 7.7008 0.0000 22.8382
#
#
#
# Elastic Compliance Matrix: (Units=1/GPa)
#
#
# Indices 1 2 3 4 5 6 
#
# 1 0.016095 -0.000800 0.000306 0.000000 -0.007073 0.000000
# 2 -0.000800 0.013996 -0.003592 0.000000 0.000075 0.000000
# 3 0.000306 -0.003592 0.014162 0.000000 -0.004451 0.000000
# 4 0.000000 0.000000 0.000000 0.051100 0.000000 -0.017230
# 5 -0.007073 0.000075 -0.004451 0.000000 0.035453 0.000000
# 6 0.000000 0.000000 0.000000 -0.017230 0.000000 0.049596
#
#
# Mechanical properties :
#
#
# Convention : Reuss Voigt Hill
#
# Bulk Modulus (GPa) = 27.71621 31.54176 29.62898
# Shear Modulus (GPa) = 24.92519 28.47336 26.69927
#
# Velocity S-wave (km/s) = 3.38584 3.61882 3.50426
# Velocity P-wave (km/s) = 5.29460 5.65404 5.47727
#
# Compressibility (1/GPa) = 0.03607997
#
# Stress axis : x y z
#
# Youngs Moduli (GPa) = 62.13031 71.45109 70.61308
#
# Poissons Ratio (x) = 0.05715 -0.02159
# Poissons Ratio (y) = 0.04970 0.25366
# Poissons Ratio (z) = -0.01900 0.25667
#
# Static dielectric constant tensor:
#      x y z
#    x 4.243640 0.000000 0.307510 
#    y 0.000000 3.750820 0.000000 
#    z 0.307510 0.000000 3.908310 
# 
# 
# High freq. dielectric constant tensor:
#      x y z
#    x 1.869110 0.000000 0.010050 
#    y 0.000000 1.826540 0.000000 
#    z 0.010050 0.000000 1.862370 
# 
# From -- ./inp_files/290948.got.cif
#   From: 2010.06.25/outbox.cif.g09.slc.cpg/sg12_146_cif.got.tgz:290948.got - 2010.06.28 00:19:55.
