data_PCOD8094256
_publ_section_title
;
Structure prediction by ZEFSAII (Michael W. Deem and Ramdas Pophale) SiO2 
 PCOD8094256
Probable space group: C 2/M
;
_chemical_formula_sum "Si O2"
_cell_formula_units_Z 40
_cell_length_a 10.715856
_cell_length_b 24.412822
_cell_length_c 9.332166
_cell_angle_alpha 90.000000
_cell_angle_beta 120.357701
_cell_angle_gamma 90.000000
_cell_volume 2106.595943
_symmetry_space_group_name_H-M "C 2/M"
_symmetry_group_IT_number 12
_symmetry_cell_setting 'monoclinic'
loop_
_space_group_symop_operation_xyz
x,y,z
-x,y,-z
-x,-y,-z
x,-y,z
1/2+x,1/2+y,z
1/2-x,1/2+y,-z
1/2-x,1/2-y,-z
1/2+x,1/2-y,z
loop_
_atom_site_type_symbol
_atom_site_label
_atom_site_fract_x
_atom_site_fract_y
_atom_site_fract_z
Si Si1 0.661227 0.213783 0.560789
Si Si2 0.840078 0.590430 0.415728
Si Si3 0.843239 0.213920 0.949086
Si Si4 0.651506 0.409364 0.026104
Si Si5 0.143729 0.000000 0.792306
Si Si6 0.685239 0.500000 0.497337
O O1 0.500000 0.237776 0.500000
O O2 0.750000 0.250000 0.500000
O O3 0.650465 0.150656 0.505655
O O4 0.752283 0.211283 0.755095
O O5 0.774145 0.586760 0.218088
O O6 0.748612 0.555336 0.471621
O O7 0.000000 0.565511 0.500000
O O8 0.865963 0.153912 0.032857
O O9 0.750000 0.250000 0.000000
O O10 0.000000 0.239664 0.000000
O O11 0.500000 0.431695 0.000000
O O12 0.688755 0.446280 0.909826
O O13 0.227342 0.000000 0.689974
O O14 0.979851 0.000000 0.645477
#
# Coordination Sequence:
#
# PCOD8094256 Si02
#       6
#     8   8   8   8   4   4
#     4  10  21  38  58  85 116 153 192 233 284 340
#     4  10  21  38  59  82 114 153 191 226 281 350
#     4  10  21  36  58  85 113 149 192 234 280 337
#     4  10  19  37  60  80 110 154 193 223 277 348
#     4  11  22  36  58  88 114 140 191 248 287 325
#     4  11  22  37  56  89 114 141 188 248 291 327
#
# _framework density 18.987978999999999
#
# number of rings (size 3 to 8) (size 9 to 14) (size 15 to 20)
#    0.000    1.800    2.000    2.400    0.000    1.600 
#    3.600    2.000    0.000    0.000    0.000    0.000 
#    0.000    0.000    0.000    0.000    0.000    0.000 
#
# Total GULP energy -247918.328402 kJ/mol
# GULP energy per Si atom -12395.916420 kJ/mol
# Density = 1.894476 g / cm^3
# Si number density = 18.987979 Si / 1000 Ang^3
#
#
#
# Elastic Constant Matrix: (Units=GPa)
#
#
# Indices 1 2 3 4 5 6 
#
# 1 110.3030 45.4717 36.7302 0.0000 0.7729 0.0000
# 2 45.4717 94.5768 34.0896 0.0000 -22.2294 0.0000
# 3 36.7302 34.0896 85.7031 0.0000 -2.3558 0.0000
# 4 0.0000 0.0000 0.0000 166.6266 0.0000 -130.6952
# 5 0.7729 -22.2294 -2.3558 0.0000 42.1726 0.0000
# 6 0.0000 0.0000 0.0000 -130.6952 0.0000 156.7623
#
#
#
# Elastic Compliance Matrix: (Units=1/GPa)
#
#
# Indices 1 2 3 4 5 6 
#
# 1 0.012481 -0.005643 -0.003197 0.000000 -0.003382 0.000000
# 2 -0.005643 0.016786 -0.004019 0.000000 0.008727 0.000000
# 3 -0.003197 -0.004019 0.014603 0.000000 -0.001244 0.000000
# 4 0.000000 0.000000 0.000000 0.017342 0.000000 0.014458
# 5 -0.003382 0.008727 -0.001244 0.000000 0.028305 0.000000
# 6 0.000000 0.000000 0.000000 0.014458 0.000000 0.018433
#
#
# Mechanical properties :
#
#
# Convention : Reuss Voigt Hill
#
# Bulk Modulus (GPa) = 55.09093 58.12955 56.61024
# Shear Modulus (GPa) = 35.78652 84.73173 60.25912
#
# Velocity S-wave (km/s) = 4.34602 6.68736 5.63953
# Velocity P-wave (km/s) = 7.36616 9.50305 8.50201
#
# Compressibility (1/GPa) = 0.01815181
#
# Stress axis : x y z
#
# Youngs Moduli (GPa) = 80.12451 59.57273 68.48031
#
# Poissons Ratio (x) = 0.33617 0.21895
# Poissons Ratio (y) = 0.45214 0.27520
# Poissons Ratio (z) = 0.25618 0.23940
#
# Static dielectric constant tensor:
#      x y z
#    x 3.606750 0.000000 0.184980 
#    y 0.000000 3.857220 0.000000 
#    z 0.184980 0.000000 3.518650 
# 
# 
# High freq. dielectric constant tensor:
#      x y z
#    x 1.733710 0.000000 0.015790 
#    y 0.000000 1.741540 0.000000 
#    z 0.015790 0.000000 1.742860 
# 
# From -- ./inp_files/50482.got.cif
#   From: 2010.06.25/outbox.cif.g09.slc.cpg/sg12_26_cif.got.tgz:50482.got - 2010.06.28 00:19:55.
