data_PCOD8094821
_publ_section_title
;
Structure prediction by ZEFSAII (Michael W. Deem and Ramdas Pophale) SiO2 
 PCOD8094821
Probable space group: C 2/M
;
_chemical_formula_sum "Si O2"
_cell_formula_units_Z 64
_cell_length_a 14.478294
_cell_length_b 18.183621
_cell_length_c 11.891831
_cell_angle_alpha 90.000000
_cell_angle_beta 88.465766
_cell_angle_gamma 90.000000
_cell_volume 3129.613964
_symmetry_space_group_name_H-M "C 2/M"
_symmetry_group_IT_number 12
_symmetry_cell_setting 'monoclinic'
loop_
_space_group_symop_operation_xyz
x,y,z
-x,y,-z
-x,-y,-z
x,-y,z
1/2+x,1/2+y,z
1/2-x,1/2+y,-z
1/2-x,1/2-y,-z
1/2+x,1/2-y,z
loop_
_atom_site_type_symbol
_atom_site_label
_atom_site_fract_x
_atom_site_fract_y
_atom_site_fract_z
Si Si1 0.525591 0.370353 0.376026
Si Si2 0.365942 0.282473 0.914942
Si Si3 0.789533 0.324746 0.548696
Si Si4 0.309749 0.415626 0.776637
Si Si5 0.182356 0.788394 0.847111
Si Si6 0.339240 0.583802 0.301613
Si Si7 0.949605 0.285399 0.706092
Si Si8 0.362681 0.157607 0.310864
O O1 0.500000 0.398936 0.500000
O O2 0.628562 0.395139 0.335123
O O3 0.450262 0.409682 0.299905
O O4 0.515941 0.281860 0.373322
O O5 0.344037 0.366429 0.879448
O O6 0.278886 0.230705 0.898341
O O7 0.443913 0.247535 0.832494
O O8 0.392304 0.281083 0.047101
O O9 0.750000 0.250000 0.500000
O O10 0.707176 0.379868 0.585558
O O11 0.853174 0.314183 0.657733
O O12 0.847434 0.357121 0.443344
O O13 0.320957 0.500000 0.810351
O O14 0.201240 0.399898 0.754439
O O15 0.190916 0.872769 0.808936
O O16 0.160542 0.739476 0.736956
O O17 0.306655 0.500000 0.292323
O O18 0.026334 0.350670 0.708277
#
# Coordination Sequence:
#
# PCOD8094821 Si02
#       8
#     8   8   8   8   8   8   8   8
#     4  11  21  35  58  84 120 158 199 249 300 371
#     4   9  20  37  66  84 114 155 206 255 296 357
#     4  12  20  37  60  86 125 162 202 247 295 366
#     4  10  22  39  56  85 120 159 205 248 304 363
#     4  10  19  40  58  91 116 154 203 250 307 357
#     4  12  24  37  58  92 129 160 194 249 322 376
#     4  11  20  36  60  93 115 157 208 253 295 354
#     4  11  21  35  61  86 118 160 200 253 297 354
#
# _framework density 20.449807
#
# number of rings (size 3 to 8) (size 9 to 14) (size 15 to 20)
#    0.000    1.250    3.750    4.500    0.000    3.500 
#    0.000    0.625    0.000    3.750    0.000    2.625 
#    0.000    0.000    0.000    0.000    0.000    0.000 
#
# Total GULP energy -396597.163287 kJ/mol
# GULP energy per Si atom -12393.661353 kJ/mol
# Density = 2.040326 g / cm^3
# Si number density = 20.449807 Si / 1000 Ang^3
#
#
#
# Elastic Constant Matrix: (Units=GPa)
#
#
# Indices 1 2 3 4 5 6 
#
# 1 90.9608 21.5055 13.6550 0.0000 -0.8714 0.0000
# 2 21.5055 83.4089 25.2509 0.0000 -3.1049 0.0000
# 3 13.6550 25.2509 110.7724 0.0000 -13.2465 0.0000
# 4 0.0000 0.0000 0.0000 11.5531 0.0000 -1.0278
# 5 -0.8714 -3.1049 -13.2465 0.0000 22.1157 0.0000
# 6 0.0000 0.0000 0.0000 -1.0278 0.0000 22.9962
#
#
#
# Elastic Compliance Matrix: (Units=1/GPa)
#
#
# Indices 1 2 3 4 5 6 
#
# 1 0.011780 -0.002791 -0.000870 0.000000 -0.000449 0.000000
# 2 -0.002791 0.013539 -0.002723 0.000000 0.000160 0.000000
# 3 -0.000870 -0.002723 0.010454 0.000000 0.005845 0.000000
# 4 0.000000 0.000000 0.000000 0.086902 0.000000 0.003884
# 5 -0.000449 0.000160 0.005845 0.000000 0.048723 0.000000
# 6 0.000000 0.000000 0.000000 0.003884 0.000000 0.043659
#
#
# Mechanical properties :
#
#
# Convention : Reuss Voigt Hill
#
# Bulk Modulus (GPa) = 43.46609 45.10722 44.28666
# Shear Modulus (GPa) = 21.23207 26.31504 23.77356
#
# Velocity S-wave (km/s) = 3.22569 3.59111 3.41329
# Velocity P-wave (km/s) = 5.93082 6.26898 6.10224
#
# Compressibility (1/GPa) = 0.02300644
#
# Stress axis : x y z
#
# Youngs Moduli (GPa) = 84.89124 73.86077 95.65291
#
# Poissons Ratio (x) = 0.20612 0.08318
# Poissons Ratio (y) = 0.23690 0.26048
# Poissons Ratio (z) = 0.07382 0.20113
#
# Static dielectric constant tensor:
#      x y z
#    x 3.839260 0.000000 -0.235290 
#    y 0.000000 3.361980 0.000000 
#    z -0.235290 0.000000 4.120930 
# 
# 
# High freq. dielectric constant tensor:
#      x y z
#    x 1.804360 0.000000 -0.007880 
#    y 0.000000 1.755640 0.000000 
#    z -0.007880 0.000000 1.801060 
# 
# From -- ./inp_files/146135.got.cif
#   From: 2010.06.25/outbox.cif.g09.slc.cpg/sg12_74_cif.got.tgz:146135.got - 2010.06.28 00:19:55.
