data_PCOD8094791
_publ_section_title
;
Structure prediction by ZEFSAII (Michael W. Deem and Ramdas Pophale) SiO2 
 PCOD8094791
Probable space group: C 2/M
;
_chemical_formula_sum "Si O2"
_cell_formula_units_Z 36
_cell_length_a 13.183089
_cell_length_b 14.214037
_cell_length_c 22.050714
_cell_angle_alpha 90.000000
_cell_angle_beta 24.361788
_cell_angle_gamma 90.000000
_cell_volume 1704.425627
_symmetry_space_group_name_H-M "C 2/M"
_symmetry_group_IT_number 12
_symmetry_cell_setting 'monoclinic'
loop_
_space_group_symop_operation_xyz
x,y,z
-x,y,-z
-x,-y,-z
x,-y,z
1/2+x,1/2+y,z
1/2-x,1/2+y,-z
1/2-x,1/2-y,-z
1/2+x,1/2-y,z
loop_
_atom_site_type_symbol
_atom_site_label
_atom_site_fract_x
_atom_site_fract_y
_atom_site_fract_z
Si Si1 0.969430 0.890769 0.783419
Si Si2 0.170442 0.790565 0.786912
Si Si3 0.922026 0.102620 0.609007
Si Si4 0.500000 0.216169 0.000000
Si Si5 0.304750 0.146528 0.491560
O O1 0.993137 0.832401 0.832456
O O2 0.209445 0.875943 0.611013
O O3 0.736748 0.850898 0.873925
O O4 0.929800 0.000000 0.819869
O O5 0.244972 0.682851 0.731212
O O6 0.400022 0.863115 0.668386
O O7 0.021580 0.785516 0.930675
O O8 0.000000 0.136385 0.500000
O O9 0.164403 0.083563 0.518518
O O10 0.787561 0.000000 0.679403
O O11 0.250000 0.250000 0.500000
#
# Coordination Sequence:
#
# PCOD8094791 Si02
#       5
#     8   8   8   4   8
#     4  12  25  43  69 101 130 172 224 274 328 389
#     4  11  24  42  67  96 133 171 218 275 332 386
#     4  10  20  35  63  99 129 166 217 271 331 385
#     4  12  25  44  67  90 138 186 215 262 329 398
#     4  10  19  39  65  93 129 164 213 277 323 377
#
# _framework density 21.121485
#
# number of rings (size 3 to 8) (size 9 to 14) (size 15 to 20)
#    0.000    1.111    4.444    5.000    0.000    3.556 
#    0.000    0.556    0.000    0.000    0.000    0.000 
#    0.000    0.000    0.000    0.000    0.000    0.000 
#
# Total GULP energy -223157.887380 kJ/mol
# GULP energy per Si atom -12397.660410 kJ/mol
# Density = 2.107341 g / cm^3
# Si number density = 21.121485 Si / 1000 Ang^3
#
#
#
# Elastic Constant Matrix: (Units=GPa)
#
#
# Indices 1 2 3 4 5 6 
#
# 1 123.7326 43.0201 29.0727 -1.2295 25.6167 -2.2939
# 2 43.0201 93.7703 26.0115 0.7347 9.9868 1.2667
# 3 29.0727 26.0115 81.6815 6.1769 19.2692 11.2667
# 4 -1.2295 0.7347 6.1769 946.3145 -0.4446 1716.0359
# 5 25.6167 9.9868 19.2692 -0.4446 45.9608 -0.7855
# 6 -2.2939 1.2667 11.2667 1716.0359 -0.7855 3201.4123
#
#
#
# Elastic Compliance Matrix: (Units=1/GPa)
#
#
# Indices 1 2 3 4 5 6 
#
# 1 0.010771 -0.004051 -0.001484 0.000012 -0.004501 0.000007
# 2 -0.004051 0.013270 -0.002926 -0.000012 0.000601 0.000009
# 3 -0.001484 -0.002926 0.014832 -0.000075 -0.004757 -0.000013
# 4 0.000012 -0.000012 -0.000075 0.037769 0.000047 -0.020245
# 5 -0.004501 0.000601 -0.004757 0.000047 0.026130 -0.000005
# 6 0.000007 0.000009 -0.000013 -0.020245 -0.000005 0.011164
#
#
# Mechanical properties :
#
#
# Convention : Reuss Voigt Hill
#
# Bulk Modulus (GPa) = 45.55406 55.04368 50.29887
# Shear Modulus (GPa) = 36.18556 852.14284 444.16420
#
# Velocity S-wave (km/s) = 4.14359 20.10781 14.51712
# Velocity P-wave (km/s) = 6.67135 23.77427 17.46028
#
# Compressibility (1/GPa) = 0.02195194
#
# Stress axis : x y z
#
# Youngs Moduli (GPa) = 92.84128 75.35513 67.42050
#
# Poissons Ratio (x) = 0.30525 0.10004
# Poissons Ratio (y) = 0.37608 0.19729
# Poissons Ratio (z) = 0.13776 0.22051
#
# Static dielectric constant tensor:
#      x y z
#    x 4.479380 -0.002360 -0.318310 
#    y -0.002360 4.162850 -0.000360 
#    z -0.318310 -0.000360 3.882320 
# 
# 
# High freq. dielectric constant tensor:
#      x y z
#    x 1.846380 0.000000 0.006960 
#    y 0.000000 1.824030 0.000010 
#    z 0.006960 0.000010 1.805380 
# 
# From -- ./inp_files/166993.got.cif
#   From: 2010.06.25/outbox.cif.g09.slc.cpg/sg12_84_cif.got.tgz:166993.got - 2010.06.28 00:19:55.
