data_PCOD8094360
_publ_section_title
;
Structure prediction by ZEFSAII (Michael W. Deem and Ramdas Pophale) SiO2 
 PCOD8094360
Probable space group: C 2/M
;
_chemical_formula_sum "Si O2"
_cell_formula_units_Z 64
_cell_length_a 19.621425
_cell_length_b 8.955797
_cell_length_c 30.332484
_cell_angle_alpha 90.000000
_cell_angle_beta 38.021064
_cell_angle_gamma 90.000000
_cell_volume 3283.137129
_symmetry_space_group_name_H-M "C 2/M"
_symmetry_group_IT_number 12
_symmetry_cell_setting 'monoclinic'
loop_
_space_group_symop_operation_xyz
x,y,z
-x,y,-z
-x,-y,-z
x,-y,z
1/2+x,1/2+y,z
1/2-x,1/2+y,-z
1/2-x,1/2-y,-z
1/2+x,1/2-y,z
loop_
_atom_site_type_symbol
_atom_site_label
_atom_site_fract_x
_atom_site_fract_y
_atom_site_fract_z
Si Si1 0.026504 0.322850 0.624787
Si Si2 0.483707 0.677135 0.224269
Si Si3 0.196459 0.827055 0.235275
Si Si4 0.925832 0.676562 0.497946
Si Si5 0.398207 0.323394 0.173680
Si Si6 0.773823 0.827696 0.880140
Si Si7 0.058549 0.823779 0.014266
Si Si8 0.324501 0.677876 0.382794
O O1 0.028845 0.500000 0.628713
O O2 0.024337 0.274718 0.574582
O O3 0.135361 0.254708 0.592444
O O4 0.919529 0.256932 0.703141
O O5 0.487880 0.500000 0.224947
O O6 0.440344 0.731600 0.199346
O O7 0.606854 0.741391 0.168367
O O8 0.402322 0.736501 0.303626
O O9 0.281377 0.756509 0.226419
O O10 0.247251 0.804404 0.160940
O O11 0.176304 0.000000 0.256240
O O12 0.927216 0.500000 0.501680
O O13 0.799291 0.732515 0.565603
O O14 0.000000 0.746006 0.500000
O O15 0.378593 0.500000 0.181412
O O16 0.487860 0.270574 0.092147
O O17 0.681010 0.743257 0.955560
O O18 0.768294 0.000000 0.896384
O O19 0.070016 0.000000 0.007007
O O20 0.000000 0.762694 0.000000
O O21 0.329894 0.500000 0.386211
#
# Coordination Sequence:
#
# PCOD8094360 Si02
#       8
#     8   8   8   8   8   8   8   8
#     4  11  22  36  59  88 116 149 191 234 279 334
#     4   9  19  36  58  83 109 148 191 229 278 334
#     4  11  22  37  58  84 113 147 191 237 282 332
#     4   9  20  36  58  89 117 148 192 232 272 332
#     4  10  21  37  58  83 113 148 189 234 283 341
#     4  10  20  36  57  80 107 145 194 233 272 337
#     4  10  20  34  53  82 115 145 181 232 292 337
#     4  10  19  37  62  83 113 152 191 234 276 329
#
# _framework density 19.493551
#
# number of rings (size 3 to 8) (size 9 to 14) (size 15 to 20)
#    0.000    2.000    2.500    1.125    1.750    1.750 
#    0.000    1.875    0.000    1.875    0.000    0.000 
#    0.000    0.000    0.000    0.000    0.000    0.000 
#
# Total GULP energy -396867.162398 kJ/mol
# GULP energy per Si atom -12402.098825 kJ/mol
# Density = 1.944918 g / cm^3
# Si number density = 19.493551 Si / 1000 Ang^3
#
#
#
# Elastic Constant Matrix: (Units=GPa)
#
#
# Indices 1 2 3 4 5 6 
#
# 1 141.6601 33.5671 44.4355 0.0067 -7.1488 0.0124
# 2 33.5671 40.2565 29.0321 0.0071 -1.1502 0.0090
# 3 44.4355 29.0321 99.7852 0.0003 -13.0188 0.0029
# 4 0.0067 0.0071 0.0003 19.7397 -0.0006 -4.2489
# 5 -7.1488 -1.1502 -13.0188 -0.0006 37.7939 0.0013
# 6 0.0124 0.0090 0.0029 -4.2489 0.0013 25.0025
#
#
#
# Elastic Compliance Matrix: (Units=1/GPa)
#
#
# Indices 1 2 3 4 5 6 
#
# 1 0.009240 -0.006061 -0.002249 -0.000001 0.000789 -0.000002
# 2 -0.006061 0.035604 -0.008029 -0.000013 -0.002829 -0.000011
# 3 -0.002249 -0.008029 0.013896 0.000004 0.004117 0.000003
# 4 -0.000001 -0.000013 0.000004 0.052583 0.000001 0.008936
# 5 0.000789 -0.002829 0.004117 0.000001 0.027941 -0.000001
# 6 -0.000002 -0.000011 0.000003 0.008936 -0.000001 0.041515
#
#
# Mechanical properties :
#
#
# Convention : Reuss Voigt Hill
#
# Bulk Modulus (GPa) = 38.36755 55.08569 46.72662
# Shear Modulus (GPa) = 22.50806 28.15168 25.32987
#
# Velocity S-wave (km/s) = 3.40169 3.80432 3.60863
# Velocity P-wave (km/s) = 5.92904 6.90050 6.43314
#
# Compressibility (1/GPa) = 0.02606369
#
# Stress axis : x y z
#
# Youngs Moduli (GPa) = 108.22014 28.08686 71.96326
#
# Poissons Ratio (x) = 0.17023 0.16182
# Poissons Ratio (y) = 0.65590 0.57779
# Poissons Ratio (z) = 0.24334 0.22551
#
# Static dielectric constant tensor:
#      x y z
#    x 3.766890 -0.000010 -0.026790 
#    y -0.000010 3.198540 0.000000 
#    z -0.026790 0.000000 3.624490 
# 
# 
# High freq. dielectric constant tensor:
#      x y z
#    x 1.767270 0.000000 -0.005760 
#    y 0.000000 1.725020 0.000000 
#    z -0.005760 0.000000 1.769520 
# 
# From -- ./inp_files/378253.got.cif
#   From: 2010.06.25/outbox.cif.g09.slc.cpg/sg12_190_cif.got.tgz:378253.got - 2010.06.28 00:19:55.
