data_PCOD8094743
_publ_section_title
;
Structure prediction by ZEFSAII (Michael W. Deem and Ramdas Pophale) SiO2 
 PCOD8094743
Probable space group: C 2/M
;
_chemical_formula_sum "Si O2"
_cell_formula_units_Z 64
_cell_length_a 21.223393
_cell_length_b 23.117501
_cell_length_c 9.206798
_cell_angle_alpha 90.000000
_cell_angle_beta 132.683810
_cell_angle_gamma 90.000000
_cell_volume 3320.583436
_symmetry_space_group_name_H-M "C 2/M"
_symmetry_group_IT_number 12
_symmetry_cell_setting 'monoclinic'
loop_
_space_group_symop_operation_xyz
x,y,z
-x,y,-z
-x,-y,-z
x,-y,z
1/2+x,1/2+y,z
1/2-x,1/2+y,-z
1/2-x,1/2-y,-z
1/2+x,1/2-y,z
loop_
_atom_site_type_symbol
_atom_site_label
_atom_site_fract_x
_atom_site_fract_y
_atom_site_fract_z
Si Si1 0.790973 0.111505 0.442345
Si Si2 0.734039 0.731926 0.726279
Si Si3 0.977350 0.932317 0.805151
Si Si4 0.271093 0.145988 0.357059
Si Si5 0.370007 0.761558 0.154185
Si Si6 0.625064 0.633441 0.897330
Si Si7 0.759854 0.566276 0.926477
Si Si8 0.092528 0.623053 0.667166
O O1 0.809409 0.176395 0.412965
O O2 0.880936 0.081794 0.613382
O O3 0.733748 0.112145 0.498591
O O4 0.737725 0.073609 0.243704
O O5 0.728949 0.785325 0.605497
O O6 0.694568 0.757832 0.812081
O O7 0.829241 0.717848 0.935595
O O8 0.040713 0.904272 0.787167
O O9 0.993282 0.000000 0.823727
O O10 0.000000 0.907786 0.000000
O O11 0.356641 0.126663 0.406081
O O12 0.185299 0.132254 0.132449
O O13 0.410440 0.697784 0.196636
O O14 0.431541 0.814315 0.297741
O O15 0.681547 0.607274 0.855020
O O16 0.742080 0.500000 0.942657
O O17 0.850483 0.585503 0.133682
O O18 0.000000 0.592575 0.500000
#
# Coordination Sequence:
#
# PCOD8094743 Si02
#       8
#     8   8   8   8   8   8   8   8
#     4  12  20  37  58  85 117 156 193 242 291 339
#     4   9  16  32  57  84 117 148 190 238 290 353
#     4  11  24  39  55  82 125 164 200 241 277 339
#     4   9  20  34  60  88 113 152 193 233 301 363
#     4   9  16  34  60  87 113 152 190 237 302 349
#     4  10  19  39  60  85 119 158 198 236 285 356
#     4  11  23  39  61  86 115 156 202 244 287 346
#     4  10  21  40  64  87 115 149 193 248 299 361
#
# _framework density 19.273720999999998
#
# number of rings (size 3 to 8) (size 9 to 14) (size 15 to 20)
#    0.000    1.875    3.750    2.625    0.000    2.750 
#    0.000    2.500    0.000    0.750    0.000    0.000 
#    0.000    0.000    0.000    0.000    0.000    0.000 
#
# Total GULP energy -396575.687741 kJ/mol
# GULP energy per Si atom -12392.990242 kJ/mol
# Density = 1.922985 g / cm^3
# Si number density = 19.273721 Si / 1000 Ang^3
#
#
#
# Elastic Constant Matrix: (Units=GPa)
#
#
# Indices 1 2 3 4 5 6 
#
# 1 78.8993 17.4108 45.0175 0.0000 2.6151 0.0000
# 2 17.4108 76.5623 22.5442 0.0000 -4.0063 0.0000
# 3 45.0175 22.5442 85.3187 0.0000 -1.7044 0.0000
# 4 0.0000 0.0000 0.0000 24.2628 0.0000 -1.7066
# 5 2.6151 -4.0063 -1.7044 0.0000 28.3077 0.0000
# 6 0.0000 0.0000 0.0000 -1.7066 0.0000 20.6716
#
#
#
# Elastic Compliance Matrix: (Units=1/GPa)
#
#
# Indices 1 2 3 4 5 6 
#
# 1 0.018449 -0.001567 -0.009370 0.000000 -0.002490 0.000000
# 2 -0.001567 0.014387 -0.002935 0.000000 0.002004 0.000000
# 3 -0.009370 -0.002935 0.017470 0.000000 0.001502 0.000000
# 4 0.000000 0.000000 0.000000 0.041456 0.000000 0.003423
# 5 -0.002490 0.002004 0.001502 0.000000 0.035930 0.000000
# 6 0.000000 0.000000 0.000000 0.003423 0.000000 0.048658
#
#
# Mechanical properties :
#
#
# Convention : Reuss Voigt Hill
#
# Bulk Modulus (GPa) = 44.32106 45.63616 44.97861
# Shear Modulus (GPa) = 23.62788 25.03560 24.33174
#
# Velocity S-wave (km/s) = 3.50510 3.60800 3.55692
# Velocity P-wave (km/s) = 6.27905 6.40986 6.34479
#
# Compressibility (1/GPa) = 0.02256264
#
# Stress axis : x y z
#
# Youngs Moduli (GPa) = 54.20349 69.50935 57.23987
#
# Poissons Ratio (x) = 0.10890 0.53635
# Poissons Ratio (y) = 0.08492 0.16799
# Poissons Ratio (z) = 0.50790 0.20400
#
# Static dielectric constant tensor:
#      x y z
#    x 3.246390 0.000000 -0.204630 
#    y 0.000000 3.568110 0.000000 
#    z -0.204630 0.000000 3.503350 
# 
# 
# High freq. dielectric constant tensor:
#      x y z
#    x 1.720080 0.000000 -0.014990 
#    y 0.000000 1.751750 0.000000 
#    z -0.014990 0.000000 1.746270 
# 
# From -- ./inp_files/90669.got.cif
#   From: 2010.06.25/outbox.cif.g09.slc.cpg/sg12_46_cif.got.tgz:90669.got - 2010.06.28 00:19:55.
