data_PCOD8094889
_publ_section_title
;
Structure prediction by ZEFSAII (Michael W. Deem and Ramdas Pophale) SiO2 
 PCOD8094889
Probable space group: C 2/M
;
_chemical_formula_sum "Si O2"
_cell_formula_units_Z 64
_cell_length_a 30.053090
_cell_length_b 9.277511
_cell_length_c 15.076790
_cell_angle_alpha 90.000000
_cell_angle_beta 88.973785
_cell_angle_gamma 90.000000
_cell_volume 4203.004273
_symmetry_space_group_name_H-M "C 2/M"
_symmetry_group_IT_number 12
_symmetry_cell_setting 'monoclinic'
loop_
_space_group_symop_operation_xyz
x,y,z
-x,y,-z
-x,-y,-z
x,-y,z
1/2+x,1/2+y,z
1/2-x,1/2+y,-z
1/2-x,1/2-y,-z
1/2+x,1/2-y,z
loop_
_atom_site_type_symbol
_atom_site_label
_atom_site_fract_x
_atom_site_fract_y
_atom_site_fract_z
Si Si1 0.051805 0.162435 0.398188
Si Si2 0.612545 0.333036 0.102701
Si Si3 0.450327 0.167066 0.770369
Si Si4 0.055027 0.665754 0.760744
Si Si5 0.207435 0.163897 0.918079
Si Si6 0.303148 0.165146 0.906530
Si Si7 0.446108 0.338463 0.406832
Si Si8 0.888262 0.838533 0.107105
O O1 0.069097 0.270208 0.321528
O O2 0.069887 0.212683 0.494442
O O3 0.998946 0.165494 0.402138
O O4 0.068273 0.000000 0.376745
O O5 0.611286 0.500000 0.129114
O O6 0.570925 0.252222 0.147266
O O7 0.658648 0.264107 0.138779
O O8 0.609355 0.308282 0.997887
O O9 0.502860 0.192475 0.775631
O O10 0.437552 0.000000 0.775912
O O11 0.067029 0.500000 0.753434
O O12 0.073347 0.737105 0.669432
O O13 0.079840 0.728588 0.844820
O O14 0.254060 0.181917 0.861711
O O15 0.163231 0.181946 0.858883
O O16 0.205903 0.000000 0.959535
O O17 0.205036 0.286736 0.992337
O O18 0.319524 0.000000 0.903107
O O19 0.428872 0.500000 0.389523
O O20 0.904942 0.000000 0.127535
#
# Coordination Sequence:
#
# PCOD8094889 Si02
#       8
#     8   8   8   8   8   8   8   8
#     4   8  14  26  44  63  80 102 134 170 208 250
#     4  10  20  32  44  59  81 111 147 180 209 247
#     4  10  20  31  42  59  84 113 143 176 213 248
#     4  10  20  30  41  60  85 112 143 178 212 245
#     4   8  15  27  42  61  82 105 134 167 207 254
#     4   9  15  25  43  63  82 103 130 169 214 253
#     4   8  14  26  44  62  80 104 134 168 208 252
#     4   9  18  31  44  58  80 112 147 177 205 242
#
# _framework density 15.227202999999999
#
# number of rings (size 3 to 8) (size 9 to 14) (size 15 to 20)
#    0.000    3.000    0.000    3.000    0.000    5.500 
#    0.000    5.000    0.000    0.000    0.000    0.000 
#    0.000    1.000    0.000    3.000    0.000    4.250 
#
# Total GULP energy -396496.678937 kJ/mol
# GULP energy per Si atom -12390.521217 kJ/mol
# Density = 1.519255 g / cm^3
# Si number density = 15.227203 Si / 1000 Ang^3
#
#
#
# Elastic Constant Matrix: (Units=GPa)
#
#
# Indices 1 2 3 4 5 6 
#
# 1 52.6091 48.2158 35.2632 0.0000 1.6919 0.0000
# 2 48.2158 107.6619 48.5128 0.0000 3.2915 0.0000
# 3 35.2632 48.5128 65.3884 0.0000 3.4038 0.0000
# 4 0.0000 0.0000 0.0000 22.9596 0.0000 -1.5059
# 5 1.6919 3.2915 3.4038 0.0000 1.2219 0.0000
# 6 0.0000 0.0000 0.0000 -1.5059 0.0000 22.3590
#
#
#
# Elastic Compliance Matrix: (Units=1/GPa)
#
#
# Indices 1 2 3 4 5 6 
#
# 1 0.037500 -0.011686 -0.012268 0.000000 0.013730 0.000000
# 2 -0.011686 0.017705 -0.006074 0.000000 -0.014592 0.000000
# 3 -0.012268 -0.006074 0.028865 0.000000 -0.047060 0.000000
# 4 0.000000 0.000000 0.000000 0.043748 0.000000 0.002946
# 5 0.013730 -0.014592 -0.047060 0.000000 0.969789 0.000000
# 6 0.000000 0.000000 0.000000 0.002946 0.000000 0.044923
#
#
# Mechanical properties :
#
#
# Convention : Reuss Voigt Hill
#
# Bulk Modulus (GPa) = 41.64171 54.40476 48.02323
# Shear Modulus (GPa) = 4.13022 15.55261 9.84141
#
# Velocity S-wave (km/s) = 1.64872 3.19936 2.54501
# Velocity P-wave (km/s) = 5.57052 7.03236 6.34369
#
# Compressibility (1/GPa) = 0.02401438
#
# Stress axis : x y z
#
# Youngs Moduli (GPa) = 26.66699 56.48189 34.64380
#
# Poissons Ratio (x) = 0.66003 0.42501
# Poissons Ratio (y) = 0.31162 0.21042
# Poissons Ratio (z) = 0.32715 0.34306
#
# Static dielectric constant tensor:
#      x y z
#    x 2.942660 0.000000 -0.019440 
#    y 0.000000 3.067500 0.000000 
#    z -0.019440 0.000000 2.839870 
# 
# 
# High freq. dielectric constant tensor:
#      x y z
#    x 1.559890 0.000000 -0.000980 
#    y 0.000000 1.596710 0.000000 
#    z -0.000980 0.000000 1.548840 
# 
# From -- ./inp_files/244065.got.cif
#   From: 2010.06.25/outbox.cif.g09.slc.cpg/sg12_123_cif.got.tgz:244065.got - 2010.06.28 00:19:55.
