data_PCOD8094833
_publ_section_title
;
Structure prediction by ZEFSAII (Michael W. Deem and Ramdas Pophale) SiO2 
 PCOD8094833
Probable space group: C 2/M
;
_chemical_formula_sum "Si O2"
_cell_formula_units_Z 48
_cell_length_a 19.854328
_cell_length_b 27.485915
_cell_length_c 8.808055
_cell_angle_alpha 90.000000
_cell_angle_beta 30.157296
_cell_angle_gamma 90.000000
_cell_volume 2414.760052
_symmetry_space_group_name_H-M "C 2/M"
_symmetry_group_IT_number 12
_symmetry_cell_setting 'monoclinic'
loop_
_space_group_symop_operation_xyz
x,y,z
-x,y,-z
-x,-y,-z
x,-y,z
1/2+x,1/2+y,z
1/2-x,1/2+y,-z
1/2-x,1/2-y,-z
1/2+x,1/2-y,z
loop_
_atom_site_type_symbol
_atom_site_label
_atom_site_fract_x
_atom_site_fract_y
_atom_site_fract_z
Si Si1 0.746699 0.097284 0.178504
Si Si2 0.868997 0.810725 0.837738
Si Si3 0.393184 0.796658 0.836595
Si Si4 0.993720 0.944302 0.845945
Si Si5 0.246569 0.057808 0.169518
Si Si6 0.027367 0.384476 0.123114
O O1 0.604368 0.096967 0.535177
O O2 0.816049 0.150264 0.062793
O O3 0.845155 0.059057 0.066465
O O4 0.727502 0.084637 0.039676
O O5 0.907000 0.760555 0.851123
O O6 0.000000 0.831731 0.500000
O O7 0.757556 0.803738 0.925713
O O8 0.500000 0.811578 0.500000
O O9 0.423518 0.830927 0.920644
O O10 0.104586 0.923279 0.513453
O O11 0.033259 0.000000 0.791344
O O12 0.000000 0.918593 0.000000
O O13 0.252356 0.000000 0.134077
O O14 0.360912 0.074719 0.063284
O O15 0.000000 0.381110 0.000000
#
# Coordination Sequence:
#
# PCOD8094833 Si02
#       6
#     8   8   8   8   8   8
#     4  12  22  39  62  92 115 159 205 250 296 355
#     4  10  20  34  66  92 113 147 200 248 294 349
#     4  10  19  40  62  86 119 156 196 243 297 358
#     4  10  22  40  60  88 127 160 191 243 306 357
#     4  11  23  40  64  91 118 157 208 251 292 354
#     4  12  25  41  59  85 126 162 197 250 310 361
#
# _framework density 19.877752000000001
#
# number of rings (size 3 to 8) (size 9 to 14) (size 15 to 20)
#    0.000    1.167    3.333    3.500    0.000    3.667 
#    0.000    1.667    0.000    0.000    0.000    0.000 
#    0.000    0.000    0.000    0.000    0.000    0.000 
#
# Total GULP energy -297623.310455 kJ/mol
# GULP energy per Si atom -12400.971269 kJ/mol
# Density = 1.983251 g / cm^3
# Si number density = 19.877752 Si / 1000 Ang^3
#
#
#
# Elastic Constant Matrix: (Units=GPa)
#
#
# Indices 1 2 3 4 5 6 
#
# 1 115.5366 22.0632 46.7717 0.0002 6.0853 0.0000
# 2 22.0632 73.3543 31.7030 0.0001 5.9492 0.0000
# 3 46.7717 31.7030 117.4287 0.0003 -10.2883 0.0000
# 4 0.0002 0.0001 0.0003 19.5600 -0.0001 -6.5561
# 5 6.0853 5.9492 -10.2883 -0.0001 38.9308 0.0000
# 6 0.0000 0.0000 0.0000 -6.5561 0.0000 32.6024
#
#
#
# Elastic Compliance Matrix: (Units=1/GPa)
#
#
# Indices 1 2 3 4 5 6 
#
# 1 0.010709 -0.001211 -0.004165 0.000000 -0.002590 0.000000
# 2 -0.001211 0.016062 -0.004149 0.000000 -0.003362 0.000000
# 3 -0.004165 -0.004149 0.011678 0.000000 0.004371 0.000000
# 4 0.000000 0.000000 0.000000 0.054820 0.000000 0.011024
# 5 -0.002590 -0.003362 0.004371 0.000000 0.027760 0.000000
# 6 0.000000 0.000000 0.000000 0.011024 0.000000 0.032889
#
#
# Mechanical properties :
#
#
# Convention : Reuss Voigt Hill
#
# Bulk Modulus (GPa) = 51.54770 56.37727 53.96248
# Shear Modulus (GPa) = 27.86522 31.93742 29.90132
#
# Velocity S-wave (km/s) = 3.74816 4.01270 3.88269
# Velocity P-wave (km/s) = 6.68732 7.06347 6.87797
#
# Compressibility (1/GPa) = 0.01939951
#
# Stress axis : x y z
#
# Youngs Moduli (GPa) = 93.37813 62.25753 85.63140
#
# Poissons Ratio (x) = 0.07538 0.35669
# Poissons Ratio (y) = 0.11306 0.35526
# Poissons Ratio (z) = 0.38896 0.25829
#
# Static dielectric constant tensor:
#      x y z
#    x 3.473780 0.000000 -0.120270 
#    y 0.000000 3.803290 0.000000 
#    z -0.120270 0.000000 3.803340 
# 
# 
# High freq. dielectric constant tensor:
#      x y z
#    x 1.759540 0.000000 -0.020030 
#    y 0.000000 1.779390 0.000000 
#    z -0.020030 0.000000 1.787330 
# 
# From -- ./inp_files/91169.got.cif
#   From: 2010.06.25/outbox.cif.g09.slc.cpg/sg12_46_cif.got.tgz:91169.got - 2010.06.28 00:19:55.
