data_PCOD8094512
_publ_section_title
;
Structure prediction by ZEFSAII (Michael W. Deem and Ramdas Pophale) SiO2 
 PCOD8094512
Probable space group: C 2/M
;
_chemical_formula_sum "Si O2"
_cell_formula_units_Z 56
_cell_length_a 11.262014
_cell_length_b 29.542158
_cell_length_c 9.562281
_cell_angle_alpha 90.000000
_cell_angle_beta 113.280116
_cell_angle_gamma 90.000000
_cell_volume 2922.391979
_symmetry_space_group_name_H-M "C 2/M"
_symmetry_group_IT_number 12
_symmetry_cell_setting 'monoclinic'
loop_
_space_group_symop_operation_xyz
x,y,z
-x,y,-z
-x,-y,-z
x,-y,z
1/2+x,1/2+y,z
1/2-x,1/2+y,-z
1/2-x,1/2-y,-z
1/2+x,1/2-y,z
loop_
_atom_site_type_symbol
_atom_site_label
_atom_site_fract_x
_atom_site_fract_y
_atom_site_fract_z
Si Si1 0.649703 0.052109 0.607711
Si Si2 0.752805 0.376646 0.548010
Si Si3 0.000392 0.322040 0.342471
Si Si4 0.730032 0.120316 0.862749
Si Si5 0.389973 0.231959 0.838436
Si Si6 0.401213 0.330493 0.756686
Si Si7 0.192680 0.153170 0.812781
O O1 0.500000 0.058959 0.500000
O O2 0.741997 0.075703 0.533255
O O3 0.675801 0.073044 0.774896
O O4 0.689575 0.000000 0.630988
O O5 0.901401 0.363232 0.637803
O O6 0.676664 0.338890 0.423086
O O7 0.686984 0.378624 0.671326
O O8 0.047782 0.278492 0.282003
O O9 0.000000 0.305764 0.500000
O O10 0.860656 0.338733 0.230559
O O11 0.868553 0.130423 0.854720
O O12 0.740855 0.121836 0.036108
O O13 0.352464 0.284387 0.809335
O O14 0.268900 0.199804 0.818407
O O15 0.500000 0.221853 0.000000
O O16 0.552685 0.330932 0.796754
#
# Coordination Sequence:
#
# PCOD8094512 Si02
#       7
#     8   8   8   8   8   8   8
#     4  10  19  37  67  95 117 146 193 243 295 365
#     4  10  21  39  59  84 118 152 192 239 303 349
#     4  11  19  36  58  80 108 157 193 237 290 353
#     4  11  20  39  60  84 120 154 192 242 301 354
#     4  11  24  36  56  84 116 155 205 257 290 326
#     4  11  24  38  57  81 117 164 204 243 285 349
#     4  11  24  37  59  85 118 161 199 242 297 351
#
# _framework density 19.162383999999999
#
# number of rings (size 3 to 8) (size 9 to 14) (size 15 to 20)
#    0.000    1.286    5.714    1.714    2.000    4.571 
#    0.000    0.714    0.000   15.429    0.000    0.000 
#    0.000    0.000    0.000    0.000    0.000    0.000 
#
# Total GULP energy -347070.476216 kJ/mol
# GULP energy per Si atom -12395.374151 kJ/mol
# Density = 1.911877 g / cm^3
# Si number density = 19.162384 Si / 1000 Ang^3
#
#
#
# Elastic Constant Matrix: (Units=GPa)
#
#
# Indices 1 2 3 4 5 6 
#
# 1 89.9158 33.1156 37.0116 0.0000 -1.1404 0.0000
# 2 33.1156 97.8163 32.7962 0.0000 -0.0771 0.0000
# 3 37.0116 32.7962 114.9615 0.0000 -19.4634 0.0000
# 4 0.0000 0.0000 0.0000 28.4976 0.0000 0.3169
# 5 -1.1404 -0.0771 -19.4634 0.0000 31.9414 0.0000
# 6 0.0000 0.0000 0.0000 0.3169 0.0000 20.9805
#
#
#
# Elastic Compliance Matrix: (Units=1/GPa)
#
#
# Indices 1 2 3 4 5 6 
#
# 1 0.013936 -0.003440 -0.003816 0.000000 -0.001836 0.000000
# 2 -0.003440 0.012289 -0.002692 0.000000 -0.001733 0.000000
# 3 -0.003816 -0.002692 0.011898 0.000000 0.007107 0.000000
# 4 0.000000 0.000000 0.000000 0.035097 0.000000 -0.000530
# 5 -0.001836 -0.001733 0.007107 0.000000 0.035569 0.000000
# 6 0.000000 0.000000 0.000000 -0.000530 0.000000 0.047671
#
#
# Mechanical properties :
#
#
# Convention : Reuss Voigt Hill
#
# Bulk Modulus (GPa) = 54.86196 56.50447 55.68321
# Shear Modulus (GPa) = 27.40755 29.60192 28.50473
#
# Velocity S-wave (km/s) = 3.78601 3.93465 3.86104
# Velocity P-wave (km/s) = 6.91404 7.08471 6.99990
#
# Compressibility (1/GPa) = 0.01822757
#
# Stress axis : x y z
#
# Youngs Moduli (GPa) = 71.75673 81.37374 84.04490
#
# Poissons Ratio (x) = 0.27992 0.32073
# Poissons Ratio (y) = 0.24684 0.22623
# Poissons Ratio (z) = 0.27384 0.21904
#
# Static dielectric constant tensor:
#      x y z
#    x 3.636490 0.000000 -0.121560 
#    y 0.000000 3.222630 0.000000 
#    z -0.121560 0.000000 3.772830 
# 
# 
# High freq. dielectric constant tensor:
#      x y z
#    x 1.752830 0.000000 -0.001580 
#    y 0.000000 1.704490 0.000000 
#    z -0.001580 0.000000 1.758670 
# 
# From -- ./inp_files/54302.got.cif
#   From: 2010.06.25/outbox.cif.g09.slc.cpg/sg12_28_cif.got.tgz:54302.got - 2010.06.28 00:19:55.
