data_PCOD8094976
_publ_section_title
;
Structure prediction by ZEFSAII (Michael W. Deem and Ramdas Pophale) SiO2 
 PCOD8094976
Probable space group: C 2/M
;
_chemical_formula_sum "Si O2"
_cell_formula_units_Z 64
_cell_length_a 19.633949
_cell_length_b 21.143757
_cell_length_c 10.143492
_cell_angle_alpha 90.000000
_cell_angle_beta 76.087687
_cell_angle_gamma 90.000000
_cell_volume 4087.394952
_symmetry_space_group_name_H-M "C 2/M"
_symmetry_group_IT_number 12
_symmetry_cell_setting 'monoclinic'
loop_
_space_group_symop_operation_xyz
x,y,z
-x,y,-z
-x,-y,-z
x,-y,z
1/2+x,1/2+y,z
1/2-x,1/2+y,-z
1/2-x,1/2-y,-z
1/2+x,1/2-y,z
loop_
_atom_site_type_symbol
_atom_site_label
_atom_site_fract_x
_atom_site_fract_y
_atom_site_fract_z
Si Si1 0.343872 0.233049 0.067913
Si Si2 0.716603 0.169298 0.137938
Si Si3 0.204395 0.320667 0.653199
Si Si4 0.690444 0.428986 0.009847
Si Si5 0.565250 0.660712 0.376399
Si Si6 0.301615 0.427117 0.689415
Si Si7 0.561085 0.339304 0.068843
Si Si8 0.836846 0.270911 0.593152
O O1 0.278172 0.279623 0.102372
O O2 0.349023 0.195486 0.203237
O O3 0.334951 0.180482 0.960116
O O4 0.413559 0.271910 0.999802
O O5 0.671743 0.175712 0.291299
O O6 0.749355 0.099489 0.112361
O O7 0.237486 0.391291 0.645245
O O8 0.157612 0.309900 0.545030
O O9 0.269460 0.273454 0.625622
O O10 0.677376 0.500000 0.970768
O O11 0.715989 0.423167 0.148132
O O12 0.618768 0.392504 0.023380
O O13 0.500000 0.642806 0.500000
O O14 0.623539 0.606363 0.371624
O O15 0.541179 0.665134 0.233848
O O16 0.594763 0.728662 0.409802
O O17 0.305487 0.500000 0.638968
O O18 0.500000 0.361914 0.000000
#
# Coordination Sequence:
#
# PCOD8094976 Si02
#       8
#     8   8   8   8   8   8   8   8
#     4   9  15  26  46  65  84 111 148 189 234 275
#     4   9  14  27  46  64  85 112 144 188 240 276
#     4   9  16  27  46  69  86 112 147 188 238 276
#     4   9  17  30  48  67  91 125 159 189 224 269
#     4  10  20  32  45  64  93 129 160 186 224 270
#     4   9  17  31  48  66  92 125 159 189 219 268
#     4  10  20  31  45  66  93 125 160 194 222 261
#     4   9  17  28  44  65  91 113 143 192 239 274
#
# _framework density 15.657895
#
# number of rings (size 3 to 8) (size 9 to 14) (size 15 to 20)
#    0.000    2.750    2.500    0.000    1.750    0.500 
#    2.250    0.625    0.000    0.000    0.000    0.000 
#    0.000    6.000    0.000    0.000    0.000    0.000 
#
# Total GULP energy -396579.056511 kJ/mol
# GULP energy per Si atom -12393.095516 kJ/mol
# Density = 1.562226 g / cm^3
# Si number density = 15.657895 Si / 1000 Ang^3
#
#
#
# Elastic Constant Matrix: (Units=GPa)
#
#
# Indices 1 2 3 4 5 6 
#
# 1 28.2858 45.5523 29.0334 0.0000 9.2100 0.0000
# 2 45.5523 96.6685 56.3453 0.0000 -0.2483 0.0000
# 3 29.0334 56.3453 114.6543 0.0000 6.2950 0.0000
# 4 0.0000 0.0000 0.0000 18.0341 0.0000 0.4260
# 5 9.2100 -0.2483 6.2950 0.0000 26.4394 0.0000
# 6 0.0000 0.0000 0.0000 0.4260 0.0000 11.2651
#
#
#
# Elastic Compliance Matrix: (Units=1/GPa)
#
#
# Indices 1 2 3 4 5 6 
#
# 1 0.283320 -0.133330 -0.000743 0.000000 -0.099768 0.000000
# 2 -0.133330 0.077332 -0.006922 0.000000 0.048819 0.000000
# 3 -0.000743 -0.006922 0.012464 0.000000 -0.002774 0.000000
# 4 0.000000 0.000000 0.000000 0.055500 0.000000 -0.002099
# 5 -0.099768 0.048819 -0.002774 0.000000 0.073695 0.000000
# 6 0.000000 0.000000 0.000000 -0.002099 0.000000 0.088849
#
#
# Mechanical properties :
#
#
# Convention : Reuss Voigt Hill
#
# Bulk Modulus (GPa) = 10.97371 55.71895 33.34633
# Shear Modulus (GPa) = 5.53388 18.39288 11.96338
#
# Velocity S-wave (km/s) = 1.88200 3.43107 2.76714
# Velocity P-wave (km/s) = 3.42727 7.16650 5.61716
#
# Compressibility (1/GPa) = 0.09112686
#
# Stress axis : x y z
#
# Youngs Moduli (GPa) = 3.52958 12.93118 80.23116
#
# Poissons Ratio (x) = 1.72411 0.05962
# Poissons Ratio (y) = 0.47060 0.55535
# Poissons Ratio (z) = 0.00262 0.08951
#
# Static dielectric constant tensor:
#      x y z
#    x 2.703310 0.000000 0.072160 
#    y 0.000000 2.919960 0.000000 
#    z 0.072160 0.000000 3.181430 
# 
# 
# High freq. dielectric constant tensor:
#      x y z
#    x 1.565530 0.000000 0.006590 
#    y 0.000000 1.579480 0.000000 
#    z 0.006590 0.000000 1.606430 
# 
# From -- ./inp_files/89152.got.cif
#   From: 2010.06.25/outbox.cif.g09.slc.cpg/sg12_45_cif.got.tgz:89152.got - 2010.06.28 00:19:55.
