data_PCOD8094990
_publ_section_title
;
Structure prediction by ZEFSAII (Michael W. Deem and Ramdas Pophale) SiO2 
 PCOD8094990
Probable space group: C 2/M
;
_chemical_formula_sum "Si O2"
_cell_formula_units_Z 64
_cell_length_a 25.046797
_cell_length_b 9.337339
_cell_length_c 23.574773
_cell_angle_alpha 90.000000
_cell_angle_beta 134.064987
_cell_angle_gamma 90.000000
_cell_volume 3961.691926
_symmetry_space_group_name_H-M "C 2/M"
_symmetry_group_IT_number 12
_symmetry_cell_setting 'monoclinic'
loop_
_space_group_symop_operation_xyz
x,y,z
-x,y,-z
-x,-y,-z
x,-y,z
1/2+x,1/2+y,z
1/2-x,1/2+y,-z
1/2-x,1/2-y,-z
1/2+x,1/2-y,z
loop_
_atom_site_type_symbol
_atom_site_label
_atom_site_fract_x
_atom_site_fract_y
_atom_site_fract_z
Si Si1 0.421541 0.837167 0.660486
Si Si2 0.051292 0.832535 0.801661
Si Si3 0.976782 0.169547 0.090104
Si Si4 0.781558 0.834085 0.076327
Si Si5 0.377556 0.836047 0.830575
Si Si6 0.847301 0.336861 0.935298
Si Si7 0.296527 0.166156 0.658201
Si Si8 0.703924 0.834001 0.512587
O O1 0.495489 0.742623 0.716673
O O2 0.365447 0.789291 0.669066
O O3 0.382555 0.819215 0.569758
O O4 0.445625 0.000000 0.688584
O O5 0.032238 0.784228 0.851413
O O6 0.134791 0.783249 0.848348
O O7 0.040677 0.000000 0.785848
O O8 0.051739 0.234023 0.120292
O O9 0.978504 0.000000 0.083940
O O10 0.908039 0.229291 0.004044
O O11 0.732141 0.803620 0.095170
O O12 0.781971 0.000000 0.059180
O O13 0.750000 0.750000 0.000000
O O14 0.337490 0.812816 0.861026
O O15 0.317421 0.796409 0.738148
O O16 0.404479 0.000000 0.842443
O O17 0.872366 0.500000 0.966964
O O18 0.223660 0.260215 0.587521
O O19 0.276505 0.000000 0.634865
O O20 0.750000 0.750000 0.500000
O O21 0.727716 0.000000 0.531274
#
# Coordination Sequence:
#
# PCOD8094990 Si02
#       8
#     8   8   8   8   8   8   8   8
#     4   9  17  29  45  67  93 122 153 187 226 275
#     4  10  20  31  46  69  95 122 155 195 237 277
#     4  11  21  32  47  70  98 126 158 198 241 281
#     4  10  20  35  51  69  91 120 160 202 243 281
#     4  10  20  34  49  69  96 127 164 196 230 284
#     4  10  21  35  52  68  89 127 166 200 238 281
#     4   9  17  29  45  66  94 124 153 188 229 276
#     4   9  17  28  43  66  95 124 154 186 224 276
#
# _framework density 16.154713999999998
#
# number of rings (size 3 to 8) (size 9 to 14) (size 15 to 20)
#    0.000    2.250    2.500    1.875    0.000    6.000 
#    0.000    0.000    0.000    0.000    0.000    0.875 
#    0.000    7.000    0.000    0.000    0.000    0.000 
#
# Total GULP energy -396763.696351 kJ/mol
# GULP energy per Si atom -12398.865511 kJ/mol
# Density = 1.611794 g / cm^3
# Si number density = 16.154714 Si / 1000 Ang^3
#
#
#
# Elastic Constant Matrix: (Units=GPa)
#
#
# Indices 1 2 3 4 5 6 
#
# 1 89.5116 37.4101 50.9576 0.0000 4.3547 0.0000
# 2 37.4101 68.8699 58.2081 0.0000 7.2679 0.0000
# 3 50.9576 58.2081 123.4797 0.0000 18.2969 0.0000
# 4 0.0000 0.0000 0.0000 32.6624 0.0000 1.5115
# 5 4.3547 7.2679 18.2969 0.0000 5.8679 0.0000
# 6 0.0000 0.0000 0.0000 1.5115 0.0000 14.2524
#
#
#
# Elastic Compliance Matrix: (Units=1/GPa)
#
#
# Indices 1 2 3 4 5 6 
#
# 1 0.016204 -0.004766 -0.006568 0.000000 0.014357 0.000000
# 2 -0.004766 0.025883 -0.011168 0.000000 0.006303 0.000000
# 3 -0.006568 -0.011168 0.024726 0.000000 -0.058392 0.000000
# 4 0.000000 0.000000 0.000000 0.030767 0.000000 -0.003263
# 5 0.014357 0.006303 -0.058392 0.000000 0.334031 0.000000
# 6 0.000000 0.000000 0.000000 -0.003263 0.000000 0.070510
#
#
# Mechanical properties :
#
#
# Convention : Reuss Voigt Hill
#
# Bulk Modulus (GPa) = 45.85296 63.89032 54.87164
# Shear Modulus (GPa) = 9.01883 19.57556 14.29720
#
# Velocity S-wave (km/s) = 2.36536 3.48480 2.97815
# Velocity P-wave (km/s) = 5.99209 7.47173 6.77244
#
# Compressibility (1/GPa) = 0.02180884
#
# Stress axis : x y z
#
# Youngs Moduli (GPa) = 61.71266 38.63476 40.44317
#
# Poissons Ratio (x) = 0.18414 0.26562
# Poissons Ratio (y) = 0.29414 0.45169
# Poissons Ratio (z) = 0.40531 0.43149
#
# Static dielectric constant tensor:
#      x y z
#    x 2.922050 0.000000 -0.013810 
#    y 0.000000 3.165240 0.000000 
#    z -0.013810 0.000000 3.360580 
# 
# 
# High freq. dielectric constant tensor:
#      x y z
#    x 1.582060 0.000000 0.001750 
#    y 0.000000 1.627010 0.000000 
#    z 0.001750 0.000000 1.626210 
# 
# From -- ./inp_files/324087.got.cif
#   From: 2010.06.25/outbox.cif.g09.slc.cpg/sg12_163_cif.got.tgz:324087.got - 2010.06.28 00:19:55.
