data_PCOD8094738
_publ_section_title
;
Structure prediction by ZEFSAII (Michael W. Deem and Ramdas Pophale) SiO2 
 PCOD8094738
Probable space group: C 2/M
;
_chemical_formula_sum "Si O2"
_cell_formula_units_Z 56
_cell_length_a 18.475666
_cell_length_b 20.975329
_cell_length_c 13.882445
_cell_angle_alpha 90.000000
_cell_angle_beta 31.365496
_cell_angle_gamma 90.000000
_cell_volume 2800.218000
_symmetry_space_group_name_H-M "C 2/M"
_symmetry_group_IT_number 12
_symmetry_cell_setting 'monoclinic'
loop_
_space_group_symop_operation_xyz
x,y,z
-x,y,-z
-x,-y,-z
x,-y,z
1/2+x,1/2+y,z
1/2-x,1/2+y,-z
1/2-x,1/2-y,-z
1/2+x,1/2-y,z
loop_
_atom_site_type_symbol
_atom_site_label
_atom_site_fract_x
_atom_site_fract_y
_atom_site_fract_z
Si Si1 0.728728 0.695496 0.606911
Si Si2 0.599960 0.188953 0.805865
Si Si3 0.884014 0.371426 0.929887
Si Si4 0.888587 0.500000 0.042594
Si Si5 0.906710 0.806507 0.695742
Si Si6 0.623545 0.627691 0.559143
Si Si7 0.017246 0.334834 0.375819
Si Si8 0.898183 0.000000 0.524922
O O1 0.750000 0.750000 0.500000
O O2 0.621744 0.734568 0.796969
O O3 0.663774 0.633030 0.627627
O O4 0.861799 0.677474 0.516376
O O5 0.521029 0.171921 0.795828
O O6 0.745022 0.151676 0.652822
O O7 0.500000 0.160106 0.000000
O O8 0.891441 0.376305 0.804221
O O9 0.901298 0.440217 0.957084
O O10 0.746391 0.337126 0.127506
O O11 0.749497 0.500000 0.259797
O O12 0.000000 0.500000 0.000000
O O13 0.000000 0.832974 0.500000
O O14 0.990323 0.826838 0.696187
O O15 0.896141 0.730317 0.704918
O O16 0.579431 0.558224 0.573825
O O17 0.000000 0.369410 0.500000
O O18 0.000000 0.000000 0.500000
#
# Coordination Sequence:
#
# PCOD8094738 Si02
#       8
#     8   8   8   4   8   8   8   4
#     4  10  19  39  58  83 122 155 196 254 310 357
#     4  11  20  34  61  88 119 157 197 246 312 371
#     4  12  23  39  59  88 127 161 203 249 305 363
#     4  12  26  40  59  92 123 159 206 255 298 372
#     4  11  21  35  60  91 125 159 192 249 316 368
#     4  11  20  38  57  81 125 162 193 241 300 363
#     4  11  23  40  61  88 122 160 208 259 304 365
#     4  12  24  38  60  92 121 163 202 238 300 374
#
# _framework density 19.998443999999999
#
# number of rings (size 3 to 8) (size 9 to 14) (size 15 to 20)
#    0.000    0.857    5.714    5.571    2.000    0.000 
#    0.000    0.357    0.000    0.000    0.000    0.500 
#    0.000    0.000    0.000    0.000    0.000    0.000 
#
# Total GULP energy -346925.837335 kJ/mol
# GULP energy per Si atom -12390.208476 kJ/mol
# Density = 1.995293 g / cm^3
# Si number density = 19.998444 Si / 1000 Ang^3
#
#
#
# Elastic Constant Matrix: (Units=GPa)
#
#
# Indices 1 2 3 4 5 6 
#
# 1 104.6888 37.1631 19.7239 0.0077 -5.2284 -0.0013
# 2 37.1631 75.2298 18.2970 0.0080 -2.1068 -0.0016
# 3 19.7239 18.2970 52.9980 0.0206 -6.4384 -0.0014
# 4 0.0077 0.0080 0.0206 13.7315 -0.0024 -0.7546
# 5 -5.2284 -2.1068 -6.4384 -0.0024 40.7128 -0.0002
# 6 -0.0013 -0.0016 -0.0014 -0.7546 -0.0002 31.3381
#
#
#
# Elastic Compliance Matrix: (Units=1/GPa)
#
#
# Indices 1 2 3 4 5 6 
#
# 1 0.011937 -0.005259 -0.002522 0.000000 0.000862 0.000000
# 2 -0.005259 0.016828 -0.003904 -0.000001 -0.000422 0.000000
# 3 -0.002522 -0.003904 0.021504 -0.000028 0.002875 0.000000
# 4 0.000000 -0.000001 -0.000028 0.072922 0.000000 0.001756
# 5 0.000862 -0.000422 0.002875 0.000000 0.025106 0.000000
# 6 0.000000 0.000000 0.000000 0.001756 0.000000 0.031952
#
#
# Mechanical properties :
#
#
# Convention : Reuss Voigt Hill
#
# Bulk Modulus (GPa) = 37.17554 42.58716 39.88135
# Shear Modulus (GPa) = 23.51980 27.67198 25.59589
#
# Velocity S-wave (km/s) = 3.43312 3.72386 3.58144
# Velocity P-wave (km/s) = 5.86044 6.31118 6.08998
#
# Compressibility (1/GPa) = 0.02689941
#
# Stress axis : x y z
#
# Youngs Moduli (GPa) = 83.77045 59.42357 46.50240
#
# Poissons Ratio (x) = 0.31253 0.11729
# Poissons Ratio (y) = 0.44058 0.18153
# Poissons Ratio (z) = 0.21128 0.23197
#
# Static dielectric constant tensor:
#      x y z
#    x 3.996640 -0.000010 0.144010 
#    y -0.000010 3.666150 -0.000010 
#    z 0.144010 -0.000010 4.002090 
# 
# 
# High freq. dielectric constant tensor:
#      x y z
#    x 1.792740 0.000000 -0.013710 
#    y 0.000000 1.744420 0.000000 
#    z -0.013710 0.000000 1.776940 
# 
# From -- ./inp_files/227606.got.cif
#   From: 2010.06.25/outbox.cif.g09.slc.cpg/sg12_114_cif.got.tgz:227606.got - 2010.06.28 00:19:55.
