data_PCOD8094949
_publ_section_title
;
Structure prediction by ZEFSAII (Michael W. Deem and Ramdas Pophale) SiO2 
 PCOD8094949
Probable space group: C 2/M
;
_chemical_formula_sum "Si O2"
_cell_formula_units_Z 48
_cell_length_a 24.547164
_cell_length_b 9.496016
_cell_length_c 21.548426
_cell_angle_alpha 90.000000
_cell_angle_beta 37.458143
_cell_angle_gamma 90.000000
_cell_volume 3054.862409
_symmetry_space_group_name_H-M "C 2/M"
_symmetry_group_IT_number 12
_symmetry_cell_setting 'monoclinic'
loop_
_space_group_symop_operation_xyz
x,y,z
-x,y,-z
-x,-y,-z
x,-y,z
1/2+x,1/2+y,z
1/2-x,1/2+y,-z
1/2-x,1/2-y,-z
1/2+x,1/2-y,z
loop_
_atom_site_type_symbol
_atom_site_label
_atom_site_fract_x
_atom_site_fract_y
_atom_site_fract_z
Si Si1 0.054321 0.838446 0.648367
Si Si2 0.637996 0.338063 0.149514
Si Si3 0.891027 0.841249 0.260668
Si Si4 0.666420 0.162425 0.003519
Si Si5 0.789917 0.337165 0.520381
Si Si6 0.993979 0.664977 0.935574
O O1 0.071075 0.804114 0.705602
O O2 0.114484 0.736232 0.550226
O O3 0.949332 0.807648 0.729038
O O4 0.080122 0.000000 0.610420
O O5 0.637270 0.500000 0.128892
O O6 0.728975 0.302056 0.105284
O O7 0.631073 0.248880 0.093562
O O8 0.782224 0.826385 0.358604
O O9 0.930367 0.737171 0.174280
O O10 0.918843 0.000000 0.217860
O O11 0.654916 0.000000 0.031851
O O12 0.605915 0.200558 0.998827
O O13 0.805063 0.500000 0.487943
O O14 0.750000 0.250000 0.500000
O O15 0.014416 0.500000 0.914924
O O16 0.000000 0.723186 0.000000
#
# Coordination Sequence:
#
# PCOD8094949 Si02
#       6
#     8   8   8   8   8   8
#     4   9  16  26  41  63  88 112 137 170 213 258
#     4   9  16  27  43  62  87 113 139 174 213 257
#     4   9  17  29  42  59  84 113 142 175 211 250
#     4   9  17  28  42  61  84 114 145 174 214 255
#     4   9  17  27  40  60  86 113 140 171 209 257
#     4  10  20  31  43  62  87 115 148 181 211 247
#
# _framework density 15.712656000000001
#
# number of rings (size 3 to 8) (size 9 to 14) (size 15 to 20)
#    0.000    2.833    1.667    1.500    0.000    4.333 
#    0.000    0.000    0.000    0.000    0.000    1.167 
#    0.000    9.333    0.000    0.000    0.000    0.000 
#
# Total GULP energy -297414.280517 kJ/mol
# GULP energy per Si atom -12392.261688 kJ/mol
# Density = 1.567689 g / cm^3
# Si number density = 15.712656 Si / 1000 Ang^3
#
#
#
# Elastic Constant Matrix: (Units=GPa)
#
#
# Indices 1 2 3 4 5 6 
#
# 1 73.0289 32.3753 44.9900 -0.0001 -13.6206 0.0004
# 2 32.3753 65.9185 48.5639 0.0037 -11.2822 -0.0038
# 3 44.9900 48.5639 97.7107 0.0006 -25.1435 -0.0008
# 4 -0.0001 0.0037 0.0006 31.2164 -0.0006 -3.7012
# 5 -13.6206 -11.2822 -25.1435 -0.0006 24.4638 0.0007
# 6 0.0004 -0.0038 -0.0008 -3.7012 0.0007 13.1737
#
#
#
# Elastic Compliance Matrix: (Units=1/GPa)
#
#
# Indices 1 2 3 4 5 6 
#
# 1 0.020157 -0.004908 -0.006168 0.000001 0.002620 -0.000002
# 2 -0.004908 0.025176 -0.010834 -0.000002 -0.002257 0.000006
# 3 -0.006168 -0.010834 0.022147 0.000001 0.014332 -0.000002
# 4 0.000001 -0.000002 0.000001 0.033138 0.000001 0.009310
# 5 0.002620 -0.002257 0.014332 0.000001 0.056025 -0.000003
# 6 -0.000002 0.000006 -0.000002 0.009310 -0.000003 0.078524
#
#
# Mechanical properties :
#
#
# Convention : Reuss Voigt Hill
#
# Bulk Modulus (GPa) = 42.26297 54.27964 48.27131
# Shear Modulus (GPa) = 17.42928 21.15270 19.29099
#
# Velocity S-wave (km/s) = 3.33416 3.67307 3.50771
# Velocity P-wave (km/s) = 6.46358 7.25319 6.86974
#
# Compressibility (1/GPa) = 0.02366137
#
# Stress axis : x y z
#
# Youngs Moduli (GPa) = 49.60975 39.72036 45.15334
#
# Poissons Ratio (x) = 0.19493 0.27850
# Poissons Ratio (y) = 0.24347 0.48919
# Poissons Ratio (z) = 0.30598 0.43033
#
# Static dielectric constant tensor:
#      x y z
#    x 2.906600 0.000000 -0.519740 
#    y 0.000000 3.124480 0.000000 
#    z -0.519740 0.000000 3.301070 
# 
# 
# High freq. dielectric constant tensor:
#      x y z
#    x 1.557980 0.000000 -0.041690 
#    y 0.000000 1.610610 0.000000 
#    z -0.041690 0.000000 1.597540 
# 
# From -- ./inp_files/291383.got.cif
#   From: 2010.06.25/outbox.cif.g09.slc.cpg/sg12_146_cif.got.tgz:291383.got - 2010.06.28 00:19:55.
