data_PCOD8094806
_publ_section_title
;
Structure prediction by ZEFSAII (Michael W. Deem and Ramdas Pophale) SiO2 
 PCOD8094806
Probable space group: C 2/M
;
_chemical_formula_sum "Si O2"
_cell_formula_units_Z 64
_cell_length_a 23.230027
_cell_length_b 21.157238
_cell_length_c 17.805240
_cell_angle_alpha 90.000000
_cell_angle_beta 160.491981
_cell_angle_gamma 90.000000
_cell_volume 2922.290473
_symmetry_space_group_name_H-M "C 2/M"
_symmetry_group_IT_number 12
_symmetry_cell_setting 'monoclinic'
loop_
_space_group_symop_operation_xyz
x,y,z
-x,y,-z
-x,-y,-z
x,-y,z
1/2+x,1/2+y,z
1/2-x,1/2+y,-z
1/2-x,1/2-y,-z
1/2+x,1/2-y,z
loop_
_atom_site_type_symbol
_atom_site_label
_atom_site_fract_x
_atom_site_fract_y
_atom_site_fract_z
Si Si1 0.274801 0.928872 0.152274
Si Si2 0.733847 0.657686 0.408806
Si Si3 0.996942 0.255470 0.190018
Si Si4 0.588598 0.928574 0.033544
Si Si5 0.552237 0.647573 0.762559
Si Si6 0.321500 0.329599 0.243976
Si Si7 0.175688 0.572873 0.617626
Si Si8 0.271185 0.429533 0.471039
O O1 0.241909 0.913180 0.199622
O O2 0.472327 0.919903 0.373126
O O3 0.216789 0.000000 0.064243
O O4 0.164454 0.883671 0.965381
O O5 0.907310 0.680666 0.665450
O O6 0.599849 0.716281 0.251791
O O7 0.756529 0.629238 0.353421
O O8 0.664269 0.597880 0.370205
O O9 0.978023 0.218542 0.245614
O O10 0.814609 0.272355 0.927252
O O11 0.748841 0.886513 0.205097
O O12 0.657635 0.000000 0.131686
O O13 0.500000 0.901997 0.000000
O O14 0.435888 0.927040 0.784957
O O15 0.649898 0.645046 0.804464
O O16 0.367771 0.611941 0.525579
O O17 0.500000 0.304758 0.500000
O O18 0.220457 0.500000 0.647083
O O19 0.340217 0.500000 0.547132
#
# Coordination Sequence:
#
# PCOD8094806 Si02
#       8
#     8   8   8   8   8   8   8   8
#     4   9  19  36  61  95 137 171 208 267 333 394
#     4  10  19  39  68  89 128 170 220 269 318 387
#     4  10  23  42  62  90 128 174 220 271 319 371
#     4  10  22  41  64  92 128 162 203 266 326 380
#     4  11  23  41  64  92 130 172 216 266 319 385
#     4  12  25  44  67  95 126 170 221 268 318 385
#     4   9  18  35  62  99 133 168 212 267 333 398
#     4  10  20  36  63  95 125 164 208 258 327 383
#
# _framework density 21.900628999999999
#
# number of rings (size 3 to 8) (size 9 to 14) (size 15 to 20)
#    0.000    1.875    1.250    3.375    0.000    1.250 
#    4.500    2.500    0.000    6.750    0.000    0.000 
#    0.000    0.000    0.000    0.000    0.000    0.000 
#
# Total GULP energy -396620.002456 kJ/mol
# GULP energy per Si atom -12394.375077 kJ/mol
# Density = 2.185078 g / cm^3
# Si number density = 21.900629 Si / 1000 Ang^3
#
#
#
# Elastic Constant Matrix: (Units=GPa)
#
#
# Indices 1 2 3 4 5 6 
#
# 1 140.1740 57.8195 28.6437 0.0000 2.7140 0.0000
# 2 57.8195 106.9435 36.7394 0.0000 1.6627 0.0000
# 3 28.6437 36.7394 106.2504 -0.0001 3.9874 -0.0001
# 4 0.0000 0.0000 -0.0001 28.9197 -0.0001 3.5460
# 5 2.7140 1.6627 3.9874 -0.0001 26.4981 0.0000
# 6 0.0000 0.0000 -0.0001 3.5460 0.0000 37.5221
#
#
#
# Elastic Compliance Matrix: (Units=1/GPa)
#
#
# Indices 1 2 3 4 5 6 
#
# 1 0.009259 -0.004706 -0.000849 0.000000 -0.000525 0.000000
# 2 -0.004706 0.013003 -0.003233 0.000000 0.000153 0.000000
# 3 -0.000849 -0.003233 0.010809 0.000000 -0.001337 0.000000
# 4 0.000000 0.000000 0.000000 0.034984 0.000000 -0.003306
# 5 -0.000525 0.000153 -0.001337 0.000000 0.037984 0.000000
# 6 0.000000 0.000000 0.000000 -0.003306 0.000000 0.026963
#
#
# Mechanical properties :
#
#
# Convention : Reuss Voigt Hill
#
# Bulk Modulus (GPa) = 64.54043 66.64147 65.59095
# Shear Modulus (GPa) = 32.10398 33.93234 33.01816
#
# Velocity S-wave (km/s) = 3.83285 3.94048 3.88704
# Velocity P-wave (km/s) = 7.00866 7.15530 7.08236
#
# Compressibility (1/GPa) = 0.01549416
#
# Stress axis : x y z
#
# Youngs Moduli (GPa) = 108.00547 76.90264 92.51672
#
# Poissons Ratio (x) = 0.36190 0.07856
# Poissons Ratio (y) = 0.50827 0.29915
# Poissons Ratio (z) = 0.09171 0.24866
#
# Static dielectric constant tensor:
#      x y z
#    x 3.911400 0.000000 0.201990 
#    y 0.000000 3.980130 0.000000 
#    z 0.201990 0.000000 4.012760 
# 
# 
# High freq. dielectric constant tensor:
#      x y z
#    x 1.854610 0.000000 0.009560 
#    y 0.000000 1.861970 0.000000 
#    z 0.009560 0.000000 1.861170 
# 
# From -- ./inp_files/290969.got.cif
#   From: 2010.06.25/outbox.cif.g09.slc.cpg/sg12_146_cif.got.tgz:290969.got - 2010.06.28 00:19:55.
