data_PCOD8094089
_publ_section_title
;
Structure prediction by ZEFSAII (Michael W. Deem and Ramdas Pophale) SiO2 
 PCOD8094089
Probable space group: C 2/M
;
_chemical_formula_sum "Si O2"
_cell_formula_units_Z 48
_cell_length_a 14.141281
_cell_length_b 20.162530
_cell_length_c 15.627079
_cell_angle_alpha 90.000000
_cell_angle_beta 145.865548
_cell_angle_gamma 90.000000
_cell_volume 2500.232192
_symmetry_space_group_name_H-M "C 2/M"
_symmetry_group_IT_number 12
_symmetry_cell_setting 'monoclinic'
loop_
_space_group_symop_operation_xyz
x,y,z
-x,y,-z
-x,-y,-z
x,-y,z
1/2+x,1/2+y,z
1/2-x,1/2+y,-z
1/2-x,1/2-y,-z
1/2+x,1/2-y,z
loop_
_atom_site_type_symbol
_atom_site_label
_atom_site_fract_x
_atom_site_fract_y
_atom_site_fract_z
Si Si1 0.821953 0.426924 0.909167
Si Si2 0.199241 0.695311 0.661846
Si Si3 0.299671 0.149927 0.065358
Si Si4 0.009852 0.776019 0.242594
Si Si5 0.601947 0.320118 0.664111
Si Si6 0.301387 0.574080 0.846272
O O1 0.742353 0.500000 0.865119
O O2 0.704008 0.387026 0.755726
O O3 0.847907 0.389360 0.017016
O O4 0.000000 0.435148 0.000000
O O5 0.302060 0.713742 0.653117
O O6 0.229253 0.756334 0.751288
O O7 0.254833 0.623781 0.735556
O O8 0.000000 0.693568 0.500000
O O9 0.453540 0.199231 0.203458
O O10 0.281989 0.097853 0.128409
O O11 0.122779 0.187568 0.919440
O O12 0.016868 0.807006 0.342840
O O13 0.500000 0.329367 0.500000
O O14 0.233153 0.500000 0.774567
O O15 0.500000 0.572536 0.000000
#
# Coordination Sequence:
#
# PCOD8094089 Si02
#       6
#     8   8   8   8   8   8
#     4  10  21  37  58  86 118 152 192 243 299 354
#     4  11  23  39  58  88 124 158 198 249 302 364
#     4  10  19  36  63  90 115 150 198 254 293 356
#     4  10  20  36  61  90 117 151 200 245 303 349
#     4  10  22  38  58  84 115 156 198 244 289 354
#     4  11  22  38  62  89 120 156 202 252 304 365
#
# _framework density 19.198217
#
# number of rings (size 3 to 8) (size 9 to 14) (size 15 to 20)
#    0.000    1.667    3.333    1.500    0.000    4.000 
#    3.000    0.000    0.000    0.000    0.000    0.000 
#    0.000    0.000    0.000    0.000    0.000    0.000 
#
# Total GULP energy -297538.434359 kJ/mol
# GULP energy per Si atom -12397.434765 kJ/mol
# Density = 1.915452 g / cm^3
# Si number density = 19.198217 Si / 1000 Ang^3
#
#
#
# Elastic Constant Matrix: (Units=GPa)
#
#
# Indices 1 2 3 4 5 6 
#
# 1 116.2658 37.8006 41.9882 0.0000 7.3321 0.0003
# 2 37.8006 150.8207 48.4831 0.0007 1.4140 0.0002
# 3 41.9882 48.4831 78.5384 0.0001 -0.6764 -0.0002
# 4 0.0000 0.0007 0.0001 28.3967 -0.0004 -4.9561
# 5 7.3321 1.4140 -0.6764 -0.0004 30.8385 0.0000
# 6 0.0003 0.0002 -0.0002 -4.9561 0.0000 33.0637
#
#
#
# Elastic Compliance Matrix: (Units=1/GPa)
#
#
# Indices 1 2 3 4 5 6 
#
# 1 0.011011 -0.001041 -0.005267 0.000000 -0.002686 0.000000
# 2 -0.001041 0.008378 -0.004617 0.000000 -0.000238 0.000000
# 3 -0.005267 -0.004617 0.018415 0.000000 0.001868 0.000000
# 4 0.000000 0.000000 0.000000 0.036161 0.000000 0.005420
# 5 -0.002686 -0.000238 0.001868 0.000000 0.033117 0.000000
# 6 0.000000 0.000000 0.000000 0.005420 0.000000 0.031057
#
#
# Mechanical properties :
#
#
# Convention : Reuss Voigt Hill
#
# Bulk Modulus (GPa) = 62.68529 66.90764 64.79646
# Shear Modulus (GPa) = 30.24656 32.94999 31.59827
#
# Velocity S-wave (km/s) = 3.97355 4.14733 4.06137
# Velocity P-wave (km/s) = 7.33312 7.60660 7.47111
#
# Compressibility (1/GPa) = 0.01595271
#
# Stress axis : x y z
#
# Youngs Moduli (GPa) = 90.81789 119.36239 54.30433
#
# Poissons Ratio (x) = 0.12431 0.28602
# Poissons Ratio (y) = 0.09458 0.25073
# Poissons Ratio (z) = 0.47833 0.55111
#
# Static dielectric constant tensor:
#      x y z
#    x 3.604450 -0.000010 -0.020050 
#    y -0.000010 4.213040 0.000000 
#    z -0.020050 0.000000 3.244610 
# 
# 
# High freq. dielectric constant tensor:
#      x y z
#    x 1.761150 0.000000 -0.003120 
#    y 0.000000 1.757320 0.000000 
#    z -0.003120 0.000000 1.720940 
# 
# From -- ./inp_files/89740.got.cif
#   From: 2010.06.25/outbox.cif.g09.slc.cpg/sg12_45_cif.got.tgz:89740.got - 2010.06.28 00:19:55.
