data_PCOD8094828
_publ_section_title
;
Structure prediction by ZEFSAII (Michael W. Deem and Ramdas Pophale) SiO2 
 PCOD8094828
Probable space group: C 2/M
;
_chemical_formula_sum "Si O2"
_cell_formula_units_Z 52
_cell_length_a 23.611076
_cell_length_b 14.042755
_cell_length_c 7.643524
_cell_angle_alpha 90.000000
_cell_angle_beta 81.492542
_cell_angle_gamma 90.000000
_cell_volume 2506.435522
_symmetry_space_group_name_H-M "C 2/M"
_symmetry_group_IT_number 12
_symmetry_cell_setting 'monoclinic'
loop_
_space_group_symop_operation_xyz
x,y,z
-x,y,-z
-x,-y,-z
x,-y,z
1/2+x,1/2+y,z
1/2-x,1/2+y,-z
1/2-x,1/2-y,-z
1/2+x,1/2-y,z
loop_
_atom_site_type_symbol
_atom_site_label
_atom_site_fract_x
_atom_site_fract_y
_atom_site_fract_z
Si Si1 0.156265 0.109131 0.199052
Si Si2 0.546584 0.703948 0.116135
Si Si3 0.199313 0.271472 0.397260
Si Si4 0.727370 0.893229 0.062705
Si Si5 0.102887 0.603648 0.066272
Si Si6 0.600566 0.105038 0.483998
Si Si7 0.000000 0.265218 0.500000
O O1 0.103916 0.139467 0.094946
O O2 0.160263 0.179156 0.364902
O O3 0.147170 0.000000 0.263702
O O4 0.216779 0.122843 0.077382
O O5 0.562149 0.808964 0.030772
O O6 0.523519 0.702617 0.327447
O O7 0.500000 0.661220 0.000000
O O8 0.250000 0.250000 0.500000
O O9 0.228664 0.316416 0.214308
O O10 0.158596 0.344586 0.521450
O O11 0.668830 0.879553 0.975042
O O12 0.727382 0.000000 0.142739
O O13 0.080514 0.500000 0.006540
O O14 0.104018 0.602029 0.274500
O O15 0.546768 0.166763 0.569768
O O16 0.595521 0.000000 0.569762
#
# Coordination Sequence:
#
# PCOD8094828 Si02
#       7
#     8   8   8   8   8   8   4
#     4  11  23  41  59  85 122 160 205 254 294 353
#     4  11  23  39  63  85 120 164 210 252 299 359
#     4  11  21  35  61  89 123 156 192 242 308 371
#     4   9  18  36  63  85 113 153 191 237 307 367
#     4   8  15  32  57  86 114 145 187 241 304 368
#     4   9  17  33  58  83 115 153 191 241 303 365
#     4  10  19  40  61  88 118 156 201 250 311 354
#
# _framework density 20.746593000000001
#
# number of rings (size 3 to 8) (size 9 to 14) (size 15 to 20)
#    0.000    2.154    4.615    2.077    0.000    3.692 
#    0.000    0.385    0.000    0.000    0.000    0.000 
#    0.000    0.000    0.000    0.000    0.000    0.000 
#
# Total GULP energy -322199.190160 kJ/mol
# GULP energy per Si atom -12392.276545 kJ/mol
# Density = 2.069937 g / cm^3
# Si number density = 20.746593 Si / 1000 Ang^3
#
#
#
# Elastic Constant Matrix: (Units=GPa)
#
#
# Indices 1 2 3 4 5 6 
#
# 1 99.3121 13.3863 19.2421 0.0000 5.2279 0.0000
# 2 13.3863 86.6650 16.0259 0.0000 7.3226 0.0000
# 3 19.2421 16.0259 37.4252 0.0000 0.5629 0.0000
# 4 0.0000 0.0000 0.0000 8.3964 0.0000 -5.2438
# 5 5.2279 7.3226 0.5629 0.0000 35.1754 0.0000
# 6 0.0000 0.0000 0.0000 -5.2438 0.0000 31.0515
#
#
#
# Elastic Compliance Matrix: (Units=1/GPa)
#
#
# Indices 1 2 3 4 5 6 
#
# 1 0.011299 -0.000599 -0.005531 0.000000 -0.001466 0.000000
# 2 -0.000599 0.012791 -0.005132 0.000000 -0.002492 0.000000
# 3 -0.005531 -0.005132 0.031740 0.000000 0.001382 0.000000
# 4 0.000000 0.000000 0.000000 0.133141 0.000000 0.022484
# 5 -0.001466 -0.002492 0.001382 0.000000 0.029143 0.000000
# 6 0.000000 0.000000 0.000000 0.022484 0.000000 0.036002
#
#
# Mechanical properties :
#
#
# Convention : Reuss Voigt Hill
#
# Bulk Modulus (GPa) = 30.02358 35.63453 32.82906
# Shear Modulus (GPa) = 17.37680 26.57453 21.97566
#
# Velocity S-wave (km/s) = 2.89723 3.58286 3.25813
# Velocity P-wave (km/s) = 5.06901 5.85912 5.47833
#
# Compressibility (1/GPa) = 0.03330715
#
# Stress axis : x y z
#
# Youngs Moduli (GPa) = 88.50539 78.18218 31.50567
#
# Poissons Ratio (x) = 0.04680 0.17425
# Poissons Ratio (y) = 0.05298 0.16168
# Poissons Ratio (z) = 0.48951 0.40122
#
# Static dielectric constant tensor:
#      x y z
#    x 3.871270 0.000000 -0.005210 
#    y 0.000000 4.098650 0.000000 
#    z -0.005210 0.000000 2.530750 
# 
# 
# High freq. dielectric constant tensor:
#      x y z
#    x 1.825010 0.000000 -0.018780 
#    y 0.000000 1.812030 0.000000 
#    z -0.018780 0.000000 1.764120 
# 
# From -- ./inp_files/95733.got.cif
#   From: 2010.06.25/outbox.cif.g09.slc.cpg/sg12_48_cif.got.tgz:95733.got - 2010.06.28 00:19:55.
