data_PCOD8094398
_publ_section_title
;
Structure prediction by ZEFSAII (Michael W. Deem and Ramdas Pophale) SiO2 
 PCOD8094398
Probable space group: C 2/M
;
_chemical_formula_sum "Si O2"
_cell_formula_units_Z 56
_cell_length_a 25.720214
_cell_length_b 16.928365
_cell_length_c 20.246051
_cell_angle_alpha 90.000000
_cell_angle_beta 160.355773
_cell_angle_gamma 90.000000
_cell_volume 2963.466675
_symmetry_space_group_name_H-M "C 2/M"
_symmetry_group_IT_number 12
_symmetry_cell_setting 'monoclinic'
loop_
_space_group_symop_operation_xyz
x,y,z
-x,y,-z
-x,-y,-z
x,-y,z
1/2+x,1/2+y,z
1/2-x,1/2+y,-z
1/2-x,1/2-y,-z
1/2+x,1/2-y,z
loop_
_atom_site_type_symbol
_atom_site_label
_atom_site_fract_x
_atom_site_fract_y
_atom_site_fract_z
Si Si1 0.170051 0.320841 0.194997
Si Si2 0.588763 0.407232 0.430481
Si Si3 0.664615 0.088921 0.664683
Si Si4 0.392444 0.266763 0.215938
Si Si5 0.634550 0.679064 0.350686
Si Si6 0.799110 0.325780 0.420930
Si Si7 0.809075 0.227312 0.907953
O O1 0.286728 0.386087 0.363631
O O2 0.184966 0.239251 0.253010
O O3 0.192621 0.301418 0.144412
O O4 0.000000 0.356461 0.000000
O O5 0.554652 0.500000 0.390794
O O6 0.431788 0.360153 0.260718
O O7 0.641701 0.381853 0.420075
O O8 0.500000 0.106117 0.500000
O O9 0.657799 0.104804 0.578146
O O10 0.792054 0.144625 0.849786
O O11 0.718607 0.000000 0.742155
O O12 0.542062 0.218913 0.368872
O O13 0.343738 0.241645 0.230982
O O14 0.250000 0.250000 0.000000
O O15 0.750000 0.750000 0.500000
O O16 0.705294 0.636133 0.370084
O O17 0.464553 0.717252 0.136951
#
# Coordination Sequence:
#
# PCOD8094398 Si02
#       7
#     8   8   8   8   8   8   8
#     4  10  19  37  62  88 120 159 206 246 296 370
#     4  11  25  39  60  94 130 159 197 260 318 354
#     4  10  21  36  55  87 127 157 193 251 315 360
#     4  11  20  39  62  88 116 160 211 246 295 369
#     4  12  20  39  63  89 120 158 213 250 297 361
#     4  10  20  34  59  88 117 155 206 252 290 361
#     4  11  21  36  65  91 109 163 216 248 291 367
#
# _framework density 18.896787
#
# number of rings (size 3 to 8) (size 9 to 14) (size 15 to 20)
#    0.000    1.286    7.143    0.000    0.000    1.429 
#    0.000    2.857    0.000    4.286    0.000    0.000 
#    0.000    0.000    0.000    0.000    0.000    0.000 
#
# Total GULP energy -347099.540019 kJ/mol
# GULP energy per Si atom -12396.412144 kJ/mol
# Density = 1.885378 g / cm^3
# Si number density = 18.896787 Si / 1000 Ang^3
#
#
#
# Elastic Constant Matrix: (Units=GPa)
#
#
# Indices 1 2 3 4 5 6 
#
# 1 99.6691 32.4202 22.1187 -0.0057 9.4653 -0.0028
# 2 32.4202 106.5334 44.3855 -0.0097 -1.1284 -0.0054
# 3 22.1187 44.3855 113.3224 -0.0054 -0.6762 -0.0020
# 4 -0.0057 -0.0097 -0.0054 14.6985 -0.0046 -1.0351
# 5 9.4653 -1.1284 -0.6762 -0.0046 30.3282 -0.0028
# 6 -0.0028 -0.0054 -0.0020 -1.0351 -0.0028 22.7618
#
#
#
# Elastic Compliance Matrix: (Units=1/GPa)
#
#
# Indices 1 2 3 4 5 6 
#
# 1 0.011650 -0.003141 -0.001066 0.000001 -0.003777 0.000000
# 2 -0.003141 0.012067 -0.004105 0.000006 0.001338 0.000003
# 3 -0.001066 -0.004105 0.010643 0.000001 0.000417 0.000000
# 4 0.000001 0.000006 0.000001 0.068253 0.000011 0.003104
# 5 -0.003777 0.001338 0.000417 0.000011 0.034210 0.000005
# 6 0.000000 0.000003 0.000000 0.003104 0.000005 0.044074
#
#
# Mechanical properties :
#
#
# Convention : Reuss Voigt Hill
#
# Bulk Modulus (GPa) = 56.38556 57.48595 56.93575
# Shear Modulus (GPa) = 24.57789 28.26440 26.42115
#
# Velocity S-wave (km/s) = 3.61035 3.87166 3.74328
# Velocity P-wave (km/s) = 6.87626 7.10446 6.99129
#
# Compressibility (1/GPa) = 0.01773504
#
# Stress axis : x y z
#
# Youngs Moduli (GPa) = 85.83526 82.86893 93.95911
#
# Poissons Ratio (x) = 0.26031 0.10017
# Poissons Ratio (y) = 0.26963 0.38573
# Poissons Ratio (z) = 0.09151 0.34021
#
# Static dielectric constant tensor:
#      x y z
#    x 4.715940 0.000020 0.028210 
#    y 0.000020 3.151380 -0.000010 
#    z 0.028210 -0.000010 3.509620 
# 
# 
# High freq. dielectric constant tensor:
#      x y z
#    x 1.753090 0.000000 -0.001960 
#    y 0.000000 1.694710 0.000000 
#    z -0.001960 0.000000 1.741680 
# 
# From -- ./inp_files/328576.got.cif
#   From: 2010.06.25/outbox.cif.g09.slc.cpg/sg12_165_cif.got.tgz:328576.got - 2010.06.28 00:19:55.
