data_PCOD8094160
_publ_section_title
;
Structure prediction by ZEFSAII (Michael W. Deem and Ramdas Pophale) SiO2 
 PCOD8094160
Probable space group: C 2/M
;
_chemical_formula_sum "Si O2"
_cell_formula_units_Z 44
_cell_length_a 19.001296
_cell_length_b 13.136293
_cell_length_c 12.652252
_cell_angle_alpha 90.000000
_cell_angle_beta 137.219996
_cell_angle_gamma 90.000000
_cell_volume 2144.924912
_symmetry_space_group_name_H-M "C 2/M"
_symmetry_group_IT_number 12
_symmetry_cell_setting 'monoclinic'
loop_
_space_group_symop_operation_xyz
x,y,z
-x,y,-z
-x,-y,-z
x,-y,z
1/2+x,1/2+y,z
1/2-x,1/2+y,-z
1/2-x,1/2-y,-z
1/2+x,1/2-y,z
loop_
_atom_site_type_symbol
_atom_site_label
_atom_site_fract_x
_atom_site_fract_y
_atom_site_fract_z
Si Si1 0.571550 0.616350 0.680132
Si Si2 0.530972 0.780531 0.805850
Si Si3 0.208715 0.692499 0.154428
Si Si4 0.234209 0.000000 0.457375
Si Si5 0.673790 0.709688 0.327610
Si Si6 0.148556 0.500000 0.208165
Si Si7 0.533761 0.000000 0.283062
O O1 0.500000 0.615330 0.500000
O O2 0.582126 0.500000 0.735547
O O3 0.518859 0.692374 0.705553
O O4 0.682217 0.662010 0.773245
O O5 0.435332 0.767988 0.781755
O O6 0.526580 0.895753 0.751045
O O7 0.638979 0.760934 0.984265
O O8 0.221137 0.773189 0.263236
O O9 0.148266 0.596060 0.132563
O O10 0.163654 0.909250 0.337039
O O11 0.248144 0.000000 0.601146
O O12 0.351126 0.000000 0.536734
O O13 0.750000 0.750000 0.500000
O O14 0.954234 0.500000 0.832157
#
# Coordination Sequence:
#
# PCOD8094160 Si02
#       7
#     8   8   8   4   8   4   4
#     4  11  27  45  69  92 126 173 220 263 318 385
#     4  12  25  41  64  99 132 165 215 266 326 376
#     4  12  23  42  65  96 128 168 212 268 318 376
#     4  10  22  36  60 100 132 166 210 264 318 372
#     4  12  21  39  66  95 135 163 215 265 315 380
#     4  10  19  36  70  93 124 158 218 268 312 359
#     4  10  21  38  68  97 128 164 212 274 316 367
#
# _framework density 20.513539000000002
#
# number of rings (size 3 to 8) (size 9 to 14) (size 15 to 20)
#    0.545    0.182    6.364    2.727    1.273    0.727 
#    1.636    2.273    0.000    0.000    0.000    0.000 
#    0.000    0.000    0.000    0.000    0.000    0.000 
#
# Total GULP energy -272763.264959 kJ/mol
# GULP energy per Si atom -12398.330225 kJ/mol
# Density = 2.046685 g / cm^3
# Si number density = 20.513539 Si / 1000 Ang^3
#
#
#
# Elastic Constant Matrix: (Units=GPa)
#
#
# Indices 1 2 3 4 5 6 
#
# 1 65.2943 25.1471 10.8534 0.0000 6.6944 0.0000
# 2 25.1471 138.1234 25.5126 0.0000 -10.5295 0.0000
# 3 10.8534 25.5126 78.4704 0.0000 11.5663 0.0000
# 4 0.0000 0.0000 0.0000 29.0832 0.0000 -2.0649
# 5 6.6944 -10.5295 11.5663 0.0000 32.4199 0.0000
# 6 0.0000 0.0000 0.0000 -2.0649 0.0000 29.2293
#
#
#
# Elastic Compliance Matrix: (Units=1/GPa)
#
#
# Indices 1 2 3 4 5 6 
#
# 1 0.017160 -0.003342 -0.000638 0.000000 -0.004401 0.000000
# 2 -0.003342 0.008769 -0.003072 0.000000 0.004634 0.000000
# 3 -0.000638 -0.003072 0.014733 0.000000 -0.006122 0.000000
# 4 0.000000 0.000000 0.000000 0.034557 0.000000 0.002441
# 5 -0.004401 0.004634 -0.006122 0.000000 0.035443 0.000000
# 6 0.000000 0.000000 0.000000 0.002441 0.000000 0.034385
#
#
# Mechanical properties :
#
#
# Convention : Reuss Voigt Hill
#
# Bulk Modulus (GPa) = 37.65341 44.99048 41.32194
# Shear Modulus (GPa) = 29.76134 32.83815 31.29975
#
# Velocity S-wave (km/s) = 3.81309 4.00535 3.91040
# Velocity P-wave (km/s) = 6.14666 6.58560 6.36991
#
# Compressibility (1/GPa) = 0.02655802
#
# Stress axis : x y z
#
# Youngs Moduli (GPa) = 58.27650 114.03864 67.87462
#
# Poissons Ratio (x) = 0.38109 0.04332
# Poissons Ratio (y) = 0.19474 0.20850
# Poissons Ratio (z) = 0.03719 0.35031
#
# Static dielectric constant tensor:
#      x y z
#    x 3.357910 0.000000 -0.196120 
#    y 0.000000 2.633720 0.000000 
#    z -0.196120 0.000000 3.288940 
# 
# 
# High freq. dielectric constant tensor:
#      x y z
#    x 1.779320 0.000000 0.012460 
#    y 0.000000 1.814280 0.000000 
#    z 0.012460 0.000000 1.796560 
# 
# From -- ./inp_files/167442.got.cif
#   From: 2010.06.25/outbox.cif.g09.slc.cpg/sg12_84_cif.got.tgz:167442.got - 2010.06.28 00:19:55.
