data_PCOD8094923
_publ_section_title
;
Structure prediction by ZEFSAII (Michael W. Deem and Ramdas Pophale) SiO2 
 PCOD8094923
Probable space group: C 2/M
;
_chemical_formula_sum "Si O2"
_cell_formula_units_Z 48
_cell_length_a 20.128997
_cell_length_b 9.336361
_cell_length_c 13.806537
_cell_angle_alpha 90.000000
_cell_angle_beta 89.856072
_cell_angle_gamma 90.000000
_cell_volume 2594.676162
_symmetry_space_group_name_H-M "C 2/M"
_symmetry_group_IT_number 12
_symmetry_cell_setting 'monoclinic'
loop_
_space_group_symop_operation_xyz
x,y,z
-x,y,-z
-x,-y,-z
x,-y,z
1/2+x,1/2+y,z
1/2-x,1/2+y,-z
1/2-x,1/2-y,-z
1/2+x,1/2-y,z
loop_
_atom_site_type_symbol
_atom_site_label
_atom_site_fract_x
_atom_site_fract_y
_atom_site_fract_z
Si Si1 0.373346 0.670081 0.138863
Si Si2 0.863632 0.830043 0.920091
Si Si3 0.701343 0.666324 0.430397
Si Si4 0.448338 0.329431 0.579127
Si Si5 0.246728 0.333519 0.783094
Si Si6 0.016764 0.829501 0.209131
O O1 0.366006 0.500000 0.146148
O O2 0.320023 0.741823 0.209664
O O3 0.445131 0.722826 0.173844
O O4 0.362318 0.726948 0.029744
O O5 0.797206 0.779287 0.865877
O O6 0.928095 0.767417 0.864731
O O7 0.868501 0.000000 0.918953
O O8 0.707796 0.500000 0.455796
O O9 0.750000 0.750000 0.500000
O O10 0.626032 0.720856 0.447727
O O11 0.719548 0.696527 0.319574
O O12 0.500000 0.268092 0.500000
O O13 0.450749 0.500000 0.581900
O O14 0.469163 0.268119 0.683814
O O15 0.229434 0.500000 0.796324
O O16 0.020373 0.000000 0.210317
#
# Coordination Sequence:
#
# PCOD8094923 Si02
#       6
#     8   8   8   8   8   8
#     4  10  20  30  51  83 105 128 169 219 253 284
#     4   9  16  31  51  73 103 137 172 208 252 300
#     4  10  21  36  55  77 102 134 169 208 255 304
#     4   9  17  30  50  75 100 129 167 210 255 301
#     4  10  20  35  52  71 105 145 169 195 249 317
#     4   9  16  29  49  75 104 131 166 213 258 296
#
# _framework density 18.499417000000001
#
# number of rings (size 3 to 8) (size 9 to 14) (size 15 to 20)
#    0.000    2.500    1.667    1.000    2.333    2.667 
#    0.000    0.000    0.000    4.500    0.000    0.000 
#    0.000    0.000    0.000    0.000    0.000    0.000 
#
# Total GULP energy -297606.237884 kJ/mol
# GULP energy per Si atom -12400.259912 kJ/mol
# Density = 1.845731 g / cm^3
# Si number density = 18.499417 Si / 1000 Ang^3
#
#
#
# Elastic Constant Matrix: (Units=GPa)
#
#
# Indices 1 2 3 4 5 6 
#
# 1 150.3560 32.8864 56.8904 0.0000 -2.2321 0.0000
# 2 32.8864 21.6985 25.4362 0.0000 0.2732 0.0000
# 3 56.8904 25.4362 99.5003 0.0000 7.2234 0.0000
# 4 0.0000 0.0000 0.0000 19.8783 0.0000 0.3560
# 5 -2.2321 0.2732 7.2234 0.0000 41.6605 0.0000
# 6 0.0000 0.0000 0.0000 0.3560 0.0000 24.8862
#
#
#
# Elastic Compliance Matrix: (Units=1/GPa)
#
#
# Indices 1 2 3 4 5 6 
#
# 1 0.010504 -0.012561 -0.002878 0.000000 0.001144 0.000000
# 2 -0.012561 0.081089 -0.013632 0.000000 0.001159 0.000000
# 3 -0.002878 -0.013632 0.015379 0.000000 -0.002731 0.000000
# 4 0.000000 0.000000 0.000000 0.050319 0.000000 -0.000720
# 5 0.001144 0.001159 -0.002731 0.000000 0.024531 0.000000
# 6 0.000000 0.000000 0.000000 -0.000720 0.000000 0.040193
#
#
# Mechanical properties :
#
#
# Convention : Reuss Voigt Hill
#
# Bulk Modulus (GPa) = 20.47896 55.77563 38.12729
# Shear Modulus (GPa) = 16.86723 27.70779 22.28751
#
# Velocity S-wave (km/s) = 3.02283 3.87430 3.47474
# Velocity P-wave (km/s) = 4.82467 7.08724 6.06244
#
# Compressibility (1/GPa) = 0.04883060
#
# Stress axis : x y z
#
# Youngs Moduli (GPa) = 95.20064 12.33215 65.02473
#
# Poissons Ratio (x) = 0.15490 0.18713
# Poissons Ratio (y) = 1.19581 0.88640
# Poissons Ratio (z) = 0.27397 0.16811
#
# Static dielectric constant tensor:
#      x y z
#    x 3.603300 0.000000 0.021840 
#    y 0.000000 2.796590 0.000000 
#    z 0.021840 0.000000 3.644630 
# 
# 
# High freq. dielectric constant tensor:
#      x y z
#    x 1.736230 0.000000 -0.000410 
#    y 0.000000 1.650380 0.000000 
#    z -0.000410 0.000000 1.731920 
# 
# From -- ./inp_files/153568.got.cif
#   From: 2010.06.25/outbox.cif.g09.slc.cpg/sg12_77_cif.got.tgz:153568.got - 2010.06.28 00:19:55.
