data_PCOD8094586
_publ_section_title
;
Structure prediction by ZEFSAII (Michael W. Deem and Ramdas Pophale) SiO2 
 PCOD8094586
Probable space group: C 2/M
;
_chemical_formula_sum "Si O2"
_cell_formula_units_Z 40
_cell_length_a 14.305325
_cell_length_b 14.617528
_cell_length_c 14.883356
_cell_angle_alpha 90.000000
_cell_angle_beta 142.022298
_cell_angle_gamma 90.000000
_cell_volume 1915.129273
_symmetry_space_group_name_H-M "C 2/M"
_symmetry_group_IT_number 12
_symmetry_cell_setting 'monoclinic'
loop_
_space_group_symop_operation_xyz
x,y,z
-x,y,-z
-x,-y,-z
x,-y,z
1/2+x,1/2+y,z
1/2-x,1/2+y,-z
1/2-x,1/2-y,-z
1/2+x,1/2-y,z
loop_
_atom_site_type_symbol
_atom_site_label
_atom_site_fract_x
_atom_site_fract_y
_atom_site_fract_z
Si Si1 0.256606 0.750000 0.837310
Si Si2 0.031956 0.601014 0.623230
Si Si3 0.466370 0.258596 0.828896
Si Si4 0.713120 0.150788 0.435857
Si Si5 0.973091 0.895947 0.286096
O O1 0.138195 0.667452 0.762764
O O2 0.347437 0.720112 0.817675
O O3 0.160710 0.844370 0.760548
O O4 0.367362 0.761085 0.005910
O O5 0.105763 0.500000 0.670866
O O6 0.000000 0.642417 0.500000
O O7 0.872034 0.591986 0.553058
O O8 0.399479 0.165337 0.734131
O O9 0.483389 0.344117 0.773938
O O10 0.750000 0.250000 0.500000
O O11 0.874240 0.102340 0.536011
O O12 0.921327 0.000000 0.226774
#
# Coordination Sequence:
#
# PCOD8094586 Si02
#       5
#     8   8   8   8   8
#     4  11  23  41  66  93 129 169 209 261 321 372
#     4  11  22  36  62  97 126 160 209 262 318 377
#     4  10  23  42  64  90 129 170 208 260 317 375
#     4  10  19  38  61  85 123 164 204 254 311 369
#     4  11  23  41  66  96 126 166 215 263 314 377
#
# _framework density 20.886319
#
# number of rings (size 3 to 8) (size 9 to 14) (size 15 to 20)
#    0.000    1.400    4.000    3.600    0.000    3.200 
#    0.000    8.000    0.000    0.000    0.000    0.000 
#    0.000    0.000    0.000    0.000    0.000    0.000 
#
# Total GULP energy -247858.648623 kJ/mol
# GULP energy per Si atom -12392.932431 kJ/mol
# Density = 2.083878 g / cm^3
# Si number density = 20.886319 Si / 1000 Ang^3
#
#
#
# Elastic Constant Matrix: (Units=GPa)
#
#
# Indices 1 2 3 4 5 6 
#
# 1 67.7899 30.2708 25.8088 0.0002 15.1060 0.0000
# 2 30.2708 119.6285 42.4884 0.0003 8.3479 0.0002
# 3 25.8088 42.4884 142.7013 0.0010 13.9368 0.0006
# 4 0.0002 0.0003 0.0010 16.7148 0.0006 -3.8363
# 5 15.1060 8.3479 13.9368 0.0006 32.5024 0.0003
# 6 0.0000 0.0002 0.0006 -3.8363 0.0003 16.0321
#
#
#
# Elastic Compliance Matrix: (Units=1/GPa)
#
#
# Indices 1 2 3 4 5 6 
#
# 1 0.018541 -0.003640 -0.001586 0.000000 -0.007002 0.000000
# 2 -0.003640 0.010112 -0.002363 0.000000 0.000108 0.000000
# 3 -0.001586 -0.002363 0.008211 0.000000 -0.002177 0.000000
# 4 0.000000 0.000000 0.000000 0.063304 -0.000001 0.015148
# 5 -0.007002 0.000108 -0.002177 -0.000001 0.034927 -0.000001
# 6 0.000000 0.000000 0.000000 0.015148 -0.000001 0.065999
#
#
# Mechanical properties :
#
#
# Convention : Reuss Voigt Hill
#
# Bulk Modulus (GPa) = 46.11160 58.58396 52.34778
# Shear Modulus (GPa) = 22.37144 28.48667 25.42906
#
# Velocity S-wave (km/s) = 3.27632 3.69710 3.49305
# Velocity P-wave (km/s) = 6.03637 6.80695 6.43321
#
# Compressibility (1/GPa) = 0.02168652
#
# Stress axis : x y z
#
# Youngs Moduli (GPa) = 53.93500 98.89274 121.79397
#
# Poissons Ratio (x) = 0.35994 0.19313
# Poissons Ratio (y) = 0.19631 0.28780
# Poissons Ratio (z) = 0.08552 0.23368
#
# Static dielectric constant tensor:
#      x y z
#    x 3.802610 0.000000 0.127070 
#    y 0.000000 3.313050 0.000000 
#    z 0.127070 0.000000 4.346920 
# 
# 
# High freq. dielectric constant tensor:
#      x y z
#    x 1.820200 0.000000 0.015640 
#    y 0.000000 1.795890 0.000000 
#    z 0.015640 0.000000 1.821650 
# 
# From -- ./inp_files/96642.got.cif
#   From: 2010.06.25/outbox.cif.g09.slc.cpg/sg12_49_cif.got.tgz:96642.got - 2010.06.28 00:19:55.
