data_PCOD8094037
_publ_section_title
;
Structure prediction by ZEFSAII (Michael W. Deem and Ramdas Pophale) SiO2 
 PCOD8094037
Probable space group: C 2/M
;
_chemical_formula_sum "Si O2"
_cell_formula_units_Z 48
_cell_length_a 20.251479
_cell_length_b 8.951653
_cell_length_c 14.761105
_cell_angle_alpha 90.000000
_cell_angle_beta 108.301849
_cell_angle_gamma 90.000000
_cell_volume 2540.593022
_symmetry_space_group_name_H-M "C 2/M"
_symmetry_group_IT_number 12
_symmetry_cell_setting 'monoclinic'
loop_
_space_group_symop_operation_xyz
x,y,z
-x,y,-z
-x,-y,-z
x,-y,z
1/2+x,1/2+y,z
1/2-x,1/2+y,-z
1/2-x,1/2-y,-z
1/2+x,1/2-y,z
loop_
_atom_site_type_symbol
_atom_site_label
_atom_site_fract_x
_atom_site_fract_y
_atom_site_fract_z
Si Si1 0.655547 0.326309 0.191215
Si Si2 0.430768 0.674558 0.014647
Si Si3 0.819714 0.674008 0.497248
Si Si4 0.569278 0.176567 0.308733
Si Si5 0.314157 0.825664 0.289071
Si Si6 0.573448 0.322759 0.784455
O O1 0.644091 0.500000 0.210594
O O2 0.605113 0.230293 0.232181
O O3 0.734477 0.277383 0.240296
O O4 0.635366 0.293045 0.078126
O O5 0.443967 0.500000 0.031949
O O6 0.417986 0.740282 0.109289
O O7 0.500000 0.746983 0.000000
O O8 0.806296 0.500000 0.502837
O O9 0.750000 0.750000 0.500000
O O10 0.884338 0.727424 0.585745
O O11 0.836473 0.714589 0.400782
O O12 0.494812 0.252600 0.290229
O O13 0.559341 0.000000 0.301110
O O14 0.359245 0.727691 0.241129
O O15 0.324911 0.000000 0.272282
O O16 0.567468 0.500000 0.778432
#
# Coordination Sequence:
#
# PCOD8094037 Si02
#       6
#     8   8   8   8   8   8
#     4  10  19  36  62  86 112 152 194 230 283 348
#     4   9  17  33  59  86 111 146 193 239 281 335
#     4  10  21  37  60  87 115 150 189 234 284 339
#     4  11  22  36  58  88 118 147 189 240 286 334
#     4  10  22  39  58  84 119 152 185 235 294 342
#     4  11  23  39  59  83 116 155 194 236 286 341
#
# _framework density 18.893228000000001
#
# number of rings (size 3 to 8) (size 9 to 14) (size 15 to 20)
#    0.000    1.833    3.333    1.000    0.000    3.333 
#    0.000    5.833    0.000    0.000    0.000    0.000 
#    0.000    0.000    0.000    0.000    0.000    0.000 
#
# Total GULP energy -297653.798925 kJ/mol
# GULP energy per Si atom -12402.241622 kJ/mol
# Density = 1.885023 g / cm^3
# Si number density = 18.893228 Si / 1000 Ang^3
#
#
#
# Elastic Constant Matrix: (Units=GPa)
#
#
# Indices 1 2 3 4 5 6 
#
# 1 73.9133 20.5474 14.9458 0.0000 0.3836 0.0000
# 2 20.5474 42.1740 14.8451 0.0000 0.6453 0.0000
# 3 14.9458 14.8451 96.7893 0.0000 4.0855 0.0000
# 4 0.0000 0.0000 0.0000 23.3309 0.0000 -2.6827
# 5 0.3836 0.6453 4.0855 0.0000 33.9182 0.0000
# 6 0.0000 0.0000 0.0000 -2.6827 0.0000 37.1214
#
#
#
# Elastic Compliance Matrix: (Units=1/GPa)
#
#
# Indices 1 2 3 4 5 6 
#
# 1 0.015810 -0.007234 -0.001337 0.000000 0.000120 0.000000
# 2 -0.007234 0.028374 -0.003232 0.000000 -0.000069 0.000000
# 3 -0.001337 -0.003232 0.011087 0.000000 -0.001259 0.000000
# 4 0.000000 0.000000 0.000000 0.043221 0.000000 0.003124
# 5 0.000120 -0.000069 -0.001259 0.000000 0.029634 0.000000
# 6 0.000000 0.000000 0.000000 0.003124 0.000000 0.027164
#
#
# Mechanical properties :
#
#
# Convention : Reuss Voigt Hill
#
# Bulk Modulus (GPa) = 31.57986 34.83925 33.20955
# Shear Modulus (GPa) = 26.39193 29.70999 28.05096
#
# Velocity S-wave (km/s) = 3.74157 3.96980 3.85737
# Velocity P-wave (km/s) = 5.95121 6.28431 6.12003
#
# Compressibility (1/GPa) = 0.03166576
#
# Stress axis : x y z
#
# Youngs Moduli (GPa) = 63.25088 35.24304 90.19575
#
# Poissons Ratio (x) = 0.25495 0.12058
# Poissons Ratio (y) = 0.45756 0.29151
# Poissons Ratio (z) = 0.08456 0.11391
#
# Static dielectric constant tensor:
#      x y z
#    x 3.382490 0.000000 0.098890 
#    y 0.000000 3.280790 0.000000 
#    z 0.098890 0.000000 3.830920 
# 
# 
# High freq. dielectric constant tensor:
#      x y z
#    x 1.731860 0.000000 0.007700 
#    y 0.000000 1.715500 0.000000 
#    z 0.007700 0.000000 1.751630 
# 
# From -- ./inp_files/229870.got.cif
#   From: 2010.06.25/outbox.cif.g09.slc.cpg/sg12_115_cif.got.tgz:229870.got - 2010.06.28 00:19:55.
