data_PCOD8094901
_publ_section_title
;
Structure prediction by ZEFSAII (Michael W. Deem and Ramdas Pophale) SiO2 
 PCOD8094901
Probable space group: C 2/M
;
_chemical_formula_sum "Si O2"
_cell_formula_units_Z 56
_cell_length_a 27.522829
_cell_length_b 18.832290
_cell_length_c 18.995078
_cell_angle_alpha 90.000000
_cell_angle_beta 161.033724
_cell_angle_gamma 90.000000
_cell_volume 3199.897809
_symmetry_space_group_name_H-M "C 2/M"
_symmetry_group_IT_number 12
_symmetry_cell_setting 'monoclinic'
loop_
_space_group_symop_operation_xyz
x,y,z
-x,y,-z
-x,-y,-z
x,-y,z
1/2+x,1/2+y,z
1/2-x,1/2+y,-z
1/2-x,1/2-y,-z
1/2+x,1/2-y,z
loop_
_atom_site_type_symbol
_atom_site_label
_atom_site_fract_x
_atom_site_fract_y
_atom_site_fract_z
Si Si1 0.792438 0.418462 0.306758
Si Si2 0.187477 0.581944 0.499155
Si Si3 0.587542 0.655928 0.843000
Si Si4 0.577384 0.835391 0.690273
Si Si5 0.981014 0.083243 0.822772
Si Si6 0.429934 0.179866 0.159403
Si Si7 0.098232 0.828062 0.696488
O O1 0.808654 0.500000 0.305541
O O2 0.793153 0.410520 0.391328
O O3 0.931616 0.376950 0.459290
O O4 0.633652 0.385418 0.065384
O O5 0.152380 0.500000 0.430221
O O6 0.336697 0.611672 0.666319
O O7 0.055979 0.634449 0.291123
O O8 0.474900 0.605775 0.732152
O O9 0.539950 0.736204 0.796548
O O10 0.571650 0.638745 0.737922
O O11 0.755906 0.639214 0.102935
O O12 0.574515 0.850462 0.768682
O O13 0.552143 0.753759 0.638226
O O14 0.982670 0.000000 0.832945
O O15 0.268761 0.163937 0.904525
O O16 0.000000 0.864843 0.500000
#
# Coordination Sequence:
#
# PCOD8094901 Si02
#       7
#     8   8   8   8   8   8   8
#     4   9  17  28  45  71 100 129 159 181 211 277
#     4   9  17  32  50  67  94 129 161 190 226 276
#     4   9  18  31  45  69  99 122 156 193 231 281
#     4   8  16  28  45  68  97 126 149 182 232 279
#     4  10  20  30  45  69  99 133 157 186 230 272
#     4   8  16  31  48  71  91 120 160 193 231 275
#     4   9  17  30  51  69  88 119 154 197 243 280
#
# _framework density 17.500558999999999
#
# number of rings (size 3 to 8) (size 9 to 14) (size 15 to 20)
#    0.000    3.143    0.000    2.143    4.000    2.857 
#    0.000    3.571    0.000    2.571    0.000    2.000 
#    0.000    0.000    0.000    0.000    0.000    0.000 
#
# Total GULP energy -346920.823843 kJ/mol
# GULP energy per Si atom -12390.029423 kJ/mol
# Density = 1.746073 g / cm^3
# Si number density = 17.500559 Si / 1000 Ang^3
#
#
#
# Elastic Constant Matrix: (Units=GPa)
#
#
# Indices 1 2 3 4 5 6 
#
# 1 63.7041 13.2332 52.2533 0.0000 14.0670 0.0000
# 2 13.2332 25.6025 46.3759 0.0000 15.1855 0.0000
# 3 52.2533 46.3759 133.7106 -0.0001 10.5829 0.0000
# 4 0.0000 0.0000 -0.0001 26.4693 -0.0001 9.7023
# 5 14.0670 15.1855 10.5829 -0.0001 33.2668 0.0000
# 6 0.0000 0.0000 0.0000 9.7023 0.0000 20.6577
#
#
#
# Elastic Compliance Matrix: (Units=1/GPa)
#
#
# Indices 1 2 3 4 5 6 
#
# 1 0.036774 0.057013 -0.031651 0.000000 -0.031506 0.000000
# 2 0.057013 0.272593 -0.107783 -0.000001 -0.114252 0.000000
# 3 -0.031651 -0.107783 0.053628 0.000000 0.045524 0.000000
# 4 0.000000 -0.000001 0.000000 0.045636 0.000000 -0.021434
# 5 -0.031506 -0.114252 0.045524 0.000000 0.081054 0.000000
# 6 0.000000 0.000000 0.000000 -0.021434 0.000000 0.058475
#
#
# Mechanical properties :
#
#
# Convention : Reuss Voigt Hill
#
# Bulk Modulus (GPa) = 5.04666 49.63802 27.34234
# Shear Modulus (GPa) = 6.41804 23.48908 14.95356
#
# Velocity S-wave (km/s) = 1.91711 3.66757 2.92629
# Velocity P-wave (km/s) = 2.79112 6.80882 5.20338
#
# Compressibility (1/GPa) = 0.19815087
#
# Stress axis : x y z
#
# Youngs Moduli (GPa) = 27.19344 3.66848 18.64692
#
# Poissons Ratio (x) = -0.20915 0.59020
# Poissons Ratio (y) = -1.55037 2.00982
# Poissons Ratio (z) = 0.86071 0.39540
#
# Static dielectric constant tensor:
#      x y z
#    x 3.240710 0.000000 0.138240 
#    y 0.000000 3.066210 0.000000 
#    z 0.138240 0.000000 3.606520 
# 
# 
# High freq. dielectric constant tensor:
#      x y z
#    x 1.669990 0.000000 0.008970 
#    y 0.000000 1.644760 0.000000 
#    z 0.008970 0.000000 1.675640 
# 
# From -- ./inp_files/147159.got.cif
#   From: 2010.06.25/outbox.cif.g09.slc.cpg/sg12_74_cif.got.tgz:147159.got - 2010.06.28 00:19:55.
