data_PCOD8094138
_publ_section_title
;
Structure prediction by ZEFSAII (Michael W. Deem and Ramdas Pophale) SiO2 
 PCOD8094138
Probable space group: C 2/M
;
_chemical_formula_sum "Si O2"
_cell_formula_units_Z 64
_cell_length_a 19.775174
_cell_length_b 17.334990
_cell_length_c 17.467288
_cell_angle_alpha 90.000000
_cell_angle_beta 147.962846
_cell_angle_gamma 90.000000
_cell_volume 3176.358132
_symmetry_space_group_name_H-M "C 2/M"
_symmetry_group_IT_number 12
_symmetry_cell_setting 'monoclinic'
loop_
_space_group_symop_operation_xyz
x,y,z
-x,y,-z
-x,-y,-z
x,-y,z
1/2+x,1/2+y,z
1/2-x,1/2+y,-z
1/2-x,1/2-y,-z
1/2+x,1/2-y,z
loop_
_atom_site_type_symbol
_atom_site_label
_atom_site_fract_x
_atom_site_fract_y
_atom_site_fract_z
Si Si1 0.649300 0.159490 0.141208
Si Si2 0.180407 0.161765 0.153563
Si Si3 0.502675 0.090838 0.257562
Si Si4 0.017921 0.909413 0.297645
Si Si5 0.933133 0.409832 0.357196
Si Si6 0.736091 0.091912 0.381411
Si Si7 0.761595 0.408106 0.931548
Si Si8 0.546479 0.410438 0.152624
O O1 0.679562 0.249227 0.173901
O O2 0.717130 0.119738 0.277593
O O3 0.709586 0.121849 0.124734
O O4 0.500000 0.141562 0.000000
O O5 0.305488 0.139278 0.227506
O O6 0.172445 0.111011 0.224438
O O7 0.064169 0.143469 0.986005
O O8 0.514363 0.111477 0.359181
O O9 0.624179 0.125750 0.329097
O O10 0.503300 0.000000 0.246788
O O11 0.370024 0.122933 0.094292
O O12 0.125983 0.876257 0.458307
O O13 0.067917 0.889139 0.260986
O O14 0.877177 0.874143 0.177220
O O15 0.006947 0.000000 0.298305
O O16 0.899158 0.500000 0.325339
O O17 0.000000 0.384572 0.500000
O O18 0.734277 0.000000 0.382926
O O19 0.759711 0.500000 0.929597
O O20 0.510616 0.500000 0.107349
#
# Coordination Sequence:
#
# PCOD8094138 Si02
#       8
#     8   8   8   8   8   8   8   8
#     4  12  23  40  59  82 120 160 199 243 289 349
#     4  11  22  38  56  84 121 155 194 241 286 348
#     4   9  18  33  58  90 117 146 189 244 293 342
#     4   9  20  37  60  92 117 142 193 257 298 347
#     4  10  21  37  60  87 118 153 194 241 293 351
#     4  10  21  38  63  90 118 154 199 245 297 352
#     4  10  20  37  63  88 114 150 199 248 294 344
#     4  10  19  36  65  87 110 147 192 241 299 348
#
# _framework density 20.148862999999999
#
# number of rings (size 3 to 8) (size 9 to 14) (size 15 to 20)
#    0.000    1.875    2.500    2.625    1.750    3.000 
#    2.250    6.250    0.000    0.000    0.000    0.000 
#    0.000    0.000    0.000    0.000    0.000    0.000 
#
# Total GULP energy -396748.578765 kJ/mol
# GULP energy per Si atom -12398.393086 kJ/mol
# Density = 2.010300 g / cm^3
# Si number density = 20.148863 Si / 1000 Ang^3
#
#
#
# Elastic Constant Matrix: (Units=GPa)
#
#
# Indices 1 2 3 4 5 6 
#
# 1 103.3709 8.8815 51.9463 -0.0007 -13.0379 -0.0007
# 2 8.8815 24.3612 17.6757 -0.0010 3.1652 -0.0009
# 3 51.9463 17.6757 111.7194 -0.0005 -10.4073 0.0012
# 4 -0.0007 -0.0010 -0.0005 7.0609 -0.0013 -16.6874
# 5 -13.0379 3.1652 -10.4073 -0.0013 38.1830 -0.0007
# 6 -0.0007 -0.0009 0.0012 -16.6874 -0.0007 -50.4246
#
#
#
# Elastic Compliance Matrix: (Units=1/GPa)
#
#
# Indices 1 2 3 4 5 6 
#
# 1 0.012942 -0.001065 -0.005571 0.000000 0.002989 0.000000
# 2 -0.001065 0.047837 -0.007672 0.000001 -0.006420 -0.000001
# 3 -0.005571 -0.007672 0.012966 0.000001 0.002268 0.000000
# 4 0.000000 0.000001 0.000001 0.079470 0.000002 -0.026299
# 5 0.002989 -0.006420 0.002268 0.000002 0.028361 -0.000001
# 6 0.000000 -0.000001 0.000000 -0.026299 -0.000001 -0.011128
#
#
# Mechanical properties :
#
#
# Convention : Reuss Voigt Hill
#
# Bulk Modulus (GPa) = 22.15750 44.05094 33.10422
# Shear Modulus (GPa) = 23.35301 9.69375 16.52338
#
# Velocity S-wave (km/s) = 3.40814 2.19579 2.86678
# Velocity P-wave (km/s) = 5.14859 5.32343 5.23674
#
# Compressibility (1/GPa) = 0.04513145
#
# Stress axis : x y z
#
# Youngs Moduli (GPa) = 77.26931 20.90414 77.12347
#
# Poissons Ratio (x) = 0.02226 0.42963
# Poissons Ratio (y) = 0.08227 0.59166
# Poissons Ratio (z) = 0.43044 0.16037
#
# Static dielectric constant tensor:
#      x y z
#    x 4.022290 0.000000 0.130310 
#    y 0.000000 3.279230 0.000000 
#    z 0.130310 0.000000 3.827510 
# 
# 
# High freq. dielectric constant tensor:
#      x y z
#    x 1.802250 0.000000 -0.002300 
#    y 0.000000 1.747880 0.000000 
#    z -0.002300 0.000000 1.788880 
# 
# From -- ./inp_files/285242.got.cif
#   From: 2010.06.25/outbox.cif.g09.slc.cpg/sg12_143_cif.got.tgz:285242.got - 2010.06.28 00:19:55.
