data_PCOD8094560
_publ_section_title
;
Structure prediction by ZEFSAII (Michael W. Deem and Ramdas Pophale) SiO2 
 PCOD8094560
Probable space group: C 2/M
;
_chemical_formula_sum "Si O2"
_cell_formula_units_Z 64
_cell_length_a 18.181648
_cell_length_b 22.291709
_cell_length_c 18.908651
_cell_angle_alpha 90.000000
_cell_angle_beta 154.881061
_cell_angle_gamma 90.000000
_cell_volume 3253.220913
_symmetry_space_group_name_H-M "C 2/M"
_symmetry_group_IT_number 12
_symmetry_cell_setting 'monoclinic'
loop_
_space_group_symop_operation_xyz
x,y,z
-x,y,-z
-x,-y,-z
x,-y,z
1/2+x,1/2+y,z
1/2-x,1/2+y,-z
1/2-x,1/2-y,-z
1/2+x,1/2-y,z
loop_
_atom_site_type_symbol
_atom_site_label
_atom_site_fract_x
_atom_site_fract_y
_atom_site_fract_z
Si Si1 0.534308 0.430647 0.947906
Si Si2 0.631560 0.431525 0.678836
Si Si3 0.103003 0.866920 0.428341
Si Si4 0.638711 0.739063 0.557558
Si Si5 0.582029 0.068188 0.741464
Si Si6 0.447434 0.068998 0.777266
Si Si7 0.093402 0.652990 0.145161
Si Si8 0.241423 0.866600 0.393062
O O1 0.530381 0.500000 0.920292
O O2 0.728088 0.403039 0.106549
O O3 0.500000 0.422866 0.000000
O O4 0.384651 0.397138 0.773729
O O5 0.500000 0.420534 0.500000
O O6 0.677854 0.500000 0.731869
O O7 0.563723 0.405881 0.695126
O O8 0.800271 0.397401 0.802944
O O9 0.069546 0.800399 0.431478
O O10 0.258098 0.903671 0.599334
O O11 0.130985 0.861828 0.368933
O O12 0.500000 0.744545 0.500000
O O13 0.808918 0.705899 0.731416
O O14 0.699197 0.802660 0.582559
O O15 0.562463 0.072811 0.808153
O O16 0.422733 0.098617 0.561552
O O17 0.581121 0.000000 0.713672
O O18 0.527861 0.113879 0.906410
O O19 0.429765 0.000000 0.787817
O O20 0.000000 0.687532 0.000000
#
# Coordination Sequence:
#
# PCOD8094560 Si02
#       8
#     8   8   8   8   8   8   8   8
#     4  10  23  42  62  91 127 153 190 255 314 367
#     4  11  19  33  60  88 119 161 199 238 297 366
#     4  10  19  38  59  87 120 157 202 255 299 352
#     4  11  22  42  61  82 117 160 208 261 299 341
#     4   9  20  40  63  92 126 153 188 252 314 369
#     4   9  17  32  57  86 122 158 192 239 302 366
#     4  11  22  36  54  83 126 164 201 248 300 353
#     4  11  24  38  68  92 115 163 213 242 306 377
#
# _framework density 19.672812
#
# number of rings (size 3 to 8) (size 9 to 14) (size 15 to 20)
#    0.000    1.750    3.750    1.500    1.750    4.000 
#    0.000    3.125    0.000    3.750    0.000    0.000 
#    0.000    0.000    0.000    0.000    0.000    0.000 
#
# Total GULP energy -396510.801434 kJ/mol
# GULP energy per Si atom -12390.962545 kJ/mol
# Density = 1.962804 g / cm^3
# Si number density = 19.672812 Si / 1000 Ang^3
#
#
#
# Elastic Constant Matrix: (Units=GPa)
#
#
# Indices 1 2 3 4 5 6 
#
# 1 -253.5014 -289.2231 -320.9918 0.8271 32.7025 -0.1947
# 2 -289.2231 -210.7386 -292.8122 0.8208 25.2932 -0.2087
# 3 -320.9918 -292.8122 -266.0804 1.0326 25.0816 -0.3189
# 4 0.8271 0.8208 1.0326 52.7273 0.0274 -5.4766
# 5 32.7025 25.2932 25.0816 0.0274 29.3449 -0.0377
# 6 -0.1947 -0.2087 -0.3189 -5.4766 -0.0377 33.4436
#
#
#
# Elastic Compliance Matrix: (Units=1/GPa)
#
#
# Indices 1 2 3 4 5 6 
#
# 1 0.010360 -0.005974 -0.006040 0.000046 -0.001234 -0.000028
# 2 -0.005974 0.012428 -0.006341 0.000022 0.001365 -0.000012
# 3 -0.006040 -0.006341 0.010786 -0.000016 0.002977 0.000029
# 4 0.000046 0.000022 -0.000016 0.019293 -0.000071 0.003160
# 5 -0.001234 0.001365 0.002977 -0.000071 0.031731 0.000054
# 6 -0.000028 -0.000012 0.000029 0.003160 0.000054 0.030419
#
#
# Mechanical properties :
#
#
# Convention : Reuss Voigt Hill
#
# Bulk Modulus (GPa) = -318.97025 -281.81940 -300.39483
# Shear Modulus (GPa) = 33.18254 34.61696 33.89975
#
# Velocity S-wave (km/s) = 4.11143 4.19935 4.15562
# Velocity P-wave (km/s) = 11.83010 10.95680 11.40181
#
# Compressibility (1/GPa) = -0.00313509
#
# Stress axis : x y z
#
# Youngs Moduli (GPa) = 96.52550 80.46425 92.70861
#
# Poissons Ratio (x) = 0.48069 0.55995
# Poissons Ratio (y) = 0.57664 0.58785
# Poissons Ratio (z) = 0.58300 0.51021
#
# Static dielectric constant tensor:
#      x y z
#    x 3.782380 -0.000090 0.471090 
#    y -0.000090 3.601450 0.000130 
#    z 0.471090 0.000130 2.075690 
# 
# 
# High freq. dielectric constant tensor:
#      x y z
#    x 1.783490 0.000000 0.000090 
#    y 0.000000 1.761170 0.000000 
#    z 0.000090 0.000000 1.751960 
# 
# From -- ./inp_files/279141.got.cif
#   From: 2010.06.25/outbox.cif.g09.slc.cpg/sg12_140_cif.got.tgz:279141.got - 2010.06.28 00:19:55.
