data_PCOD8094040
_publ_section_title
;
Structure prediction by ZEFSAII (Michael W. Deem and Ramdas Pophale) SiO2 
 PCOD8094040
Probable space group: C 2/M
;
_chemical_formula_sum "Si O2"
_cell_formula_units_Z 48
_cell_length_a 12.641483
_cell_length_b 22.106107
_cell_length_c 8.456412
_cell_angle_alpha 90.000000
_cell_angle_beta 108.603949
_cell_angle_gamma 90.000000
_cell_volume 2239.693456
_symmetry_space_group_name_H-M "C 2/M"
_symmetry_group_IT_number 12
_symmetry_cell_setting 'monoclinic'
loop_
_space_group_symop_operation_xyz
x,y,z
-x,y,-z
-x,-y,-z
x,-y,z
1/2+x,1/2+y,z
1/2-x,1/2+y,-z
1/2-x,1/2-y,-z
1/2+x,1/2-y,z
loop_
_atom_site_type_symbol
_atom_site_label
_atom_site_fract_x
_atom_site_fract_y
_atom_site_fract_z
Si Si1 0.764372 0.377343 0.584152
Si Si2 0.378768 0.267988 0.369136
Si Si3 0.996108 0.431906 0.685026
Si Si4 0.296307 0.860372 0.259720
Si Si5 0.097654 0.832480 0.933776
Si Si6 0.922192 0.931665 0.322846
O O1 0.717737 0.309677 0.597874
O O2 0.894669 0.387981 0.690077
O O3 0.743840 0.394549 0.388349
O O4 0.702198 0.425074 0.667912
O O5 0.500000 0.282151 0.500000
O O6 0.350451 0.197800 0.373661
O O7 0.379578 0.280516 0.182161
O O8 0.986658 0.500000 0.753196
O O9 0.000000 0.436849 0.500000
O O10 0.112221 0.400169 0.791013
O O11 0.206942 0.843108 0.088023
O O12 0.059900 0.893842 0.827856
O O13 0.000000 0.809474 0.000000
O O14 0.000000 0.905785 0.500000
O O15 0.951491 0.000000 0.293478
#
# Coordination Sequence:
#
# PCOD8094040 Si02
#       6
#     8   8   8   8   8   8
#     4  10  19  36  62  86 113 155 200 244 294 354
#     4  11  22  39  60  87 120 156 200 246 298 361
#     4   9  19  35  56  84 117 153 195 240 290 354
#     4  11  22  37  59  89 119 153 199 248 302 355
#     4  11  23  39  58  85 120 155 195 250 307 355
#     4  10  21  38  59  84 114 152 198 245 299 361
#
# _framework density 21.431505000000001
#
# number of rings (size 3 to 8) (size 9 to 14) (size 15 to 20)
#    0.000    1.667    0.000    7.000    0.000    3.000 
#    0.000    3.333    0.000    5.000    0.000    0.000 
#    0.000    0.000    0.000    0.000    0.000    0.000 
#
# Total GULP energy -297511.693861 kJ/mol
# GULP energy per Si atom -12396.320578 kJ/mol
# Density = 2.138273 g / cm^3
# Si number density = 21.431505 Si / 1000 Ang^3
#
#
#
# Elastic Constant Matrix: (Units=GPa)
#
#
# Indices 1 2 3 4 5 6 
#
# 1 112.8920 16.1929 30.0419 0.0000 6.4527 0.0000
# 2 16.1929 90.3006 -3.2025 0.0000 9.7366 0.0000
# 3 30.0419 -3.2025 81.4972 0.0000 4.2011 0.0000
# 4 0.0000 0.0000 0.0000 14.0772 0.0000 9.2438
# 5 6.4527 9.7366 4.2011 0.0000 37.1988 0.0000
# 6 0.0000 0.0000 0.0000 9.2438 0.0000 23.7428
#
#
#
# Elastic Compliance Matrix: (Units=1/GPa)
#
#
# Indices 1 2 3 4 5 6 
#
# 1 0.010181 -0.001868 -0.003783 0.000000 -0.000850 0.000000
# 2 -0.001868 0.011768 0.001301 0.000000 -0.002903 0.000000
# 3 -0.003783 0.001301 0.013780 0.000000 -0.001241 0.000000
# 4 0.000000 0.000000 0.000000 0.095435 0.000000 -0.037156
# 5 -0.000850 -0.002903 -0.001241 0.000000 0.027930 0.000000
# 6 0.000000 0.000000 0.000000 -0.037156 0.000000 0.056584
#
#
# Mechanical properties :
#
#
# Convention : Reuss Voigt Hill
#
# Bulk Modulus (GPa) = 36.99718 41.19494 39.09606
# Shear Modulus (GPa) = 21.42354 31.11425 26.26889
#
# Velocity S-wave (km/s) = 3.16512 3.81438 3.50482
# Velocity P-wave (km/s) = 5.53695 6.21794 5.88730
#
# Compressibility (1/GPa) = 0.02702909
#
# Stress axis : x y z
#
# Youngs Moduli (GPa) = 98.22041 84.97406 72.56997
#
# Poissons Ratio (x) = 0.15875 0.27451
# Poissons Ratio (y) = 0.18350 -0.09440
# Poissons Ratio (z) = 0.37153 -0.11053
#
# Static dielectric constant tensor:
#      x y z
#    x 4.042930 0.000000 -0.003730 
#    y 0.000000 3.823800 0.000000 
#    z -0.003730 0.000000 3.651630 
# 
# 
# High freq. dielectric constant tensor:
#      x y z
#    x 1.852690 0.000000 -0.000690 
#    y 0.000000 1.836540 0.000000 
#    z -0.000690 0.000000 1.822940 
# 
# From -- ./inp_files/51445.got.cif
#   From: 2010.06.25/outbox.cif.g09.slc.cpg/sg12_26_cif.got.tgz:51445.got - 2010.06.28 00:19:55.
