data_PCOD8094216
_publ_section_title
;
Structure prediction by ZEFSAII (Michael W. Deem and Ramdas Pophale) SiO2 
 PCOD8094216
Probable space group: C 2/M
;
_chemical_formula_sum "Si O2"
_cell_formula_units_Z 32
_cell_length_a 13.151900
_cell_length_b 18.113406
_cell_length_c 9.149017
_cell_angle_alpha 90.000000
_cell_angle_beta 48.708818
_cell_angle_gamma 90.000000
_cell_volume 1637.624852
_symmetry_space_group_name_H-M "C 2/M"
_symmetry_group_IT_number 12
_symmetry_cell_setting 'monoclinic'
loop_
_space_group_symop_operation_xyz
x,y,z
-x,y,-z
-x,-y,-z
x,-y,z
1/2+x,1/2+y,z
1/2-x,1/2+y,-z
1/2-x,1/2-y,-z
1/2+x,1/2-y,z
loop_
_atom_site_type_symbol
_atom_site_label
_atom_site_fract_x
_atom_site_fract_y
_atom_site_fract_z
Si Si1 0.649816 0.853044 0.698187
Si Si2 0.379432 0.686089 0.292144
Si Si3 0.371751 0.084255 0.969637
Si Si4 0.312893 0.320393 0.025141
O O1 0.611804 0.772090 0.674200
O O2 0.793864 0.867659 0.482210
O O3 0.661966 0.861125 0.862149
O O4 0.527063 0.906897 0.767735
O O5 0.306161 0.687432 0.204979
O O6 0.532699 0.658950 0.159550
O O7 0.346660 0.000000 0.040293
O O8 0.273058 0.107084 0.933004
O O9 0.250000 0.250000 0.000000
#
# Coordination Sequence:
#
# PCOD8094216 Si02
#       4
#     8   8   8   8
#     4  10  19  37  58  90 115 150 200 249 291 345
#     4  10  21  35  61  90 115 146 202 253 294 330
#     4  11  22  39  61  86 122 165 195 236 301 359
#     4  11  19  39  59  86 121 152 198 249 290 351
#
# _framework density 19.540493999999999
#
# number of rings (size 3 to 8) (size 9 to 14) (size 15 to 20)
#    0.000    1.500    5.000    3.000    0.000    2.000 
#    0.000   10.000    0.000    0.000    0.000    0.000 
#    0.000    0.000    0.000    0.000    0.000    0.000 
#
# Total GULP energy -198239.078229 kJ/mol
# GULP energy per Si atom -12389.942389 kJ/mol
# Density = 1.949602 g / cm^3
# Si number density = 19.540494 Si / 1000 Ang^3
#
#
#
# Elastic Constant Matrix: (Units=GPa)
#
#
# Indices 1 2 3 4 5 6 
#
# 1 121.0084 24.0971 32.0169 0.0000 -11.9239 0.0000
# 2 24.0971 68.2399 24.9812 0.0000 -6.2980 0.0000
# 3 32.0169 24.9812 119.4804 0.0000 -15.7794 0.0000
# 4 0.0000 0.0000 0.0000 18.1499 0.0000 -4.1469
# 5 -11.9239 -6.2980 -15.7794 0.0000 15.1536 0.0000
# 6 0.0000 0.0000 0.0000 -4.1469 0.0000 22.4341
#
#
#
# Elastic Compliance Matrix: (Units=1/GPa)
#
#
# Indices 1 2 3 4 5 6 
#
# 1 0.009618 -0.002413 -0.001398 0.000000 0.005109 0.000000
# 2 -0.002413 0.016649 -0.002518 0.000000 0.002399 0.000000
# 3 -0.001398 -0.002518 0.010420 0.000000 0.008704 0.000000
# 4 0.000000 0.000000 0.000000 0.057526 0.000000 0.010634
# 5 0.005109 0.002399 0.008704 0.000000 0.080072 0.000000
# 6 0.000000 0.000000 0.000000 0.010634 0.000000 0.046541
#
#
# Mechanical properties :
#
#
# Convention : Reuss Voigt Hill
#
# Bulk Modulus (GPa) = 41.61436 52.32434 46.96935
# Shear Modulus (GPa) = 20.70448 26.32306 23.51377
#
# Velocity S-wave (km/s) = 3.25863 3.67427 3.47268
# Velocity P-wave (km/s) = 5.95827 6.69596 6.33786
#
# Compressibility (1/GPa) = 0.02403017
#
# Stress axis : x y z
#
# Youngs Moduli (GPa) = 103.97453 60.06239 95.96856
#
# Poissons Ratio (x) = 0.14493 0.13416
# Poissons Ratio (y) = 0.25088 0.24161
# Poissons Ratio (z) = 0.14535 0.15121
#
# Static dielectric constant tensor:
#      x y z
#    x 3.670180 0.000000 -0.205980 
#    y 0.000000 3.252840 0.000000 
#    z -0.205980 0.000000 3.816890 
# 
# 
# High freq. dielectric constant tensor:
#      x y z
#    x 1.768390 0.000000 -0.012620 
#    y 0.000000 1.730000 0.000000 
#    z -0.012620 0.000000 1.755350 
# 
# From -- ./inp_files/48303.got.cif
#   From: 2010.06.25/outbox.cif.g09.slc.cpg/sg12_25_cif.got.tgz:48303.got - 2010.06.28 00:19:55.
