data_PCOD8094787
_publ_section_title
;
Structure prediction by ZEFSAII (Michael W. Deem and Ramdas Pophale) SiO2 
 PCOD8094787
Probable space group: C 2/M
;
_chemical_formula_sum "Si O2"
_cell_formula_units_Z 40
_cell_length_a 11.709661
_cell_length_b 18.878841
_cell_length_c 9.151430
_cell_angle_alpha 90.000000
_cell_angle_beta 81.570060
_cell_angle_gamma 90.000000
_cell_volume 2001.201889
_symmetry_space_group_name_H-M "C 2/M"
_symmetry_group_IT_number 12
_symmetry_cell_setting 'monoclinic'
loop_
_space_group_symop_operation_xyz
x,y,z
-x,y,-z
-x,-y,-z
x,-y,z
1/2+x,1/2+y,z
1/2-x,1/2+y,-z
1/2-x,1/2-y,-z
1/2+x,1/2-y,z
loop_
_atom_site_type_symbol
_atom_site_label
_atom_site_fract_x
_atom_site_fract_y
_atom_site_fract_z
Si Si1 0.604407 0.139272 0.689579
Si Si2 0.460035 0.500000 0.793892
Si Si3 0.225688 0.500000 0.682718
Si Si4 0.000000 0.122343 0.000000
Si Si5 0.220580 0.000000 0.657712
Si Si6 0.342683 0.138909 0.652130
Si Si7 0.812598 0.768222 0.137747
O O1 0.659506 0.069413 0.753653
O O2 0.469573 0.127563 0.690864
O O3 0.662468 0.152760 0.520797
O O4 0.623277 0.202000 0.800956
O O5 0.360050 0.500000 0.694666
O O6 0.441885 0.570935 0.891745
O O7 0.582365 0.500000 0.688182
O O8 0.220459 0.500000 0.510437
O O9 0.094713 0.170414 0.904421
O O10 0.268755 0.071321 0.722641
O O11 0.286508 0.208263 0.732120
O O12 0.750000 0.750000 0.000000
#
# Coordination Sequence:
#
# PCOD8094787 Si02
#       7
#     8   4   4   4   4   8   8
#     4  10  22  40  62  91 121 156 201 249 306 358
#     4  11  21  40  59  87 124 157 202 248 296 361
#     4  10  21  37  62  92 117 153 198 254 302 359
#     4  11  24  38  60  83 120 164 200 237 304 354
#     4  10  19  39  65  88 117 156 201 248 305 353
#     4  10  21  40  64  88 121 158 200 250 300 363
#     4  12  23  39  60  87 124 163 201 248 298 360
#
# _framework density 19.987988999999999
#
# number of rings (size 3 to 8) (size 9 to 14) (size 15 to 20)
#    0.000    1.400    2.000    3.900    0.000    2.400 
#    0.000    2.000    0.000    4.200    0.000    0.000 
#    0.000    0.000    0.000    0.000    0.000    0.000 
#
# Total GULP energy -248015.304047 kJ/mol
# GULP energy per Si atom -12400.765202 kJ/mol
# Density = 1.994250 g / cm^3
# Si number density = 19.987989 Si / 1000 Ang^3
#
#
#
# Elastic Constant Matrix: (Units=GPa)
#
#
# Indices 1 2 3 4 5 6 
#
# 1 117.6254 55.4300 32.3129 0.0000 5.8957 0.0000
# 2 55.4300 140.6863 47.2069 0.0000 4.6024 0.0000
# 3 32.3129 47.2069 65.5598 0.0000 8.2618 0.0000
# 4 0.0000 0.0000 0.0000 33.6334 0.0000 -9.3562
# 5 5.8957 4.6024 8.2618 0.0000 34.9933 0.0000
# 6 0.0000 0.0000 0.0000 -9.3562 0.0000 27.7679
#
#
#
# Elastic Compliance Matrix: (Units=1/GPa)
#
#
# Indices 1 2 3 4 5 6 
#
# 1 0.010886 -0.003291 -0.002906 0.000000 -0.000715 0.000000
# 2 -0.003291 0.010372 -0.005921 0.000000 0.000588 0.000000
# 3 -0.002906 -0.005921 0.021426 0.000000 -0.003790 0.000000
# 4 0.000000 0.000000 0.000000 0.032807 0.000000 0.011054
# 5 -0.000715 0.000588 -0.003790 0.000000 0.029515 0.000000
# 6 0.000000 0.000000 0.000000 0.011054 0.000000 0.039737
#
#
# Mechanical properties :
#
#
# Convention : Reuss Voigt Hill
#
# Bulk Modulus (GPa) = 54.20021 65.97456 60.08739
# Shear Modulus (GPa) = 28.55031 31.87369 30.21200
#
# Velocity S-wave (km/s) = 3.78348 3.99763 3.89203
# Velocity P-wave (km/s) = 6.80159 7.37474 7.09395
#
# Compressibility (1/GPa) = 0.01845011
#
# Stress axis : x y z
#
# Youngs Moduli (GPa) = 91.85723 96.41378 46.67132
#
# Poissons Ratio (x) = 0.31727 0.13563
# Poissons Ratio (y) = 0.30228 0.27632
# Poissons Ratio (z) = 0.26694 0.57083
#
# Static dielectric constant tensor:
#      x y z
#    x 3.583280 0.000000 -0.059960 
#    y 0.000000 3.895550 0.000000 
#    z -0.059960 0.000000 3.511590 
# 
# 
# High freq. dielectric constant tensor:
#      x y z
#    x 1.789670 0.000000 -0.004240 
#    y 0.000000 1.794360 0.000000 
#    z -0.004240 0.000000 1.770670 
# 
# From -- ./inp_files/47114.got.cif
#   From: 2010.06.25/outbox.cif.g09.slc.cpg/sg12_24_cif.got.tgz:47114.got - 2010.06.28 00:19:55.
