data_PCOD8094246
_publ_section_title
;
Structure prediction by ZEFSAII (Michael W. Deem and Ramdas Pophale) SiO2 
 PCOD8094246
Probable space group: C 2/M
;
_chemical_formula_sum "Si O2"
_cell_formula_units_Z 40
_cell_length_a 24.336157
_cell_length_b 10.191303
_cell_length_c 10.496889
_cell_angle_alpha 90.000000
_cell_angle_beta 51.916161
_cell_angle_gamma 90.000000
_cell_volume 2049.166342
_symmetry_space_group_name_H-M "C 2/M"
_symmetry_group_IT_number 12
_symmetry_cell_setting 'monoclinic'
loop_
_space_group_symop_operation_xyz
x,y,z
-x,y,-z
-x,-y,-z
x,-y,z
1/2+x,1/2+y,z
1/2-x,1/2+y,-z
1/2-x,1/2-y,-z
1/2+x,1/2-y,z
loop_
_atom_site_type_symbol
_atom_site_label
_atom_site_fract_x
_atom_site_fract_y
_atom_site_fract_z
Si Si1 0.000000 0.714807 0.500000
Si Si2 0.678954 0.500000 0.751548
Si Si3 0.282943 0.500000 0.594681
Si Si4 0.877264 0.500000 0.106790
Si Si5 0.416950 0.000000 0.756818
Si Si6 0.383272 0.272031 0.489808
Si Si7 0.576739 0.724914 0.853334
Si Si8 0.676291 0.000000 0.344222
O O1 0.035740 0.626653 0.339306
O O2 0.058425 0.802754 0.485920
O O3 0.715167 0.500000 0.561078
O O4 0.633048 0.630015 0.839763
O O5 0.739897 0.500000 0.769919
O O6 0.204692 0.500000 0.754364
O O7 0.319551 0.371572 0.600234
O O8 0.911379 0.373779 0.122427
O O9 0.893221 0.500000 0.935134
O O10 0.347416 0.000000 0.768869
O O11 0.418251 0.293587 0.304194
O O12 0.354865 0.124973 0.538829
O O13 0.500000 0.677325 0.000000
#
# Coordination Sequence:
#
# PCOD8094246 Si02
#       8
#     4   4   4   4   4   8   8   4
#     4   9  18  37  58  76 108 146 178 216 264 320
#     4  10  21  39  56  76 111 149 175 212 270 324
#     4  10  22  36  54  82 113 139 177 223 264 317
#     4  12  22  36  57  83 110 135 178 234 269 301
#     4   9  20  35  56  83 107 136 182 227 263 310
#     4  10  20  36  57  81 107 143 182 216 263 320
#     4  11  22  35  56  83 110 138 178 224 268 316
#     4  10  19  37  60  77 102 146 185 212 260 327
#
# _framework density 19.520133000000001
#
# number of rings (size 3 to 8) (size 9 to 14) (size 15 to 20)
#    0.000    1.800    0.000    5.400    0.000    3.600 
#    0.000   11.000    0.000    0.000    0.000    0.000 
#    0.000    0.000    0.000    0.000    0.000    0.000 
#
# Total GULP energy -248072.139201 kJ/mol
# GULP energy per Si atom -12403.606960 kJ/mol
# Density = 1.947570 g / cm^3
# Si number density = 19.520133 Si / 1000 Ang^3
#
#
#
# Elastic Constant Matrix: (Units=GPa)
#
#
# Indices 1 2 3 4 5 6 
#
# 1 89.4774 10.3203 27.4866 0.0000 -23.6500 0.0000
# 2 10.3203 76.2161 10.9277 0.0000 -6.0851 0.0000
# 3 27.4866 10.9277 113.4345 0.0000 -13.3978 0.0000
# 4 0.0000 0.0000 0.0000 16.7257 0.0000 -7.6741
# 5 -23.6500 -6.0851 -13.3978 0.0000 31.5284 0.0000
# 6 0.0000 0.0000 0.0000 -7.6741 0.0000 -48.6372
#
#
#
# Elastic Compliance Matrix: (Units=1/GPa)
#
#
# Indices 1 2 3 4 5 6 
#
# 1 0.014566 -0.000863 -0.002291 0.000000 0.009786 0.000000
# 2 -0.000863 0.013493 -0.000905 0.000000 0.001572 0.000000
# 3 -0.002291 -0.000905 0.009722 0.000000 0.002239 0.000000
# 4 0.000000 0.000000 0.000000 0.055752 0.000000 -0.008797
# 5 0.009786 0.001572 0.002239 0.000000 0.040313 0.000000
# 6 0.000000 0.000000 0.000000 -0.008797 0.000000 -0.019172
#
#
# Mechanical properties :
#
#
# Convention : Reuss Voigt Hill
#
# Bulk Modulus (GPa) = 33.71047 41.84413 37.77730
# Shear Modulus (GPa) = 37.68529 15.28295 26.48412
#
# Velocity S-wave (km/s) = 4.39861 2.80113 3.68742
# Velocity P-wave (km/s) = 6.56537 5.65196 6.12572
#
# Compressibility (1/GPa) = 0.02966437
#
# Stress axis : x y z
#
# Youngs Moduli (GPa) = 68.65421 74.11408 102.85670
#
# Poissons Ratio (x) = 0.06393 0.23559
# Poissons Ratio (y) = 0.05922 0.09309
# Poissons Ratio (z) = 0.15725 0.06708
#
# Static dielectric constant tensor:
#      x y z
#    x 3.682720 0.000000 -0.196090 
#    y 0.000000 3.681420 0.000000 
#    z -0.196090 0.000000 3.446600 
# 
# 
# High freq. dielectric constant tensor:
#      x y z
#    x 1.769310 0.000000 -0.016910 
#    y 0.000000 1.761460 0.000000 
#    z -0.016910 0.000000 1.752250 
# 
# From -- ./inp_files/174383.got.cif
#   From: 2010.06.25/outbox.cif.g09.slc.cpg/sg12_88_cif.got.tgz:174383.got - 2010.06.28 00:19:55.
