data_PCOD8094041
_publ_section_title
;
Structure prediction by ZEFSAII (Michael W. Deem and Ramdas Pophale) SiO2 
 PCOD8094041
Probable space group: C 2/M
;
_chemical_formula_sum "Si O2"
_cell_formula_units_Z 40
_cell_length_a 23.654344
_cell_length_b 11.723143
_cell_length_c 13.932329
_cell_angle_alpha 90.000000
_cell_angle_beta 30.224832
_cell_angle_gamma 90.000000
_cell_volume 1944.854598
_symmetry_space_group_name_H-M "C 2/M"
_symmetry_group_IT_number 12
_symmetry_cell_setting 'monoclinic'
loop_
_space_group_symop_operation_xyz
x,y,z
-x,y,-z
-x,-y,-z
x,-y,z
1/2+x,1/2+y,z
1/2-x,1/2+y,-z
1/2-x,1/2-y,-z
1/2+x,1/2-y,z
loop_
_atom_site_type_symbol
_atom_site_label
_atom_site_fract_x
_atom_site_fract_y
_atom_site_fract_z
Si Si1 0.083558 0.866424 0.464803
Si Si2 0.297512 0.743354 0.172812
Si Si3 0.119995 0.626528 0.772878
Si Si4 0.039189 0.770040 0.727815
Si Si5 0.581429 0.500000 0.756583
Si Si6 0.679214 0.500000 0.807071
O O1 0.206395 0.821747 0.251428
O O2 0.000000 0.849967 0.500000
O O3 0.045465 0.776551 0.603487
O O4 0.086036 0.000000 0.492752
O O5 0.305351 0.790397 0.270660
O O6 0.260606 0.610886 0.236104
O O7 0.410561 0.747839 0.946032
O O8 0.173512 0.500000 0.691511
O O9 0.109447 0.670824 0.678447
O O10 0.000000 0.623490 0.000000
O O11 0.099080 0.886768 0.670208
O O12 0.680462 0.500000 0.690178
O O13 0.453788 0.500000 0.979597
#
# Coordination Sequence:
#
# PCOD8094041 Si02
#       6
#     8   8   8   8   4   4
#     4  11  25  43  61  83 113 155 209 254 287 338
#     4  10  20  36  61  88 119 154 191 238 292 351
#     4   9  17  31  55  90 125 152 181 229 296 359
#     4  10  19  36  62  86 118 156 191 236 291 354
#     4   9  14  30  57  88 115 151 192 228 279 359
#     4   9  16  30  57  88 119 149 186 232 291 349
#
# _framework density 20.567088999999999
#
# number of rings (size 3 to 8) (size 9 to 14) (size 15 to 20)
#    0.000    2.200    3.000    0.600    0.000    2.400 
#    1.800    0.500    0.000    0.000    0.000    0.000 
#    0.000    0.000    0.000    0.000    0.000    0.000 
#
# Total GULP energy -247830.603601 kJ/mol
# GULP energy per Si atom -12391.530180 kJ/mol
# Density = 2.052028 g / cm^3
# Si number density = 20.567089 Si / 1000 Ang^3
#
#
#
# Elastic Constant Matrix: (Units=GPa)
#
#
# Indices 1 2 3 4 5 6 
#
# 1 70.7718 38.9798 2.1264 0.0000 -5.4536 0.0000
# 2 38.9798 131.1513 19.2205 0.0000 -5.9369 0.0000
# 3 2.1264 19.2205 17.7609 0.0000 2.1093 0.0000
# 4 0.0000 0.0000 0.0000 29.5949 0.0000 -3.9639
# 5 -5.4536 -5.9369 2.1093 0.0000 28.3091 0.0000
# 6 0.0000 0.0000 0.0000 -3.9639 0.0000 28.9322
#
#
#
# Elastic Compliance Matrix: (Units=1/GPa)
#
#
# Indices 1 2 3 4 5 6 
#
# 1 0.017240 -0.005591 0.003765 0.000000 0.001868 0.000000
# 2 -0.005591 0.011077 -0.011569 0.000000 0.002108 0.000000
# 3 0.003765 -0.011569 0.069186 0.000000 -0.006856 0.000000
# 4 0.000000 0.000000 0.000000 0.034421 0.000000 0.004716
# 5 0.001868 0.002108 -0.006856 0.000000 0.036637 0.000000
# 6 0.000000 0.000000 0.000000 0.004716 0.000000 0.035210
#
#
# Mechanical properties :
#
#
# Convention : Reuss Voigt Hill
#
# Bulk Modulus (GPa) = 14.14152 37.81527 25.97839
# Shear Modulus (GPa) = 19.67469 27.99105 23.83287
#
# Velocity S-wave (km/s) = 3.09627 3.69313 3.40779
# Velocity P-wave (km/s) = 4.43545 6.05077 5.30495
#
# Compressibility (1/GPa) = 0.07071378
#
# Stress axis : x y z
#
# Youngs Moduli (GPa) = 58.00368 90.27399 14.45372
#
# Poissons Ratio (x) = 0.50474 -0.05441
# Poissons Ratio (y) = 0.32431 0.16721
# Poissons Ratio (z) = -0.21837 1.04435
#
# Static dielectric constant tensor:
#      x y z
#    x 3.438130 0.000000 -0.003300 
#    y 0.000000 4.005940 0.000000 
#    z -0.003300 0.000000 3.672750 
# 
# 
# High freq. dielectric constant tensor:
#      x y z
#    x 1.767980 0.000000 0.000480 
#    y 0.000000 1.811260 0.000000 
#    z 0.000480 0.000000 1.803940 
# 
# From -- ./inp_files/239870.got.cif
#   From: 2010.06.25/outbox.cif.g09.slc.cpg/sg12_120_cif.got.tgz:239870.got - 2010.06.28 00:19:55.
