data_PCOD8094669
_publ_section_title
;
Structure prediction by ZEFSAII (Michael W. Deem and Ramdas Pophale) SiO2 
 PCOD8094669
Probable space group: C 2/M
;
_chemical_formula_sum "Si O2"
_cell_formula_units_Z 60
_cell_length_a 27.283895
_cell_length_b 14.358770
_cell_length_c 25.155840
_cell_angle_alpha 90.000000
_cell_angle_beta 18.075860
_cell_angle_gamma 90.000000
_cell_volume 3057.810137
_symmetry_space_group_name_H-M "C 2/M"
_symmetry_group_IT_number 12
_symmetry_cell_setting 'monoclinic'
loop_
_space_group_symop_operation_xyz
x,y,z
-x,y,-z
-x,-y,-z
x,-y,z
1/2+x,1/2+y,z
1/2-x,1/2+y,-z
1/2-x,1/2-y,-z
1/2+x,1/2-y,z
loop_
_atom_site_type_symbol
_atom_site_label
_atom_site_fract_x
_atom_site_fract_y
_atom_site_fract_z
Si Si1 0.171961 0.394749 0.921668
Si Si2 0.576667 0.246155 0.203010
Si Si3 0.495860 0.608965 0.375046
Si Si4 0.243567 0.749545 0.666104
Si Si5 0.000882 0.755100 0.168099
Si Si6 0.000000 0.682806 0.000000
Si Si7 0.017192 0.605259 0.540755
Si Si8 0.281279 0.894712 0.871634
O O1 0.132642 0.500000 0.978022
O O2 0.360047 0.376400 0.731935
O O3 0.110633 0.377808 0.924959
O O4 0.086144 0.333031 0.054010
O O5 0.533802 0.338537 0.280590
O O6 0.460895 0.235958 0.271523
O O7 0.580232 0.155236 0.236701
O O8 0.750000 0.250000 0.000000
O O9 0.466016 0.500000 0.393814
O O10 0.339878 0.652320 0.563205
O O11 0.163587 0.771583 0.691907
O O12 0.357899 0.835374 0.555836
O O13 0.114077 0.746234 0.846365
O O14 0.112164 0.845456 0.047918
O O15 0.082214 0.500000 0.470987
O O16 0.000000 0.648420 0.500000
O O17 0.844970 0.608461 0.745619
O O18 0.260912 0.000000 0.913285
#
# Coordination Sequence:
#
# PCOD8094669 Si02
#       8
#     8   8   8   8   8   4   8   8
#     4  10  20  38  61  87 124 159 205 249 299 362
#     4  10  19  38  64  88 122 153 204 247 302 360
#     4  11  23  40  63  92 123 162 204 252 301 366
#     4  11  24  40  63  86 131 158 206 251 309 364
#     4  10  22  38  59  92 124 160 195 255 305 353
#     4  10  25  38  61  92 120 170 197 254 307 364
#     4  10  22  39  63  88 119 159 204 255 303 361
#     4  10  20  38  63  90 117 156 207 250 297 364
#
# _framework density 19.621884999999999
#
# number of rings (size 3 to 8) (size 9 to 14) (size 15 to 20)
#    0.000    1.733    4.000    0.200    5.600    6.400 
#    0.000    1.667    0.000    0.000    0.000    0.000 
#    0.000    0.000    0.000    0.000    0.000    0.000 
#
# Total GULP energy -371919.122617 kJ/mol
# GULP energy per Si atom -12397.304087 kJ/mol
# Density = 1.957723 g / cm^3
# Si number density = 19.621885 Si / 1000 Ang^3
#
#
#
# Elastic Constant Matrix: (Units=GPa)
#
#
# Indices 1 2 3 4 5 6 
#
# 1 143.8358 56.2745 33.0821 -0.0091 -12.0823 -0.0046
# 2 56.2745 121.8003 28.8505 -0.0105 -9.5816 -0.0008
# 3 33.0821 28.8505 69.3338 -0.0251 -2.0283 0.0080
# 4 -0.0091 -0.0105 -0.0251 16.9230 0.0199 1.9424
# 5 -12.0823 -9.5816 -2.0283 0.0199 36.0829 -0.0053
# 6 -0.0046 -0.0008 0.0080 1.9424 -0.0053 19.8322
#
#
#
# Elastic Compliance Matrix: (Units=1/GPa)
#
#
# Indices 1 2 3 4 5 6 
#
# 1 0.009099 -0.003364 -0.002883 -0.000004 0.001991 0.000004
# 2 -0.003364 0.010531 -0.002732 -0.000001 0.001516 0.000001
# 3 -0.002883 -0.002732 0.016914 0.000024 -0.000740 -0.000010
# 4 -0.000004 -0.000001 0.000024 0.059763 -0.000034 -0.005853
# 5 0.001991 0.001516 -0.000740 -0.000034 0.028742 0.000012
# 6 0.000004 0.000001 -0.000010 -0.005853 0.000012 0.050996
#
#
# Mechanical properties :
#
#
# Convention : Reuss Voigt Hill
#
# Bulk Modulus (GPa) = 53.80992 63.48712 58.64852
# Shear Modulus (GPa) = 24.97494 29.01846 26.99670
#
# Velocity S-wave (km/s) = 3.57152 3.84980 3.71326
# Velocity P-wave (km/s) = 6.67013 7.22404 6.95260
#
# Compressibility (1/GPa) = 0.01858393
#
# Stress axis : x y z
#
# Youngs Moduli (GPa) = 109.90098 94.95703 59.12224
#
# Poissons Ratio (x) = 0.31947 0.17047
# Poissons Ratio (y) = 0.36975 0.16155
# Poissons Ratio (z) = 0.31689 0.25946
#
# Static dielectric constant tensor:
#      x y z
#    x 4.299690 -0.000060 0.054750 
#    y -0.000060 3.566510 0.000070 
#    z 0.054750 0.000070 3.547110 
# 
# 
# High freq. dielectric constant tensor:
#      x y z
#    x 1.774260 0.000000 0.004660 
#    y 0.000000 1.760900 0.000000 
#    z 0.004660 0.000000 1.756570 
# 
# From -- ./inp_files/352130.got.cif
#   From: 2010.06.25/outbox.cif.g09.slc.cpg/sg12_177_cif.got.tgz:352130.got - 2010.06.28 00:19:55.
