data_PCOD8094778
_publ_section_title
;
Structure prediction by ZEFSAII (Michael W. Deem and Ramdas Pophale) SiO2 
 PCOD8094778
Probable space group: C 2/M
;
_chemical_formula_sum "Si O2"
_cell_formula_units_Z 64
_cell_length_a 24.348512
_cell_length_b 18.871734
_cell_length_c 16.807209
_cell_angle_alpha 90.000000
_cell_angle_beta 21.941465
_cell_angle_gamma 90.000000
_cell_volume 2885.728486
_symmetry_space_group_name_H-M "C 2/M"
_symmetry_group_IT_number 12
_symmetry_cell_setting 'monoclinic'
loop_
_space_group_symop_operation_xyz
x,y,z
-x,y,-z
-x,-y,-z
x,-y,z
1/2+x,1/2+y,z
1/2-x,1/2+y,-z
1/2-x,1/2-y,-z
1/2+x,1/2-y,z
loop_
_atom_site_type_symbol
_atom_site_label
_atom_site_fract_x
_atom_site_fract_y
_atom_site_fract_z
Si Si1 0.740659 0.722985 0.265163
Si Si2 0.188512 0.920157 0.417428
Si Si3 0.342382 0.581243 0.886491
Si Si4 0.611320 0.782405 0.586568
Si Si5 0.917314 0.148277 0.033587
Si Si6 0.776080 0.295936 0.043285
Si Si7 0.831858 0.583645 0.723250
Si Si8 0.810711 0.856001 0.428726
O O1 0.757780 0.639604 0.265953
O O2 0.619581 0.765440 0.480894
O O3 0.894125 0.766168 0.072140
O O4 0.695642 0.730935 0.232222
O O5 0.249120 0.913998 0.427088
O O6 0.015252 0.904827 0.658976
O O7 0.221410 0.000000 0.341183
O O8 0.304947 0.500000 0.920478
O O9 0.280804 0.624793 0.894580
O O10 0.256317 0.609201 0.080062
O O11 0.708207 0.849801 0.487359
O O12 0.689710 0.716323 0.521684
O O13 0.447297 0.796970 0.834048
O O14 0.756261 0.113916 0.234852
O O15 0.000000 0.118683 0.000000
O O16 0.022244 0.126331 0.819840
O O17 0.750000 0.250000 0.000000
O O18 0.831137 0.500000 0.716758
O O19 0.000000 0.611836 0.500000
#
# Coordination Sequence:
#
# PCOD8094778 Si02
#       8
#     8   8   8   8   8   8   8   8
#     4  11  24  39  62  99 133 170 225 284 339 395
#     4  10  22  43  69  95 129 178 227 273 332 409
#     4  10  22  41  63  86 123 172 219 269 334 405
#     4  10  22  38  61  92 130 169 208 276 333 392
#     4  12  22  38  65 102 136 175 225 285 339 408
#     4  12  24  40  63  95 129 170 223 277 336 407
#     4  10  23  43  65  94 135 176 217 278 352 414
#     4  10  19  39  64  93 126 170 218 263 336 395
#
# _framework density 22.17811
#
# number of rings (size 3 to 8) (size 9 to 14) (size 15 to 20)
#    0.000    1.375    3.750    2.250    1.750    2.750 
#    2.250    1.875    0.000    2.625    0.000    0.000 
#    0.000    0.000    0.000    0.000    0.000    0.000 
#
# Total GULP energy -396515.688938 kJ/mol
# GULP energy per Si atom -12391.115279 kJ/mol
# Density = 2.212763 g / cm^3
# Si number density = 22.178110 Si / 1000 Ang^3
#
#
#
# Elastic Constant Matrix: (Units=GPa)
#
#
# Indices 1 2 3 4 5 6 
#
# 1 139.6049 45.6739 52.8935 -0.0006 8.2692 0.0000
# 2 45.6739 54.5763 10.3226 -0.0010 -1.1623 0.0009
# 3 52.8935 10.3226 69.2070 -0.0007 -5.1636 0.0018
# 4 -0.0006 -0.0010 -0.0007 25.9845 -0.0002 1.1545
# 5 8.2692 -1.1623 -5.1636 -0.0002 40.4133 0.0005
# 6 0.0000 0.0009 0.0018 1.1545 0.0005 31.9158
#
#
#
# Elastic Compliance Matrix: (Units=1/GPa)
#
#
# Indices 1 2 3 4 5 6 
#
# 1 0.014628 -0.010455 -0.009961 0.000000 -0.004567 0.000001
# 2 -0.010455 0.026329 0.004321 0.000001 0.003449 -0.000001
# 3 -0.009961 0.004321 0.021787 0.000001 0.004946 -0.000001
# 4 0.000000 0.000001 0.000001 0.038546 0.000000 -0.001394
# 5 -0.004567 0.003449 0.004946 0.000000 0.026410 -0.000001
# 6 0.000001 -0.000001 -0.000001 -0.001394 -0.000001 0.031383
#
#
# Mechanical properties :
#
#
# Convention : Reuss Voigt Hill
#
# Bulk Modulus (GPa) = 32.72988 53.46314 43.09651
# Shear Modulus (GPa) = 24.81883 29.96259 27.39071
#
# Velocity S-wave (km/s) = 3.34888 3.67958 3.51812
# Velocity P-wave (km/s) = 5.45372 6.49700 5.99809
#
# Compressibility (1/GPa) = 0.03055312
#
# Stress axis : x y z
#
# Youngs Moduli (GPa) = 68.36019 37.98094 45.89829
#
# Poissons Ratio (x) = 0.39710 0.45721
# Poissons Ratio (y) = 0.71473 -0.19833
# Poissons Ratio (z) = 0.68097 -0.16412
#
# Static dielectric constant tensor:
#      x y z
#    x 4.155650 0.000000 0.123890 
#    y 0.000000 3.998590 0.000010 
#    z 0.123890 0.000010 3.973730 
# 
# 
# High freq. dielectric constant tensor:
#      x y z
#    x 1.873390 0.000000 0.009760 
#    y 0.000000 1.855950 0.000000 
#    z 0.009760 0.000000 1.863880 
# 
# From -- ./inp_files/294145.got.cif
#   From: 2010.06.25/outbox.cif.g09.slc.cpg/sg12_148_cif.got.tgz:294145.got - 2010.06.28 00:19:55.
