data_PCOD8094579
_publ_section_title
;
Structure prediction by ZEFSAII (Michael W. Deem and Ramdas Pophale) SiO2 
 PCOD8094579
Probable space group: C 2/M
;
_chemical_formula_sum "Si O2"
_cell_formula_units_Z 56
_cell_length_a 12.050524
_cell_length_b 31.678286
_cell_length_c 14.588524
_cell_angle_alpha 90.000000
_cell_angle_beta 30.963935
_cell_angle_gamma 90.000000
_cell_volume 2865.253241
_symmetry_space_group_name_H-M "C 2/M"
_symmetry_group_IT_number 12
_symmetry_cell_setting 'monoclinic'
loop_
_space_group_symop_operation_xyz
x,y,z
-x,y,-z
-x,-y,-z
x,-y,z
1/2+x,1/2+y,z
1/2-x,1/2+y,-z
1/2-x,1/2-y,-z
1/2+x,1/2-y,z
loop_
_atom_site_type_symbol
_atom_site_label
_atom_site_fract_x
_atom_site_fract_y
_atom_site_fract_z
Si Si1 0.710596 0.270644 0.406807
Si Si2 0.429833 0.306874 0.301349
Si Si3 0.599459 0.405628 0.682731
Si Si4 0.084272 0.548588 0.660367
Si Si5 0.098019 0.414879 0.025966
Si Si6 0.571681 0.183429 0.048719
Si Si7 0.302765 0.549078 0.201785
O O1 0.500000 0.281350 0.500000
O O2 0.637623 0.283970 0.558434
O O3 0.789165 0.222101 0.331591
O O4 0.914599 0.299170 0.237042
O O5 0.364715 0.355499 0.340814
O O6 0.684769 0.302260 0.102524
O O7 0.710975 0.423225 0.511923
O O8 0.706739 0.424513 0.698160
O O9 0.354115 0.420478 0.848194
O O10 0.152417 0.500000 0.610342
O O11 0.004076 0.559290 0.818438
O O12 0.907560 0.558252 0.708269
O O13 0.038571 0.366349 0.077728
O O14 0.000000 0.432743 0.000000
O O15 0.500000 0.200501 0.000000
O O16 0.326534 0.500000 0.211422
O O17 0.500000 0.564700 0.000000
#
# Coordination Sequence:
#
# PCOD8094579 Si02
#       7
#     8   8   8   8   8   8   8
#     4  11  21  37  60  85 117 152 192 242 291 351
#     4  10  23  38  57  87 117 153 193 240 296 344
#     4  11  22  40  62  89 120 155 200 249 294 353
#     4  11  23  39  63  91 119 157 199 243 299 356
#     4  10  23  40  60  87 120 159 203 247 291 345
#     4  10  19  38  61  81 111 155 199 237 286 348
#     4  10  20  38  64  88 117 156 194 240 300 358
#
# _framework density 19.544521
#
# number of rings (size 3 to 8) (size 9 to 14) (size 15 to 20)
#    0.000    1.571    2.857    2.143    0.000    3.714 
#    0.000    1.429    0.000    0.000    0.000    0.000 
#    0.000    0.000    0.000    0.000    0.000    0.000 
#
# Total GULP energy -347140.654134 kJ/mol
# GULP energy per Si atom -12397.880505 kJ/mol
# Density = 1.950004 g / cm^3
# Si number density = 19.544521 Si / 1000 Ang^3
#
#
#
# Elastic Constant Matrix: (Units=GPa)
#
#
# Indices 1 2 3 4 5 6 
#
# 1 78.0366 42.6410 23.2062 0.0000 -0.4158 0.0000
# 2 42.6410 82.9632 60.4138 0.0000 -0.6763 0.0000
# 3 23.2062 60.4138 124.9836 0.0000 -3.7324 0.0000
# 4 0.0000 0.0000 0.0000 33.4360 0.0000 1.4707
# 5 -0.4158 -0.6763 -3.7324 0.0000 10.2986 0.0000
# 6 0.0000 0.0000 0.0000 1.4707 0.0000 26.2264
#
#
#
# Elastic Compliance Matrix: (Units=1/GPa)
#
#
# Indices 1 2 3 4 5 6 
#
# 1 0.018068 -0.010575 0.001777 0.000000 0.000679 0.000000
# 2 -0.010575 0.024834 -0.010114 0.000000 -0.002462 0.000000
# 3 0.001777 -0.010114 0.012679 0.000000 0.004003 0.000000
# 4 0.000000 0.000000 0.000000 0.029982 0.000000 -0.001681
# 5 0.000679 -0.002462 0.004003 0.000000 0.098417 0.000000
# 6 0.000000 0.000000 0.000000 -0.001681 0.000000 0.038224
#
#
# Mechanical properties :
#
#
# Convention : Reuss Voigt Hill
#
# Bulk Modulus (GPa) = 56.31412 59.83392 58.07402
# Shear Modulus (GPa) = 18.80072 24.64037 21.72055
#
# Velocity S-wave (km/s) = 3.10489 3.55453 3.33729
# Velocity P-wave (km/s) = 6.45984 6.89397 6.68043
#
# Compressibility (1/GPa) = 0.01775753
#
# Stress axis : x y z
#
# Youngs Moduli (GPa) = 55.34602 40.26749 78.86782
#
# Poissons Ratio (x) = 0.42584 -0.14017
# Poissons Ratio (y) = 0.58530 0.79767
# Poissons Ratio (z) = -0.09837 0.40727
#
# Static dielectric constant tensor:
#      x y z
#    x 3.499760 0.000000 -0.041180 
#    y 0.000000 3.609650 0.000000 
#    z -0.041180 0.000000 3.705660 
# 
# 
# High freq. dielectric constant tensor:
#      x y z
#    x 1.755860 0.000000 -0.001410 
#    y 0.000000 1.760910 0.000000 
#    z -0.001410 0.000000 1.779930 
# 
# From -- ./inp_files/209980.got.cif
#   From: 2010.06.25/outbox.cif.g09.slc.cpg/sg12_105_cif.got.tgz:209980.got - 2010.06.28 00:19:55.
