data_PCOD8094628
_publ_section_title
;
Structure prediction by ZEFSAII (Michael W. Deem and Ramdas Pophale) SiO2 
 PCOD8094628
Probable space group: C 2/M
;
_chemical_formula_sum "Si O2"
_cell_formula_units_Z 48
_cell_length_a 23.634640
_cell_length_b 13.986232
_cell_length_c 18.356042
_cell_angle_alpha 90.000000
_cell_angle_beta 23.057061
_cell_angle_gamma 90.000000
_cell_volume 2376.426062
_symmetry_space_group_name_H-M "C 2/M"
_symmetry_group_IT_number 12
_symmetry_cell_setting 'monoclinic'
loop_
_space_group_symop_operation_xyz
x,y,z
-x,y,-z
-x,-y,-z
x,-y,z
1/2+x,1/2+y,z
1/2-x,1/2+y,-z
1/2-x,1/2-y,-z
1/2+x,1/2-y,z
loop_
_atom_site_type_symbol
_atom_site_label
_atom_site_fract_x
_atom_site_fract_y
_atom_site_fract_z
Si Si1 0.342497 0.207545 0.159423
Si Si2 0.428410 0.795022 0.744179
Si Si3 0.341064 0.344534 0.377933
Si Si4 0.101348 0.894669 0.534205
Si Si5 0.360623 0.253211 0.979085
Si Si6 0.218596 0.605893 0.372784
O O1 0.229741 0.136200 0.329146
O O2 0.330558 0.191559 0.086922
O O3 0.310967 0.318248 0.217420
O O4 0.500000 0.178347 0.000000
O O5 0.473375 0.683078 0.682368
O O6 0.283435 0.813804 0.869926
O O7 0.550364 0.865070 0.569607
O O8 0.400011 0.814958 0.863703
O O9 0.250000 0.250000 0.500000
O O10 0.335968 0.404415 0.458246
O O11 0.270402 0.400347 0.394909
O O12 0.506976 0.323497 0.160064
O O13 0.044893 0.000000 0.577512
O O14 0.235396 0.500000 0.318488
#
# Coordination Sequence:
#
# PCOD8094628 Si02
#       6
#     8   8   8   8   8   8
#     4  11  21  37  58  85 120 147 189 240 291 338
#     4   9  21  40  61  82 114 154 196 232 281 340
#     4  11  17  38  62  83 113 154 196 231 280 336
#     4  10  21  36  58  84 116 155 192 232 285 342
#     4  10  19  38  63  83 113 155 189 238 286 333
#     4  11  22  37  58  86 117 153 191 234 286 342
#
# _framework density 20.198398000000001
#
# number of rings (size 3 to 8) (size 9 to 14) (size 15 to 20)
#    0.000    1.667    6.667    0.500    0.000    3.333 
#    0.000   13.333    0.000    0.000    0.000    0.000 
#    0.000    0.000    0.000    0.000    0.000    0.000 
#
# Total GULP energy -297529.700207 kJ/mol
# GULP energy per Si atom -12397.070842 kJ/mol
# Density = 2.015243 g / cm^3
# Si number density = 20.198398 Si / 1000 Ang^3
#
#
#
# Elastic Constant Matrix: (Units=GPa)
#
#
# Indices 1 2 3 4 5 6 
#
# 1 84.7834 2.8834 37.6604 -0.0001 4.1481 0.0000
# 2 2.8834 105.0503 15.3773 0.0000 -0.7272 -0.0001
# 3 37.6604 15.3773 108.6041 -0.0002 -5.6806 0.0000
# 4 -0.0001 0.0000 -0.0002 8.3324 0.0002 -0.2759
# 5 4.1481 -0.7272 -5.6806 0.0002 44.1434 0.0000
# 6 0.0000 -0.0001 0.0000 -0.2759 0.0000 13.3622
#
#
#
# Elastic Compliance Matrix: (Units=1/GPa)
#
#
# Indices 1 2 3 4 5 6 
#
# 1 0.014122 0.000338 -0.005048 0.000000 -0.001971 0.000000
# 2 0.000338 0.009729 -0.001498 0.000000 -0.000064 0.000000
# 3 -0.005048 -0.001498 0.011270 0.000000 0.001900 0.000000
# 4 0.000000 0.000000 0.000000 0.120096 0.000000 0.002480
# 5 -0.001971 -0.000064 0.001900 0.000000 0.023082 0.000000
# 6 0.000000 0.000000 0.000000 0.002480 0.000000 0.074889
#
#
# Mechanical properties :
#
#
# Convention : Reuss Voigt Hill
#
# Bulk Modulus (GPa) = 44.04512 45.58666 44.81589
# Shear Modulus (GPa) = 18.30348 29.33538 23.81943
#
# Velocity S-wave (km/s) = 3.01356 3.81512 3.43778
# Velocity P-wave (km/s) = 5.82772 6.48269 6.16391
#
# Compressibility (1/GPa) = 0.02270399
#
# Stress axis : x y z
#
# Youngs Moduli (GPa) = 70.81159 102.78751 88.73357
#
# Poissons Ratio (x) = -0.03471 0.44792
# Poissons Ratio (y) = -0.02391 0.13292
# Poissons Ratio (z) = 0.35745 0.15397
#
# Static dielectric constant tensor:
#      x y z
#    x 3.921490 0.000000 0.010880 
#    y 0.000000 3.316920 0.000000 
#    z 0.010880 0.000000 3.836200 
# 
# 
# High freq. dielectric constant tensor:
#      x y z
#    x 1.789730 0.000000 0.001330 
#    y 0.000000 1.746380 0.000000 
#    z 0.001330 0.000000 1.804440 
# 
# From -- ./inp_files/328197.got.cif
#   From: 2010.06.25/outbox.cif.g09.slc.cpg/sg12_165_cif.got.tgz:328197.got - 2010.06.28 00:19:55.
