data_PCOD8094870
_publ_section_title
;
Structure prediction by ZEFSAII (Michael W. Deem and Ramdas Pophale) SiO2 
 PCOD8094870
Probable space group: C 2/M
;
_chemical_formula_sum "Si O2"
_cell_formula_units_Z 48
_cell_length_a 10.612741
_cell_length_b 27.216628
_cell_length_c 8.810982
_cell_angle_alpha 90.000000
_cell_angle_beta 86.494935
_cell_angle_gamma 90.000000
_cell_volume 2540.230019
_symmetry_space_group_name_H-M "C 2/M"
_symmetry_group_IT_number 12
_symmetry_cell_setting 'monoclinic'
loop_
_space_group_symop_operation_xyz
x,y,z
-x,y,-z
-x,-y,-z
x,-y,z
1/2+x,1/2+y,z
1/2-x,1/2+y,-z
1/2-x,1/2-y,-z
1/2+x,1/2-y,z
loop_
_atom_site_type_symbol
_atom_site_label
_atom_site_fract_x
_atom_site_fract_y
_atom_site_fract_z
Si Si1 0.612480 0.794252 0.612432
Si Si2 0.370655 0.315043 0.424058
Si Si3 0.372600 0.500000 0.807505
Si Si4 0.816612 0.445804 0.357927
Si Si5 0.990773 0.374199 0.179143
Si Si6 0.659057 0.500000 0.833331
Si Si7 0.260715 0.901603 0.682104
O O1 0.500000 0.803064 0.500000
O O2 0.617120 0.737161 0.662720
O O3 0.748524 0.811775 0.542327
O O4 0.583632 0.825413 0.764819
O O5 0.500000 0.326496 0.500000
O O6 0.351579 0.361060 0.310878
O O7 0.313558 0.451677 0.729731
O O8 0.520894 0.500000 0.770550
O O9 0.338594 0.500000 0.986523
O O10 0.865085 0.500000 0.404123
O O11 0.798439 0.412374 0.505827
O O12 0.920672 0.422940 0.240819
O O13 0.128534 0.373907 0.240284
O O14 0.000000 0.374945 0.000000
O O15 0.726786 0.451248 0.770879
#
# Coordination Sequence:
#
# PCOD8094870 Si02
#       7
#     8   8   4   8   8   4   8
#     4  10  19  42  64  90 123 162 207 265 310 370
#     4  10  22  36  68  93 120 155 213 264 314 360
#     4   9  23  42  55  84 131 173 198 254 313 374
#     4  10  22  38  60  86 122 158 213 254 297 363
#     4  12  24  39  63  91 129 166 208 262 328 378
#     4  11  23  38  61  86 135 165 206 248 317 384
#     4  12  23  38  63  95 119 164 216 258 309 371
#
# _framework density 18.895927
#
# number of rings (size 3 to 8) (size 9 to 14) (size 15 to 20)
#    0.500    0.833    4.167    1.500    3.500    1.667 
#    0.000    0.833    3.667    0.000    0.000    0.000 
#    0.000    0.000    0.000    0.000    0.000    0.000 
#
# Total GULP energy -297513.438175 kJ/mol
# GULP energy per Si atom -12396.393257 kJ/mol
# Density = 1.885292 g / cm^3
# Si number density = 18.895927 Si / 1000 Ang^3
#
#
#
# Elastic Constant Matrix: (Units=GPa)
#
#
# Indices 1 2 3 4 5 6 
#
# 1 118.3288 34.6538 35.2777 0.0000 11.8888 0.0000
# 2 34.6538 121.5874 26.6613 0.0000 4.8311 0.0000
# 3 35.2777 26.6613 96.9116 0.0000 7.0205 0.0000
# 4 0.0000 0.0000 0.0000 31.5758 0.0000 -6.6632
# 5 11.8888 4.8311 7.0205 0.0000 26.8093 0.0000
# 6 0.0000 0.0000 0.0000 -6.6632 0.0000 39.8535
#
#
#
# Elastic Compliance Matrix: (Units=1/GPa)
#
#
# Indices 1 2 3 4 5 6 
#
# 1 0.010293 -0.002161 -0.002905 0.000000 -0.003414 0.000000
# 2 -0.002161 0.009231 -0.001735 0.000000 -0.000251 0.000000
# 3 -0.002905 -0.001735 0.011964 0.000000 -0.001532 0.000000
# 4 0.000000 0.000000 0.000000 0.032828 0.000000 0.005489
# 5 -0.003414 -0.000251 -0.001532 0.000000 0.039261 0.000000
# 6 0.000000 0.000000 0.000000 0.005489 0.000000 0.026010
#
#
# Mechanical properties :
#
#
# Convention : Reuss Voigt Hill
#
# Bulk Modulus (GPa) = 55.90685 58.89039 57.39862
# Shear Modulus (GPa) = 33.52321 35.66340 34.59330
#
# Velocity S-wave (km/s) = 4.21657 4.34909 4.28334
# Velocity P-wave (km/s) = 7.30458 7.51350 7.40978
#
# Compressibility (1/GPa) = 0.01788690
#
# Stress axis : x y z
#
# Youngs Moduli (GPa) = 97.15326 108.33330 83.58144
#
# Poissons Ratio (x) = 0.23410 0.24280
# Poissons Ratio (y) = 0.20994 0.14499
# Poissons Ratio (z) = 0.28223 0.18792
#
# Static dielectric constant tensor:
#      x y z
#    x 3.575660 0.000000 0.071440 
#    y 0.000000 3.715690 0.000000 
#    z 0.071440 0.000000 3.218870 
# 
# 
# High freq. dielectric constant tensor:
#      x y z
#    x 1.743930 0.000000 0.006730 
#    y 0.000000 1.752070 0.000000 
#    z 0.006730 0.000000 1.707040 
# 
# From -- ./inp_files/42299.got.cif
#   From: 2010.06.25/outbox.cif.g09.slc.cpg/sg12_22_cif.got.tgz:42299.got - 2010.06.28 00:19:55.
