data_PCOD8094570
_publ_section_title
;
Structure prediction by ZEFSAII (Michael W. Deem and Ramdas Pophale) SiO2 
 PCOD8094570
Probable space group: C 2/M
;
_chemical_formula_sum "Si O2"
_cell_formula_units_Z 36
_cell_length_a 13.970234
_cell_length_b 9.670592
_cell_length_c 14.621081
_cell_angle_alpha 90.000000
_cell_angle_beta 77.687043
_cell_angle_gamma 90.000000
_cell_volume 1929.876959
_symmetry_space_group_name_H-M "C 2/M"
_symmetry_group_IT_number 12
_symmetry_cell_setting 'monoclinic'
loop_
_space_group_symop_operation_xyz
x,y,z
-x,y,-z
-x,-y,-z
x,-y,z
1/2+x,1/2+y,z
1/2-x,1/2+y,-z
1/2-x,1/2-y,-z
1/2+x,1/2-y,z
loop_
_atom_site_type_symbol
_atom_site_label
_atom_site_fract_x
_atom_site_fract_y
_atom_site_fract_z
Si Si1 0.709410 0.000000 0.978432
Si Si2 0.480946 0.000000 0.896627
Si Si3 0.392865 0.500000 0.062440
Si Si4 0.104442 0.160360 0.516350
Si Si5 0.792539 0.341079 0.362809
Si Si6 0.638414 0.790512 0.846057
O O1 0.691514 0.136295 0.920940
O O2 0.819382 0.000000 0.991780
O O3 0.637677 0.000000 0.084202
O O4 0.533199 0.863295 0.844739
O O5 0.500000 0.000000 0.000000
O O6 0.377975 0.631357 0.129680
O O7 0.500000 0.500000 0.000000
O O8 0.127530 0.247805 0.602064
O O9 0.183986 0.191447 0.421614
O O10 0.000000 0.209071 0.500000
O O11 0.103104 0.000000 0.544851
O O12 0.820789 0.500000 0.374039
O O13 0.792047 0.304697 0.255900
#
# Coordination Sequence:
#
# PCOD8094570 Si02
#       6
#     4   4   4   8   8   8
#     4  10  20  40  60  75 111 153 185 225 290 335
#     4   8  16  36  60  73 105 146 180 220 279 331
#     4  12  24  38  54  84 118 147 185 239 283 328
#     4   9  20  38  60  84 119 149 178 226 291 334
#     4  10  19  38  60  84 114 149 188 231 269 334
#     4  10  20  37  58  85 109 145 192 233 274 332
#
# _framework density 18.654039000000001
#
# number of rings (size 3 to 8) (size 9 to 14) (size 15 to 20)
#    0.000    2.444    2.222    2.667    1.556    0.444 
#    8.000    0.000    0.000    0.000    0.000    0.000 
#    0.000    0.000    0.000    0.000    0.000    0.000 
#
# Total GULP energy -223178.534209 kJ/mol
# GULP energy per Si atom -12398.807456 kJ/mol
# Density = 1.861158 g / cm^3
# Si number density = 18.654039 Si / 1000 Ang^3
#
#
#
# Elastic Constant Matrix: (Units=GPa)
#
#
# Indices 1 2 3 4 5 6 
#
# 1 133.1071 45.0266 42.4814 0.0000 2.0878 0.0000
# 2 45.0266 129.1611 41.1231 0.0000 0.2604 0.0000
# 3 42.4814 41.1231 93.1563 0.0000 -11.6280 0.0000
# 4 0.0000 0.0000 0.0000 32.1021 0.0000 -0.6712
# 5 2.0878 0.2604 -11.6280 0.0000 16.7065 0.0000
# 6 0.0000 0.0000 0.0000 -0.6712 0.0000 15.6023
#
#
#
# Elastic Compliance Matrix: (Units=1/GPa)
#
#
# Indices 1 2 3 4 5 6 
#
# 1 0.009522 -0.002065 -0.003915 0.000000 -0.003883 0.000000
# 2 -0.002065 0.009614 -0.003602 0.000000 -0.002399 0.000000
# 3 -0.003915 -0.003602 0.015527 0.000000 0.011352 0.000000
# 4 0.000000 0.000000 0.000000 0.031179 0.000000 0.001341
# 5 -0.003883 -0.002399 0.011352 0.000000 0.068281 0.000000
# 6 0.000000 0.000000 0.000000 0.001341 0.000000 0.064151
#
#
# Mechanical properties :
#
#
# Convention : Reuss Voigt Hill
#
# Bulk Modulus (GPa) = 64.52097 68.07630 66.29864
# Shear Modulus (GPa) = 22.46153 28.00173 25.23163
#
# Velocity S-wave (km/s) = 3.47379 3.87862 3.68177
# Velocity P-wave (km/s) = 7.12411 7.52540 7.32750
#
# Compressibility (1/GPa) = 0.01549884
#
# Stress axis : x y z
#
# Youngs Moduli (GPa) = 105.02304 104.01849 64.40388
#
# Poissons Ratio (x) = 0.21480 0.25215
# Poissons Ratio (y) = 0.21687 0.23196
# Poissons Ratio (z) = 0.41119 0.37463
#
# Static dielectric constant tensor:
#      x y z
#    x 3.766410 0.000000 -0.419950 
#    y 0.000000 3.448930 0.000000 
#    z -0.419950 0.000000 3.421920 
# 
# 
# High freq. dielectric constant tensor:
#      x y z
#    x 1.712810 0.000000 -0.021340 
#    y 0.000000 1.732780 0.000000 
#    z -0.021340 0.000000 1.714160 
# 
# From -- ./inp_files/210791.got.cif
#   From: 2010.06.25/outbox.cif.g09.slc.cpg/sg12_106_cif.got.tgz:210791.got - 2010.06.28 00:19:55.
