data_PCOD8094622
_publ_section_title
;
Structure prediction by ZEFSAII (Michael W. Deem and Ramdas Pophale) SiO2 
 PCOD8094622
Probable space group: C 2/M
;
_chemical_formula_sum "Si O2"
_cell_formula_units_Z 52
_cell_length_a 17.279980
_cell_length_b 13.675659
_cell_length_c 18.341946
_cell_angle_alpha 90.000000
_cell_angle_beta 143.700781
_cell_angle_gamma 90.000000
_cell_volume 2566.021110
_symmetry_space_group_name_H-M "C 2/M"
_symmetry_group_IT_number 12
_symmetry_cell_setting 'monoclinic'
loop_
_space_group_symop_operation_xyz
x,y,z
-x,y,-z
-x,-y,-z
x,-y,z
1/2+x,1/2+y,z
1/2-x,1/2+y,-z
1/2-x,1/2-y,-z
1/2+x,1/2-y,z
loop_
_atom_site_type_symbol
_atom_site_label
_atom_site_fract_x
_atom_site_fract_y
_atom_site_fract_z
Si Si1 0.500000 0.185882 0.000000
Si Si2 0.216595 0.640116 0.956525
Si Si3 0.654115 0.112454 0.620412
Si Si4 0.184086 0.784277 0.376129
Si Si5 0.735428 0.778013 0.824945
Si Si6 0.422225 0.607189 0.222289
Si Si7 0.432586 0.106878 0.799019
O O1 0.612269 0.252461 0.049951
O O2 0.566545 0.121076 0.113249
O O3 0.209726 0.633934 0.863212
O O4 0.079739 0.604854 0.882568
O O5 0.250000 0.750000 0.000000
O O6 0.332173 0.581474 0.083503
O O7 0.500000 0.125366 0.500000
O O8 0.715379 0.146844 0.590628
O O9 0.708738 0.181779 0.724854
O O10 0.693133 0.000000 0.664382
O O11 0.250000 0.750000 0.500000
O O12 0.153230 0.688720 0.305061
O O13 0.055230 0.845323 0.295225
O O14 0.647255 0.681316 0.773665
O O15 0.448787 0.500000 0.279121
O O16 0.370456 0.000000 0.735975
#
# Coordination Sequence:
#
# PCOD8094622 Si02
#       7
#     4   8   8   8   8   8   8
#     4  12  21  40  65  96 142 168 207 262 339 386
#     4  10  19  38  62  95 130 166 206 260 319 382
#     4  11  26  46  67  92 123 169 218 266 327 384
#     4  12  25  47  68  90 129 169 220 275 319 383
#     4  11  22  40  64  95 134 169 208 264 318 389
#     4  11  22  40  66  95 126 169 215 261 321 379
#     4  12  24  40  68 100 131 171 216 267 329 394
#
# _framework density 20.264837
#
# number of rings (size 3 to 8) (size 9 to 14) (size 15 to 20)
#    0.000    0.769    7.692    2.077    0.000    3.077 
#    0.000    0.385    0.000    1.846    0.000    0.000 
#    0.000    0.000    0.000    0.000    0.000    0.000 
#
# Total GULP energy -322305.422860 kJ/mol
# GULP energy per Si atom -12396.362418 kJ/mol
# Density = 2.021871 g / cm^3
# Si number density = 20.264837 Si / 1000 Ang^3
#
#
#
# Elastic Constant Matrix: (Units=GPa)
#
#
# Indices 1 2 3 4 5 6 
#
# 1 121.1139 39.6561 35.9576 -0.0001 1.4758 0.0000
# 2 39.6561 139.8091 36.0104 -0.0001 -1.0311 -0.0001
# 3 35.9576 36.0104 76.7982 -0.0005 -2.7851 -0.0003
# 4 -0.0001 -0.0001 -0.0005 1.9523 -0.0002 -17.5057
# 5 1.4758 -1.0311 -2.7851 -0.0002 42.3745 -0.0001
# 6 0.0000 -0.0001 -0.0003 -17.5057 -0.0001 7.3838
#
#
#
# Elastic Compliance Matrix: (Units=1/GPa)
#
#
# Indices 1 2 3 4 5 6 
#
# 1 0.010013 -0.001855 -0.003841 0.000000 -0.000646 0.000000
# 2 -0.001855 0.008479 -0.003105 0.000000 0.000067 0.000000
# 3 -0.003841 -0.003105 0.016317 0.000000 0.001131 0.000000
# 4 0.000000 0.000000 0.000000 -0.025284 0.000000 -0.059944
# 5 -0.000646 0.000067 0.001131 0.000000 0.023698 0.000000
# 6 0.000000 0.000000 0.000000 -0.059944 0.000000 -0.006685
#
#
# Mechanical properties :
#
#
# Convention : Reuss Voigt Hill
#
# Bulk Modulus (GPa) = 58.12205 62.32994 60.22599
# Shear Modulus (GPa) = 100.25200 25.41524 62.83362
#
# Velocity S-wave (km/s) = 7.04119 3.54525 5.57436
# Velocity P-wave (km/s) = 9.73899 6.89803 8.43892
#
# Compressibility (1/GPa) = 0.01720517
#
# Stress axis : x y z
#
# Youngs Moduli (GPa) = 99.87467 117.93804 61.28761
#
# Poissons Ratio (x) = 0.21882 0.23543
# Poissons Ratio (y) = 0.18530 0.19028
# Poissons Ratio (z) = 0.38366 0.36616
#
# Static dielectric constant tensor:
#      x y z
#    x 4.152850 0.000000 -0.251930 
#    y 0.000000 4.366370 0.000000 
#    z -0.251930 0.000000 3.861190 
# 
# 
# High freq. dielectric constant tensor:
#      x y z
#    x 1.801760 0.000000 0.002890 
#    y 0.000000 1.799580 0.000000 
#    z 0.002890 0.000000 1.781750 
# 
# From -- ./inp_files/270741.got.cif
#   From: 2010.06.25/outbox.cif.g09.slc.cpg/sg12_136_cif.got.tgz:270741.got - 2010.06.28 00:19:55.
