data_PCOD8094235
_publ_section_title
;
Structure prediction by ZEFSAII (Michael W. Deem and Ramdas Pophale) SiO2 
 PCOD8094235
Probable space group: C 2/M
;
_chemical_formula_sum "Si O2"
_cell_formula_units_Z 56
_cell_length_a 8.655795
_cell_length_b 28.840069
_cell_length_c 17.266094
_cell_angle_alpha 90.000000
_cell_angle_beta 140.439528
_cell_angle_gamma 90.000000
_cell_volume 2745.132638
_symmetry_space_group_name_H-M "C 2/M"
_symmetry_group_IT_number 12
_symmetry_cell_setting 'monoclinic'
loop_
_space_group_symop_operation_xyz
x,y,z
-x,y,-z
-x,-y,-z
x,-y,z
1/2+x,1/2+y,z
1/2-x,1/2+y,-z
1/2-x,1/2-y,-z
1/2+x,1/2-y,z
loop_
_atom_site_type_symbol
_atom_site_label
_atom_site_fract_x
_atom_site_fract_y
_atom_site_fract_z
Si Si1 0.544528 0.908738 0.702472
Si Si2 0.750287 0.887639 0.938967
Si Si3 0.610972 0.000000 0.428497
Si Si4 0.155285 0.690921 0.404204
Si Si5 0.625024 0.272465 0.657872
Si Si6 0.407477 0.500000 0.690343
Si Si7 0.365325 0.170162 0.873322
Si Si8 0.555209 0.588956 0.826602
O O1 0.626762 0.917664 0.822994
O O2 0.386437 0.862693 0.630199
O O3 0.773185 0.901154 0.734185
O O4 0.378646 0.953008 0.617761
O O5 0.566678 0.847023 0.890155
O O6 0.805349 0.918509 0.037106
O O7 0.000000 0.866233 0.000000
O O8 0.846299 0.000000 0.575312
O O9 0.351793 0.000000 0.369162
O O10 0.181128 0.719901 0.334698
O O11 0.392663 0.695379 0.548914
O O12 0.935134 0.717435 0.362603
O O13 0.723206 0.288100 0.779027
O O14 0.570664 0.543657 0.778769
O O15 0.179172 0.129899 0.826464
O O16 0.500000 0.190853 0.000000
#
# Coordination Sequence:
#
# PCOD8094235 Si02
#       8
#     8   8   4   8   8   4   8   8
#     4  10  19  37  59  87 119 158 198 249 297 345
#     4   9  18  36  59  83 111 155 203 243 297 353
#     4   9  20  33  56  88 125 155 202 240 296 359
#     4  10  22  39  62  86 120 157 200 247 293 353
#     4  10  22  40  59  87 118 155 202 243 294 355
#     4   9  18  37  49  86 125 153 200 246 287 362
#     4  10  20  38  58  86 119 153 196 245 296 355
#     4   9  20  33  59  83 115 160 196 243 297 350
#
# _framework density 20.399743000000001
#
# number of rings (size 3 to 8) (size 9 to 14) (size 15 to 20)
#    0.000    2.429    1.429    0.000    4.000    0.571 
#    0.000    9.643    0.000    2.571    0.000    0.000 
#    0.000    0.000    0.000    0.000    0.000    0.000 
#
# Total GULP energy -347042.669272 kJ/mol
# GULP energy per Si atom -12394.381045 kJ/mol
# Density = 2.035331 g / cm^3
# Si number density = 20.399743 Si / 1000 Ang^3
#
#
#
# Elastic Constant Matrix: (Units=GPa)
#
#
# Indices 1 2 3 4 5 6 
#
# 1 69.6983 22.3400 21.4000 0.0000 -7.3330 0.0000
# 2 22.3400 106.6585 49.0592 0.0000 -7.8308 0.0000
# 3 21.4000 49.0592 116.0099 0.0000 -21.8887 0.0000
# 4 0.0000 0.0000 0.0000 31.2916 0.0000 -2.3034
# 5 -7.3330 -7.8308 -21.8887 0.0000 24.4368 0.0000
# 6 0.0000 0.0000 0.0000 -2.3034 0.0000 20.2057
#
#
#
# Elastic Compliance Matrix: (Units=1/GPa)
#
#
# Indices 1 2 3 4 5 6 
#
# 1 0.015852 -0.002498 -0.001349 0.000000 0.002748 0.000000
# 2 -0.002498 0.012047 -0.004870 0.000000 -0.001251 0.000000
# 3 -0.001349 -0.004870 0.012705 0.000000 0.009414 0.000000
# 4 0.000000 0.000000 0.000000 0.032228 0.000000 0.003674
# 5 0.002748 -0.001251 0.009414 0.000000 0.049778 0.000000
# 6 0.000000 0.000000 0.000000 0.003674 0.000000 0.049910
#
#
# Mechanical properties :
#
#
# Convention : Reuss Voigt Hill
#
# Bulk Modulus (GPa) = 43.16089 53.10723 48.13406
# Shear Modulus (GPa) = 25.29393 28.49132 26.89263
#
# Velocity S-wave (km/s) = 3.52506 3.74123 3.63476
# Velocity P-wave (km/s) = 6.14586 6.68971 6.42354
#
# Compressibility (1/GPa) = 0.02316913
#
# Stress axis : x y z
#
# Youngs Moduli (GPa) = 63.08538 83.00834 78.71198
#
# Poissons Ratio (x) = 0.20733 0.10621
# Poissons Ratio (y) = 0.15757 0.38331
# Poissons Ratio (z) = 0.08513 0.40424
#
# Static dielectric constant tensor:
#      x y z
#    x 3.712730 0.000000 -0.135480 
#    y 0.000000 3.428770 0.000000 
#    z -0.135480 0.000000 3.887070 
# 
# 
# High freq. dielectric constant tensor:
#      x y z
#    x 1.793170 0.000000 -0.009500 
#    y 0.000000 1.768640 0.000000 
#    z -0.009500 0.000000 1.808640 
# 
# From -- ./inp_files/259900.got.cif
#   From: 2010.06.25/outbox.cif.g09.slc.cpg/sg12_130_cif.got.tgz:259900.got - 2010.06.28 00:19:55.
