data_PCOD8094479
_publ_section_title
;
Structure prediction by ZEFSAII (Michael W. Deem and Ramdas Pophale) SiO2 
 PCOD8094479
Probable space group: C 2/M
;
_chemical_formula_sum "Si O2"
_cell_formula_units_Z 56
_cell_length_a 28.430639
_cell_length_b 16.784431
_cell_length_c 8.834931
_cell_angle_alpha 90.000000
_cell_angle_beta 39.047987
_cell_angle_gamma 90.000000
_cell_volume 2655.932302
_symmetry_space_group_name_H-M "C 2/M"
_symmetry_group_IT_number 12
_symmetry_cell_setting 'monoclinic'
loop_
_space_group_symop_operation_xyz
x,y,z
-x,y,-z
-x,-y,-z
x,-y,z
1/2+x,1/2+y,z
1/2-x,1/2+y,-z
1/2-x,1/2-y,-z
1/2+x,1/2-y,z
loop_
_atom_site_type_symbol
_atom_site_label
_atom_site_fract_x
_atom_site_fract_y
_atom_site_fract_z
Si Si1 0.773815 0.828587 0.531431
Si Si2 0.524810 0.826736 0.104285
Si Si3 0.114976 0.408040 0.433392
Si Si4 0.559570 0.316292 0.226577
Si Si5 0.161224 0.410720 0.641103
Si Si6 0.423131 0.591988 0.106317
Si Si7 0.809531 0.284023 0.966898
O O1 0.750000 0.750000 0.500000
O O2 0.742999 0.902633 0.508641
O O3 0.862141 0.845369 0.326023
O O4 0.738298 0.826656 0.784701
O O5 0.471627 0.894956 0.306688
O O6 0.521710 0.752904 0.223450
O O7 0.500000 0.799423 0.000000
O O8 0.608611 0.859019 0.882399
O O9 0.127470 0.500000 0.356400
O O10 0.162878 0.382241 0.462144
O O11 0.138971 0.352228 0.235567
O O12 0.500000 0.343578 0.500000
O O13 0.637688 0.287094 0.103993
O O14 0.571862 0.391898 0.086354
O O15 0.130807 0.500000 0.718987
O O16 0.400304 0.500000 0.189790
O O17 0.500000 0.611141 0.000000
O O18 0.750000 0.250000 0.000000
#
# Coordination Sequence:
#
# PCOD8094479 Si02
#       7
#     8   8   8   8   8   8   8
#     4  12  23  43  69  96 126 170 226 281 335 394
#     4  10  19  37  64  97 133 173 216 260 318 398
#     4  10  22  39  61  95 138 175 212 267 335 405
#     4  12  24  43  69  99 129 176 220 273 335 401
#     4  10  20  36  61  93 129 173 218 265 324 390
#     4  11  27  49  72 100 133 177 233 290 339 395
#     4  12  26  42  64  98 135 175 220 271 341 408
#
# _framework density 21.084873999999999
#
# number of rings (size 3 to 8) (size 9 to 14) (size 15 to 20)
#    0.000    1.000    4.286    2.143    2.000    5.429 
#    0.000    0.714    0.000    0.000    0.000    0.000 
#    0.000    0.000    0.000    0.000    0.000    0.000 
#
# Total GULP energy -347214.712225 kJ/mol
# GULP energy per Si atom -12400.525437 kJ/mol
# Density = 2.103688 g / cm^3
# Si number density = 21.084874 Si / 1000 Ang^3
#
#
#
# Elastic Constant Matrix: (Units=GPa)
#
#
# Indices 1 2 3 4 5 6 
#
# 1 117.9363 35.2582 48.0910 0.0000 -10.3799 0.0000
# 2 35.2582 78.4119 29.6596 0.0000 0.1067 0.0000
# 3 48.0910 29.6596 121.4135 0.0000 7.4526 0.0000
# 4 0.0000 0.0000 0.0000 32.6350 0.0000 1.3495
# 5 -10.3799 0.1067 7.4526 0.0000 39.0894 0.0000
# 6 0.0000 0.0000 0.0000 1.3495 0.0000 30.7637
#
#
#
# Elastic Compliance Matrix: (Units=1/GPa)
#
#
# Indices 1 2 3 4 5 6 
#
# 1 0.011508 -0.003710 -0.003885 0.000000 0.003807 0.000000
# 2 -0.003710 0.015263 -0.002222 0.000000 -0.000603 0.000000
# 3 -0.003885 -0.002222 0.010504 0.000000 -0.003028 0.000000
# 4 0.000000 0.000000 0.000000 0.030698 0.000000 -0.001347
# 5 0.003807 -0.000603 -0.003028 0.000000 0.027172 0.000000
# 6 0.000000 0.000000 0.000000 -0.001347 0.000000 0.032565
#
#
# Mechanical properties :
#
#
# Convention : Reuss Voigt Hill
#
# Bulk Modulus (GPa) = 56.69069 60.41991 58.55530
# Shear Modulus (GPa) = 32.63201 34.14781 33.38991
#
# Velocity S-wave (km/s) = 3.93829 4.02872 3.98376
# Velocity P-wave (km/s) = 6.90112 7.09637 6.99943
#
# Compressibility (1/GPa) = 0.01763958
#
# Stress axis : x y z
#
# Youngs Moduli (GPa) = 86.89827 65.51945 95.20175
#
# Poissons Ratio (x) = 0.24307 0.36991
# Poissons Ratio (y) = 0.32239 0.21153
# Poissons Ratio (z) = 0.33764 0.14558
#
# Static dielectric constant tensor:
#      x y z
#    x 3.989620 0.000000 0.029240 
#    y 0.000000 3.734260 0.000000 
#    z 0.029240 0.000000 3.889670 
# 
# 
# High freq. dielectric constant tensor:
#      x y z
#    x 1.836920 0.000000 -0.001050 
#    y 0.000000 1.815090 0.000000 
#    z -0.001050 0.000000 1.831890 
# 
# From -- ./inp_files/75843.got.cif
#   From: 2010.06.25/outbox.cif.g09.slc.cpg/sg12_38_cif.got.tgz:75843.got - 2010.06.28 00:19:55.
