data_PCOD8094666
_publ_section_title
;
Structure prediction by ZEFSAII (Michael W. Deem and Ramdas Pophale) SiO2 
 PCOD8094666
Probable space group: C 2/M
;
_chemical_formula_sum "Si O2"
_cell_formula_units_Z 64
_cell_length_a 18.909741
_cell_length_b 8.833944
_cell_length_c 32.014925
_cell_angle_alpha 90.000000
_cell_angle_beta 37.432716
_cell_angle_gamma 90.000000
_cell_volume 3250.681204
_symmetry_space_group_name_H-M "C 2/M"
_symmetry_group_IT_number 12
_symmetry_cell_setting 'monoclinic'
loop_
_space_group_symop_operation_xyz
x,y,z
-x,y,-z
-x,-y,-z
x,-y,z
1/2+x,1/2+y,z
1/2-x,1/2+y,-z
1/2-x,1/2-y,-z
1/2+x,1/2-y,z
loop_
_atom_site_type_symbol
_atom_site_label
_atom_site_fract_x
_atom_site_fract_y
_atom_site_fract_z
Si Si1 0.989987 0.670915 0.553921
Si Si2 0.075249 0.677145 0.061679
Si Si3 0.711632 0.177167 0.079509
Si Si4 0.132449 0.321650 0.208335
Si Si5 0.888194 0.179373 0.325124
Si Si6 0.782260 0.822311 0.528221
Si Si7 0.737247 0.320679 0.698123
Si Si8 0.668793 0.320588 0.820847
O O1 0.009763 0.500000 0.562231
O O2 0.082590 0.787529 0.528524
O O3 0.000000 0.666655 0.500000
O O4 0.865409 0.737528 0.626090
O O5 0.058563 0.500000 0.064537
O O6 0.116210 0.721179 0.089313
O O7 0.954683 0.756565 0.107053
O O8 0.169700 0.732884 0.984002
O O9 0.663500 0.228061 0.146819
O O10 0.740735 0.000000 0.064340
O O11 0.111955 0.500000 0.221191
O O12 0.234314 0.267374 0.191512
O O13 0.015233 0.238985 0.277436
O O14 0.793531 0.248009 0.400142
O O15 0.855241 0.232151 0.293539
O O16 0.884118 0.000000 0.331710
O O17 0.750000 0.750000 0.500000
O O18 0.759828 0.000000 0.538137
O O19 0.740415 0.500000 0.698408
O O20 0.700517 0.254005 0.760275
O O21 0.660213 0.500000 0.823846
#
# Coordination Sequence:
#
# PCOD8094666 Si02
#       8
#     8   8   8   8   8   8   8   8
#     4  10  19  38  64  88 119 155 195 244 296 352
#     4  10  20  35  58  85 112 146 194 243 288 338
#     4   9  19  37  59  83 115 152 190 236 288 341
#     4  10  22  38  57  85 118 154 194 239 289 346
#     4  11  22  40  62  86 116 155 197 240 292 348
#     4  12  26  42  61  88 120 156 199 246 300 357
#     4   9  19  36  60  86 114 153 194 233 286 350
#     4  10  21  37  57  83 116 154 192 229 285 352
#
# _framework density 19.688181
#
# number of rings (size 3 to 8) (size 9 to 14) (size 15 to 20)
#    0.000    1.875    1.250    2.625    1.750    2.250 
#    0.000    3.750    0.000    0.000    0.000    0.000 
#    0.000    0.000    0.000    0.000    0.000    0.000 
#
# Total GULP energy -396906.270300 kJ/mol
# GULP energy per Si atom -12403.320947 kJ/mol
# Density = 1.964337 g / cm^3
# Si number density = 19.688181 Si / 1000 Ang^3
#
#
#
# Elastic Constant Matrix: (Units=GPa)
#
#
# Indices 1 2 3 4 5 6 
#
# 1 115.3453 38.3037 37.0178 -0.0146 -19.1753 0.0179
# 2 38.3037 49.8847 23.3780 -0.0431 -7.1224 -0.0130
# 3 37.0178 23.3780 71.2859 0.0282 -21.3593 -0.0084
# 4 -0.0146 -0.0431 0.0282 25.5517 0.0096 -6.6804
# 5 -19.1753 -7.1224 -21.3593 0.0096 39.0994 -0.0148
# 6 0.0179 -0.0130 -0.0084 -6.6804 -0.0148 28.3330
#
#
#
# Elastic Compliance Matrix: (Units=1/GPa)
#
#
# Indices 1 2 3 4 5 6 
#
# 1 0.012830 -0.007942 -0.003116 -0.000007 0.003143 -0.000013
# 2 -0.007942 0.028603 -0.005814 0.000058 -0.001860 0.000029
# 3 -0.003116 -0.005814 0.020061 -0.000037 0.008372 0.000001
# 4 -0.000007 0.000058 -0.000037 0.041708 -0.000019 0.009834
# 5 0.003143 -0.001860 0.008372 -0.000019 0.031352 0.000012
# 6 -0.000013 0.000029 0.000001 0.009834 0.000012 0.037613
#
#
# Mechanical properties :
#
#
# Convention : Reuss Voigt Hill
#
# Bulk Modulus (GPa) = 36.03500 48.21279 42.12390
# Shear Modulus (GPa) = 23.23849 27.78456 25.51152
#
# Velocity S-wave (km/s) = 3.43932 3.76071 3.60360
# Velocity P-wave (km/s) = 5.84076 6.58776 6.22547
#
# Compressibility (1/GPa) = 0.02775080
#
# Stress axis : x y z
#
# Youngs Moduli (GPa) = 77.94531 34.96079 49.84774
#
# Poissons Ratio (x) = 0.27766 0.15532
# Poissons Ratio (y) = 0.61905 0.28980
# Poissons Ratio (z) = 0.24287 0.20325
#
# Static dielectric constant tensor:
#      x y z
#    x 3.724400 0.002040 0.034650 
#    y 0.002040 0.006390 0.007750 
#    z 0.034650 0.007750 3.672070 
# 
# 
# High freq. dielectric constant tensor:
#      x y z
#    x 1.774200 0.000000 -0.003470 
#    y 0.000000 1.749940 0.000000 
#    z -0.003470 0.000000 1.778020 
# 
# From -- ./inp_files/378020.got.cif
#   From: 2010.06.25/outbox.cif.g09.slc.cpg/sg12_190_cif.got.tgz:378020.got - 2010.06.28 00:19:55.
