data_PCOD8094777
_publ_section_title
;
Structure prediction by ZEFSAII (Michael W. Deem and Ramdas Pophale) SiO2 
 PCOD8094777
Probable space group: C 2/M
;
_chemical_formula_sum "Si O2"
_cell_formula_units_Z 56
_cell_length_a 17.237668
_cell_length_b 22.308142
_cell_length_c 7.711827
_cell_angle_alpha 90.000000
_cell_angle_beta 63.155357
_cell_angle_gamma 90.000000
_cell_volume 2645.928324
_symmetry_space_group_name_H-M "C 2/M"
_symmetry_group_IT_number 12
_symmetry_cell_setting 'monoclinic'
loop_
_space_group_symop_operation_xyz
x,y,z
-x,y,-z
-x,-y,-z
x,-y,z
1/2+x,1/2+y,z
1/2-x,1/2+y,-z
1/2-x,1/2-y,-z
1/2+x,1/2-y,z
loop_
_atom_site_type_symbol
_atom_site_label
_atom_site_fract_x
_atom_site_fract_y
_atom_site_fract_z
Si Si1 0.214290 0.568984 0.820201
Si Si2 0.078267 0.736956 0.316389
Si Si3 0.261153 0.733931 0.188016
Si Si4 0.517605 0.368752 0.288558
Si Si5 0.598704 0.176226 0.950896
Si Si6 0.350459 0.433418 0.386379
Si Si7 0.311329 0.398106 0.066682
O O1 0.187685 0.500000 0.824112
O O2 0.128185 0.608925 0.874384
O O3 0.286163 0.587979 0.605277
O O4 0.244461 0.581800 0.986132
O O5 0.162478 0.745922 0.359293
O O6 0.043362 0.798564 0.264374
O O7 0.000000 0.707318 0.500000
O O8 0.105178 0.687640 0.149088
O O9 0.332318 0.777291 0.208466
O O10 0.293176 0.666605 0.167478
O O11 0.250000 0.750000 0.000000
O O12 0.500000 0.393049 0.500000
O O13 0.427499 0.384468 0.282469
O O14 0.594038 0.404376 0.116708
O O15 0.500000 0.189057 0.000000
O O16 0.385506 0.500000 0.399091
O O17 0.303739 0.439341 0.245425
#
# Coordination Sequence:
#
# PCOD8094777 Si02
#       7
#     8   8   8   8   8   8   8
#     4  11  24  46  68  87 126 175 219 273 322 372
#     4  10  21  37  64  96 131 167 208 259 324 395
#     4  10  19  39  64  92 131 166 210 266 317 391
#     4  11  21  36  63  93 134 176 208 255 326 386
#     4  11  23  40  64  94 128 165 219 265 326 381
#     4  11  27  41  61  98 130 171 225 261 313 394
#     4  12  21  41  68  90 130 176 211 267 325 379
#
# _framework density 21.164594000000001
#
# number of rings (size 3 to 8) (size 9 to 14) (size 15 to 20)
#    0.000    1.143    7.143    0.857    4.000    3.429 
#    0.000    1.429    0.000    0.429    0.000    0.000 
#    0.000    0.000    0.000    0.000    0.000    0.000 
#
# Total GULP energy -346927.242505 kJ/mol
# GULP energy per Si atom -12390.258661 kJ/mol
# Density = 2.111642 g / cm^3
# Si number density = 21.164594 Si / 1000 Ang^3
#
#
#
# Elastic Constant Matrix: (Units=GPa)
#
#
# Indices 1 2 3 4 5 6 
#
# 1 120.5510 36.9153 39.7172 0.0000 -32.2068 0.0000
# 2 36.9153 110.0289 27.8531 0.0000 -22.9591 0.0000
# 3 39.7172 27.8531 80.9420 0.0000 -13.9813 0.0000
# 4 0.0000 0.0000 0.0000 24.3985 0.0000 0.0358
# 5 -32.2068 -22.9591 -13.9813 0.0000 45.4161 0.0000
# 6 0.0000 0.0000 0.0000 0.0358 0.0000 15.8573
#
#
#
# Elastic Compliance Matrix: (Units=1/GPa)
#
#
# Indices 1 2 3 4 5 6 
#
# 1 0.011845 -0.001602 -0.004172 0.000000 0.006306 0.000000
# 2 -0.001602 0.010994 -0.002359 0.000000 0.003696 0.000000
# 3 -0.004172 -0.002359 0.015310 0.000000 0.000563 0.000000
# 4 0.000000 0.000000 0.000000 0.040986 0.000000 -0.000093
# 5 0.006306 0.003696 0.000563 0.000000 0.028532 0.000000
# 6 0.000000 0.000000 0.000000 -0.000093 0.000000 0.063063
#
#
# Mechanical properties :
#
#
# Convention : Reuss Voigt Hill
#
# Bulk Modulus (GPa) = 45.69472 57.83256 51.76364
# Shear Modulus (GPa) = 25.73474 30.93681 28.33577
#
# Velocity S-wave (km/s) = 3.49081 3.82740 3.66297
# Velocity P-wave (km/s) = 6.15505 6.84956 6.51157
#
# Compressibility (1/GPa) = 0.02188437
#
# Stress axis : x y z
#
# Youngs Moduli (GPa) = 84.42448 90.95609 65.31544
#
# Poissons Ratio (x) = 0.14574 0.27247
# Poissons Ratio (y) = 0.13527 0.15406
# Poissons Ratio (z) = 0.35219 0.21454
#
# Static dielectric constant tensor:
#      x y z
#    x 3.889640 0.000000 -0.345560 
#    y 0.000000 3.458310 0.000000 
#    z -0.345560 0.000000 4.070100 
# 
# 
# High freq. dielectric constant tensor:
#      x y z
#    x 1.819960 0.000000 -0.011560 
#    y 0.000000 1.816520 0.000000 
#    z -0.011560 0.000000 1.827570 
# 
# From -- ./inp_files/77367.got.cif
#   From: 2010.06.25/outbox.cif.g09.slc.cpg/sg12_39_cif.got.tgz:77367.got - 2010.06.28 00:19:55.
