data_PCOD8094824
_publ_section_title
;
Structure prediction by ZEFSAII (Michael W. Deem and Ramdas Pophale) SiO2 
 PCOD8094824
Probable space group: C 2/M
;
_chemical_formula_sum "Si O2"
_cell_formula_units_Z 48
_cell_length_a 5.289918
_cell_length_b 14.033427
_cell_length_c 30.777214
_cell_angle_alpha 90.000000
_cell_angle_beta 74.306782
_cell_angle_gamma 90.000000
_cell_volume 2199.599838
_symmetry_space_group_name_H-M "C 2/M"
_symmetry_group_IT_number 12
_symmetry_cell_setting 'monoclinic'
loop_
_space_group_symop_operation_xyz
x,y,z
-x,y,-z
-x,-y,-z
x,-y,z
1/2+x,1/2+y,z
1/2-x,1/2+y,-z
1/2-x,1/2-y,-z
1/2+x,1/2-y,z
loop_
_atom_site_type_symbol
_atom_site_label
_atom_site_fract_x
_atom_site_fract_y
_atom_site_fract_z
Si Si1 0.814040 0.000000 0.607497
Si Si2 0.631284 0.194435 0.113516
Si Si3 0.053612 0.650241 0.782821
Si Si4 0.415209 0.693050 0.553153
Si Si5 0.612216 0.363248 0.745330
Si Si6 0.277712 0.500000 0.334454
Si Si7 0.216324 0.609018 0.021590
O O1 0.891137 0.091637 0.576494
O O2 0.502621 0.000000 0.629449
O O3 0.979197 0.000000 0.643999
O O4 0.433616 0.276452 0.106401
O O5 0.510362 0.158210 0.163823
O O6 0.631754 0.115119 0.075963
O O7 0.324461 0.592021 0.767230
O O8 0.091347 0.749442 0.754051
O O9 0.818333 0.593644 0.770534
O O10 0.500000 0.675446 0.500000
O O11 0.636749 0.752874 0.568406
O O12 0.703334 0.401390 0.694107
O O13 0.238603 0.500000 0.006571
O O14 0.500000 0.658566 0.000000
O O15 0.000000 0.658441 0.000000
#
# Coordination Sequence:
#
# PCOD8094824 Si02
#       7
#     4   8   8   8   8   4   8
#     4  12  25  46  64 106 150 176 236 301 332 408
#     4  12  21  37  63  90 114 143 203 253 294 362
#     4  10  19  40  61  83 114 157 206 260 309 366
#     4  10  22  44  73 104 139 189 240 286 354 411
#     4  10  20  40  59  81 117 165 198 256 312 380
#     4  12  26  42  61  98 134 174 224 263 340 410
#     4  10  23  42  58  82 123 156 182 226 305 385
#
# _framework density 21.822151000000002
#
# number of rings (size 3 to 8) (size 9 to 14) (size 15 to 20)
#    0.000    1.333    3.333    3.250    0.000    2.000 
#   21.000    3.333    0.000    0.000    0.000    0.000 
#    0.000    0.000    0.000    0.000    0.000    0.000 
#
# Total GULP energy -297380.791317 kJ/mol
# GULP energy per Si atom -12390.866305 kJ/mol
# Density = 2.177248 g / cm^3
# Si number density = 21.822151 Si / 1000 Ang^3
#
#
#
# Elastic Constant Matrix: (Units=GPa)
#
#
# Indices 1 2 3 4 5 6 
#
# 1 203.7329 21.1408 37.2013 0.0000 9.2388 0.0000
# 2 21.1408 84.7954 51.7314 0.0000 5.6188 0.0000
# 3 37.2013 51.7314 90.0221 0.0000 6.2875 0.0000
# 4 0.0000 0.0000 0.0000 1910.7981 0.0000 -354.8517
# 5 9.2388 5.6188 6.2875 0.0000 33.3635 0.0000
# 6 0.0000 0.0000 0.0000 -354.8517 0.0000 73.0731
#
#
#
# Elastic Compliance Matrix: (Units=1/GPa)
#
#
# Indices 1 2 3 4 5 6 
#
# 1 0.005347 0.000062 -0.002170 0.000000 -0.001082 0.000000
# 2 0.000062 0.018201 -0.010406 0.000000 -0.001121 0.000000
# 3 -0.002170 -0.010406 0.018059 0.000000 -0.001050 0.000000
# 4 0.000000 0.000000 0.000000 0.005331 0.000000 0.025886
# 5 -0.001082 -0.001121 -0.001050 0.000000 0.030659 0.000000
# 6 0.000000 0.000000 0.000000 0.025886 0.000000 0.139391
#
#
# Mechanical properties :
#
#
# Convention : Reuss Voigt Hill
#
# Bulk Modulus (GPa) = 60.32007 66.52195 63.42101
# Shear Modulus (GPa) = 20.19862 421.34540 220.77201
#
# Velocity S-wave (km/s) = 3.04567 13.91045 10.06918
# Velocity P-wave (km/s) = 6.33007 16.98678 12.81836
#
# Compressibility (1/GPa) = 0.01657823
#
# Stress axis : x y z
#
# Youngs Moduli (GPa) = 187.01277 54.94340 55.37539
#
# Poissons Ratio (x) = -0.00343 0.12017
# Poissons Ratio (y) = -0.01168 0.57626
# Poissons Ratio (z) = 0.40582 0.57177
#
# Static dielectric constant tensor:
#      x y z
#    x 5.265850 0.000000 0.011510 
#    y 0.000000 2.791550 0.000000 
#    z 0.011510 0.000000 3.852490 
# 
# 
# High freq. dielectric constant tensor:
#      x y z
#    x 1.898800 0.000000 0.002110 
#    y 0.000000 1.837310 0.000000 
#    z 0.002110 0.000000 1.852980 
# 
# From -- ./inp_files/371436.got.cif
#   From: 2010.06.25/outbox.cif.g09.slc.cpg/sg12_186_cif.got.tgz:371436.got - 2010.06.28 00:19:55.
