data_PCOD8094439
_publ_section_title
;
Structure prediction by ZEFSAII (Michael W. Deem and Ramdas Pophale) SiO2 
 PCOD8094439
Probable space group: C 2/M
;
_chemical_formula_sum "Si O2"
_cell_formula_units_Z 40
_cell_length_a 10.886771
_cell_length_b 24.305784
_cell_length_c 8.681782
_cell_angle_alpha 90.000000
_cell_angle_beta 121.368653
_cell_angle_gamma 90.000000
_cell_volume 1961.516280
_symmetry_space_group_name_H-M "C 2/M"
_symmetry_group_IT_number 12
_symmetry_cell_setting 'monoclinic'
loop_
_space_group_symop_operation_xyz
x,y,z
-x,y,-z
-x,-y,-z
x,-y,z
1/2+x,1/2+y,z
1/2-x,1/2+y,-z
1/2-x,1/2-y,-z
1/2+x,1/2-y,z
loop_
_atom_site_type_symbol
_atom_site_label
_atom_site_fract_x
_atom_site_fract_y
_atom_site_fract_z
Si Si1 0.170431 0.060702 0.118869
Si Si2 0.347402 0.710191 0.762384
Si Si3 0.356753 0.663643 0.086043
Si Si4 0.132996 0.331787 0.195468
Si Si5 0.346371 0.124004 0.472513
O O1 0.232825 0.080573 0.325636
O O2 0.234722 0.000000 0.124501
O O3 0.210297 0.105324 0.014808
O O4 0.000000 0.057145 0.000000
O O5 0.470044 0.666572 0.783577
O O6 0.388976 0.771858 0.739785
O O7 0.200776 0.687076 0.593781
O O8 0.326271 0.709360 0.934283
O O9 0.281388 0.674764 0.198706
O O10 0.145190 0.378788 0.335264
O O11 0.000000 0.347673 0.000000
O O12 0.500000 0.110980 0.500000
#
# Coordination Sequence:
#
# PCOD8094439 Si02
#       5
#     8   8   8   8   8
#     4  10  20  43  71  88 114 162 209 260 314 360
#     4  10  20  38  55  87 122 172 204 239 297 364
#     4  10  19  37  63  88 124 154 213 248 292 370
#     4  12  23  35  60  90 131 172 197 251 304 360
#     4  11  24  40  58  91 128 159 213 251 304 370
#
# _framework density 20.392388
#
# number of rings (size 3 to 8) (size 9 to 14) (size 15 to 20)
#    0.000    1.400    6.000    3.600    2.800    1.200 
#    0.000    1.000    0.000    4.800    0.000    0.000 
#    0.000    0.000    0.000    0.000    0.000    0.000 
#
# Total GULP energy -247775.357900 kJ/mol
# GULP energy per Si atom -12388.767895 kJ/mol
# Density = 2.034597 g / cm^3
# Si number density = 20.392388 Si / 1000 Ang^3
#
#
#
# Elastic Constant Matrix: (Units=GPa)
#
#
# Indices 1 2 3 4 5 6 
#
# 1 102.8605 9.4873 47.9812 0.0000 -14.3758 0.0000
# 2 9.4873 99.5924 44.1497 0.0000 0.9905 0.0000
# 3 47.9812 44.1497 95.7415 0.0000 6.8822 0.0000
# 4 0.0000 0.0000 0.0000 17.1770 0.0000 0.7168
# 5 -14.3758 0.9905 6.8822 0.0000 28.9071 0.0000
# 6 0.0000 0.0000 0.0000 0.7168 0.0000 7.2045
#
#
#
# Elastic Compliance Matrix: (Units=1/GPa)
#
#
# Indices 1 2 3 4 5 6 
#
# 1 0.015349 0.002719 -0.009654 0.000000 0.009838 0.000000
# 2 0.002719 0.013129 -0.007612 0.000000 0.002715 0.000000
# 3 -0.009654 -0.007612 0.019452 0.000000 -0.009171 0.000000
# 4 0.000000 0.000000 0.000000 0.058460 0.000000 -0.005817
# 5 0.009838 0.002715 -0.009171 0.000000 0.041577 0.000000
# 6 0.000000 0.000000 0.000000 -0.005817 0.000000 0.139381
#
#
# Mechanical properties :
#
#
# Convention : Reuss Voigt Hill
#
# Bulk Modulus (GPa) = 53.08469 55.71455 54.39962
# Shear Modulus (GPa) = 15.49326 23.76281 19.62804
#
# Velocity S-wave (km/s) = 2.75936 3.41732 3.10581
# Velocity P-wave (km/s) = 6.01999 6.55373 6.29252
#
# Compressibility (1/GPa) = 0.01883782
#
# Stress axis : x y z
#
# Youngs Moduli (GPa) = 65.15019 76.16445 51.40786
#
# Poissons Ratio (x) = -0.20712 0.49627
# Poissons Ratio (y) = -0.17717 0.39134
# Poissons Ratio (z) = 0.62893 0.57980
#
# Static dielectric constant tensor:
#      x y z
#    x 3.445500 0.000000 0.182770 
#    y 0.000000 3.884020 0.000000 
#    z 0.182770 0.000000 3.802170 
# 
# 
# High freq. dielectric constant tensor:
#      x y z
#    x 1.777970 0.000000 0.018960 
#    y 0.000000 1.770210 0.000000 
#    z 0.018960 0.000000 1.799170 
# 
# From -- ./inp_files/50958.got.cif
#   From: 2010.06.25/outbox.cif.g09.slc.cpg/sg12_26_cif.got.tgz:50958.got - 2010.06.28 00:19:55.
