data_PCOD8094946
_publ_section_title
;
Structure prediction by ZEFSAII (Michael W. Deem and Ramdas Pophale) SiO2 
 PCOD8094946
Probable space group: C 2/M
;
_chemical_formula_sum "Si O2"
_cell_formula_units_Z 64
_cell_length_a 22.641828
_cell_length_b 9.443338
_cell_length_c 18.675776
_cell_angle_alpha 90.000000
_cell_angle_beta 84.413631
_cell_angle_gamma 90.000000
_cell_volume 3974.185369
_symmetry_space_group_name_H-M "C 2/M"
_symmetry_group_IT_number 12
_symmetry_cell_setting 'monoclinic'
loop_
_space_group_symop_operation_xyz
x,y,z
-x,y,-z
-x,-y,-z
x,-y,z
1/2+x,1/2+y,z
1/2-x,1/2+y,-z
1/2-x,1/2-y,-z
1/2+x,1/2-y,z
loop_
_atom_site_type_symbol
_atom_site_label
_atom_site_fract_x
_atom_site_fract_y
_atom_site_fract_z
Si Si1 0.540353 0.166593 0.429687
Si Si2 0.866413 0.836466 0.258952
Si Si3 0.333962 0.164677 0.527240
Si Si4 0.792713 0.836642 0.402382
Si Si5 0.095205 0.666165 0.868668
Si Si6 0.066180 0.657087 0.023654
Si Si7 0.495612 0.659563 0.302624
Si Si8 0.476334 0.662539 0.855412
O O1 0.500000 0.220570 0.500000
O O2 0.608106 0.212264 0.436082
O O3 0.519490 0.235511 0.359004
O O4 0.533716 0.000000 0.420534
O O5 0.812758 0.801948 0.319357
O O6 0.856352 0.738393 0.189670
O O7 0.928255 0.799253 0.290627
O O8 0.866357 0.000000 0.234595
O O9 0.276754 0.201806 0.582438
O O10 0.331959 0.246835 0.452673
O O11 0.337023 0.000000 0.507370
O O12 0.804600 0.000000 0.419435
O O13 0.088740 0.500000 0.851790
O O14 0.110736 0.688246 0.951385
O O15 0.034568 0.746032 0.859979
O O16 0.078225 0.500000 0.052924
O O17 0.074900 0.769161 0.087693
O O18 0.000000 0.666374 0.000000
O O19 0.497366 0.500000 0.332643
O O20 0.538357 0.671463 0.227421
O O21 0.486813 0.500000 0.877434
#
# Coordination Sequence:
#
# PCOD8094946 Si02
#       8
#     8   8   8   8   8   8   8   8
#     4  10  20  31  43  61  84 109 137 168 202 241
#     4   9  17  28  41  59  82 108 139 171 205 244
#     4   9  18  31  45  63  84 105 135 172 206 244
#     4   9  17  30  47  63  81 106 135 170 209 246
#     4   9  16  24  35  54  80 108 137 168 201 241
#     4   8  14  23  34  51  76 106 138 167 198 239
#     4   9  18  29  40  58  82 107 138 171 200 238
#     4   9  16  25  37  54  77 106 140 173 202 237
#
# _framework density 16.103929999999998
#
# number of rings (size 3 to 8) (size 9 to 14) (size 15 to 20)
#    0.000    3.000    0.000    3.000    0.000    6.500 
#    0.000    0.000    0.000    0.000    0.000    0.000 
#    0.000    1.000    0.000    2.250    0.000    4.500 
#
# Total GULP energy -396566.549111 kJ/mol
# GULP energy per Si atom -12392.704660 kJ/mol
# Density = 1.606728 g / cm^3
# Si number density = 16.103930 Si / 1000 Ang^3
#
#
#
# Elastic Constant Matrix: (Units=GPa)
#
#
# Indices 1 2 3 4 5 6 
#
# 1 42.6468 23.4967 33.0684 0.0000 -6.7355 0.0000
# 2 23.4967 77.2538 60.2097 0.0000 -8.9257 0.0000
# 3 33.0684 60.2097 119.5526 0.0000 -18.9052 0.0000
# 4 0.0000 0.0000 0.0000 33.9503 0.0000 1.8421
# 5 -6.7355 -8.9257 -18.9052 0.0000 15.6052 0.0000
# 6 0.0000 0.0000 0.0000 1.8421 0.0000 12.0327
#
#
#
# Elastic Compliance Matrix: (Units=1/GPa)
#
#
# Indices 1 2 3 4 5 6 
#
# 1 0.030959 -0.004563 -0.005646 0.000000 0.003912 0.000000
# 2 -0.004563 0.021993 -0.010064 0.000000 -0.001583 0.000000
# 3 -0.005646 -0.010064 0.016946 0.000000 0.012335 0.000000
# 4 0.000000 0.000000 0.000000 0.029702 0.000000 -0.004547
# 5 0.003912 -0.001583 0.012335 0.000000 0.079808 0.000000
# 6 0.000000 0.000000 0.000000 -0.004547 0.000000 0.083803
#
#
# Mechanical properties :
#
#
# Convention : Reuss Voigt Hill
#
# Bulk Modulus (GPa) = 34.07251 52.55586 43.31418
# Shear Modulus (GPa) = 15.94683 20.49622 18.22153
#
# Velocity S-wave (km/s) = 3.15023 3.57143 3.36742
# Velocity P-wave (km/s) = 5.86820 7.05075 6.48648
#
# Compressibility (1/GPa) = 0.02934918
#
# Stress axis : x y z
#
# Youngs Moduli (GPa) = 32.30112 45.46805 59.01213
#
# Poissons Ratio (x) = 0.20749 0.33320
# Poissons Ratio (y) = 0.14741 0.59393
# Poissons Ratio (z) = 0.18238 0.45761
#
# Static dielectric constant tensor:
#      x y z
#    x 2.711580 0.000000 -0.374330 
#    y 0.000000 3.178710 0.000000 
#    z -0.374330 0.000000 3.681650 
# 
# 
# High freq. dielectric constant tensor:
#      x y z
#    x 1.555350 0.000000 -0.023100 
#    y 0.000000 1.627190 0.000000 
#    z -0.023100 0.000000 1.630770 
# 
# From -- ./inp_files/323380.got.cif
#   From: 2010.06.25/outbox.cif.g09.slc.cpg/sg12_162_cif.got.tgz:323380.got - 2010.06.28 00:19:55.
