data_PCOD8094958
_publ_section_title
;
Structure prediction by ZEFSAII (Michael W. Deem and Ramdas Pophale) SiO2 
 PCOD8094958
Probable space group: C 2/M
;
_chemical_formula_sum "Si O2"
_cell_formula_units_Z 64
_cell_length_a 24.826233
_cell_length_b 9.043791
_cell_length_c 17.609200
_cell_angle_alpha 90.000000
_cell_angle_beta 88.389159
_cell_angle_gamma 90.000000
_cell_volume 3952.112598
_symmetry_space_group_name_H-M "C 2/M"
_symmetry_group_IT_number 12
_symmetry_cell_setting 'monoclinic'
loop_
_space_group_symop_operation_xyz
x,y,z
-x,y,-z
-x,-y,-z
x,-y,z
1/2+x,1/2+y,z
1/2-x,1/2+y,-z
1/2-x,1/2-y,-z
1/2+x,1/2-y,z
loop_
_atom_site_type_symbol
_atom_site_label
_atom_site_fract_x
_atom_site_fract_y
_atom_site_fract_z
Si Si1 0.944417 0.173208 0.805725
Si Si2 0.240573 0.171138 0.079160
Si Si3 0.560189 0.832880 0.345905
Si Si4 0.636477 0.827660 0.085651
Si Si5 0.641006 0.167113 0.906623
Si Si6 0.064264 0.832956 0.494117
Si Si7 0.430445 0.328548 0.207675
Si Si8 0.432061 0.833674 0.357987
O O1 0.921448 0.241866 0.728669
O O2 0.916172 0.251912 0.877579
O O3 0.007499 0.206769 0.812274
O O4 0.931795 0.000000 0.806264
O O5 0.189897 0.252293 0.121004
O O6 0.296706 0.186340 0.123193
O O7 0.226231 0.000000 0.066194
O O8 0.250000 0.250000 0.000000
O O9 0.584976 0.754808 0.419274
O O10 0.496196 0.832576 0.354504
O O11 0.582355 0.000000 0.339706
O O12 0.637162 0.000000 0.105533
O O13 0.635140 0.798436 0.995916
O O14 0.604008 0.280982 0.863359
O O15 0.621627 0.000000 0.890609
O O16 0.088862 0.755216 0.567749
O O17 0.000000 0.831859 0.500000
O O18 0.086090 0.000000 0.489345
O O19 0.421722 0.500000 0.224350
O O20 0.409699 0.241948 0.282676
O O21 0.409560 0.000000 0.363090
#
# Coordination Sequence:
#
# PCOD8094958 Si02
#       8
#     8   8   8   8   8   8   8   8
#     4  10  20  32  44  62  90 122 153 186 224 265
#     4   9  17  31  50  70  89 110 140 182 229 271
#     4   9  16  26  40  58  81 112 148 182 218 261
#     4  10  20  33  49  68  88 115 150 187 227 269
#     4   9  19  33  48  66  88 115 147 183 225 269
#     4   9  15  23  37  57  81 109 143 181 218 258
#     4  10  20  31  44  63  89 121 154 186 222 264
#     4   9  16  26  40  57  81 113 147 182 219 260
#
# _framework density 16.19387
#
# number of rings (size 3 to 8) (size 9 to 14) (size 15 to 20)
#    0.000    2.625    0.000    3.375    0.000    9.500 
#    0.000    2.500    0.000    0.000    0.000    0.000 
#    0.000    1.000    0.000    3.750    0.000    6.125 
#
# Total GULP energy -396732.912133 kJ/mol
# GULP energy per Si atom -12397.903504 kJ/mol
# Density = 1.615701 g / cm^3
# Si number density = 16.193870 Si / 1000 Ang^3
#
#
#
# Elastic Constant Matrix: (Units=GPa)
#
#
# Indices 1 2 3 4 5 6 
#
# 1 47.3483 42.3812 34.4993 0.0000 4.7262 0.0000
# 2 42.3812 133.3669 52.4669 0.0000 6.8930 0.0000
# 3 34.4993 52.4669 81.9069 0.0000 7.9768 0.0000
# 4 0.0000 0.0000 0.0000 34.4566 0.0000 0.0164
# 5 4.7262 6.8930 7.9768 0.0000 2.0554 0.0000
# 6 0.0000 0.0000 0.0000 0.0164 0.0000 22.7377
#
#
#
# Elastic Compliance Matrix: (Units=1/GPa)
#
#
# Indices 1 2 3 4 5 6 
#
# 1 0.035861 -0.006775 -0.007953 0.000000 -0.028876 0.000000
# 2 -0.006775 0.011560 -0.003686 0.000000 -0.008884 0.000000
# 3 -0.007953 -0.003686 0.024010 0.000000 -0.062531 0.000000
# 4 0.000000 0.000000 0.000000 0.029022 0.000000 -0.000021
# 5 -0.028876 -0.008884 -0.062531 0.000000 0.825404 0.000000
# 6 0.000000 0.000000 0.000000 -0.000021 0.000000 0.043980
#
#
# Mechanical properties :
#
#
# Convention : Reuss Voigt Hill
#
# Bulk Modulus (GPa) = 28.89892 57.92411 43.41151
# Shear Modulus (GPa) = 4.91062 20.73492 12.82277
#
# Velocity S-wave (km/s) = 1.74327 3.58217 2.81700
# Velocity P-wave (km/s) = 4.68362 7.27709 6.11933
#
# Compressibility (1/GPa) = 0.03460337
#
# Stress axis : x y z
#
# Youngs Moduli (GPa) = 27.88521 86.50180 41.64927
#
# Poissons Ratio (x) = 0.58604 0.33123
# Poissons Ratio (y) = 0.18892 0.15354
# Poissons Ratio (z) = 0.22177 0.31889
#
# Static dielectric constant tensor:
#      x y z
#    x 2.804980 0.000000 -0.009480 
#    y 0.000000 3.303690 0.000000 
#    z -0.009480 0.000000 3.020680 
# 
# 
# High freq. dielectric constant tensor:
#      x y z
#    x 1.570330 0.000000 0.001010 
#    y 0.000000 1.645340 0.000000 
#    z 0.001010 0.000000 1.613420 
# 
# From -- ./inp_files/291613.got.cif
#   From: 2010.06.25/outbox.cif.g09.slc.cpg/sg12_146_cif.got.tgz:291613.got - 2010.06.28 00:19:55.
