data_PCOD8094654
_publ_section_title
;
Structure prediction by ZEFSAII (Michael W. Deem and Ramdas Pophale) SiO2 
 PCOD8094654
Probable space group: C 2/M
;
_chemical_formula_sum "Si O2"
_cell_formula_units_Z 56
_cell_length_a 16.602791
_cell_length_b 20.250642
_cell_length_c 13.935186
_cell_angle_alpha 90.000000
_cell_angle_beta 35.980469
_cell_angle_gamma 90.000000
_cell_volume 2752.627955
_symmetry_space_group_name_H-M "C 2/M"
_symmetry_group_IT_number 12
_symmetry_cell_setting 'monoclinic'
loop_
_space_group_symop_operation_xyz
x,y,z
-x,y,-z
-x,-y,-z
x,-y,z
1/2+x,1/2+y,z
1/2-x,1/2+y,-z
1/2-x,1/2-y,-z
1/2+x,1/2-y,z
loop_
_atom_site_type_symbol
_atom_site_label
_atom_site_fract_x
_atom_site_fract_y
_atom_site_fract_z
Si Si1 0.626227 0.379583 0.321919
Si Si2 0.114815 0.149957 0.808757
Si Si3 0.904345 0.427021 0.008793
Si Si4 0.752552 0.286744 0.351416
Si Si5 0.892137 0.423331 0.518471
Si Si6 0.995323 0.196366 0.278763
Si Si7 0.010442 0.661480 0.755141
O O1 0.500000 0.414160 0.500000
O O2 0.677098 0.318344 0.334729
O O3 0.583646 0.350321 0.260637
O O4 0.746838 0.432335 0.194944
O O5 0.182213 0.221424 0.756485
O O6 0.236192 0.095564 0.699238
O O7 0.039736 0.149863 0.777906
O O8 0.000000 0.135474 0.000000
O O9 0.959686 0.500000 0.932076
O O10 0.901255 0.384335 0.914948
O O11 0.000000 0.395458 0.000000
O O12 0.642474 0.273449 0.540919
O O13 0.864113 0.334296 0.291228
O O14 0.891823 0.500000 0.485646
O O15 0.941165 0.374425 0.387790
O O16 0.000000 0.412859 0.500000
O O17 0.065030 0.267090 0.185363
#
# Coordination Sequence:
#
# PCOD8094654 Si02
#       7
#     8   8   8   8   8   8   8
#     4  10  23  39  63  95 126 159 201 250 315 372
#     4  11  23  38  63  93 125 162 204 256 315 360
#     4  11  24  41  62  90 125 165 207 250 298 365
#     4  10  19  38  63  93 122 156 196 255 307 378
#     4  11  25  43  63  87 121 171 217 251 296 362
#     4  10  21  38  63  97 122 157 201 255 318 368
#     4  11  20  38  65  90 120 159 206 252 303 367
#
# _framework density 20.344194000000002
#
# number of rings (size 3 to 8) (size 9 to 14) (size 15 to 20)
#    0.000    1.429    4.286    1.286    6.000    2.286 
#    0.000    0.714    0.000    0.000    0.000    0.000 
#    0.000    0.000    0.000    0.000    0.000    0.000 
#
# Total GULP energy -347064.901876 kJ/mol
# GULP energy per Si atom -12395.175067 kJ/mol
# Density = 2.029789 g / cm^3
# Si number density = 20.344194 Si / 1000 Ang^3
#
#
#
# Elastic Constant Matrix: (Units=GPa)
#
#
# Indices 1 2 3 4 5 6 
#
# 1 110.5943 33.5819 38.8040 0.0052 5.6790 -0.0041
# 2 33.5819 72.2223 23.5129 0.0051 2.9146 -0.0057
# 3 38.8040 23.5129 104.6249 0.0014 -2.0374 -0.0018
# 4 0.0052 0.0051 0.0014 17.1626 -0.0025 9.8340
# 5 5.6790 2.9146 -2.0374 -0.0025 26.8437 0.0022
# 6 -0.0041 -0.0057 -0.0018 9.8340 0.0022 -11.8801
#
#
#
# Elastic Compliance Matrix: (Units=1/GPa)
#
#
# Indices 1 2 3 4 5 6 
#
# 1 0.011633 -0.004207 -0.003413 -0.000001 -0.002263 -0.000003
# 2 -0.004207 0.016556 -0.002181 0.000000 -0.001073 -0.000006
# 3 -0.003413 -0.002181 0.011350 0.000000 0.001820 0.000001
# 4 -0.000001 0.000000 0.000000 0.039521 0.000001 0.032714
# 5 -0.002263 -0.001073 0.001820 0.000001 0.037986 0.000009
# 6 -0.000003 -0.000006 0.000001 0.032714 0.000009 -0.057094
#
#
# Mechanical properties :
#
#
# Convention : Reuss Voigt Hill
#
# Bulk Modulus (GPa) = 50.16085 53.24877 51.70481
# Shear Modulus (GPa) = 58.00501 19.19475 38.59988
#
# Velocity S-wave (km/s) = 5.34544 3.07498 4.36057
# Velocity P-wave (km/s) = 7.92514 6.23202 7.12903
#
# Compressibility (1/GPa) = 0.01993587
#
# Stress axis : x y z
#
# Youngs Moduli (GPa) = 85.96050 60.40245 88.10903
#
# Poissons Ratio (x) = 0.25409 0.30074
# Poissons Ratio (y) = 0.36160 0.19220
# Poissons Ratio (z) = 0.29341 0.13176
#
# Static dielectric constant tensor:
#      x y z
#    x 3.777700 0.000000 -0.044250 
#    y 0.000000 3.438150 0.000010 
#    z -0.044250 0.000010 4.026750 
# 
# 
# High freq. dielectric constant tensor:
#      x y z
#    x 1.800870 0.000000 0.003640 
#    y 0.000000 1.780240 0.000000 
#    z 0.003640 0.000000 1.796590 
# 
# From -- ./inp_files/226521.got.cif
#   From: 2010.06.25/outbox.cif.g09.slc.cpg/sg12_114_cif.got.tgz:226521.got - 2010.06.28 00:19:55.
