data_PCOD8094936
_publ_section_title
;
Structure prediction by ZEFSAII (Michael W. Deem and Ramdas Pophale) SiO2 
 PCOD8094936
Probable space group: C 2/M
;
_chemical_formula_sum "Si O2"
_cell_formula_units_Z 48
_cell_length_a 14.633046
_cell_length_b 19.799931
_cell_length_c 13.533981
_cell_angle_alpha 90.000000
_cell_angle_beta 43.686585
_cell_angle_gamma 90.000000
_cell_volume 2708.455361
_symmetry_space_group_name_H-M "C 2/M"
_symmetry_group_IT_number 12
_symmetry_cell_setting 'monoclinic'
loop_
_space_group_symop_operation_xyz
x,y,z
-x,y,-z
-x,-y,-z
x,-y,z
1/2+x,1/2+y,z
1/2-x,1/2+y,-z
1/2-x,1/2-y,-z
1/2+x,1/2-y,z
loop_
_atom_site_type_symbol
_atom_site_label
_atom_site_fract_x
_atom_site_fract_y
_atom_site_fract_z
Si Si1 0.788486 0.925241 0.205959
Si Si2 0.267875 0.075021 0.524296
Si Si3 0.092277 0.257442 0.122660
Si Si4 0.053290 0.374088 0.284009
Si Si5 0.871326 0.202971 0.435879
Si Si6 0.500000 0.772646 0.500000
Si Si7 0.500000 0.688016 0.000000
O O1 0.733160 0.913268 0.358153
O O2 0.671371 0.925558 0.216248
O O3 0.856293 0.000000 0.145481
O O4 0.880432 0.862126 0.113544
O O5 0.419109 0.085099 0.376602
O O6 0.170209 0.125231 0.543131
O O7 0.221693 0.000000 0.531020
O O8 0.070434 0.336189 0.165750
O O9 0.033932 0.238141 0.062321
O O10 0.007968 0.213382 0.267918
O O11 0.250000 0.250000 0.000000
O O12 0.059643 0.318890 0.367078
O O13 0.750000 0.250000 0.500000
O O14 0.892749 0.222407 0.533977
#
# Coordination Sequence:
#
# PCOD8094936 Si02
#       7
#     8   8   8   8   8   4   4
#     4  11  21  34  54  80 116 152 180 226 290 347
#     4  11  21  35  57  87 116 147 186 236 290 344
#     4  11  23  35  55  81 117 146 189 233 280 328
#     4  11  19  35  55  86 113 141 185 237 287 338
#     4  11  20  37  59  84 112 148 187 240 283 336
#     4  10  20  30  58  84 110 134 190 234 284 322
#     4  12  23  36  54  80 113 150 192 232 270 344
#
# _framework density 17.722277999999999
#
# number of rings (size 3 to 8) (size 9 to 14) (size 15 to 20)
#    0.000    1.000    8.333    0.750    0.000    1.333 
#    0.000    0.417    0.000    0.000    0.000    2.333 
#    0.000    0.000    0.000    0.000    0.000    0.000 
#
# Total GULP energy -297380.708271 kJ/mol
# GULP energy per Si atom -12390.862845 kJ/mol
# Density = 1.768194 g / cm^3
# Si number density = 17.722278 Si / 1000 Ang^3
#
#
#
# Elastic Constant Matrix: (Units=GPa)
#
#
# Indices 1 2 3 4 5 6 
#
# 1 86.6417 30.0122 19.2684 -0.0001 3.3057 0.0002
# 2 30.0122 91.8381 21.3894 -0.0001 11.3164 0.0002
# 3 19.2684 21.3894 68.5856 -0.0001 -9.4009 0.0001
# 4 -0.0001 -0.0001 -0.0001 11.3956 0.0001 23.0348
# 5 3.3057 11.3164 -9.4009 0.0001 32.9962 0.0000
# 6 0.0002 0.0002 0.0001 23.0348 0.0000 5.5399
#
#
#
# Elastic Compliance Matrix: (Units=1/GPa)
#
#
# Indices 1 2 3 4 5 6 
#
# 1 0.013452 -0.003643 -0.002765 0.000000 -0.000886 0.000000
# 2 -0.003643 0.013683 -0.003993 0.000000 -0.005465 0.000000
# 3 -0.002765 -0.003993 0.017512 0.000000 0.006636 0.000000
# 4 0.000000 0.000000 0.000000 -0.011851 0.000000 0.049275
# 5 -0.000886 -0.005465 0.006636 0.000000 0.034160 0.000000
# 6 0.000000 0.000000 0.000000 0.049275 0.000000 -0.024377
#
#
# Mechanical properties :
#
#
# Convention : Reuss Voigt Hill
#
# Bulk Modulus (GPa) = 41.93601 43.15616 42.54609
# Shear Modulus (GPa) = 70.09832 21.74604 45.92218
#
# Velocity S-wave (km/s) = 6.29600 3.50672 5.09592
# Velocity P-wave (km/s) = 8.75026 6.38752 7.66053
#
# Compressibility (1/GPa) = 0.02384585
#
# Stress axis : x y z
#
# Youngs Moduli (GPa) = 74.33638 73.08548 57.10469
#
# Poissons Ratio (x) = 0.26626 0.15787
# Poissons Ratio (y) = 0.27082 0.22800
# Poissons Ratio (z) = 0.20551 0.29181
#
# Static dielectric constant tensor:
#      x y z
#    x 3.547610 0.000000 0.061740 
#    y 0.000000 3.425310 0.000000 
#    z 0.061740 0.000000 3.515520 
# 
# 
# High freq. dielectric constant tensor:
#      x y z
#    x 1.682390 0.000000 -0.014800 
#    y 0.000000 1.683010 0.000000 
#    z -0.014800 0.000000 1.675220 
# 
# From -- ./inp_files/133013.got.cif
#   From: 2010.06.25/outbox.cif.g09.slc.cpg/sg12_67_cif.got.tgz:133013.got - 2010.06.28 00:19:55.
