data_PCOD8094814
_publ_section_title
;
Structure prediction by ZEFSAII (Michael W. Deem and Ramdas Pophale) SiO2 
 PCOD8094814
Probable space group: C 2/M
;
_chemical_formula_sum "Si O2"
_cell_formula_units_Z 48
_cell_length_a 20.601357
_cell_length_b 14.948856
_cell_length_c 11.663824
_cell_angle_alpha 90.000000
_cell_angle_beta 143.524445
_cell_angle_gamma 90.000000
_cell_volume 2135.412718
_symmetry_space_group_name_H-M "C 2/M"
_symmetry_group_IT_number 12
_symmetry_cell_setting 'monoclinic'
loop_
_space_group_symop_operation_xyz
x,y,z
-x,y,-z
-x,-y,-z
x,-y,z
1/2+x,1/2+y,z
1/2-x,1/2+y,-z
1/2-x,1/2-y,-z
1/2+x,1/2-y,z
loop_
_atom_site_type_symbol
_atom_site_label
_atom_site_fract_x
_atom_site_fract_y
_atom_site_fract_z
Si Si1 0.648800 0.500000 0.435997
Si Si2 0.733181 0.146513 0.957602
Si Si3 0.698708 0.500000 0.257792
Si Si4 0.736225 0.809138 0.367183
Si Si5 0.157719 0.660364 0.603448
Si Si6 0.399633 0.500000 0.127800
Si Si7 0.033062 0.404809 0.795984
Si Si8 0.000000 0.358144 0.000000
O O1 0.624008 0.500000 0.265147
O O2 0.719644 0.411286 0.566721
O O3 0.530954 0.500000 0.333972
O O4 0.660079 0.132054 0.739468
O O5 0.662089 0.113320 0.964376
O O6 0.750000 0.250000 0.000000
O O7 0.845310 0.089150 0.107187
O O8 0.773463 0.588190 0.371180
O O9 0.621344 0.500000 0.037557
O O10 0.750000 0.750000 0.500000
O O11 0.795049 0.759977 0.344654
O O12 0.608555 0.799320 0.157982
O O13 0.037127 0.666389 0.376215
O O14 0.004569 0.500000 0.699429
O O15 0.004149 0.414172 0.888831
#
# Coordination Sequence:
#
# PCOD8094814 Si02
#       8
#     4   8   4   8   8   4   8   4
#     4  12  25  43  65 102 150 188 234 296 359 432
#     4  11  25  46  70  99 141 191 248 299 359 429
#     4  10  19  39  69  98 134 180 233 295 362 423
#     4  12  26  44  70 105 145 186 238 290 365 433
#     4  11  23  44  69 106 138 181 240 300 359 435
#     4  10  25  43  68  99 142 188 244 302 359 424
#     4  12  24  42  73 104 140 186 240 302 367 424
#     4  12  27  44  74 105 144 184 234 299 364 439
#
# _framework density 22.478090999999999
#
# number of rings (size 3 to 8) (size 9 to 14) (size 15 to 20)
#    0.000    0.667    5.000    2.000    4.667    3.333 
#    0.000    0.000    0.000    4.000    0.000    0.000 
#    0.000    0.000    0.000    0.000    0.000    0.000 
#
# Total GULP energy -297464.487706 kJ/mol
# GULP energy per Si atom -12394.353654 kJ/mol
# Density = 2.242693 g / cm^3
# Si number density = 22.478091 Si / 1000 Ang^3
#
#
#
# Elastic Constant Matrix: (Units=GPa)
#
#
# Indices 1 2 3 4 5 6 
#
# 1 117.9094 37.1565 26.9315 0.0000 18.2725 0.0000
# 2 37.1565 152.7544 34.4798 0.0000 16.0590 0.0000
# 3 26.9315 34.4798 102.3315 0.0000 27.5572 0.0000
# 4 0.0000 0.0000 0.0000 26.6171 0.0000 -0.5634
# 5 18.2725 16.0590 27.5572 0.0000 36.1144 0.0000
# 6 0.0000 0.0000 0.0000 -0.5634 0.0000 35.6108
#
#
#
# Elastic Compliance Matrix: (Units=1/GPa)
#
#
# Indices 1 2 3 4 5 6 
#
# 1 0.009810 -0.001791 -0.001077 0.000000 -0.003345 0.000000
# 2 -0.001791 0.007494 -0.001762 0.000000 -0.001081 0.000000
# 3 -0.001077 -0.001762 0.012953 0.000000 -0.008555 0.000000
# 4 0.000000 0.000000 0.000000 0.037582 0.000000 0.000595
# 5 -0.003345 -0.001081 -0.008555 0.000000 0.036391 0.000000
# 6 0.000000 0.000000 0.000000 0.000595 0.000000 0.028091
#
#
# Mechanical properties :
#
#
# Convention : Reuss Voigt Hill
#
# Bulk Modulus (GPa) = 47.63109 63.34786 55.48948
# Shear Modulus (GPa) = 33.65146 37.96363 35.80755
#
# Velocity S-wave (km/s) = 3.87341 4.11410 3.99557
# Velocity P-wave (km/s) = 6.42187 7.12818 6.78422
#
# Compressibility (1/GPa) = 0.02099469
#
# Stress axis : x y z
#
# Youngs Moduli (GPa) = 101.93628 133.44631 77.19964
#
# Poissons Ratio (x) = 0.23905 0.08318
# Poissons Ratio (y) = 0.18261 0.13605
# Poissons Ratio (z) = 0.10983 0.23518
#
# Static dielectric constant tensor:
#      x y z
#    x 4.347360 0.000000 0.011720 
#    y 0.000000 3.990590 0.000000 
#    z 0.011720 0.000000 3.858670 
# 
# 
# High freq. dielectric constant tensor:
#      x y z
#    x 1.894160 0.000000 -0.000030 
#    y 0.000000 1.887490 0.000000 
#    z -0.000030 0.000000 1.873960 
# 
# From -- ./inp_files/167692.got.cif
#   From: 2010.06.25/outbox.cif.g09.slc.cpg/sg12_84_cif.got.tgz:167692.got - 2010.06.28 00:19:55.
