data_PCOD8094303
_publ_section_title
;
Structure prediction by ZEFSAII (Michael W. Deem and Ramdas Pophale) SiO2 
 PCOD8094303
Probable space group: C 2/M
;
_chemical_formula_sum "Si O2"
_cell_formula_units_Z 64
_cell_length_a 19.391959
_cell_length_b 8.978810
_cell_length_c 30.862791
_cell_angle_alpha 90.000000
_cell_angle_beta 38.179731
_cell_angle_gamma 90.000000
_cell_volume 3321.664251
_symmetry_space_group_name_H-M "C 2/M"
_symmetry_group_IT_number 12
_symmetry_cell_setting 'monoclinic'
loop_
_space_group_symop_operation_xyz
x,y,z
-x,y,-z
-x,-y,-z
x,-y,z
1/2+x,1/2+y,z
1/2-x,1/2+y,-z
1/2-x,1/2-y,-z
1/2+x,1/2-y,z
loop_
_atom_site_type_symbol
_atom_site_label
_atom_site_fract_x
_atom_site_fract_y
_atom_site_fract_z
Si Si1 0.776026 0.325260 0.942051
Si Si2 0.372546 0.677446 0.564529
Si Si3 0.750018 0.330249 0.290385
Si Si4 0.278628 0.176406 0.440764
Si Si5 0.477981 0.672806 0.300286
Si Si6 0.723095 0.324963 0.208814
Si Si7 0.515537 0.169214 0.789380
Si Si8 0.628432 0.675828 0.934470
O O1 0.762353 0.500000 0.954892
O O2 0.901872 0.279881 0.868050
O O3 0.692579 0.266569 0.945806
O O4 0.750000 0.250000 0.000000
O O5 0.500000 0.734906 0.500000
O O6 0.367126 0.500000 0.567990
O O7 0.313097 0.744375 0.637217
O O8 0.306293 0.733905 0.554708
O O9 0.709138 0.500000 0.309979
O O10 0.718079 0.257260 0.260073
O O11 0.883797 0.319467 0.226556
O O12 0.250000 0.250000 0.500000
O O13 0.403529 0.227923 0.368632
O O14 0.273684 0.000000 0.447692
O O15 0.451580 0.500000 0.321402
O O16 0.606175 0.712473 0.244697
O O17 0.451478 0.717432 0.264492
O O18 0.748898 0.500000 0.197281
O O19 0.820210 0.247557 0.133764
O O20 0.504876 0.000000 0.776414
O O21 0.641459 0.500000 0.923844
O O22 0.500000 0.725501 0.000000
#
# Coordination Sequence:
#
# PCOD8094303 Si02
#       8
#     8   8   8   8   8   8   8   8
#     4  10  22  37  57  83 113 150 191 235 284 341
#     4   9  18  33  58  85 111 147 188 229 273 327
#     4   9  18  34  56  83 111 142 189 236 277 328
#     4  11  23  39  61  87 116 154 193 235 288 339
#     4  11  22  37  59  87 116 147 189 240 287 337
#     4  10  22  37  59  87 113 147 192 241 281 330
#     4  10  19  37  61  82 108 149 192 235 285 338
#     4  10  22  40  58  80 116 155 188 229 288 352
#
# _framework density 19.267448999999999
#
# number of rings (size 3 to 8) (size 9 to 14) (size 15 to 20)
#    0.000    2.000    2.500    0.750    3.500    1.750 
#    0.000    0.625    0.000    1.500    0.000    0.000 
#    0.000    0.000    0.000    0.000    0.000    0.000 
#
# Total GULP energy -396798.155704 kJ/mol
# GULP energy per Si atom -12399.942366 kJ/mol
# Density = 1.922360 g / cm^3
# Si number density = 19.267449 Si / 1000 Ang^3
#
#
#
# Elastic Constant Matrix: (Units=GPa)
#
#
# Indices 1 2 3 4 5 6 
#
# 1 89.2083 22.4254 51.6477 0.0003 15.6236 0.0197
# 2 22.4254 36.4412 33.1457 0.0039 3.3029 0.0049
# 3 51.6477 33.1457 147.3167 0.0018 8.6986 0.0003
# 4 0.0003 0.0039 0.0018 31.5120 -0.0014 7.6578
# 5 15.6236 3.3029 8.6986 -0.0014 41.3150 0.0005
# 6 0.0197 0.0049 0.0003 7.6578 0.0005 20.0135
#
#
#
# Elastic Compliance Matrix: (Units=1/GPa)
#
#
# Indices 1 2 3 4 5 6 
#
# 1 0.015749 -0.005654 -0.003974 0.000004 -0.004667 -0.000016
# 2 -0.005654 0.036585 -0.006281 -0.000004 0.000536 -0.000002
# 3 -0.003974 -0.006281 0.009595 -0.000001 -0.000015 0.000006
# 4 0.000004 -0.000004 -0.000001 0.034987 0.000000 -0.013387
# 5 -0.004667 0.000536 -0.000015 0.000000 0.025930 0.000004
# 6 -0.000016 -0.000002 0.000006 -0.013387 0.000004 0.055089
#
#
# Mechanical properties :
#
#
# Convention : Reuss Voigt Hill
#
# Bulk Modulus (GPa) = 33.20946 54.15599 43.68272
# Shear Modulus (GPa) = 22.74896 29.61792 26.18344
#
# Velocity S-wave (km/s) = 3.43985 3.92497 3.69039
# Velocity P-wave (km/s) = 5.74893 6.97918 6.39372
#
# Compressibility (1/GPa) = 0.03011190
#
# Stress axis : x y z
#
# Youngs Moduli (GPa) = 63.49575 27.33330 104.21763
#
# Poissons Ratio (x) = 0.15455 0.41413
# Poissons Ratio (y) = 0.35903 0.65457
# Poissons Ratio (z) = 0.25231 0.17168
#
# Static dielectric constant tensor:
#      x y z
#    x 3.765000 -0.000010 -0.332020 
#    y -0.000010 3.214000 -0.000030 
#    z -0.332020 -0.000030 5.168580 
# 
# 
# High freq. dielectric constant tensor:
#      x y z
#    x 1.760090 0.000000 -0.001400 
#    y 0.000000 1.715080 0.000000 
#    z -0.001400 0.000000 1.763090 
# 
# From -- ./inp_files/378005.got.cif
#   From: 2010.06.25/outbox.cif.g09.slc.cpg/sg12_190_cif.got.tgz:378005.got - 2010.06.28 00:19:55.
