data_PCOD8094483
_publ_section_title
;
Structure prediction by ZEFSAII (Michael W. Deem and Ramdas Pophale) SiO2 
 PCOD8094483
Probable space group: C 2/M
;
_chemical_formula_sum "Si O2"
_cell_formula_units_Z 64
_cell_length_a 17.605315
_cell_length_b 14.717055
_cell_length_c 24.128708
_cell_angle_alpha 90.000000
_cell_angle_beta 31.289325
_cell_angle_gamma 90.000000
_cell_volume 3246.887189
_symmetry_space_group_name_H-M "C 2/M"
_symmetry_group_IT_number 12
_symmetry_cell_setting 'monoclinic'
loop_
_space_group_symop_operation_xyz
x,y,z
-x,y,-z
-x,-y,-z
x,-y,z
1/2+x,1/2+y,z
1/2-x,1/2+y,-z
1/2-x,1/2-y,-z
1/2+x,1/2-y,z
loop_
_atom_site_type_symbol
_atom_site_label
_atom_site_fract_x
_atom_site_fract_y
_atom_site_fract_z
Si Si1 0.040122 0.395648 0.810123
Si Si2 0.337470 0.308409 0.599909
Si Si3 0.202649 0.685196 0.480862
Si Si4 0.703783 0.660267 0.754200
Si Si5 0.146346 0.272269 0.153557
Si Si6 0.523104 0.219650 0.048976
Si Si7 0.919473 0.400055 0.704055
Si Si8 0.947902 0.898318 0.262979
O O1 0.997780 0.500000 0.829735
O O2 0.924395 0.335038 0.849136
O O3 0.022906 0.366724 0.884861
O O4 0.205536 0.381708 0.683530
O O5 0.500000 0.354236 0.500000
O O6 0.334501 0.250066 0.546594
O O7 0.311291 0.241813 0.668210
O O8 0.250000 0.750000 0.500000
O O9 0.330868 0.616154 0.384495
O O10 0.071696 0.621070 0.580323
O O11 0.580151 0.696274 0.872574
O O12 0.799355 0.591102 0.730411
O O13 0.628330 0.612619 0.749112
O O14 0.119739 0.320203 0.228957
O O15 0.076657 0.172730 0.193235
O O16 0.316328 0.257016 0.037593
O O17 0.500000 0.189455 0.000000
O O18 0.928049 0.500000 0.727473
O O19 0.012621 0.000000 0.227013
#
# Coordination Sequence:
#
# PCOD8094483 Si02
#       8
#     8   8   8   8   8   8   8   8
#     4  11  24  43  65  94 127 164 212 257 309 377
#     4  10  19  37  65  88 123 172 204 248 312 367
#     4  11  20  37  61  89 128 166 201 253 312 364
#     4  10  21  41  62  92 126 158 204 264 316 369
#     4  12  23  42  66  89 129 169 204 260 316 367
#     4  11  23  43  69  87 121 168 208 262 319 365
#     4  12  23  37  64  97 127 165 208 252 314 379
#     4  11  23  40  64  95 125 162 210 252 308 377
#
# _framework density 19.711186000000001
#
# number of rings (size 3 to 8) (size 9 to 14) (size 15 to 20)
#    0.000    1.000    7.500    1.500    0.000    1.000 
#    0.000    5.000    0.000    0.000    0.000    0.000 
#    0.000    0.000    0.000    0.000    0.000    0.000 
#
# Total GULP energy -396734.580828 kJ/mol
# GULP energy per Si atom -12397.955651 kJ/mol
# Density = 1.966632 g / cm^3
# Si number density = 19.711186 Si / 1000 Ang^3
#
#
#
# Elastic Constant Matrix: (Units=GPa)
#
#
# Indices 1 2 3 4 5 6 
#
# 1 88.7839 37.5374 37.6331 -0.0011 -10.2427 0.0005
# 2 37.5374 131.8824 36.4682 0.0003 -8.5109 0.0003
# 3 37.6331 36.4682 116.5208 -0.0001 -19.7837 0.0009
# 4 -0.0011 0.0003 -0.0001 16.9810 -0.0010 1.8332
# 5 -10.2427 -8.5109 -19.7837 -0.0010 32.6168 -0.0003
# 6 0.0005 0.0003 0.0009 1.8332 -0.0003 15.5178
#
#
#
# Elastic Compliance Matrix: (Units=1/GPa)
#
#
# Indices 1 2 3 4 5 6 
#
# 1 0.014137 -0.002992 -0.003354 0.000001 0.001625 0.000000
# 2 -0.002992 0.008947 -0.001780 0.000000 0.000315 0.000000
# 3 -0.003354 -0.001780 0.011109 0.000000 0.005220 0.000000
# 4 0.000001 0.000000 0.000000 0.059650 0.000002 -0.007047
# 5 0.001625 0.000315 0.005220 0.000002 0.034418 0.000000
# 6 0.000000 0.000000 0.000000 -0.007047 0.000000 0.065274
#
#
# Mechanical properties :
#
#
# Convention : Reuss Voigt Hill
#
# Bulk Modulus (GPa) = 55.73758 62.27382 59.00570
# Shear Modulus (GPa) = 23.17316 28.05969 25.61642
#
# Velocity S-wave (km/s) = 3.43247 3.77708 3.60889
# Velocity P-wave (km/s) = 6.63684 7.11923 6.88227
#
# Compressibility (1/GPa) = 0.01794122
#
# Stress axis : x y z
#
# Youngs Moduli (GPa) = 70.73564 111.77362 90.01800
#
# Poissons Ratio (x) = 0.33438 0.30190
# Poissons Ratio (y) = 0.21161 0.16027
# Poissons Ratio (z) = 0.23723 0.19900
#
# Static dielectric constant tensor:
#      x y z
#    x 3.642880 0.000000 0.020810 
#    y 0.000000 3.379980 0.000000 
#    z 0.020810 0.000000 3.867590 
# 
# 
# High freq. dielectric constant tensor:
#      x y z
#    x 1.773210 0.000000 0.001870 
#    y 0.000000 1.751690 0.000000 
#    z 0.001870 0.000000 1.782860 
# 
# From -- ./inp_files/344036.got.cif
#   From: 2010.06.25/outbox.cif.g09.slc.cpg/sg12_173_cif.got.tgz:344036.got - 2010.06.28 00:19:55.
