data_PCOD8094478
_publ_section_title
;
Structure prediction by ZEFSAII (Michael W. Deem and Ramdas Pophale) SiO2 
 PCOD8094478
Probable space group: C 2/M
;
_chemical_formula_sum "Si O2"
_cell_formula_units_Z 48
_cell_length_a 20.932339
_cell_length_b 7.684141
_cell_length_c 31.972403
_cell_angle_alpha 90.000000
_cell_angle_beta 152.233495
_cell_angle_gamma 90.000000
_cell_volume 2395.811154
_symmetry_space_group_name_H-M "C 2/M"
_symmetry_group_IT_number 12
_symmetry_cell_setting 'monoclinic'
loop_
_space_group_symop_operation_xyz
x,y,z
-x,y,-z
-x,-y,-z
x,-y,z
1/2+x,1/2+y,z
1/2-x,1/2+y,-z
1/2-x,1/2-y,-z
1/2+x,1/2-y,z
loop_
_atom_site_type_symbol
_atom_site_label
_atom_site_fract_x
_atom_site_fract_y
_atom_site_fract_z
Si Si1 0.626814 0.696443 0.958684
Si Si2 0.666804 0.802909 0.230582
Si Si3 0.278904 0.000000 0.347537
Si Si4 0.357281 0.205694 0.938335
Si Si5 0.323733 0.297637 0.240536
Si Si6 0.889527 0.798436 0.558952
Si Si7 0.583113 0.000000 0.489960
O O1 0.585581 0.500000 0.924642
O O2 0.494864 0.813835 0.872476
O O3 0.750000 0.750000 0.000000
O O4 0.668482 0.710800 0.031421
O O5 0.699064 0.674716 0.287674
O O6 0.746192 0.722020 0.236400
O O7 0.716516 0.000000 0.269996
O O8 0.433539 0.000000 0.421979
O O9 0.290447 0.000000 0.404328
O O10 0.237405 0.278093 0.838089
O O11 0.352576 0.000000 0.941562
O O12 0.500000 0.264558 0.000000
O O13 0.289204 0.500000 0.220705
O O14 0.485539 0.257775 0.336730
O O15 0.750000 0.750000 0.500000
O O16 0.903373 0.678869 0.526991
O O17 0.893022 0.000000 0.547044
#
# Coordination Sequence:
#
# PCOD8094478 Si02
#       7
#     8   8   4   8   8   8   4
#     4  12  25  42  61  90 131 176 217 264 322 382
#     4  11  21  41  67  91 126 171 217 264 319 382
#     4  11  24  42  66  98 127 165 214 269 319 395
#     4  10  19  37  64  94 126 161 209 262 314 379
#     4   9  19  36  63  93 123 162 211 262 316 374
#     4  11  22  41  65  92 129 171 211 267 330 382
#     4  11  24  42  66  97 130 161 215 267 329 395
#
# _framework density 20.034967000000002
#
# number of rings (size 3 to 8) (size 9 to 14) (size 15 to 20)
#    0.000    1.333    5.000    1.500    0.000    1.000 
#    6.000    1.667    0.000    0.000    0.000    0.000 
#    0.000    0.000    0.000    0.000    0.000    0.000 
#
# Total GULP energy -297588.532442 kJ/mol
# GULP energy per Si atom -12399.522185 kJ/mol
# Density = 1.998937 g / cm^3
# Si number density = 20.034967 Si / 1000 Ang^3
#
#
#
# Elastic Constant Matrix: (Units=GPa)
#
#
# Indices 1 2 3 4 5 6 
#
# 1 92.2695 30.3511 57.3077 0.0011 -5.7640 -0.0024
# 2 30.3511 106.1732 39.9727 0.0050 -15.8207 -0.0111
# 3 57.3077 39.9727 151.6225 0.0002 -10.5982 -0.0016
# 4 0.0011 0.0050 0.0002 27.2063 -0.0009 -0.6583
# 5 -5.7640 -15.8207 -10.5982 -0.0009 44.4577 0.0015
# 6 -0.0024 -0.0111 -0.0016 -0.6583 0.0015 25.8513
#
#
#
# Elastic Compliance Matrix: (Units=1/GPa)
#
#
# Indices 1 2 3 4 5 6 
#
# 1 0.014668 -0.002353 -0.004931 0.000000 -0.000111 0.000000
# 2 -0.002353 0.011276 -0.001855 -0.000002 0.003265 0.000004
# 3 -0.004931 -0.001855 0.009008 0.000000 0.000848 -0.000001
# 4 0.000000 -0.000002 0.000000 0.036779 0.000000 0.000936
# 5 -0.000111 0.003265 0.000848 0.000000 0.023843 0.000000
# 6 0.000000 0.000004 -0.000001 0.000936 0.000000 0.038707
#
#
# Mechanical properties :
#
#
# Convention : Reuss Voigt Hill
#
# Bulk Modulus (GPa) = 59.97905 67.25870 63.61887
# Shear Modulus (GPa) = 31.62231 34.33198 32.97714
#
# Velocity S-wave (km/s) = 3.97716 4.14406 4.06147
# Velocity P-wave (km/s) = 7.14791 7.51939 7.33600
#
# Compressibility (1/GPa) = 0.01667249
#
# Stress axis : x y z
#
# Youngs Moduli (GPa) = 68.17737 88.68205 111.01840
#
# Poissons Ratio (x) = 0.20867 0.54746
# Poissons Ratio (y) = 0.16042 0.20596
# Poissons Ratio (z) = 0.33620 0.16452
#
# Static dielectric constant tensor:
#      x y z
#    x 2.815170 0.000030 -0.099970 
#    y 0.000030 3.650790 0.000000 
#    z -0.099970 0.000000 3.860840 
# 
# 
# High freq. dielectric constant tensor:
#      x y z
#    x 1.764480 0.000000 -0.000780 
#    y 0.000000 1.784740 0.000000 
#    z -0.000780 0.000000 1.790640 
# 
# From -- ./inp_files/378584.got.cif
#   From: 2010.06.25/outbox.cif.g09.slc.cpg/sg12_190_cif.got.tgz:378584.got - 2010.06.28 00:19:55.
