data_PCOD8094461
_publ_section_title
;
Structure prediction by ZEFSAII (Michael W. Deem and Ramdas Pophale) SiO2 
 PCOD8094461
Probable space group: C 2/M
;
_chemical_formula_sum "Si O2"
_cell_formula_units_Z 56
_cell_length_a 9.522060
_cell_length_b 17.689658
_cell_length_c 27.048289
_cell_angle_alpha 90.000000
_cell_angle_beta 141.357180
_cell_angle_gamma 90.000000
_cell_volume 2845.097811
_symmetry_space_group_name_H-M "C 2/M"
_symmetry_group_IT_number 12
_symmetry_cell_setting 'monoclinic'
loop_
_space_group_symop_operation_xyz
x,y,z
-x,y,-z
-x,-y,-z
x,-y,z
1/2+x,1/2+y,z
1/2-x,1/2+y,-z
1/2-x,1/2-y,-z
1/2+x,1/2-y,z
loop_
_atom_site_type_symbol
_atom_site_label
_atom_site_fract_x
_atom_site_fract_y
_atom_site_fract_z
Si Si1 0.704666 0.674970 0.519293
Si Si2 0.498079 0.411213 0.274784
Si Si3 0.746817 0.912643 0.832231
Si Si4 0.493700 0.087461 0.861492
Si Si5 0.748105 0.410909 0.437827
Si Si6 0.095054 0.588199 0.681985
Si Si7 0.131274 0.824184 0.986054
O O1 0.500000 0.688483 0.500000
O O2 0.750000 0.750000 0.500000
O O3 0.644132 0.611254 0.462162
O O4 0.916381 0.645426 0.609186
O O5 0.469311 0.500000 0.275256
O O6 0.252348 0.374888 0.197490
O O7 0.599006 0.375496 0.352871
O O8 0.661748 0.393835 0.274321
O O9 0.568772 0.895258 0.826233
O O10 0.617761 0.894031 0.746115
O O11 0.965891 0.859935 0.899450
O O12 0.826145 0.000000 0.855382
O O13 0.477999 0.000000 0.867885
O O14 0.670569 0.116976 0.949651
O O15 0.753448 0.500000 0.435091
O O16 0.000000 0.378279 0.500000
O O17 0.027472 0.500000 0.653602
O O18 0.250000 0.750000 0.000000
O O19 0.000000 0.805440 0.000000
#
# Coordination Sequence:
#
# PCOD8094461 Si02
#       7
#     8   8   8   8   8   8   8
#     4  12  27  43  58  84 119 160 203 245 299 357
#     4   9  18  33  59  90 115 145 186 237 293 347
#     4   9  19  37  61  88 116 148 194 251 295 337
#     4   9  18  35  61  88 114 149 195 242 287 344
#     4  10  19  37  64  88 116 154 194 240 295 350
#     4  10  21  40  64  90 118 150 196 250 301 350
#     4  10  21  38  57  84 119 157 195 231 290 353
#
# _framework density 19.682977999999999
#
# number of rings (size 3 to 8) (size 9 to 14) (size 15 to 20)
#    0.000    2.143    1.429    1.286    2.000    4.000 
#    2.571    0.000    0.000    4.286    0.000    0.000 
#    0.000    0.000    0.000    0.000    0.000    0.000 
#
# Total GULP energy -347120.921758 kJ/mol
# GULP energy per Si atom -12397.175777 kJ/mol
# Density = 1.963818 g / cm^3
# Si number density = 19.682978 Si / 1000 Ang^3
#
#
#
# Elastic Constant Matrix: (Units=GPa)
#
#
# Indices 1 2 3 4 5 6 
#
# 1 102.3078 38.9946 51.3305 -0.0001 12.0976 0.0000
# 2 38.9946 59.6865 51.9138 0.0000 7.6307 0.0000
# 3 51.3305 51.9138 121.2346 -0.0001 9.6860 0.0002
# 4 -0.0001 0.0000 -0.0001 23.2407 0.0001 0.5007
# 5 12.0976 7.6307 9.6860 0.0001 38.4577 0.0000
# 6 0.0000 0.0000 0.0002 0.5007 0.0000 30.1063
#
#
#
# Elastic Compliance Matrix: (Units=1/GPa)
#
#
# Indices 1 2 3 4 5 6 
#
# 1 0.013938 -0.006109 -0.003094 0.000000 -0.002393 0.000000
# 2 -0.006109 0.029606 -0.009976 0.000000 -0.001440 0.000000
# 3 -0.003094 -0.009976 0.013874 0.000000 -0.000541 0.000000
# 4 0.000000 0.000000 0.000000 0.043043 0.000000 -0.000716
# 5 -0.002393 -0.001440 -0.000541 0.000000 0.027177 0.000000
# 6 0.000000 0.000000 0.000000 -0.000716 0.000000 0.033228
#
#
# Mechanical properties :
#
#
# Convention : Reuss Voigt Hill
#
# Bulk Modulus (GPa) = 52.46690 63.07850 57.77270
# Shear Modulus (GPa) = 24.32153 27.76028 26.04091
#
# Velocity S-wave (km/s) = 3.51901 3.75956 3.64128
# Velocity P-wave (km/s) = 6.57458 7.13881 6.86250
#
# Compressibility (1/GPa) = 0.01905963
#
# Stress axis : x y z
#
# Youngs Moduli (GPa) = 71.74463 33.77640 72.07830
#
# Poissons Ratio (x) = 0.20634 0.22304
# Poissons Ratio (y) = 0.43828 0.71907
# Poissons Ratio (z) = 0.22201 0.33696
#
# Static dielectric constant tensor:
#      x y z
#    x 3.778860 0.000000 0.069430 
#    y 0.000000 1.947680 0.000140 
#    z 0.069430 0.000140 4.200080 
# 
# 
# High freq. dielectric constant tensor:
#      x y z
#    x 1.769830 0.000000 -0.000810 
#    y 0.000000 1.743310 0.000000 
#    z -0.000810 0.000000 1.776430 
# 
# From -- ./inp_files/356720.got.cif
#   From: 2010.06.25/outbox.cif.g09.slc.cpg/sg12_179_cif.got.tgz:356720.got - 2010.06.28 00:19:55.
