data_PCOD8094961
_publ_section_title
;
Structure prediction by ZEFSAII (Michael W. Deem and Ramdas Pophale) SiO2 
 PCOD8094961
Probable space group: C 2/M
;
_chemical_formula_sum "Si O2"
_cell_formula_units_Z 48
_cell_length_a 13.830003
_cell_length_b 31.098973
_cell_length_c 14.479309
_cell_angle_alpha 90.000000
_cell_angle_beta 30.549327
_cell_angle_gamma 90.000000
_cell_volume 3165.331148
_symmetry_space_group_name_H-M "C 2/M"
_symmetry_group_IT_number 12
_symmetry_cell_setting 'monoclinic'
loop_
_space_group_symop_operation_xyz
x,y,z
-x,y,-z
-x,-y,-z
x,-y,z
1/2+x,1/2+y,z
1/2-x,1/2+y,-z
1/2-x,1/2-y,-z
1/2+x,1/2-y,z
loop_
_atom_site_type_symbol
_atom_site_label
_atom_site_fract_x
_atom_site_fract_y
_atom_site_fract_z
Si Si1 0.764751 0.387681 0.339109
Si Si2 0.630374 0.303367 0.168343
Si Si3 0.618156 0.604596 0.259167
Si Si4 0.981482 0.245520 0.912041
Si Si5 0.161340 0.795187 0.443626
Si Si6 0.568751 0.047571 0.048198
O O1 0.591349 0.409795 0.537119
O O2 0.737248 0.383443 0.252132
O O3 0.783681 0.338852 0.360879
O O4 0.945255 0.418276 0.209253
O O5 0.622545 0.354442 0.187907
O O6 0.599807 0.292178 0.085935
O O7 0.456729 0.281283 0.368244
O O8 0.835316 0.285674 0.032958
O O9 0.714078 0.564396 0.128164
O O10 0.192466 0.258355 0.704770
O O11 0.000000 0.226974 0.000000
O O12 0.000000 0.805306 0.500000
O O13 0.559064 0.000000 0.101430
O O14 0.500000 0.044517 0.000000
#
# Coordination Sequence:
#
# PCOD8094961 Si02
#       6
#     8   8   8   8   8   8
#     4   9  15  25  41  54  76 109 142 170 200 240
#     4  10  20  31  44  65  83 117 151 176 220 254
#     4   9  15  27  39  55  78 106 139 170 200 249
#     4  11  20  30  45  63  89 112 145 190 218 249
#     4  11  17  30  46  62  84 117 151 182 212 246
#     4   9  17  25  37  58  81 108 138 168 206 246
#
# _framework density 15.164289999999999
#
# number of rings (size 3 to 8) (size 9 to 14) (size 15 to 20)
#    0.000    2.167    5.000    1.500    0.000    2.000 
#    0.000    3.333    0.000    0.000    0.000    0.000 
#    0.000    0.667    0.000    6.000    0.000    0.333 
#
# Total GULP energy -297435.575733 kJ/mol
# GULP energy per Si atom -12393.148989 kJ/mol
# Density = 1.512978 g / cm^3
# Si number density = 15.164290 Si / 1000 Ang^3
#
#
#
# Elastic Constant Matrix: (Units=GPa)
#
#
# Indices 1 2 3 4 5 6 
#
# 1 48.9830 19.6089 22.1742 0.0000 7.6463 0.0000
# 2 19.6089 62.1631 29.8219 0.0000 -1.8918 0.0000
# 3 22.1742 29.8219 81.9544 0.0000 -3.7799 0.0000
# 4 0.0000 0.0000 0.0000 21.2922 0.0000 -3.5789
# 5 7.6463 -1.8918 -3.7799 0.0000 15.6537 0.0000
# 6 0.0000 0.0000 0.0000 -3.5789 0.0000 8.0713
#
#
#
# Elastic Compliance Matrix: (Units=1/GPa)
#
#
# Indices 1 2 3 4 5 6 
#
# 1 0.028248 -0.006515 -0.006012 0.000000 -0.016037 0.000000
# 2 -0.006515 0.020998 -0.005678 0.000000 0.004349 0.000000
# 3 -0.006012 -0.005678 0.016179 0.000000 0.006157 0.000000
# 4 0.000000 0.000000 0.000000 0.050748 0.000000 0.022502
# 5 -0.016037 0.004349 0.006157 0.000000 0.073729 0.000000
# 6 0.000000 0.000000 0.000000 0.022502 0.000000 0.133874
#
#
# Mechanical properties :
#
#
# Convention : Reuss Voigt Hill
#
# Bulk Modulus (GPa) = 34.46369 37.36783 35.91576
# Shear Modulus (GPa) = 13.51879 17.10314 15.31097
#
# Velocity S-wave (km/s) = 2.98902 3.36200 3.18098
# Velocity P-wave (km/s) = 5.88970 6.30605 6.10142
#
# Compressibility (1/GPa) = 0.02901605
#
# Stress axis : x y z
#
# Youngs Moduli (GPa) = 35.40030 47.62413 61.81012
#
# Poissons Ratio (x) = 0.31025 0.37162
# Poissons Ratio (y) = 0.23062 0.35093
# Poissons Ratio (z) = 0.21284 0.27039
#
# Static dielectric constant tensor:
#      x y z
#    x 2.494160 0.000000 -0.083070 
#    y 0.000000 2.835820 0.000000 
#    z -0.083070 0.000000 3.248410 
# 
# 
# High freq. dielectric constant tensor:
#      x y z
#    x 1.518390 0.000000 -0.010930 
#    y 0.000000 1.559800 0.000000 
#    z -0.010930 0.000000 1.605510 
# 
# From -- ./inp_files/150322.got.cif
#   From: 2010.06.25/outbox.cif.g09.slc.cpg/sg12_76_cif.got.tgz:150322.got - 2010.06.28 00:19:55.
