data_PCOD8094499
_publ_section_title
;
Structure prediction by ZEFSAII (Michael W. Deem and Ramdas Pophale) SiO2 
 PCOD8094499
Probable space group: C 2/M
;
_chemical_formula_sum "Si O2"
_cell_formula_units_Z 56
_cell_length_a 11.902720
_cell_length_b 13.743581
_cell_length_c 26.068760
_cell_angle_alpha 90.000000
_cell_angle_beta 141.938346
_cell_angle_gamma 90.000000
_cell_volume 2629.093113
_symmetry_space_group_name_H-M "C 2/M"
_symmetry_group_IT_number 12
_symmetry_cell_setting 'monoclinic'
loop_
_space_group_symop_operation_xyz
x,y,z
-x,y,-z
-x,-y,-z
x,-y,z
1/2+x,1/2+y,z
1/2-x,1/2+y,-z
1/2-x,1/2-y,-z
1/2+x,1/2-y,z
loop_
_atom_site_type_symbol
_atom_site_label
_atom_site_fract_x
_atom_site_fract_y
_atom_site_fract_z
Si Si1 0.227744 0.386978 0.369866
Si Si2 0.008905 0.783571 0.261419
Si Si3 0.229703 0.390566 0.964954
Si Si4 0.388723 0.385792 0.533859
Si Si5 0.832229 0.611053 0.850366
Si Si6 0.743949 0.698400 0.917796
Si Si7 0.707441 0.115238 0.572153
O O1 0.176159 0.500000 0.352190
O O2 0.047198 0.329879 0.286787
O O3 0.285780 0.345025 0.446455
O O4 0.394738 0.365564 0.390810
O O5 0.189925 0.843604 0.340950
O O6 0.836007 0.825066 0.232776
O O7 0.954492 0.796311 0.181975
O O8 0.294534 0.500000 0.973151
O O9 0.313604 0.307271 0.958585
O O10 0.010798 0.381481 0.879795
O O11 0.284639 0.370594 0.043536
O O12 0.355299 0.500000 0.520288
O O13 0.300416 0.342022 0.553753
O O14 0.765243 0.500000 0.831196
O O15 0.884672 0.652986 0.926404
O O16 0.500000 0.151810 0.500000
O O17 0.719467 0.000000 0.578179
#
# Coordination Sequence:
#
# PCOD8094499 Si02
#       7
#     8   8   8   8   8   8   8
#     4   9  18  36  57  79 108 144 191 244 299 345
#     4  10  22  34  52  86 114 146 186 242 289 338
#     4  10  19  37  66  88 111 155 197 236 290 353
#     4   8  17  35  59  78  99 144 200 246 284 341
#     4   9  19  37  60  84 113 149 190 237 289 346
#     4   9  21  35  55  92 120 141 192 247 291 344
#     4  10  21  37  53  77 112 151 196 240 287 344
#
# _framework density 21.30012
#
# number of rings (size 3 to 8) (size 9 to 14) (size 15 to 20)
#    0.857    1.857    0.000    2.143    2.000    3.429 
#    2.571    2.857    0.000   12.000    0.000    0.000 
#    0.000    0.000    0.000    0.000    0.000    0.000 
#
# Total GULP energy -346936.189288 kJ/mol
# GULP energy per Si atom -12390.578189 kJ/mol
# Density = 2.125164 g / cm^3
# Si number density = 21.300120 Si / 1000 Ang^3
#
#
#
# Elastic Constant Matrix: (Units=GPa)
#
#
# Indices 1 2 3 4 5 6 
#
# 1 60.1526 28.2359 -0.1636 0.0000 -3.9962 0.0000
# 2 28.2359 90.2781 10.5974 0.0000 12.9572 0.0000
# 3 -0.1636 10.5974 58.5762 0.0000 6.9267 0.0000
# 4 0.0000 0.0000 0.0000 39.6326 0.0000 1.8236
# 5 -3.9962 12.9572 6.9267 0.0000 16.8514 0.0000
# 6 0.0000 0.0000 0.0000 1.8236 0.0000 17.2000
#
#
#
# Elastic Compliance Matrix: (Units=1/GPa)
#
#
# Indices 1 2 3 4 5 6 
#
# 1 0.021279 -0.008310 0.000221 0.000000 0.011345 0.000000
# 2 -0.008310 0.015774 -0.001272 0.000000 -0.013576 0.000000
# 3 0.000221 -0.001272 0.018058 0.000000 -0.006393 0.000000
# 4 0.000000 0.000000 0.000000 0.025355 0.000000 -0.002688
# 5 0.011345 -0.013576 -0.006393 0.000000 0.075099 0.000000
# 6 0.000000 0.000000 0.000000 -0.002688 0.000000 0.058425
#
#
# Mechanical properties :
#
#
# Convention : Reuss Voigt Hill
#
# Bulk Modulus (GPa) = 27.47891 31.81626 29.64758
# Shear Modulus (GPa) = 20.42142 26.09261 23.25701
#
# Velocity S-wave (km/s) = 3.09972 3.50379 3.30793
# Velocity P-wave (km/s) = 5.07345 5.59806 5.34220
#
# Compressibility (1/GPa) = 0.03639155
#
# Stress axis : x y z
#
# Youngs Moduli (GPa) = 46.99413 63.39683 55.37594
#
# Poissons Ratio (x) = 0.52680 -0.01225
# Poissons Ratio (y) = 0.39050 0.07041
# Poissons Ratio (z) = -0.01040 0.08061
#
# Static dielectric constant tensor:
#      x y z
#    x 3.712510 0.000000 -0.069820 
#    y 0.000000 3.850950 0.000000 
#    z -0.069820 0.000000 3.740140 
# 
# 
# High freq. dielectric constant tensor:
#      x y z
#    x 1.800100 0.000000 -0.003240 
#    y 0.000000 1.844330 0.000000 
#    z -0.003240 0.000000 1.830830 
# 
# From -- ./inp_files/358219.got.cif
#   From: 2010.06.25/outbox.cif.g09.slc.cpg/sg12_180_cif.got.tgz:358219.got - 2010.06.28 00:19:55.
