data_PCOD8094443
_publ_section_title
;
Structure prediction by ZEFSAII (Michael W. Deem and Ramdas Pophale) SiO2 
 PCOD8094443
Probable space group: C 2/M
;
_chemical_formula_sum "Si O2"
_cell_formula_units_Z 64
_cell_length_a 12.004746
_cell_length_b 13.667709
_cell_length_c 20.667340
_cell_angle_alpha 90.000000
_cell_angle_beta 94.898189
_cell_angle_gamma 90.000000
_cell_volume 3378.658791
_symmetry_space_group_name_H-M "C 2/M"
_symmetry_group_IT_number 12
_symmetry_cell_setting 'monoclinic'
loop_
_space_group_symop_operation_xyz
x,y,z
-x,y,-z
-x,-y,-z
x,-y,z
1/2+x,1/2+y,z
1/2-x,1/2+y,-z
1/2-x,1/2-y,-z
1/2+x,1/2-y,z
loop_
_atom_site_type_symbol
_atom_site_label
_atom_site_fract_x
_atom_site_fract_y
_atom_site_fract_z
Si Si1 0.138547 0.610904 0.300008
Si Si2 0.730650 0.385629 0.561974
Si Si3 0.918419 0.109512 0.148156
Si Si4 0.873111 0.196690 0.007782
Si Si5 0.164439 0.106534 0.125780
Si Si6 0.885212 0.306532 0.459147
Si Si7 0.274711 0.254256 0.220475
Si Si8 0.386087 0.889740 0.320075
O O1 0.166848 0.500000 0.282495
O O2 0.194936 0.636048 0.371408
O O3 0.176051 0.678181 0.242435
O O4 0.008299 0.629327 0.298945
O O5 0.692392 0.500000 0.557262
O O6 0.792244 0.354545 0.499803
O O7 0.627724 0.309010 0.559531
O O8 0.875735 0.147285 0.077267
O O9 0.876445 0.176704 0.204790
O O10 0.051257 0.110835 0.161289
O O11 0.871597 0.000000 0.155267
O O12 0.636201 0.383613 0.048785
O O13 0.750000 0.250000 0.000000
O O14 0.000000 0.248902 0.000000
O O15 0.242617 0.193215 0.154963
O O16 0.221843 0.000000 0.138388
O O17 0.882790 0.371648 0.395595
O O18 0.000000 0.322295 0.500000
O O19 0.302744 0.181860 0.279761
O O20 0.346756 0.000000 0.304468
#
# Coordination Sequence:
#
# PCOD8094443 Si02
#       8
#     8   8   8   8   8   8   8   8
#     4  10  21  37  56  79 110 146 184 225 277 344
#     4  10  21  37  57  82 108 137 180 232 283 334
#     4  10  21  37  60  87 114 152 200 237 277 343
#     4  10  19  37  63  89 118 155 199 249 295 343
#     4  10  21  37  59  85 115 153 196 238 285 339
#     4  11  21  37  61  81 105 141 185 234 279 334
#     4  12  21  37  57  81 117 151 184 234 286 334
#     4  11  23  37  55  83 111 144 187 228 282 340
#
# _framework density 18.942429000000001
#
# number of rings (size 3 to 8) (size 9 to 14) (size 15 to 20)
#    0.000    1.500    3.750    2.250    0.000    2.250 
#    0.000    0.000    0.000    3.750    0.000    0.000 
#    0.000    0.000    0.000    0.000    0.000    0.000 
#
# Total GULP energy -396489.353444 kJ/mol
# GULP energy per Si atom -12390.292295 kJ/mol
# Density = 1.889931 g / cm^3
# Si number density = 18.942429 Si / 1000 Ang^3
#
#
#
# Elastic Constant Matrix: (Units=GPa)
#
#
# Indices 1 2 3 4 5 6 
#
# 1 65.2802 32.9407 2.9899 0.0000 -4.2143 0.0000
# 2 32.9407 115.4823 12.5542 0.0000 -3.3627 0.0000
# 3 2.9899 12.5542 55.6162 0.0000 -3.9791 0.0000
# 4 0.0000 0.0000 0.0000 25.6907 0.0000 -1.7182
# 5 -4.2143 -3.3627 -3.9791 0.0000 31.5249 0.0000
# 6 0.0000 0.0000 0.0000 -1.7182 0.0000 20.3918
#
#
#
# Elastic Compliance Matrix: (Units=1/GPa)
#
#
# Indices 1 2 3 4 5 6 
#
# 1 0.018008 -0.005117 0.000323 0.000000 0.001902 0.000000
# 2 -0.005117 0.010346 -0.002049 0.000000 0.000161 0.000000
# 3 0.000323 -0.002049 0.018581 0.000000 0.002170 0.000000
# 4 0.000000 0.000000 0.000000 0.039145 0.000000 0.003298
# 5 0.001902 0.000161 0.002170 0.000000 0.032266 0.000000
# 6 0.000000 0.000000 0.000000 0.003298 0.000000 0.049317
#
#
# Mechanical properties :
#
#
# Convention : Reuss Voigt Hill
#
# Bulk Modulus (GPa) = 30.07475 37.03871 33.55673
# Shear Modulus (GPa) = 25.98314 28.04774 27.01544
#
# Velocity S-wave (km/s) = 3.70765 3.85214 3.78059
# Velocity P-wave (km/s) = 5.85152 6.27543 6.06718
#
# Compressibility (1/GPa) = 0.03325048
#
# Stress axis : x y z
#
# Youngs Moduli (GPa) = 55.52951 96.65361 53.81914
#
# Poissons Ratio (x) = 0.49453 -0.01738
# Poissons Ratio (y) = 0.28412 0.11027
# Poissons Ratio (z) = -0.01793 0.19803
#
# Static dielectric constant tensor:
#      x y z
#    x 3.606510 0.000000 -0.070800 
#    y 0.000000 3.630880 0.000000 
#    z -0.070800 0.000000 3.445860 
# 
# 
# High freq. dielectric constant tensor:
#      x y z
#    x 1.726130 0.000000 -0.004620 
#    y 0.000000 1.739200 0.000000 
#    z -0.004620 0.000000 1.746050 
# 
# From -- ./inp_files/335233.got.cif
#   From: 2010.06.25/outbox.cif.g09.slc.cpg/sg12_168_cif.got.tgz:335233.got - 2010.06.28 00:19:55.
