data_PCOD8094905
_publ_section_title
;
Structure prediction by ZEFSAII (Michael W. Deem and Ramdas Pophale) SiO2 
 PCOD8094905
Probable space group: C 2/M
;
_chemical_formula_sum "Si O2"
_cell_formula_units_Z 64
_cell_length_a 18.082665
_cell_length_b 17.556396
_cell_length_c 11.435598
_cell_angle_alpha 90.000000
_cell_angle_beta 77.453959
_cell_angle_gamma 90.000000
_cell_volume 3543.730470
_symmetry_space_group_name_H-M "C 2/M"
_symmetry_group_IT_number 12
_symmetry_cell_setting 'monoclinic'
loop_
_space_group_symop_operation_xyz
x,y,z
-x,y,-z
-x,-y,-z
x,-y,z
1/2+x,1/2+y,z
1/2-x,1/2+y,-z
1/2-x,1/2-y,-z
1/2+x,1/2-y,z
loop_
_atom_site_type_symbol
_atom_site_label
_atom_site_fract_x
_atom_site_fract_y
_atom_site_fract_z
Si Si1 0.792675 0.587213 0.255561
Si Si2 0.411915 0.912292 0.032297
Si Si3 0.283212 0.411905 0.228131
Si Si4 0.849781 0.157173 0.816312
Si Si5 0.777888 0.089537 0.489349
Si Si6 0.307844 0.193827 0.911429
Si Si7 0.415389 0.587443 0.020919
Si Si8 0.577021 0.590189 0.421817
O O1 0.764169 0.500000 0.260639
O O2 0.877867 0.595678 0.176245
O O3 0.734946 0.632911 0.192708
O O4 0.788314 0.613036 0.394503
O O5 0.401487 0.000000 0.992609
O O6 0.500000 0.889522 0.000000
O O7 0.366086 0.852878 0.970568
O O8 0.258226 0.500000 0.231612
O O9 0.269016 0.375560 0.362440
O O10 0.233039 0.367095 0.154244
O O11 0.371822 0.403876 0.160283
O O12 0.855790 0.248964 0.812790
O O13 0.913862 0.123866 0.710398
O O14 0.864518 0.129214 0.942480
O O15 0.855913 0.119372 0.518185
O O16 0.782083 0.000000 0.468840
O O17 0.250000 0.250000 0.000000
O O18 0.422164 0.500000 0.980142
O O19 0.500000 0.623112 0.000000
O O20 0.500000 0.623302 0.500000
O O21 0.575222 0.500000 0.411858
#
# Coordination Sequence:
#
# PCOD8094905 Si02
#       8
#     8   8   8   8   8   8   8   8
#     4   9  16  32  57  80 104 135 182 230 272 327
#     4  10  21  38  62  85 105 137 188 242 282 321
#     4  10  20  36  55  76 106 143 186 228 272 329
#     4  11  20  33  52  75 110 147 183 223 273 333
#     4   8  16  30  51  79 103 135 181 226 265 314
#     4  12  22  37  55  81 111 145 182 224 284 340
#     4  10  20  30  46  76 112 145 176 215 268 328
#     4   9  18  32  54  79 109 148 189 228 266 322
#
# _framework density 18.060064000000001
#
# number of rings (size 3 to 8) (size 9 to 14) (size 15 to 20)
#    0.000    2.125    2.500    2.250    1.750    2.500 
#    0.000    2.500    2.750    0.000    0.000    4.375 
#    0.000    0.000    0.000    0.000    0.000    0.000 
#
# Total GULP energy -396547.493017 kJ/mol
# GULP energy per Si atom -12392.109157 kJ/mol
# Density = 1.801896 g / cm^3
# Si number density = 18.060064 Si / 1000 Ang^3
#
#
#
# Elastic Constant Matrix: (Units=GPa)
#
#
# Indices 1 2 3 4 5 6 
#
# 1 94.7954 36.8556 67.6229 0.0000 -14.2061 0.0000
# 2 36.8556 67.9662 39.2812 0.0000 1.8496 0.0000
# 3 67.6229 39.2812 137.5589 0.0000 -7.1233 0.0000
# 4 0.0000 0.0000 0.0000 7.9227 0.0000 -3.8262
# 5 -14.2061 1.8496 -7.1233 0.0000 30.5867 0.0000
# 6 0.0000 0.0000 0.0000 -3.8262 0.0000 15.3872
#
#
#
# Elastic Compliance Matrix: (Units=1/GPa)
#
#
# Indices 1 2 3 4 5 6 
#
# 1 0.019457 -0.006545 -0.007295 0.000000 0.007733 0.000000
# 2 -0.006545 0.019979 -0.002741 0.000000 -0.004886 0.000000
# 3 -0.007295 -0.002741 0.011612 0.000000 -0.000518 0.000000
# 4 0.000000 0.000000 0.000000 0.143446 0.000000 0.035670
# 5 0.007733 -0.004886 -0.000518 0.000000 0.036461 0.000000
# 6 0.000000 0.000000 0.000000 0.035670 0.000000 0.073859
#
#
# Mechanical properties :
#
#
# Convention : Reuss Voigt Hill
#
# Bulk Modulus (GPa) = 55.91069 65.31555 60.61312
# Shear Modulus (GPa) = 14.53756 21.21673 17.87714
#
# Velocity S-wave (km/s) = 2.84025 3.43123 3.14964
# Velocity P-wave (km/s) = 6.46386 7.20709 6.84557
#
# Compressibility (1/GPa) = 0.01788567
#
# Stress axis : x y z
#
# Youngs Moduli (GPa) = 51.39604 50.05181 86.11904
#
# Poissons Ratio (x) = 0.32758 0.62827
# Poissons Ratio (y) = 0.33638 0.23605
# Poissons Ratio (z) = 0.37495 0.13719
#
# Static dielectric constant tensor:
#      x y z
#    x 3.243270 0.000000 -0.222760 
#    y 0.000000 3.348330 0.000000 
#    z -0.222760 0.000000 3.676520 
# 
# 
# High freq. dielectric constant tensor:
#      x y z
#    x 1.678510 0.000000 -0.012060 
#    y 0.000000 1.680470 0.000000 
#    z -0.012060 0.000000 1.707780 
# 
# From -- ./inp_files/157803.got.cif
#   From: 2010.06.25/outbox.cif.g09.slc.cpg/sg12_79_cif.got.tgz:157803.got - 2010.06.28 00:19:55.
