data_PCOD8094616
_publ_section_title
;
Structure prediction by ZEFSAII (Michael W. Deem and Ramdas Pophale) SiO2 
 PCOD8094616
Probable space group: C 2/M
;
_chemical_formula_sum "Si O2"
_cell_formula_units_Z 40
_cell_length_a 18.197361
_cell_length_b 11.620609
_cell_length_c 10.766668
_cell_angle_alpha 90.000000
_cell_angle_beta 114.996455
_cell_angle_gamma 90.000000
_cell_volume 2063.511346
_symmetry_space_group_name_H-M "C 2/M"
_symmetry_group_IT_number 12
_symmetry_cell_setting 'monoclinic'
loop_
_space_group_symop_operation_xyz
x,y,z
-x,y,-z
-x,-y,-z
x,-y,z
1/2+x,1/2+y,z
1/2-x,1/2+y,-z
1/2-x,1/2-y,-z
1/2+x,1/2-y,z
loop_
_atom_site_type_symbol
_atom_site_label
_atom_site_fract_x
_atom_site_fract_y
_atom_site_fract_z
Si Si1 0.582372 0.366363 0.131958
Si Si2 0.074549 0.500000 0.950199
Si Si3 0.716864 0.631220 0.627649
Si Si4 0.480340 0.000000 0.630642
Si Si5 0.123125 0.719091 0.388290
Si Si6 0.199427 0.293044 0.079553
O O1 0.597715 0.500000 0.168905
O O2 0.576489 0.300521 0.258139
O O3 0.658535 0.319933 0.108667
O O4 0.500000 0.343649 0.000000
O O5 0.048871 0.500000 0.787060
O O6 0.129204 0.386945 0.007237
O O7 0.000000 0.500000 0.000000
O O8 0.693579 0.500000 0.586385
O O9 0.797144 0.663399 0.611152
O O10 0.642683 0.708291 0.525847
O O11 0.731827 0.653222 0.783023
O O12 0.500000 0.000000 0.500000
O O13 0.432762 0.884152 0.615211
O O14 0.250000 0.250000 0.000000
#
# Coordination Sequence:
#
# PCOD8094616 Si02
#       6
#     8   4   8   4   8   8
#     4  10  21  39  64  90 120 168 219 259 316 401
#     4  12  24  46  74  94 133 183 229 262 329 413
#     4  10  19  38  62  88 122 161 209 254 318 390
#     4  12  26  40  64  96 134 166 216 270 327 379
#     4  10  21  38  61  89 124 162 210 257 315 388
#     4  11  24  38  64  96 130 163 213 279 330 374
#
# _framework density 19.384433999999999
#
# number of rings (size 3 to 8) (size 9 to 14) (size 15 to 20)
#    0.000    1.400    2.000    4.800    4.200    0.000 
#    1.800    0.000    0.000    1.200    0.000    0.000 
#    0.000    0.000    0.000    0.000    0.000    0.000 
#
# Total GULP energy -247936.779382 kJ/mol
# GULP energy per Si atom -12396.838969 kJ/mol
# Density = 1.934031 g / cm^3
# Si number density = 19.384434 Si / 1000 Ang^3
#
#
#
# Elastic Constant Matrix: (Units=GPa)
#
#
# Indices 1 2 3 4 5 6 
#
# 1 72.3237 55.8918 50.9503 0.0000 -7.8271 0.0000
# 2 55.8918 174.5906 86.0339 0.0000 4.4037 0.0000
# 3 50.9503 86.0339 176.3173 0.0000 -5.5000 0.0000
# 4 0.0000 0.0000 0.0000 30.3014 0.0000 -1.2398
# 5 -7.8271 4.4037 -5.5000 0.0000 27.7809 0.0000
# 6 0.0000 0.0000 0.0000 -1.2398 0.0000 27.6194
#
#
#
# Elastic Compliance Matrix: (Units=1/GPa)
#
#
# Indices 1 2 3 4 5 6 
#
# 1 0.020812 -0.005192 -0.003292 0.000000 0.006035 0.000000
# 2 -0.005192 0.008941 -0.002971 0.000000 -0.003468 0.000000
# 3 -0.003292 -0.002971 0.008108 0.000000 0.001149 0.000000
# 4 0.000000 0.000000 0.000000 0.033063 0.000000 0.001484
# 5 0.006035 -0.003468 0.001149 0.000000 0.038473 0.000000
# 6 0.000000 0.000000 0.000000 0.001484 0.000000 0.036273
#
#
# Mechanical properties :
#
#
# Convention : Reuss Voigt Hill
#
# Bulk Modulus (GPa) = 66.88514 89.88707 78.38611
# Shear Modulus (GPa) = 28.80778 32.49737 30.65257
#
# Velocity S-wave (km/s) = 3.85922 4.09891 3.98087
# Velocity P-wave (km/s) = 7.37818 8.29897 7.85208
#
# Compressibility (1/GPa) = 0.01495100
#
# Stress axis : x y z
#
# Youngs Moduli (GPa) = 48.04980 111.84069 123.33134
#
# Poissons Ratio (x) = 0.58073 0.40601
# Poissons Ratio (y) = 0.24950 0.36637
# Poissons Ratio (z) = 0.15818 0.33224
#
# Static dielectric constant tensor:
#      x y z
#    x 3.088270 0.000000 1.022410 
#    y 0.000000 3.761640 0.000000 
#    z 1.022410 0.000000 -0.793490 
# 
# 
# High freq. dielectric constant tensor:
#      x y z
#    x 1.724940 0.000000 0.003640 
#    y 0.000000 1.778760 0.000000 
#    z 0.003640 0.000000 1.776760 
# 
# From -- ./inp_files/153907.got.cif
#   From: 2010.06.25/outbox.cif.g09.slc.cpg/sg12_77_cif.got.tgz:153907.got - 2010.06.28 00:19:55.
