data_PCOD8094132
_publ_section_title
;
Structure prediction by ZEFSAII (Michael W. Deem and Ramdas Pophale) SiO2 
 PCOD8094132
Probable space group: C 2/M
;
_chemical_formula_sum "Si O2"
_cell_formula_units_Z 64
_cell_length_a 19.377648
_cell_length_b 14.116814
_cell_length_c 15.834981
_cell_angle_alpha 90.000000
_cell_angle_beta 44.920440
_cell_angle_gamma 90.000000
_cell_volume 3058.696678
_symmetry_space_group_name_H-M "C 2/M"
_symmetry_group_IT_number 12
_symmetry_cell_setting 'monoclinic'
loop_
_space_group_symop_operation_xyz
x,y,z
-x,y,-z
-x,-y,-z
x,-y,z
1/2+x,1/2+y,z
1/2-x,1/2+y,-z
1/2-x,1/2-y,-z
1/2+x,1/2-y,z
loop_
_atom_site_type_symbol
_atom_site_label
_atom_site_fract_x
_atom_site_fract_y
_atom_site_fract_z
Si Si1 0.496783 0.105162 0.283962
Si Si2 0.093603 0.603170 0.363339
Si Si3 0.174934 0.200282 0.971704
Si Si4 0.689311 0.103172 0.033253
Si Si5 0.583292 0.389632 0.361034
Si Si6 0.250313 0.247315 0.737696
Si Si7 0.512845 0.388736 0.230475
Si Si8 0.842195 0.751853 0.360603
O O1 0.555891 0.154309 0.310015
O O2 0.572717 0.098095 0.141114
O O3 0.405201 0.163494 0.334799
O O4 0.461037 0.000000 0.341946
O O5 0.138748 0.500000 0.302656
O O6 0.172432 0.663906 0.345543
O O7 0.000000 0.589744 0.500000
O O8 0.257097 0.121809 0.923102
O O9 0.169378 0.207913 0.875197
O O10 0.217052 0.306361 0.953776
O O11 0.076217 0.172040 0.107277
O O12 0.726937 0.000000 0.965176
O O13 0.500000 0.353499 0.500000
O O14 0.601682 0.500000 0.360878
O O15 0.686814 0.338760 0.288398
O O16 0.550514 0.370693 0.292704
O O17 0.189822 0.268317 0.706780
O O18 0.514382 0.500000 0.206015
O O19 0.402351 0.349823 0.318109
O O20 0.750000 0.750000 0.500000
#
# Coordination Sequence:
#
# PCOD8094132 Si02
#       8
#     8   8   8   8   8   8   8   8
#     4  10  20  39  64  88 119 158 205 251 307 367
#     4  10  20  36  60  89 118 152 206 264 307 354
#     4  11  22  38  62  93 130 160 209 260 309 380
#     4  10  19  36  64  93 121 156 199 255 311 363
#     4  10  21  40  67  96 124 160 213 270 317 366
#     4  12  24  37  61  92 127 164 204 260 309 374
#     4  11  24  44  67  93 128 170 213 256 315 381
#     4  12  26  43  62  89 128 169 211 254 314 380
#
# _framework density 20.923945
#
# number of rings (size 3 to 8) (size 9 to 14) (size 15 to 20)
#    0.000    1.250    2.500    4.500    0.000    4.000 
#    0.000    0.625    0.000    1.500    0.000    0.000 
#    0.000    0.000    0.000    0.000    0.000    0.000 
#
# Total GULP energy -396514.030400 kJ/mol
# GULP energy per Si atom -12391.063450 kJ/mol
# Density = 2.087632 g / cm^3
# Si number density = 20.923945 Si / 1000 Ang^3
#
#
#
# Elastic Constant Matrix: (Units=GPa)
#
#
# Indices 1 2 3 4 5 6 
#
# 1 70.8642 16.4251 20.5087 0.0000 -15.7730 0.0000
# 2 16.4251 114.9114 20.7413 0.0000 -15.8824 0.0000
# 3 20.5087 20.7413 113.1671 0.0000 -5.5148 0.0000
# 4 0.0000 0.0000 0.0000 40.4764 0.0000 -25.1502
# 5 -15.7730 -15.8824 -5.5148 0.0000 27.9213 0.0000
# 6 0.0000 0.0000 0.0000 -25.1502 0.0000 55.7621
#
#
#
# Elastic Compliance Matrix: (Units=1/GPa)
#
#
# Indices 1 2 3 4 5 6 
#
# 1 0.016938 -0.000776 -0.002507 0.000000 0.008632 0.000000
# 2 -0.000776 0.009734 -0.001409 0.000000 0.004821 0.000000
# 3 -0.002507 -0.001409 0.009533 0.000000 -0.000335 0.000000
# 4 0.000000 0.000000 0.000000 0.034325 0.000000 0.015482
# 5 0.008632 0.004821 -0.000335 0.000000 0.043367 0.000000
# 6 0.000000 0.000000 0.000000 0.015482 0.000000 0.024916
#
#
# Mechanical properties :
#
#
# Convention : Reuss Voigt Hill
#
# Bulk Modulus (GPa) = 37.28183 46.03255 41.65719
# Shear Modulus (GPa) = 31.81964 40.91646 36.36805
#
# Velocity S-wave (km/s) = 3.90388 4.42688 4.17358
# Velocity P-wave (km/s) = 6.17874 6.94100 6.57093
#
# Compressibility (1/GPa) = 0.02682272
#
# Stress axis : x y z
#
# Youngs Moduli (GPa) = 59.03848 102.73571 104.90269
#
# Poissons Ratio (x) = 0.07967 0.26297
# Poissons Ratio (y) = 0.04579 0.14776
# Poissons Ratio (z) = 0.14800 0.14471
#
# Static dielectric constant tensor:
#      x y z
#    x 3.528380 0.000000 0.073170 
#    y 0.000000 4.132200 0.000000 
#    z 0.073170 0.000000 3.930290 
# 
# 
# High freq. dielectric constant tensor:
#      x y z
#    x 1.788290 0.000000 -0.001530 
#    y 0.000000 1.835500 0.000000 
#    z -0.001530 0.000000 1.829680 
# 
# From -- ./inp_files/225686.got.cif
#   From: 2010.06.25/outbox.cif.g09.slc.cpg/sg12_113_cif.got.tgz:225686.got - 2010.06.28 00:19:55.
