data_PCOD8094014
_publ_section_title
;
Structure prediction by ZEFSAII (Michael W. Deem and Ramdas Pophale) SiO2 
 PCOD8094014
Probable space group: C 2/M
;
_chemical_formula_sum "Si O2"
_cell_formula_units_Z 56
_cell_length_a 11.465436
_cell_length_b 25.792170
_cell_length_c 11.020069
_cell_angle_alpha 90.000000
_cell_angle_beta 56.364508
_cell_angle_gamma 90.000000
_cell_volume 2713.237735
_symmetry_space_group_name_H-M "C 2/M"
_symmetry_group_IT_number 12
_symmetry_cell_setting 'monoclinic'
loop_
_space_group_symop_operation_xyz
x,y,z
-x,y,-z
-x,-y,-z
x,-y,z
1/2+x,1/2+y,z
1/2-x,1/2+y,-z
1/2-x,1/2-y,-z
1/2+x,1/2-y,z
loop_
_atom_site_type_symbol
_atom_site_label
_atom_site_fract_x
_atom_site_fract_y
_atom_site_fract_z
Si Si1 0.789605 0.306409 0.020786
Si Si2 0.721932 0.316726 0.325080
Si Si3 0.115602 0.059281 0.664903
Si Si4 0.007473 0.655217 0.708013
Si Si5 0.000000 0.266033 0.500000
Si Si6 0.330447 0.939256 0.737857
Si Si7 0.607979 0.396934 0.039112
Si Si8 0.000000 0.893280 0.500000
O O1 0.809293 0.302500 0.154487
O O2 0.661276 0.344011 0.066062
O O3 0.750000 0.250000 0.000000
O O4 0.926956 0.329815 0.878039
O O5 0.826926 0.342524 0.362101
O O6 0.641676 0.268033 0.432657
O O7 0.603338 0.358601 0.358627
O O8 0.248068 0.082574 0.664980
O O9 0.968196 0.069327 0.815030
O O10 0.100352 0.075194 0.533399
O O11 0.150675 0.000000 0.648156
O O12 0.970240 0.699163 0.633438
O O13 0.965102 0.598055 0.681582
O O14 0.377222 0.000000 0.701206
O O15 0.228945 0.933094 0.912342
O O16 0.500000 0.378576 0.000000
#
# Coordination Sequence:
#
# PCOD8094014 Si02
#       8
#     8   8   8   8   4   8   8   4
#     4  11  21  41  60  93 122 161 208 252 305 369
#     4  11  24  43  63  89 128 165 203 254 312 374
#     4  10  19  36  61  90 124 164 210 257 305 363
#     4  11  24  41  67  91 128 164 206 258 313 373
#     4  11  24  44  62  96 122 164 208 253 314 378
#     4   9  20  39  64  93 122 162 213 261 308 364
#     4   9  18  34  60  89 120 157 204 258 307 357
#     4  11  23  38  61  90 131 162 205 253 310 374
#
# _framework density 20.639548999999999
#
# number of rings (size 3 to 8) (size 9 to 14) (size 15 to 20)
#    0.000    1.714    2.857    1.500    2.000    2.857 
#    2.571    1.786    0.000    1.714    0.000    0.000 
#    0.000    0.000    0.000    0.000    0.000    0.000 
#
# Total GULP energy -347041.071127 kJ/mol
# GULP energy per Si atom -12394.323969 kJ/mol
# Density = 2.059257 g / cm^3
# Si number density = 20.639549 Si / 1000 Ang^3
#
#
#
# Elastic Constant Matrix: (Units=GPa)
#
#
# Indices 1 2 3 4 5 6 
#
# 1 111.6565 58.9694 29.3463 0.0000 -1.2484 0.0000
# 2 58.9694 112.5484 25.3701 0.0000 0.7921 0.0000
# 3 29.3463 25.3701 84.9826 0.0000 7.8975 0.0000
# 4 0.0000 0.0000 0.0000 20.7587 0.0000 2.6621
# 5 -1.2484 0.7921 7.8975 0.0000 28.1722 0.0000
# 6 0.0000 0.0000 0.0000 2.6621 0.0000 33.6390
#
#
#
# Elastic Compliance Matrix: (Units=1/GPa)
#
#
# Indices 1 2 3 4 5 6 
#
# 1 0.012965 -0.006178 -0.002775 0.000000 0.001526 0.000000
# 2 -0.006178 0.012479 -0.001575 0.000000 -0.000183 0.000000
# 3 -0.002775 -0.001575 0.013556 0.000000 -0.003879 0.000000
# 4 0.000000 0.000000 0.000000 0.048666 0.000000 -0.003851
# 5 0.001526 -0.000183 -0.003879 0.000000 0.036656 0.000000
# 6 0.000000 0.000000 0.000000 -0.003851 0.000000 0.030032
#
#
# Mechanical properties :
#
#
# Convention : Reuss Voigt Hill
#
# Bulk Modulus (GPa) = 55.72812 59.61767 57.67289
# Shear Modulus (GPa) = 27.56475 29.54744 28.55609
#
# Velocity S-wave (km/s) = 3.65846 3.78774 3.72366
# Velocity P-wave (km/s) = 6.70112 6.93377 6.81844
#
# Compressibility (1/GPa) = 0.01794426
#
# Stress axis : x y z
#
# Youngs Moduli (GPa) = 77.12842 80.13783 73.76937
#
# Poissons Ratio (x) = 0.49513 0.20468
# Poissons Ratio (y) = 0.47654 0.11616
# Poissons Ratio (z) = 0.21400 0.12619
#
# Static dielectric constant tensor:
#      x y z
#    x 3.622480 0.000000 0.081200 
#    y 0.000000 3.676740 0.000000 
#    z 0.081200 0.000000 3.699870 
# 
# 
# High freq. dielectric constant tensor:
#      x y z
#    x 1.801690 0.000000 0.001530 
#    y 0.000000 1.802220 0.000000 
#    z 0.001530 0.000000 1.812170 
# 
# From -- ./inp_files/136584.got.cif
#   From: 2010.06.25/outbox.cif.g09.slc.cpg/sg12_69_cif.got.tgz:136584.got - 2010.06.28 00:19:55.
