data_PCOD8094685
_publ_section_title
;
Structure prediction by ZEFSAII (Michael W. Deem and Ramdas Pophale) SiO2 
 PCOD8094685
Probable space group: C 2/M
;
_chemical_formula_sum "Si O2"
_cell_formula_units_Z 64
_cell_length_a 19.224663
_cell_length_b 8.781631
_cell_length_c 30.874841
_cell_angle_alpha 90.000000
_cell_angle_beta 38.614303
_cell_angle_gamma 90.000000
_cell_volume 3252.933661
_symmetry_space_group_name_H-M "C 2/M"
_symmetry_group_IT_number 12
_symmetry_cell_setting 'monoclinic'
loop_
_space_group_symop_operation_xyz
x,y,z
-x,y,-z
-x,-y,-z
x,-y,z
1/2+x,1/2+y,z
1/2-x,1/2+y,-z
1/2-x,1/2-y,-z
1/2+x,1/2-y,z
loop_
_atom_site_type_symbol
_atom_site_label
_atom_site_fract_x
_atom_site_fract_y
_atom_site_fract_z
Si Si1 0.379580 0.831475 0.539430
Si Si2 0.659207 0.320111 0.189763
Si Si3 0.255248 0.818614 0.683479
Si Si4 0.506021 0.680892 0.805485
Si Si5 0.616232 0.170531 0.967369
Si Si6 0.866415 0.822078 0.953083
Si Si7 0.866714 0.178780 0.456464
Si Si8 0.910961 0.681063 0.686009
O O1 0.500000 0.853912 0.500000
O O2 0.302697 0.761785 0.614515
O O3 0.384485 0.712866 0.498198
O O4 0.337054 0.000000 0.544721
O O5 0.651175 0.500000 0.202157
O O6 0.565969 0.263851 0.200766
O O7 0.781644 0.273606 0.112430
O O8 0.640359 0.232149 0.243522
O O9 0.130515 0.751304 0.745261
O O10 0.329303 0.757606 0.687600
O O11 0.256281 0.000000 0.684692
O O12 0.510295 0.500000 0.802816
O O13 0.452436 0.742842 0.875887
O O14 0.645151 0.000000 0.969726
O O15 0.500000 0.172669 0.000000
O O16 0.595819 0.281484 0.017302
O O17 0.856260 0.000000 0.952634
O O18 0.750000 0.750000 0.000000
O O19 0.750000 0.250000 0.500000
O O20 0.966014 0.249906 0.379670
O O21 0.865264 0.000000 0.448773
O O22 0.921031 0.500000 0.679615
#
# Coordination Sequence:
#
# PCOD8094685 Si02
#       8
#     8   8   8   8   8   8   8   8
#     4  10  19  38  65  90 119 157 200 245 300 362
#     4  10  21  39  59  84 121 163 204 251 309 365
#     4   9  19  36  60  87 119 158 195 238 298 360
#     4   9  19  36  58  85 116 155 200 246 300 363
#     4  10  22  40  60  85 123 166 208 255 311 367
#     4  11  21  37  62  87 118 156 207 259 307 365
#     4  12  26  43  64  91 124 162 206 254 305 358
#     4  11  23  41  62  89 124 159 202 250 301 365
#
# _framework density 19.674547
#
# number of rings (size 3 to 8) (size 9 to 14) (size 15 to 20)
#    0.000    1.750    2.500    1.875    3.500    1.000 
#    0.000    0.000    0.000    3.000    0.000    0.000 
#    0.000    0.000    0.000    0.000    0.000    0.000 
#
# Total GULP energy -396791.605409 kJ/mol
# GULP energy per Si atom -12399.737669 kJ/mol
# Density = 1.962977 g / cm^3
# Si number density = 19.674547 Si / 1000 Ang^3
#
#
#
# Elastic Constant Matrix: (Units=GPa)
#
#
# Indices 1 2 3 4 5 6 
#
# 1 92.9010 27.7313 56.2923 0.0035 -3.2144 -0.0010
# 2 27.7313 61.5998 32.3458 0.0003 2.9890 -0.0001
# 3 56.2923 32.3458 167.3604 0.0000 -0.4717 -0.0022
# 4 0.0035 0.0003 0.0000 29.4917 0.0011 3.9688
# 5 -3.2144 2.9890 -0.4717 0.0011 42.6333 0.0021
# 6 -0.0010 -0.0001 -0.0022 3.9688 0.0021 55.2333
#
#
#
# Elastic Compliance Matrix: (Units=1/GPa)
#
#
# Indices 1 2 3 4 5 6 
#
# 1 0.014607 -0.004524 -0.004035 -0.000002 0.001374 0.000000
# 2 -0.004524 0.019541 -0.002260 0.000000 -0.001736 0.000000
# 3 -0.004035 -0.002260 0.007769 0.000000 -0.000060 0.000000
# 4 -0.000002 0.000000 0.000000 0.034239 -0.000001 -0.002460
# 5 0.001374 -0.001736 -0.000060 -0.000001 0.023680 -0.000001
# 6 0.000000 0.000000 0.000000 -0.002460 -0.000001 0.018282
#
#
# Mechanical properties :
#
#
# Convention : Reuss Voigt Hill
#
# Bulk Modulus (GPa) = 49.31038 61.62222 55.46630
# Shear Modulus (GPa) = 34.12599 39.17111 36.64855
#
# Velocity S-wave (km/s) = 4.16928 4.46685 4.32063
# Velocity P-wave (km/s) = 6.94944 7.61528 7.28996
#
# Compressibility (1/GPa) = 0.02027970
#
# Stress axis : x y z
#
# Youngs Moduli (GPa) = 68.46056 51.17357 128.71800
#
# Poissons Ratio (x) = 0.23150 0.51937
# Poissons Ratio (y) = 0.30970 0.29091
# Poissons Ratio (z) = 0.27623 0.11566
#
# Static dielectric constant tensor:
#      x y z
#    x 3.448260 -0.000150 -0.268360 
#    y -0.000150 4.439190 -0.000120 
#    z -0.268360 -0.000120 3.715870 
# 
# 
# High freq. dielectric constant tensor:
#      x y z
#    x 1.774680 0.000000 -0.001330 
#    y 0.000000 1.737550 0.000000 
#    z -0.001330 0.000000 1.786170 
# 
# From -- ./inp_files/378186.got.cif
#   From: 2010.06.25/outbox.cif.g09.slc.cpg/sg12_190_cif.got.tgz:378186.got - 2010.06.28 00:19:55.
