data_PCOD8094754
_publ_section_title
;
Structure prediction by ZEFSAII (Michael W. Deem and Ramdas Pophale) SiO2 
 PCOD8094754
Probable space group: C 2/M
;
_chemical_formula_sum "Si O2"
_cell_formula_units_Z 48
_cell_length_a 19.874705
_cell_length_b 24.671820
_cell_length_c 12.313703
_cell_angle_alpha 90.000000
_cell_angle_beta 22.440156
_cell_angle_gamma 90.000000
_cell_volume 2304.801262
_symmetry_space_group_name_H-M "C 2/M"
_symmetry_group_IT_number 12
_symmetry_cell_setting 'monoclinic'
loop_
_space_group_symop_operation_xyz
x,y,z
-x,y,-z
-x,-y,-z
x,-y,z
1/2+x,1/2+y,z
1/2-x,1/2+y,-z
1/2-x,1/2-y,-z
1/2+x,1/2-y,z
loop_
_atom_site_type_symbol
_atom_site_label
_atom_site_fract_x
_atom_site_fract_y
_atom_site_fract_z
Si Si1 0.194838 0.246580 0.749510
Si Si2 0.518303 0.937490 0.598124
Si Si3 0.708169 0.629585 0.670748
Si Si4 0.706611 0.135900 0.691865
Si Si5 0.799405 0.100874 0.782984
Si Si6 0.801623 0.225840 0.811897
O O1 0.282422 0.191720 0.570701
O O2 0.294549 0.303233 0.569193
O O3 0.187108 0.244224 0.891246
O O4 0.000000 0.248326 0.000000
O O5 0.500000 0.917031 0.500000
O O6 0.680882 0.906040 0.410670
O O7 0.572725 0.000000 0.515919
O O8 0.337760 0.932308 0.937860
O O9 0.737094 0.608391 0.504989
O O10 0.500000 0.625276 0.000000
O O11 0.761644 0.097031 0.709765
O O12 0.500000 0.143685 0.000000
O O13 0.772222 0.162088 0.860232
O O14 0.000000 0.079914 0.500000
O O15 0.000000 0.242511 0.500000
O O16 0.750000 0.250000 0.000000
#
# Coordination Sequence:
#
# PCOD8094754 Si02
#       6
#     8   8   8   8   8   8
#     4   9  21  35  57  91 131 168 206 247 308 378
#     4  11  27  48  69  93 124 167 220 276 330 380
#     4  11  24  39  65  94 128 174 208 257 322 379
#     4  10  19  39  61  95 132 168 210 256 306 384
#     4  10  23  41  66  93 129 164 212 273 320 377
#     4  10  23  35  56  92 128 171 213 249 305 381
#
# _framework density 20.826090000000001
#
# number of rings (size 3 to 8) (size 9 to 14) (size 15 to 20)
#    0.000    1.833    1.667    0.500    7.000    7.333 
#    0.000    1.667    0.000    0.000    0.000    0.000 
#    0.000    0.000    0.000    0.000    0.000    0.000 
#
# Total GULP energy -297453.889975 kJ/mol
# GULP energy per Si atom -12393.912082 kJ/mol
# Density = 2.077869 g / cm^3
# Si number density = 20.826090 Si / 1000 Ang^3
#
#
#
# Elastic Constant Matrix: (Units=GPa)
#
#
# Indices 1 2 3 4 5 6 
#
# 1 188.7431 42.7049 56.1675 0.0651 19.7668 -0.0142
# 2 42.7049 46.1159 25.5062 0.0201 -0.1776 0.0089
# 3 56.1675 25.5062 98.5729 0.0946 10.9087 -0.0186
# 4 0.0651 0.0201 0.0946 29.2447 -0.0333 -0.4612
# 5 19.7668 -0.1776 10.9087 -0.0333 43.7446 -0.0276
# 6 -0.0142 0.0089 -0.0186 -0.4612 -0.0276 23.5567
#
#
#
# Elastic Compliance Matrix: (Units=1/GPa)
#
#
# Indices 1 2 3 4 5 6 
#
# 1 0.007643 -0.005664 -0.002576 -0.000008 -0.002834 0.000001
# 2 -0.005664 0.029640 -0.004873 0.000012 0.003895 -0.000014
# 3 -0.002576 -0.004873 0.013109 -0.000036 -0.002125 0.000007
# 4 -0.000008 0.000012 -0.000036 0.034205 0.000039 0.000670
# 5 -0.002834 0.003895 -0.002125 0.000039 0.024686 0.000025
# 6 0.000001 -0.000014 0.000007 0.000670 0.000025 0.042464
#
#
# Mechanical properties :
#
#
# Convention : Reuss Voigt Hill
#
# Bulk Modulus (GPa) = 41.38108 64.68768 53.03438
# Shear Modulus (GPa) = 26.87768 33.24610 30.06189
#
# Velocity S-wave (km/s) = 3.59636 3.99979 3.80343
# Velocity P-wave (km/s) = 6.09574 7.24289 6.69393
#
# Compressibility (1/GPa) = 0.02416563
#
# Stress axis : x y z
#
# Youngs Moduli (GPa) = 130.83661 33.73838 76.28561
#
# Poissons Ratio (x) = 0.19110 0.19650
# Poissons Ratio (y) = 0.74106 0.37175
# Poissons Ratio (z) = 0.33701 0.16441
#
# Static dielectric constant tensor:
#      x y z
#    x 3.701570 -0.001100 -0.474550 
#    y -0.001100 3.718220 -0.000900 
#    z -0.474550 -0.000900 3.023960 
# 
# 
# High freq. dielectric constant tensor:
#      x y z
#    x 1.841960 -0.000020 0.003450 
#    y -0.000020 1.783530 0.000030 
#    z 0.003450 0.000030 1.810270 
# 
# From -- ./inp_files/170664.got.cif
#   From: 2010.06.25/outbox.cif.g09.slc.cpg/sg12_86_cif.got.tgz:170664.got - 2010.06.28 00:19:55.
