data_PCOD8094893
_publ_section_title
;
Structure prediction by ZEFSAII (Michael W. Deem and Ramdas Pophale) SiO2 
 PCOD8094893
Probable space group: C 2/M
;
_chemical_formula_sum "Si O2"
_cell_formula_units_Z 56
_cell_length_a 25.072250
_cell_length_b 9.127769
_cell_length_c 15.102241
_cell_angle_alpha 90.000000
_cell_angle_beta 95.952951
_cell_angle_gamma 90.000000
_cell_volume 3437.565883
_symmetry_space_group_name_H-M "C 2/M"
_symmetry_group_IT_number 12
_symmetry_cell_setting 'monoclinic'
loop_
_space_group_symop_operation_xyz
x,y,z
-x,y,-z
-x,-y,-z
x,-y,z
1/2+x,1/2+y,z
1/2-x,1/2+y,-z
1/2-x,1/2-y,-z
1/2+x,1/2-y,z
loop_
_atom_site_type_symbol
_atom_site_label
_atom_site_fract_x
_atom_site_fract_y
_atom_site_fract_z
Si Si1 0.841092 0.828618 0.375532
Si Si2 0.061636 0.170604 0.939453
Si Si3 0.069560 0.829787 0.745642
Si Si4 0.373494 0.333034 0.580174
Si Si5 0.957753 0.669299 0.707552
Si Si6 0.756747 0.169355 0.592915
Si Si7 0.551251 0.829550 0.098648
O O1 0.883940 0.773411 0.311161
O O2 0.862995 0.788756 0.476641
O O3 0.784936 0.744221 0.345922
O O4 0.829320 0.000000 0.364555
O O5 0.091085 0.195292 0.850205
O O6 0.003320 0.239035 0.916121
O O7 0.058157 0.000000 0.962846
O O8 0.089218 0.257268 0.027928
O O9 0.015535 0.743940 0.714736
O O10 0.056861 0.000000 0.727148
O O11 0.393381 0.500000 0.588864
O O12 0.420193 0.231550 0.624783
O O13 0.319383 0.312870 0.630169
O O14 0.967566 0.500000 0.690009
O O15 0.927643 0.691937 0.797447
O O16 0.750000 0.250000 0.500000
O O17 0.741731 0.000000 0.578834
O O18 0.541991 0.000000 0.075917
#
# Coordination Sequence:
#
# PCOD8094893 Si02
#       7
#     8   8   8   8   8   8   8
#     4   9  18  32  48  66  88 117 148 179 217 259
#     4   9  15  24  41  62  81 108 144 177 209 251
#     4   9  18  31  45  63  91 121 147 175 213 262
#     4   9  18  31  46  63  86 116 147 178 216 257
#     4  10  20  30  42  63  90 119 150 180 215 257
#     4   9  17  30  48  68  86 109 144 185 224 258
#     4   9  16  26  39  57  83 112 140 176 218 254
#
# _framework density 16.290597000000002
#
# number of rings (size 3 to 8) (size 9 to 14) (size 15 to 20)
#    0.000    2.857    0.000    3.429    0.000    6.286 
#    0.000    2.857    0.000    0.000    0.000    1.000 
#    0.000    0.000    0.000    0.000    0.000    0.000 
#
# Total GULP energy -346873.977094 kJ/mol
# GULP energy per Si atom -12388.356325 kJ/mol
# Density = 1.625352 g / cm^3
# Si number density = 16.290597 Si / 1000 Ang^3
#
#
#
# Elastic Constant Matrix: (Units=GPa)
#
#
# Indices 1 2 3 4 5 6 
#
# 1 82.9180 36.7862 37.3484 0.0000 -24.7558 0.0000
# 2 36.7862 74.0464 25.5617 0.0000 -13.6899 0.0000
# 3 37.3484 25.5617 58.5363 0.0000 -26.7254 0.0000
# 4 0.0000 0.0000 0.0000 24.6540 0.0000 0.0182
# 5 -24.7558 -13.6899 -26.7254 0.0000 15.0343 0.0000
# 6 0.0000 0.0000 0.0000 0.0182 0.0000 24.2696
#
#
#
# Elastic Compliance Matrix: (Units=1/GPa)
#
#
# Indices 1 2 3 4 5 6 
#
# 1 0.029002 -0.007073 0.018296 0.000000 0.073839 0.000000
# 2 -0.007073 0.018000 -0.006271 0.000000 -0.006404 0.000000
# 3 0.018296 -0.006271 0.102419 0.000000 0.206479 0.000000
# 4 0.000000 0.000000 0.000000 0.040561 0.000000 -0.000030
# 5 0.073839 -0.006404 0.206479 0.000000 0.549311 0.000000
# 6 0.000000 0.000000 0.000000 -0.000030 0.000000 0.041204
#
#
# Mechanical properties :
#
#
# Convention : Reuss Voigt Hill
#
# Bulk Modulus (GPa) = 6.27649 46.09928 26.18788
# Shear Modulus (GPa) = 6.07017 20.51186 13.29101
#
# Velocity S-wave (km/s) = 1.93243 3.55226 2.85944
# Velocity P-wave (km/s) = 2.97325 6.72192 5.19733
#
# Compressibility (1/GPa) = 0.15932464
#
# Stress axis : x y z
#
# Youngs Moduli (GPa) = 34.48044 55.55647 9.76385
#
# Poissons Ratio (x) = 0.39293 -0.17864
# Poissons Ratio (y) = 0.24387 0.06123
# Poissons Ratio (z) = -0.63085 0.34840
#
# Static dielectric constant tensor:
#      x y z
#    x 3.534220 0.000000 -0.516950 
#    y 0.000000 3.231060 0.000000 
#    z -0.516950 0.000000 3.625260 
# 
# 
# High freq. dielectric constant tensor:
#      x y z
#    x 1.590900 0.000000 -0.021860 
#    y 0.000000 1.639840 0.000000 
#    z -0.021860 0.000000 1.614380 
# 
# From -- ./inp_files/243255.got.cif
#   From: 2010.06.25/outbox.cif.g09.slc.cpg/sg12_122_cif.got.tgz:243255.got - 2010.06.28 00:19:55.
