data_PCOD8094477
_publ_section_title
;
Structure prediction by ZEFSAII (Michael W. Deem and Ramdas Pophale) SiO2 
 PCOD8094477
Probable space group: C 2/M
;
_chemical_formula_sum "Si O2"
_cell_formula_units_Z 40
_cell_length_a 18.308600
_cell_length_b 14.384919
_cell_length_c 16.012248
_cell_angle_alpha 90.000000
_cell_angle_beta 26.077054
_cell_angle_gamma 90.000000
_cell_volume 1853.754787
_symmetry_space_group_name_H-M "C 2/M"
_symmetry_group_IT_number 12
_symmetry_cell_setting 'monoclinic'
loop_
_space_group_symop_operation_xyz
x,y,z
-x,y,-z
-x,-y,-z
x,-y,z
1/2+x,1/2+y,z
1/2-x,1/2+y,-z
1/2-x,1/2-y,-z
1/2+x,1/2-y,z
loop_
_atom_site_type_symbol
_atom_site_label
_atom_site_fract_x
_atom_site_fract_y
_atom_site_fract_z
Si Si1 0.188189 0.294420 0.805420
Si Si2 0.691215 0.898975 0.282267
Si Si3 0.176223 0.110160 0.170246
Si Si4 0.133088 0.773283 0.543129
Si Si5 0.577689 0.101659 0.225743
O O1 0.189592 0.182432 0.808231
O O2 0.295687 0.342137 0.768411
O O3 0.265855 0.320157 0.636397
O O4 0.000000 0.331533 0.000000
O O5 0.500000 0.876717 0.500000
O O6 0.715182 0.903756 0.157371
O O7 0.742041 0.000000 0.268587
O O8 0.017251 0.154517 0.286352
O O9 0.150491 0.000000 0.207425
O O10 0.335750 0.133574 0.949219
O O11 0.250000 0.750000 0.500000
O O12 0.059902 0.672051 0.598420
O O13 0.494669 0.000000 0.298039
#
# Coordination Sequence:
#
# PCOD8094477 Si02
#       5
#     8   8   8   8   8
#     4  12  25  41  65  98 131 176 218 268 326 385
#     4  10  19  37  64  93 127 168 212 261 325 388
#     4  11  25  46  70  95 130 176 223 269 323 389
#     4  12  25  41  66  97 131 169 216 271 327 388
#     4  10  21  40  68  95 126 167 211 267 327 383
#
# _framework density 21.577826000000002
#
# number of rings (size 3 to 8) (size 9 to 14) (size 15 to 20)
#    0.000    1.000    4.000    2.400    2.800    3.200 
#    0.000    0.000    0.000    0.000    0.000    0.000 
#    0.000    0.000    0.000    0.000    0.000    0.000 
#
# Total GULP energy -247865.976926 kJ/mol
# GULP energy per Si atom -12393.298846 kJ/mol
# Density = 2.152871 g / cm^3
# Si number density = 21.577826 Si / 1000 Ang^3
#
#
#
# Elastic Constant Matrix: (Units=GPa)
#
#
# Indices 1 2 3 4 5 6 
#
# 1 95.9568 19.7137 25.5075 -0.0068 2.7270 0.0014
# 2 19.7137 108.5421 25.5568 0.0005 -11.1685 -0.0004
# 3 25.5075 25.5568 91.8512 -0.0098 9.5970 0.0049
# 4 -0.0068 0.0005 -0.0098 23.0930 0.0055 7.8132
# 5 2.7270 -11.1685 9.5970 0.0055 40.6657 -0.0032
# 6 0.0014 -0.0004 0.0049 7.8132 -0.0032 19.2856
#
#
#
# Elastic Compliance Matrix: (Units=1/GPa)
#
#
# Indices 1 2 3 4 5 6 
#
# 1 0.011465 -0.001500 -0.002710 0.000003 -0.000541 -0.000001
# 2 -0.001500 0.010548 -0.002903 -0.000004 0.003683 0.000003
# 3 -0.002710 -0.002903 0.012828 0.000008 -0.003643 -0.000007
# 4 0.000003 -0.000004 0.000008 0.050182 -0.000012 -0.020330
# 5 -0.000541 0.003683 -0.003643 -0.000012 0.026498 0.000010
# 6 -0.000001 0.000003 -0.000007 -0.020330 0.000010 0.060089
#
#
# Mechanical properties :
#
#
# Convention : Reuss Voigt Hill
#
# Bulk Modulus (GPa) = 48.50802 48.65624 48.58213
# Shear Modulus (GPa) = 25.94604 31.64698 28.79651
#
# Velocity S-wave (km/s) = 3.47138 3.83383 3.65710
# Velocity P-wave (km/s) = 6.21262 6.49583 6.35580
#
# Compressibility (1/GPa) = 0.02061515
#
# Stress axis : x y z
#
# Youngs Moduli (GPa) = 87.21978 94.80547 77.95338
#
# Poissons Ratio (x) = 0.14220 0.21126
# Poissons Ratio (y) = 0.13082 0.22631
# Poissons Ratio (z) = 0.23637 0.27523
#
# Static dielectric constant tensor:
#      x y z
#    x 4.009300 -0.000020 0.195440 
#    y -0.000020 4.121020 0.000010 
#    z 0.195440 0.000010 3.884160 
# 
# 
# High freq. dielectric constant tensor:
#      x y z
#    x 1.833680 0.000000 0.025010 
#    y 0.000000 1.854010 0.000000 
#    z 0.025010 0.000000 1.842790 
# 
# From -- ./inp_files/73338.got.cif
#   From: 2010.06.25/outbox.cif.g09.slc.cpg/sg12_37_cif.got.tgz:73338.got - 2010.06.28 00:19:55.
