data_PCOD8094468
_publ_section_title
;
Structure prediction by ZEFSAII (Michael W. Deem and Ramdas Pophale) SiO2 
 PCOD8094468
Probable space group: C 2/M
;
_chemical_formula_sum "Si O2"
_cell_formula_units_Z 64
_cell_length_a 30.712935
_cell_length_b 8.634915
_cell_length_c 12.127280
_cell_angle_alpha 90.000000
_cell_angle_beta 91.717959
_cell_angle_gamma 90.000000
_cell_volume 3214.752468
_symmetry_space_group_name_H-M "C 2/M"
_symmetry_group_IT_number 12
_symmetry_cell_setting 'monoclinic'
loop_
_space_group_symop_operation_xyz
x,y,z
-x,y,-z
-x,-y,-z
x,-y,z
1/2+x,1/2+y,z
1/2-x,1/2+y,-z
1/2-x,1/2-y,-z
1/2+x,1/2-y,z
loop_
_atom_site_type_symbol
_atom_site_label
_atom_site_fract_x
_atom_site_fract_y
_atom_site_fract_z
Si Si1 0.829950 0.315643 0.275448
Si Si2 0.949792 0.670344 0.982577
Si Si3 0.504466 0.183190 0.372552
Si Si4 0.421043 0.320521 0.766711
Si Si5 0.672163 0.181785 0.258086
Si Si6 0.202775 0.317470 0.495898
Si Si7 0.075771 0.684436 0.781800
Si Si8 0.749458 0.316701 0.122065
O O1 0.830441 0.500000 0.270516
O O2 0.822195 0.254445 0.398703
O O3 0.877129 0.247970 0.247481
O O4 0.791812 0.253355 0.191702
O O5 0.928551 0.500000 0.955088
O O6 0.943733 0.793955 0.885660
O O7 0.931313 0.742249 0.094218
O O8 0.000000 0.640611 0.000000
O O9 0.500000 0.229898 0.500000
O O10 0.548296 0.260195 0.329257
O O11 0.462093 0.246170 0.303109
O O12 0.509445 0.000000 0.358339
O O13 0.411159 0.500000 0.746776
O O14 0.376847 0.224569 0.773531
O O15 0.678734 0.238324 0.384028
O O16 0.705404 0.267517 0.179804
O O17 0.679970 0.000000 0.244702
O O18 0.206094 0.500000 0.501436
O O19 0.250000 0.250000 0.500000
O O20 0.075109 0.500000 0.776552
O O21 0.750808 0.500000 0.115175
O O22 0.750000 0.250000 0.000000
#
# Coordination Sequence:
#
# PCOD8094468 Si02
#       8
#     8   8   8   8   8   8   8   8
#     4   9  19  35  58  89 120 154 194 243 302 357
#     4  10  19  37  64  90 118 154 205 257 300 357
#     4  10  21  39  65  92 121 159 207 253 296 361
#     4  12  26  41  60  88 127 165 203 255 314 369
#     4  11  24  41  64  91 120 161 213 257 303 365
#     4  10  20  37  63  89 118 153 199 254 303 361
#     4   9  18  34  59  90 120 153 195 247 298 349
#     4  11  23  40  61  88 127 165 203 252 307 365
#
# _framework density 19.908218999999999
#
# number of rings (size 3 to 8) (size 9 to 14) (size 15 to 20)
#    0.000    1.750    2.500    1.875    3.500    1.000 
#    0.000    0.000    0.000    2.250    0.000    0.000 
#    0.000    0.000    0.000    0.000    0.000    0.000 
#
# Total GULP energy -396777.724868 kJ/mol
# GULP energy per Si atom -12399.303902 kJ/mol
# Density = 1.986291 g / cm^3
# Si number density = 19.908219 Si / 1000 Ang^3
#
#
#
# Elastic Constant Matrix: (Units=GPa)
#
#
# Indices 1 2 3 4 5 6 
#
# 1 131.0831 16.8386 55.1577 0.0000 -18.8957 0.0000
# 2 16.8386 38.0951 32.7570 0.0000 -1.2183 0.0000
# 3 55.1577 32.7570 161.8609 0.0000 -20.3630 0.0000
# 4 0.0000 0.0000 0.0000 32.1106 0.0000 -0.8906
# 5 -18.8957 -1.2183 -20.3630 0.0000 38.6847 0.0000
# 6 0.0000 0.0000 0.0000 -0.8906 0.0000 27.8297
#
#
#
# Elastic Compliance Matrix: (Units=1/GPa)
#
#
# Indices 1 2 3 4 5 6 
#
# 1 0.009353 -0.001987 -0.002375 0.000000 0.003255 0.000000
# 2 -0.001987 0.032440 -0.006299 0.000000 -0.003265 0.000000
# 3 -0.002375 -0.006299 0.008665 0.000000 0.003203 0.000000
# 4 0.000000 0.000000 0.000000 0.031170 0.000000 0.000998
# 5 0.003255 -0.003265 0.003203 0.000000 0.029023 0.000000
# 6 0.000000 0.000000 0.000000 0.000998 0.000000 0.035965
#
#
# Mechanical properties :
#
#
# Convention : Reuss Voigt Hill
#
# Bulk Modulus (GPa) = 34.32254 60.06064 47.19159
# Shear Modulus (GPa) = 28.14508 34.81072 31.47790
#
# Velocity S-wave (km/s) = 3.76405 4.18612 3.98068
# Velocity P-wave (km/s) = 6.01404 7.32113 6.69954
#
# Compressibility (1/GPa) = 0.02913537
#
# Stress axis : x y z
#
# Youngs Moduli (GPa) = 106.91904 30.82594 115.40374
#
# Poissons Ratio (x) = 0.06126 0.27413
# Poissons Ratio (y) = 0.21249 0.72688
# Poissons Ratio (z) = 0.25398 0.19416
#
# Static dielectric constant tensor:
#      x y z
#    x 3.767990 0.000000 -0.016150 
#    y 0.000000 3.309780 0.000000 
#    z -0.016150 0.000000 3.812910 
# 
# 
# High freq. dielectric constant tensor:
#      x y z
#    x 1.786770 0.000000 -0.004040 
#    y 0.000000 1.743230 0.000000 
#    z -0.004040 0.000000 1.793820 
# 
# From -- ./inp_files/187549.got.cif
#   From: 2010.06.25/outbox.cif.g09.slc.cpg/sg12_94_cif.got.tgz:187549.got - 2010.06.28 00:19:55.
