data_PCOD8094640
_publ_section_title
;
Structure prediction by ZEFSAII (Michael W. Deem and Ramdas Pophale) SiO2 
 PCOD8094640
Probable space group: C 2/M
;
_chemical_formula_sum "Si O2"
_cell_formula_units_Z 48
_cell_length_a 20.587907
_cell_length_b 8.723119
_cell_length_c 29.657973
_cell_angle_alpha 90.000000
_cell_angle_beta 151.834662
_cell_angle_gamma 90.000000
_cell_volume 2514.105968
_symmetry_space_group_name_H-M "C 2/M"
_symmetry_group_IT_number 12
_symmetry_cell_setting 'monoclinic'
loop_
_space_group_symop_operation_xyz
x,y,z
-x,y,-z
-x,-y,-z
x,-y,z
1/2+x,1/2+y,z
1/2-x,1/2+y,-z
1/2-x,1/2-y,-z
1/2+x,1/2-y,z
loop_
_atom_site_type_symbol
_atom_site_label
_atom_site_fract_x
_atom_site_fract_y
_atom_site_fract_z
Si Si1 0.367437 0.318340 0.041264
Si Si2 0.158747 0.679803 0.235865
Si Si3 0.169807 0.319411 0.739827
Si Si4 0.137962 0.819501 0.062741
Si Si5 0.848391 0.320728 0.424496
Si Si6 0.362379 0.179998 0.536290
O O1 0.359414 0.500000 0.037870
O O2 0.514415 0.266136 0.149356
O O3 0.250000 0.250000 0.000000
O O4 0.342125 0.253503 0.975200
O O5 0.132059 0.500000 0.217556
O O6 0.244825 0.731079 0.245401
O O7 0.238863 0.721230 0.330400
O O8 0.180756 0.500000 0.735637
O O9 0.230563 0.278467 0.826094
O O10 0.013144 0.261132 0.643203
O O11 0.117319 0.000000 0.046641
O O12 0.000000 0.746715 0.000000
O O13 0.818252 0.500000 0.398616
O O14 0.833758 0.271232 0.467474
O O15 0.000000 0.279492 0.500000
O O16 0.250000 0.250000 0.500000
O O17 0.355972 0.000000 0.537744
#
# Coordination Sequence:
#
# PCOD8094640 Si02
#       6
#     8   8   8   8   8   8
#     4  11  23  41  62  89 126 161 199 247 301 360
#     4  12  24  37  59  92 122 156 201 252 304 352
#     4  10  19  38  63  87 114 155 202 244 295 359
#     4   9  17  33  63  91 112 150 200 242 290 353
#     4  10  20  39  64  88 117 159 205 244 296 362
#     4  10  22  38  60  88 122 158 193 242 303 360
#
# _framework density 19.092274
#
# number of rings (size 3 to 8) (size 9 to 14) (size 15 to 20)
#    0.000    1.667    3.333    2.000    0.000    3.000 
#    0.000    4.167    0.000    0.000    0.000    0.000 
#    0.000    0.000    0.000    0.000    0.000    0.000 
#
# Total GULP energy -297659.308838 kJ/mol
# GULP energy per Si atom -12402.471202 kJ/mol
# Density = 1.904882 g / cm^3
# Si number density = 19.092274 Si / 1000 Ang^3
#
#
#
# Elastic Constant Matrix: (Units=GPa)
#
#
# Indices 1 2 3 4 5 6 
#
# 1 173.0240 41.2266 84.8820 0.0001 7.1986 0.0001
# 2 41.2266 55.7902 37.4532 -0.0001 -0.0620 0.0005
# 3 84.8820 37.4532 143.3370 0.0016 0.3137 -0.0002
# 4 0.0001 -0.0001 0.0016 18.2688 0.0001 7.5783
# 5 7.1986 -0.0620 0.3137 0.0001 38.1484 0.0000
# 6 0.0001 0.0005 -0.0002 7.5783 0.0000 30.6540
#
#
#
# Elastic Compliance Matrix: (Units=1/GPa)
#
#
# Indices 1 2 3 4 5 6 
#
# 1 0.008806 -0.003651 -0.004257 0.000000 -0.001633 0.000000
# 2 -0.003651 0.023251 -0.003915 0.000001 0.000759 -0.000001
# 3 -0.004257 -0.003915 0.010519 -0.000001 0.000710 0.000000
# 4 0.000000 0.000001 -0.000001 0.060993 0.000000 -0.015079
# 5 -0.001633 0.000759 0.000710 0.000000 0.026517 0.000000
# 6 0.000000 -0.000001 0.000000 -0.015079 0.000000 0.036350
#
#
# Mechanical properties :
#
#
# Convention : Reuss Voigt Hill
#
# Bulk Modulus (GPa) = 52.82677 77.69719 65.26198
# Shear Modulus (GPa) = 25.45924 31.32021 28.38972
#
# Velocity S-wave (km/s) = 3.65565 4.05466 3.86031
# Velocity P-wave (km/s) = 6.74890 7.91861 7.35704
#
# Compressibility (1/GPa) = 0.01892980
#
# Stress axis : x y z
#
# Youngs Moduli (GPa) = 113.56063 43.00826 95.06629
#
# Poissons Ratio (x) = 0.15703 0.40471
# Poissons Ratio (y) = 0.41462 0.37218
# Poissons Ratio (z) = 0.48344 0.16838
#
# Static dielectric constant tensor:
#      x y z
#    x 4.302000 0.000000 -0.113920 
#    y 0.000000 3.258840 0.000000 
#    z -0.113920 0.000000 3.708240 
# 
# 
# High freq. dielectric constant tensor:
#      x y z
#    x 1.748920 0.000000 -0.007830 
#    y 0.000000 1.719850 0.000000 
#    z -0.007830 0.000000 1.757610 
# 
# From -- ./inp_files/378551.got.cif
#   From: 2010.06.25/outbox.cif.g09.slc.cpg/sg12_190_cif.got.tgz:378551.got - 2010.06.28 00:19:55.
