data_PCOD8094012
_publ_section_title
;
Structure prediction by ZEFSAII (Michael W. Deem and Ramdas Pophale) SiO2 
 PCOD8094012
Probable space group: C 2/M
;
_chemical_formula_sum "Si O2"
_cell_formula_units_Z 56
_cell_length_a 27.270386
_cell_length_b 8.983493
_cell_length_c 12.583724
_cell_angle_alpha 90.000000
_cell_angle_beta 67.259725
_cell_angle_gamma 90.000000
_cell_volume 2843.165773
_symmetry_space_group_name_H-M "C 2/M"
_symmetry_group_IT_number 12
_symmetry_cell_setting 'monoclinic'
loop_
_space_group_symop_operation_xyz
x,y,z
-x,y,-z
-x,-y,-z
x,-y,z
1/2+x,1/2+y,z
1/2-x,1/2+y,-z
1/2-x,1/2-y,-z
1/2+x,1/2-y,z
loop_
_atom_site_type_symbol
_atom_site_label
_atom_site_fract_x
_atom_site_fract_y
_atom_site_fract_z
Si Si1 0.998077 0.325200 0.816409
Si Si2 0.390580 0.324037 0.227582
Si Si3 0.844446 0.674159 0.656159
Si Si4 0.197518 0.672191 0.081743
Si Si5 0.889028 0.326045 0.013470
Si Si6 0.306062 0.676185 0.476566
Si Si7 0.539770 0.823071 0.378679
O O1 0.011002 0.500000 0.800652
O O2 0.978352 0.262044 0.719908
O O3 0.051168 0.240501 0.802260
O O4 0.951253 0.292335 0.939833
O O5 0.394300 0.500000 0.220254
O O6 0.369207 0.264115 0.132832
O O7 0.349746 0.271751 0.353365
O O8 0.844667 0.500000 0.624095
O O9 0.808032 0.704490 0.788810
O O10 0.824050 0.772302 0.577026
O O11 0.902384 0.734275 0.638485
O O12 0.204701 0.500000 0.053876
O O13 0.250000 0.750000 0.000000
O O14 0.145942 0.726625 0.058421
O O15 0.881143 0.500000 0.042583
O O16 0.299067 0.500000 0.480302
O O17 0.250000 0.750000 0.500000
O O18 0.500000 0.760033 0.500000
O O19 0.540355 0.000000 0.373543
#
# Coordination Sequence:
#
# PCOD8094012 Si02
#       7
#     8   8   8   8   8   8   8
#     4  10  19  36  61  90 120 155 200 244 290 351
#     4  11  25  41  58  86 123 159 198 248 302 355
#     4  10  20  39  64  91 122 152 192 248 300 350
#     4  10  22  39  61  91 124 156 197 248 298 352
#     4  10  21  39  62  90 122 158 201 245 290 351
#     4  11  26  45  63  86 118 157 203 252 301 356
#     4   9  16  29  56  89 117 149 190 234 284 344
#
# _framework density 19.696353999999999
#
# number of rings (size 3 to 8) (size 9 to 14) (size 15 to 20)
#    0.000    1.857    1.429    2.143    2.000    6.857 
#    0.000    0.714    0.000    2.571    0.000    0.000 
#    0.000    0.000    0.000    0.000    0.000    0.000 
#
# Total GULP energy -347236.740975 kJ/mol
# GULP energy per Si atom -12401.312178 kJ/mol
# Density = 1.965152 g / cm^3
# Si number density = 19.696354 Si / 1000 Ang^3
#
#
#
# Elastic Constant Matrix: (Units=GPa)
#
#
# Indices 1 2 3 4 5 6 
#
# 1 101.0975 41.6291 59.7822 0.0000 -6.1114 0.0000
# 2 41.6291 53.3903 52.6804 0.0000 -2.9937 0.0000
# 3 59.7822 52.6804 139.2966 0.0000 0.3236 0.0000
# 4 0.0000 0.0000 0.0000 31.4717 0.0000 -0.6004
# 5 -6.1114 -2.9937 0.3236 0.0000 40.8386 0.0000
# 6 0.0000 0.0000 0.0000 -0.6004 0.0000 27.3526
#
#
#
# Elastic Compliance Matrix: (Units=1/GPa)
#
#
# Indices 1 2 3 4 5 6 
#
# 1 0.015592 -0.008701 -0.003405 0.000000 0.001722 0.000000
# 2 -0.008701 0.034949 -0.009486 0.000000 0.001335 0.000000
# 3 -0.003405 -0.009486 0.012231 0.000000 -0.001302 0.000000
# 4 0.000000 0.000000 0.000000 0.031788 0.000000 0.000698
# 5 0.001722 0.001335 -0.001302 0.000000 0.024853 0.000000
# 6 0.000000 0.000000 0.000000 0.000698 0.000000 0.036575
#
#
# Mechanical properties :
#
#
# Convention : Reuss Voigt Hill
#
# Bulk Modulus (GPa) = 51.05279 66.88530 58.96905
# Shear Modulus (GPa) = 24.30715 29.24543 26.77629
#
# Velocity S-wave (km/s) = 3.51678 3.85751 3.69108
# Velocity P-wave (km/s) = 6.51663 7.33978 6.94042
#
# Compressibility (1/GPa) = 0.01958757
#
# Stress axis : x y z
#
# Youngs Moduli (GPa) = 64.13634 28.61297 81.75993
#
# Poissons Ratio (x) = 0.24896 0.27839
# Poissons Ratio (y) = 0.55804 0.77561
# Poissons Ratio (z) = 0.21839 0.27143
#
# Static dielectric constant tensor:
#      x y z
#    x 3.817760 0.000000 0.100500 
#    y 0.000000 3.456650 0.000000 
#    z 0.100500 0.000000 3.895010 
# 
# 
# High freq. dielectric constant tensor:
#      x y z
#    x 1.780110 0.000000 0.002430 
#    y 0.000000 1.740100 0.000000 
#    z 0.002430 0.000000 1.786070 
# 
# From -- ./inp_files/180823.got.cif
#   From: 2010.06.25/outbox.cif.g09.slc.cpg/sg12_91_cif.got.tgz:180823.got - 2010.06.28 00:19:55.
