data_PCOD8094366
_publ_section_title
;
Structure prediction by ZEFSAII (Michael W. Deem and Ramdas Pophale) SiO2 
 PCOD8094366
Probable space group: C 2/M
;
_chemical_formula_sum "Si O2"
_cell_formula_units_Z 48
_cell_length_a 25.132841
_cell_length_b 8.740881
_cell_length_c 12.448549
_cell_angle_alpha 90.000000
_cell_angle_beta 109.570062
_cell_angle_gamma 90.000000
_cell_volume 2576.758114
_symmetry_space_group_name_H-M "C 2/M"
_symmetry_group_IT_number 12
_symmetry_cell_setting 'monoclinic'
loop_
_space_group_symop_operation_xyz
x,y,z
-x,y,-z
-x,-y,-z
x,-y,z
1/2+x,1/2+y,z
1/2-x,1/2+y,-z
1/2-x,1/2-y,-z
1/2+x,1/2-y,z
loop_
_atom_site_type_symbol
_atom_site_label
_atom_site_fract_x
_atom_site_fract_y
_atom_site_fract_z
Si Si1 0.686933 0.819264 0.632614
Si Si2 0.884758 0.320026 0.615551
Si Si3 0.505425 0.821310 0.629504
Si Si4 0.803670 0.678901 0.745634
Si Si5 0.880034 0.819893 0.218461
Si Si6 0.307540 0.820200 0.995133
O O1 0.653550 0.754052 0.506883
O O2 0.752105 0.775907 0.663474
O O3 0.663155 0.739217 0.721857
O O4 0.679791 0.000000 0.640778
O O5 0.886787 0.500000 0.600841
O O6 0.858625 0.274777 0.712894
O O7 0.948816 0.259391 0.649584
O O8 0.500000 0.787808 0.500000
O O9 0.556267 0.726401 0.713538
O O10 0.516739 0.000000 0.658067
O O11 0.789469 0.500000 0.722764
O O12 0.815967 0.722543 0.876435
O O13 0.861513 0.748620 0.092426
O O14 0.874820 0.000000 0.207804
O O15 0.305026 0.000000 0.012004
O O16 0.250000 0.750000 0.000000
#
# Coordination Sequence:
#
# PCOD8094366 Si02
#       6
#     8   8   8   8   8   8
#     4  11  20  34  58  86 117 151 185 230 286 343
#     4   9  19  36  58  85 117 150 185 227 284 347
#     4  10  19  37  62  85 112 149 189 232 282 340
#     4  10  21  37  57  85 117 149 186 232 284 342
#     4  12  24  37  56  85 117 149 192 241 282 331
#     4  11  22  37  59  84 114 150 191 235 283 336
#
# _framework density 18.628056999999998
#
# number of rings (size 3 to 8) (size 9 to 14) (size 15 to 20)
#    0.000    1.500    3.333    3.000    0.000    1.000 
#    0.000    2.500    0.000    5.000    0.000    0.000 
#    0.000    0.000    0.000    0.000    0.000    0.000 
#
# Total GULP energy -297672.056189 kJ/mol
# GULP energy per Si atom -12403.002341 kJ/mol
# Density = 1.858566 g / cm^3
# Si number density = 18.628057 Si / 1000 Ang^3
#
#
#
# Elastic Constant Matrix: (Units=GPa)
#
#
# Indices 1 2 3 4 5 6 
#
# 1 133.3679 30.0341 44.8999 0.0000 -6.8008 0.0000
# 2 30.0341 68.9186 34.1608 0.0000 0.4144 0.0000
# 3 44.8999 34.1608 94.8165 0.0000 -3.1321 0.0000
# 4 0.0000 0.0000 0.0000 22.5890 0.0000 7.7559
# 5 -6.8008 0.4144 -3.1321 0.0000 32.4755 0.0000
# 6 0.0000 0.0000 0.0000 7.7559 0.0000 28.7283
#
#
#
# Elastic Compliance Matrix: (Units=1/GPa)
#
#
# Indices 1 2 3 4 5 6 
#
# 1 0.009284 -0.002317 -0.003508 0.000000 0.001635 0.000000
# 2 -0.002317 0.018266 -0.005525 0.000000 -0.001251 0.000000
# 3 -0.003508 -0.005525 0.014222 0.000000 0.000708 0.000000
# 4 0.000000 0.000000 0.000000 0.048792 0.000000 -0.013173
# 5 0.001635 -0.001251 0.000708 0.000000 0.031219 0.000000
# 6 0.000000 0.000000 0.000000 -0.013173 0.000000 0.038365
#
#
# Mechanical properties :
#
#
# Convention : Reuss Voigt Hill
#
# Bulk Modulus (GPa) = 52.43247 57.25472 54.84360
# Shear Modulus (GPa) = 26.42643 29.29245 27.85944
#
# Velocity S-wave (km/s) = 3.77056 3.96977 3.87145
# Velocity P-wave (km/s) = 6.86763 7.19823 7.03487
#
# Compressibility (1/GPa) = 0.01907215
#
# Stress axis : x y z
#
# Youngs Moduli (GPa) = 107.71039 54.74747 70.31565
#
# Poissons Ratio (x) = 0.12686 0.24664
# Poissons Ratio (y) = 0.24958 0.38848
# Poissons Ratio (z) = 0.37781 0.30247
#
# Static dielectric constant tensor:
#      x y z
#    x 3.595660 0.000000 0.005550 
#    y 0.000000 3.292130 0.000000 
#    z 0.005550 0.000000 3.585570 
# 
# 
# High freq. dielectric constant tensor:
#      x y z
#    x 1.725850 0.000000 0.001980 
#    y 0.000000 1.710690 0.000000 
#    z 0.001980 0.000000 1.726530 
# 
# From -- ./inp_files/172873.got.cif
#   From: 2010.06.25/outbox.cif.g09.slc.cpg/sg12_87_cif.got.tgz:172873.got - 2010.06.28 00:19:55.
