data_PCOD8094257
_publ_section_title
;
Structure prediction by ZEFSAII (Michael W. Deem and Ramdas Pophale) SiO2 
 PCOD8094257
Probable space group: C 2/M
;
_chemical_formula_sum "Si O2"
_cell_formula_units_Z 56
_cell_length_a 11.174365
_cell_length_b 32.752112
_cell_length_c 9.166710
_cell_angle_alpha 90.000000
_cell_angle_beta 58.002455
_cell_angle_gamma 90.000000
_cell_volume 2845.167024
_symmetry_space_group_name_H-M "C 2/M"
_symmetry_group_IT_number 12
_symmetry_cell_setting 'monoclinic'
loop_
_space_group_symop_operation_xyz
x,y,z
-x,y,-z
-x,-y,-z
x,-y,z
1/2+x,1/2+y,z
1/2-x,1/2+y,-z
1/2-x,1/2-y,-z
1/2+x,1/2-y,z
loop_
_atom_site_type_symbol
_atom_site_label
_atom_site_fract_x
_atom_site_fract_y
_atom_site_fract_z
Si Si1 0.163007 0.546129 0.915753
Si Si2 0.577585 0.750921 0.605470
Si Si3 0.641528 0.546217 0.480374
Si Si4 0.710684 0.121178 0.081867
Si Si5 0.307678 0.384037 0.349089
Si Si6 0.050880 0.658487 0.632273
Si Si7 0.041116 0.176115 0.138090
O O1 0.187870 0.500000 0.961479
O O2 0.230323 0.550335 0.713758
O O3 0.232047 0.579380 0.979026
O O4 0.000000 0.555517 0.000000
O O5 0.500000 0.746802 0.500000
O O6 0.750000 0.750000 0.500000
O O7 0.544173 0.795208 0.693040
O O8 0.496450 0.717491 0.753738
O O9 0.500000 0.564300 0.500000
O O10 0.615405 0.500000 0.547201
O O11 0.676502 0.570094 0.605181
O O12 0.758650 0.113049 0.215261
O O13 0.545817 0.133033 0.193228
O O14 0.797102 0.159848 0.958075
O O15 0.207526 0.359834 0.527628
O O16 0.455176 0.361011 0.262903
O O17 0.000000 0.655450 0.500000
O O18 0.000000 0.185391 0.000000
#
# Coordination Sequence:
#
# PCOD8094257 Si02
#       7
#     8   8   8   8   8   8   8
#     4  10  21  38  57  83 122 157 190 247 309 357
#     4  11  23  43  66  89 123 167 207 249 310 374
#     4  10  21  36  56  83 116 151 191 243 298 355
#     4  10  21  37  58  87 115 156 196 250 299 354
#     4  10  19  37  60  80 112 155 197 242 292 361
#     4   9  19  37  59  80 116 153 195 243 299 350
#     4  10  22  39  60  87 122 152 197 253 309 352
#
# _framework density 19.682501999999999
#
# number of rings (size 3 to 8) (size 9 to 14) (size 15 to 20)
#    0.000    2.000    1.429    1.714    2.000    2.857 
#    2.571    0.000    0.000   10.286    0.000    0.000 
#    0.000    0.000    0.000    0.000    0.000    0.000 
#
# Total GULP energy -346999.212285 kJ/mol
# GULP energy per Si atom -12392.829010 kJ/mol
# Density = 1.963770 g / cm^3
# Si number density = 19.682502 Si / 1000 Ang^3
#
#
#
# Elastic Constant Matrix: (Units=GPa)
#
#
# Indices 1 2 3 4 5 6 
#
# 1 67.3247 25.0215 36.4964 0.0000 -12.1348 0.0000
# 2 25.0215 129.5452 51.9641 0.0000 16.0057 0.0000
# 3 36.4964 51.9641 82.8666 0.0000 -13.1903 0.0000
# 4 0.0000 0.0000 0.0000 1.5885 0.0000 4.0012
# 5 -12.1348 16.0057 -13.1903 0.0000 23.4675 0.0000
# 6 0.0000 0.0000 0.0000 4.0012 0.0000 27.2162
#
#
#
# Elastic Compliance Matrix: (Units=1/GPa)
#
#
# Indices 1 2 3 4 5 6 
#
# 1 0.020779 -0.002792 -0.005917 0.000000 0.009323 0.000000
# 2 -0.002792 0.014789 -0.010850 0.000000 -0.017629 0.000000
# 3 -0.005917 -0.010850 0.024347 0.000000 0.018026 0.000000
# 4 0.000000 0.000000 0.000000 0.999713 0.000000 -0.146971
# 5 0.009323 -0.017629 0.018026 0.000000 0.069588 0.000000
# 6 0.000000 0.000000 0.000000 -0.146971 0.000000 0.058350
#
#
# Mechanical properties :
#
#
# Convention : Reuss Voigt Hill
#
# Bulk Modulus (GPa) = 48.08495 56.30005 52.19250
# Shear Modulus (GPa) = 4.05313 21.53808 12.79560
#
# Velocity S-wave (km/s) = 1.43657 3.31157 2.55247
# Velocity P-wave (km/s) = 5.21871 6.57938 5.93815
#
# Compressibility (1/GPa) = 0.02079653
#
# Stress axis : x y z
#
# Youngs Moduli (GPa) = 48.12580 67.61727 41.07319
#
# Poissons Ratio (x) = 0.18879 0.24302
# Poissons Ratio (y) = 0.13437 0.44566
# Poissons Ratio (z) = 0.28475 0.73368
#
# Static dielectric constant tensor:
#      x y z
#    x 3.627370 0.000000 -0.300100 
#    y 0.000000 3.679670 0.000000 
#    z -0.300100 0.000000 3.676410 
# 
# 
# High freq. dielectric constant tensor:
#      x y z
#    x 1.757640 0.000000 -0.022460 
#    y 0.000000 1.775860 0.000000 
#    z -0.022460 0.000000 1.768990 
# 
# From -- ./inp_files/54595.got.cif
#   From: 2010.06.25/outbox.cif.g09.slc.cpg/sg12_28_cif.got.tgz:54595.got - 2010.06.28 00:19:55.
