data_PCOD8094152
_publ_section_title
;
Structure prediction by ZEFSAII (Michael W. Deem and Ramdas Pophale) SiO2 
 PCOD8094152
Probable space group: C 2/M
;
_chemical_formula_sum "Si O2"
_cell_formula_units_Z 40
_cell_length_a 8.781901
_cell_length_b 26.072715
_cell_length_c 8.825203
_cell_angle_alpha 90.000000
_cell_angle_beta 87.411654
_cell_angle_gamma 90.000000
_cell_volume 2018.627542
_symmetry_space_group_name_H-M "C 2/M"
_symmetry_group_IT_number 12
_symmetry_cell_setting 'monoclinic'
loop_
_space_group_symop_operation_xyz
x,y,z
-x,y,-z
-x,-y,-z
x,-y,z
1/2+x,1/2+y,z
1/2-x,1/2+y,-z
1/2-x,1/2-y,-z
1/2+x,1/2-y,z
loop_
_atom_site_type_symbol
_atom_site_label
_atom_site_fract_x
_atom_site_fract_y
_atom_site_fract_z
Si Si1 0.500000 0.903916 0.000000
Si Si2 0.500000 0.097150 0.500000
Si Si3 0.472819 0.637373 0.174604
Si Si4 0.624392 0.249263 0.882443
Si Si5 0.785979 0.442956 0.761117
Si Si6 0.692944 0.150367 0.735799
O O1 0.620838 0.938057 0.086735
O O2 0.401467 0.869988 0.117792
O O3 0.594437 0.062041 0.381223
O O4 0.622957 0.132129 0.581224
O O5 0.410648 0.695302 0.187801
O O6 0.349090 0.598559 0.250186
O O7 0.630220 0.633384 0.261500
O O8 0.500000 0.621493 0.000000
O O9 0.672478 0.212039 0.742409
O O10 0.500000 0.225954 0.000000
O O11 0.750000 0.250000 0.000000
O O12 0.714340 0.500000 0.758650
#
# Coordination Sequence:
#
# PCOD8094152 Si02
#       6
#     4   4   8   8   8   8
#     4  10  19  36  66  94 120 154 211 264 300 358
#     4  10  27  42  64  88 128 170 203 246 308 386
#     4  11  22  38  63  99 124 154 209 264 307 360
#     4  11  19  33  64  96 125 158 199 251 312 358
#     4  11  23  43  64  90 123 164 210 259 313 361
#     4  11  21  40  61  95 128 163 203 249 309 371
#
# _framework density 19.815442999999998
#
# number of rings (size 3 to 8) (size 9 to 14) (size 15 to 20)
#    0.000    1.200    7.000    0.600    2.800    1.200 
#    0.000    7.000    0.000    0.000    0.000    0.000 
#    0.000    0.000    0.000    0.000    0.000    0.000 
#
# Total GULP energy -247857.274660 kJ/mol
# GULP energy per Si atom -12392.863733 kJ/mol
# Density = 1.977034 g / cm^3
# Si number density = 19.815443 Si / 1000 Ang^3
#
#
#
# Elastic Constant Matrix: (Units=GPa)
#
#
# Indices 1 2 3 4 5 6 
#
# 1 145.6459 43.8300 34.4488 0.0000 23.1990 0.0000
# 2 43.8300 109.2229 30.3466 0.0000 7.5610 0.0000
# 3 34.4488 30.3466 80.3616 0.0000 18.6355 0.0000
# 4 0.0000 0.0000 0.0000 15.1158 0.0000 -3.0620
# 5 23.1990 7.5610 18.6355 0.0000 38.6497 0.0000
# 6 0.0000 0.0000 0.0000 -3.0620 0.0000 27.7281
#
#
#
# Elastic Compliance Matrix: (Units=1/GPa)
#
#
# Indices 1 2 3 4 5 6 
#
# 1 0.008729 -0.002731 -0.001823 0.000000 -0.003826 0.000000
# 2 -0.002731 0.011084 -0.003256 0.000000 0.001041 0.000000
# 3 -0.001823 -0.003256 0.015823 0.000000 -0.005898 0.000000
# 4 0.000000 0.000000 0.000000 0.067670 0.000000 0.007473
# 5 -0.003826 0.001041 -0.005898 0.000000 0.030810 0.000000
# 6 0.000000 0.000000 0.000000 0.007473 0.000000 0.036890
#
#
# Mechanical properties :
#
#
# Convention : Reuss Voigt Hill
#
# Bulk Modulus (GPa) = 49.96488 61.38678 55.67583
# Shear Modulus (GPa) = 25.86688 31.40571 28.63630
#
# Velocity S-wave (km/s) = 3.61694 3.98541 3.80564
# Velocity P-wave (km/s) = 6.53551 7.22665 6.88975
#
# Compressibility (1/GPa) = 0.02001406
#
# Stress axis : x y z
#
# Youngs Moduli (GPa) = 114.56717 90.21777 63.20081
#
# Poissons Ratio (x) = 0.24641 0.11522
# Poissons Ratio (y) = 0.31292 0.20580
# Poissons Ratio (z) = 0.20886 0.29378
#
# Static dielectric constant tensor:
#      x y z
#    x 3.764870 0.000000 0.107610 
#    y 0.000000 3.353560 0.000000 
#    z 0.107610 0.000000 3.430070 
# 
# 
# High freq. dielectric constant tensor:
#      x y z
#    x 1.790870 0.000000 0.004450 
#    y 0.000000 1.768010 0.000000 
#    z 0.004450 0.000000 1.752900 
# 
# From -- ./inp_files/40475.got.cif
#   From: 2010.06.25/outbox.cif.g09.slc.cpg/sg12_21_cif.got.tgz:40475.got - 2010.06.28 00:19:55.
