data_PCOD8094177
_publ_section_title
;
Structure prediction by ZEFSAII (Michael W. Deem and Ramdas Pophale) SiO2 
 PCOD8094177
Probable space group: C 2/M
;
_chemical_formula_sum "Si O2"
_cell_formula_units_Z 64
_cell_length_a 9.556451
_cell_length_b 26.300516
_cell_length_c 14.291171
_cell_angle_alpha 90.000000
_cell_angle_beta 80.322854
_cell_angle_gamma 90.000000
_cell_volume 3540.825975
_symmetry_space_group_name_H-M "C 2/M"
_symmetry_group_IT_number 12
_symmetry_cell_setting 'monoclinic'
loop_
_space_group_symop_operation_xyz
x,y,z
-x,y,-z
-x,-y,-z
x,-y,z
1/2+x,1/2+y,z
1/2-x,1/2+y,-z
1/2-x,1/2-y,-z
1/2+x,1/2-y,z
loop_
_atom_site_type_symbol
_atom_site_label
_atom_site_fract_x
_atom_site_fract_y
_atom_site_fract_z
Si Si1 0.879758 0.055748 0.441565
Si Si2 0.872524 0.391623 0.453562
Si Si3 0.970662 0.804950 0.614652
Si Si4 0.430218 0.060147 0.913101
Si Si5 0.024351 0.096905 0.261951
Si Si6 0.167873 0.560049 0.741830
Si Si7 0.889079 0.940936 0.095592
Si Si8 0.321334 0.780144 0.408559
O O1 0.763874 0.099726 0.465991
O O2 0.000000 0.071087 0.500000
O O3 0.948276 0.053203 0.331134
O O4 0.815382 0.000000 0.471233
O O5 0.857546 0.423773 0.361243
O O6 0.895388 0.332073 0.433106
O O7 0.000000 0.413789 0.500000
O O8 0.009380 0.851837 0.676548
O O9 0.803381 0.793563 0.650514
O O10 0.000000 0.815401 0.500000
O O11 0.056771 0.756525 0.645519
O O12 0.530221 0.077596 0.816085
O O13 0.268006 0.079021 0.916279
O O14 0.426306 0.000000 0.922051
O O15 0.500000 0.083058 0.000000
O O16 0.192125 0.086826 0.231916
O O17 0.947619 0.095802 0.170532
O O18 0.190555 0.500000 0.745904
O O19 0.883022 0.000000 0.128409
O O20 0.000000 0.934590 0.000000
O O21 0.250000 0.750000 0.500000
#
# Coordination Sequence:
#
# PCOD8094177 Si02
#       8
#     8   8   8   8   8   8   8   8
#     4  11  21  34  50  73 112 159 195 221 265 328
#     4  12  24  36  51  78 114 153 194 232 275 333
#     4  10  20  36  57  81 110 146 191 242 292 333
#     4   9  19  37  57  78 109 147 186 231 277 323
#     4  12  21  35  56  83 113 149 191 239 279 341
#     4  11  22  36  53  78 116 157 189 222 276 338
#     4  10  21  37  59  87 114 147 192 235 278 334
#     4  10  19  37  56  76 102 143 191 245 287 324
#
# _framework density 18.074877999999998
#
# number of rings (size 3 to 8) (size 9 to 14) (size 15 to 20)
#    0.000    1.375    2.500    5.250    1.750    3.000 
#    0.000    0.000    0.000    0.000    0.000    1.750 
#    0.000    0.000    0.000    0.000    0.000    0.000 
#
# Total GULP energy -396661.239037 kJ/mol
# GULP energy per Si atom -12395.663720 kJ/mol
# Density = 1.803374 g / cm^3
# Si number density = 18.074878 Si / 1000 Ang^3
#
#
#
# Elastic Constant Matrix: (Units=GPa)
#
#
# Indices 1 2 3 4 5 6 
#
# 1 153.1747 38.8725 59.6740 0.0000 7.5117 0.0000
# 2 38.8725 70.4840 14.6529 0.0000 1.6863 0.0000
# 3 59.6740 14.6529 78.4002 0.0000 5.4481 0.0000
# 4 0.0000 0.0000 0.0000 8.3494 0.0000 -1.1003
# 5 7.5117 1.6863 5.4481 0.0000 35.7084 0.0000
# 6 0.0000 0.0000 0.0000 -1.1003 0.0000 28.9368
#
#
#
# Elastic Compliance Matrix: (Units=1/GPa)
#
#
# Indices 1 2 3 4 5 6 
#
# 1 0.010401 -0.004247 -0.007060 0.000000 -0.000910 0.000000
# 2 -0.004247 0.016498 0.000143 0.000000 0.000093 0.000000
# 3 -0.007060 0.000143 0.018192 0.000000 -0.001297 0.000000
# 4 0.000000 0.000000 0.000000 0.120372 0.000000 0.004577
# 5 -0.000910 0.000093 -0.001297 0.000000 0.028390 0.000000
# 6 0.000000 0.000000 0.000000 0.004577 0.000000 0.034732
#
#
# Mechanical properties :
#
#
# Convention : Reuss Voigt Hill
#
# Bulk Modulus (GPa) = 43.93078 58.71752 51.32415
# Shear Modulus (GPa) = 19.34224 27.18955 23.26589
#
# Velocity S-wave (km/s) = 3.27481 3.88270 3.59164
# Velocity P-wave (km/s) = 6.21746 7.25650 6.75698
#
# Compressibility (1/GPa) = 0.02276308
#
# Stress axis : x y z
#
# Youngs Moduli (GPa) = 96.14151 60.61347 54.96871
#
# Poissons Ratio (x) = 0.25742 0.38807
# Poissons Ratio (y) = 0.40831 -0.00784
# Poissons Ratio (z) = 0.67875 -0.00865
#
# Static dielectric constant tensor:
#      x y z
#    x 3.805380 0.000000 -0.024610 
#    y 0.000000 3.241760 0.000000 
#    z -0.024610 0.000000 3.320860 
# 
# 
# High freq. dielectric constant tensor:
#      x y z
#    x 1.720860 0.000000 -0.002450 
#    y 0.000000 1.677460 0.000000 
#    z -0.002450 0.000000 1.672180 
# 
# From -- ./inp_files/199835.got.cif
#   From: 2010.06.25/outbox.cif.g09.slc.cpg/sg12_100_cif.got.tgz:199835.got - 2010.06.28 00:19:55.
