data_PCOD8094647
_publ_section_title
;
Structure prediction by ZEFSAII (Michael W. Deem and Ramdas Pophale) SiO2 
 PCOD8094647
Probable space group: C 2/M
;
_chemical_formula_sum "Si O2"
_cell_formula_units_Z 56
_cell_length_a 11.113419
_cell_length_b 15.037715
_cell_length_c 19.672601
_cell_angle_alpha 90.000000
_cell_angle_beta 124.952312
_cell_angle_gamma 90.000000
_cell_volume 2694.689439
_symmetry_space_group_name_H-M "C 2/M"
_symmetry_group_IT_number 12
_symmetry_cell_setting 'monoclinic'
loop_
_space_group_symop_operation_xyz
x,y,z
-x,y,-z
-x,-y,-z
x,-y,z
1/2+x,1/2+y,z
1/2-x,1/2+y,-z
1/2-x,1/2-y,-z
1/2+x,1/2-y,z
loop_
_atom_site_type_symbol
_atom_site_label
_atom_site_fract_x
_atom_site_fract_y
_atom_site_fract_z
Si Si1 0.182512 0.400788 0.809807
Si Si2 0.826205 0.752438 0.950816
Si Si3 0.108959 0.676321 0.260366
Si Si4 0.282036 0.900074 0.839262
Si Si5 0.972303 0.851600 0.699516
Si Si6 0.073822 0.783135 0.593232
Si Si7 0.680749 0.097006 0.656416
O O1 0.231660 0.500000 0.847999
O O2 0.245944 0.328740 0.881783
O O3 0.235222 0.379484 0.750462
O O4 0.004136 0.397724 0.749184
O O5 0.797845 0.652863 0.914394
O O6 0.750000 0.750000 0.000000
O O7 0.000000 0.773142 0.000000
O O8 0.130585 0.658557 0.187558
O O9 0.032906 0.771537 0.247429
O O10 0.263552 0.674051 0.350467
O O11 0.113500 0.910355 0.761984
O O12 0.346507 0.000000 0.867616
O O13 0.826821 0.910434 0.658098
O O14 0.975445 0.814636 0.623947
O O15 0.077035 0.675352 0.595595
O O16 0.000000 0.816176 0.500000
O O17 0.601438 0.000000 0.627998
#
# Coordination Sequence:
#
# PCOD8094647 Si02
#       7
#     8   8   8   8   8   8   8
#     4  11  22  42  67  91 122 167 216 262 311 383
#     4  12  27  43  65  96 137 170 207 269 335 394
#     4  10  19  38  65  92 121 163 217 261 304 371
#     4  11  23  40  67  93 123 166 214 259 310 380
#     4  10  19  38  63  88 119 165 216 252 307 370
#     4  10  21  36  62  89 127 168 208 254 322 378
#     4  10  21  36  60  89 120 159 213 262 304 363
#
# _framework density 20.781616
#
# number of rings (size 3 to 8) (size 9 to 14) (size 15 to 20)
#    0.000    1.429    2.857    3.429    2.000    3.714 
#    0.000    0.000    0.000   14.571    0.000    0.000 
#    0.000    0.000    0.000    0.000    0.000    0.000 
#
# Total GULP energy -347070.990036 kJ/mol
# GULP energy per Si atom -12395.392501 kJ/mol
# Density = 2.073432 g / cm^3
# Si number density = 20.781616 Si / 1000 Ang^3
#
#
#
# Elastic Constant Matrix: (Units=GPa)
#
#
# Indices 1 2 3 4 5 6 
#
# 1 123.5131 31.7102 52.1755 0.0000 -16.3286 0.0000
# 2 31.7102 106.4131 54.1991 0.0000 -11.4056 0.0000
# 3 52.1755 54.1991 97.4920 0.0000 -11.3326 0.0000
# 4 0.0000 0.0000 0.0000 16.3647 0.0000 3.0228
# 5 -16.3286 -11.4056 -11.3326 0.0000 27.2644 0.0000
# 6 0.0000 0.0000 0.0000 3.0228 0.0000 18.3175
#
#
#
# Elastic Compliance Matrix: (Units=1/GPa)
#
#
# Indices 1 2 3 4 5 6 
#
# 1 0.010926 -0.000099 -0.005292 0.000000 0.004302 0.000000
# 2 -0.000099 0.013285 -0.007033 0.000000 0.002575 0.000000
# 3 -0.005292 -0.007033 0.017116 0.000000 0.001003 0.000000
# 4 0.000000 0.000000 0.000000 0.063028 0.000000 -0.010401
# 5 0.004302 0.002575 0.001003 0.000000 0.040748 0.000000
# 6 0.000000 0.000000 0.000000 -0.010401 0.000000 0.056309
#
#
# Mechanical properties :
#
#
# Convention : Reuss Voigt Hill
#
# Bulk Modulus (GPa) = 60.68691 67.06528 63.87610
# Shear Modulus (GPa) = 21.57453 25.01156 23.29305
#
# Velocity S-wave (km/s) = 3.22554 3.47297 3.35154
# Velocity P-wave (km/s) = 6.56793 6.95871 6.76614
#
# Compressibility (1/GPa) = 0.01647802
#
# Stress axis : x y z
#
# Youngs Moduli (GPa) = 91.52386 75.27233 58.42492
#
# Poissons Ratio (x) = 0.00748 0.30919
# Poissons Ratio (y) = 0.00909 0.41091
# Poissons Ratio (z) = 0.48435 0.52940
#
# Static dielectric constant tensor:
#      x y z
#    x 4.099350 0.000000 -0.104130 
#    y 0.000000 3.698610 0.000000 
#    z -0.104130 0.000000 3.452650 
# 
# 
# High freq. dielectric constant tensor:
#      x y z
#    x 1.829830 0.000000 -0.012450 
#    y 0.000000 1.813620 0.000000 
#    z -0.012450 0.000000 1.785520 
# 
# From -- ./inp_files/263238.got.cif
#   From: 2010.06.25/outbox.cif.g09.slc.cpg/sg12_132_cif.got.tgz:263238.got - 2010.06.28 00:19:55.
