data_PCOD8094764
_publ_section_title
;
Structure prediction by ZEFSAII (Michael W. Deem and Ramdas Pophale) SiO2 
 PCOD8094764
Probable space group: C 2/M
;
_chemical_formula_sum "Si O2"
_cell_formula_units_Z 64
_cell_length_a 14.631941
_cell_length_b 18.606601
_cell_length_c 11.967175
_cell_angle_alpha 90.000000
_cell_angle_beta 85.496034
_cell_angle_gamma 90.000000
_cell_volume 3248.010378
_symmetry_space_group_name_H-M "C 2/M"
_symmetry_group_IT_number 12
_symmetry_cell_setting 'monoclinic'
loop_
_space_group_symop_operation_xyz
x,y,z
-x,y,-z
-x,-y,-z
x,-y,z
1/2+x,1/2+y,z
1/2-x,1/2+y,-z
1/2-x,1/2-y,-z
1/2+x,1/2-y,z
loop_
_atom_site_type_symbol
_atom_site_label
_atom_site_fract_x
_atom_site_fract_y
_atom_site_fract_z
Si Si1 0.660061 0.705150 0.499628
Si Si2 0.405564 0.288670 0.245652
Si Si3 0.477047 0.580593 0.128132
Si Si4 0.322629 0.576776 0.826251
Si Si5 0.769122 0.421275 0.401432
Si Si6 0.523123 0.918864 0.625797
Si Si7 0.256177 0.271544 0.872821
Si Si8 0.417931 0.780298 0.709879
O O1 0.750000 0.750000 0.500000
O O2 0.606429 0.707897 0.620222
O O3 0.698594 0.624790 0.481127
O O4 0.597985 0.736725 0.404876
O O5 0.400414 0.367247 0.188750
O O6 0.337377 0.235524 0.187639
O O7 0.507191 0.258143 0.219932
O O8 0.436256 0.500000 0.132214
O O9 0.568117 0.586157 0.194655
O O10 0.500000 0.605197 0.000000
O O11 0.302583 0.500000 0.891374
O O12 0.280005 0.571648 0.710128
O O13 0.279398 0.645081 0.889243
O O14 0.779886 0.500000 0.457086
O O15 0.872028 0.388665 0.374613
O O16 0.500000 0.924410 0.500000
O O17 0.451032 0.862751 0.687422
O O18 0.514627 0.000000 0.680007
O O19 0.327080 0.223302 0.794326
O O20 0.250000 0.250000 0.000000
#
# Coordination Sequence:
#
# PCOD8094764 Si02
#       8
#     8   8   8   8   8   8   8   8
#     4  12  21  37  59  91 124 159 201 248 311 366
#     4  12  24  37  64  90 124 162 203 259 307 368
#     4  10  21  39  61  86 119 161 204 249 304 364
#     4  10  19  39  63  84 117 158 201 246 300 362
#     4  10  20  36  60  89 123 159 200 246 299 373
#     4  10  21  37  60  88 122 165 201 239 301 372
#     4  12  25  41  62  94 121 160 215 259 308 365
#     4  12  23  40  62  90 126 160 203 256 309 370
#
# _framework density 19.704370000000001
#
# number of rings (size 3 to 8) (size 9 to 14) (size 15 to 20)
#    0.000    1.000    3.750    4.125    0.000    0.500 
#    0.000    1.250    0.000    3.750    0.000    4.375 
#    0.000    0.000    0.000    0.000    0.000    0.000 
#
# Total GULP energy -396530.788154 kJ/mol
# GULP energy per Si atom -12391.587130 kJ/mol
# Density = 1.965952 g / cm^3
# Si number density = 19.704370 Si / 1000 Ang^3
#
#
#
# Elastic Constant Matrix: (Units=GPa)
#
#
# Indices 1 2 3 4 5 6 
#
# 1 80.1747 20.7548 20.5258 0.0000 18.1394 0.0000
# 2 20.7548 129.6744 25.0021 0.0000 -10.2597 0.0000
# 3 20.5258 25.0021 89.0342 0.0000 -5.3596 0.0000
# 4 0.0000 0.0000 0.0000 25.2886 0.0000 -1.3102
# 5 18.1394 -10.2597 -5.3596 0.0000 21.8659 0.0000
# 6 0.0000 0.0000 0.0000 -1.3102 0.0000 32.6726
#
#
#
# Elastic Compliance Matrix: (Units=1/GPa)
#
#
# Indices 1 2 3 4 5 6 
#
# 1 0.018647 -0.003580 -0.004391 0.000000 -0.018225 0.000000
# 2 -0.003580 0.009084 -0.001310 0.000000 0.006911 0.000000
# 3 -0.004391 -0.001310 0.012985 0.000000 0.006211 0.000000
# 4 0.000000 0.000000 0.000000 0.039626 0.000000 0.001589
# 5 -0.018225 0.006911 0.006211 0.000000 0.065617 0.000000
# 6 0.000000 0.000000 0.000000 0.001589 0.000000 0.030670
#
#
# Mechanical properties :
#
#
# Convention : Reuss Voigt Hill
#
# Bulk Modulus (GPa) = 45.13432 47.93875 46.53653
# Shear Modulus (GPa) = 24.68219 31.47213 28.07716
#
# Velocity S-wave (km/s) = 3.54308 4.00085 3.77891
# Velocity P-wave (km/s) = 6.30027 6.76197 6.53520
#
# Compressibility (1/GPa) = 0.02215609
#
# Stress axis : x y z
#
# Youngs Moduli (GPa) = 53.62826 110.08509 77.00923
#
# Poissons Ratio (x) = 0.39409 0.33812
# Poissons Ratio (y) = 0.19198 0.10085
# Poissons Ratio (z) = 0.23546 0.14416
#
# Static dielectric constant tensor:
#      x y z
#    x 3.691560 0.000000 0.179580 
#    y 0.000000 1.937890 0.000000 
#    z 0.179580 0.000000 3.529260 
# 
# 
# High freq. dielectric constant tensor:
#      x y z
#    x 1.773770 0.000000 0.028490 
#    y 0.000000 1.784980 0.000000 
#    z 0.028490 0.000000 1.747110 
# 
# From -- ./inp_files/146143.got.cif
#   From: 2010.06.25/outbox.cif.g09.slc.cpg/sg12_74_cif.got.tgz:146143.got - 2010.06.28 00:19:55.
