data_PCOD8094194
_publ_section_title
;
Structure prediction by ZEFSAII (Michael W. Deem and Ramdas Pophale) SiO2 
 PCOD8094194
Probable space group: C 2/M
;
_chemical_formula_sum "Si O2"
_cell_formula_units_Z 64
_cell_length_a 15.726983
_cell_length_b 32.702725
_cell_length_c 10.642936
_cell_angle_alpha 90.000000
_cell_angle_beta 36.029545
_cell_angle_gamma 90.000000
_cell_volume 3219.715997
_symmetry_space_group_name_H-M "C 2/M"
_symmetry_group_IT_number 12
_symmetry_cell_setting 'monoclinic'
loop_
_space_group_symop_operation_xyz
x,y,z
-x,y,-z
-x,-y,-z
x,-y,z
1/2+x,1/2+y,z
1/2-x,1/2+y,-z
1/2-x,1/2-y,-z
1/2+x,1/2-y,z
loop_
_atom_site_type_symbol
_atom_site_label
_atom_site_fract_x
_atom_site_fract_y
_atom_site_fract_z
Si Si1 0.119397 0.333835 0.541990
Si Si2 0.840924 0.843949 0.689537
Si Si3 0.685765 0.609283 0.534242
Si Si4 0.435491 0.911230 0.702678
Si Si5 0.866242 0.881881 0.916281
Si Si6 0.773932 0.202582 0.124364
Si Si7 0.389374 0.215358 0.931325
Si Si8 0.933456 0.451871 0.213716
O O1 0.249944 0.361487 0.435842
O O2 0.183346 0.304256 0.359210
O O3 0.993230 0.364484 0.643834
O O4 0.048859 0.305470 0.736524
O O5 0.805427 0.866505 0.604703
O O6 0.840501 0.878286 0.798054
O O7 0.000000 0.822806 0.500000
O O8 0.719569 0.810307 0.853152
O O9 0.520172 0.597580 0.765214
O O10 0.775278 0.567523 0.417439
O O11 0.500000 0.932461 0.500000
O O12 0.465410 0.936695 0.793078
O O13 0.264120 0.909858 0.878175
O O14 0.865506 0.837201 0.979554
O O15 0.659654 0.216021 0.155178
O O16 0.891611 0.239545 0.991285
O O17 0.915839 0.500000 0.243066
O O18 0.000000 0.438423 0.000000
#
# Coordination Sequence:
#
# PCOD8094194 Si02
#       8
#     8   8   8   8   8   8   8   8
#     4  11  20  36  55  85 113 155 203 246 299 355
#     4   9  18  34  52  81 111 149 207 245 287 350
#     4  10  23  36  61  84 118 156 189 244 297 361
#     4  11  19  37  67  90 118 155 206 247 280 363
#     4  10  19  37  57  86 114 155 203 240 290 348
#     4  10  20  34  55  80 115 150 205 249 298 341
#     4  10  20  33  56  79 110 158 199 258 293 344
#     4  10  23  42  65  95 125 154 189 240 305 363
#
# _framework density 19.877528999999999
#
# number of rings (size 3 to 8) (size 9 to 14) (size 15 to 20)
#    0.000    1.875    3.750    1.125    1.750    4.750 
#    0.000    4.375    0.000    5.625    0.000    0.000 
#    0.000    0.000    0.000    0.000    0.000    0.000 
#
# Total GULP energy -396731.062156 kJ/mol
# GULP energy per Si atom -12397.845692 kJ/mol
# Density = 1.983229 g / cm^3
# Si number density = 19.877529 Si / 1000 Ang^3
#
#
#
# Elastic Constant Matrix: (Units=GPa)
#
#
# Indices 1 2 3 4 5 6 
#
# 1 61.0030 37.8580 55.3959 0.0000 -9.0661 0.0000
# 2 37.8580 86.6459 54.2228 0.0000 -2.8750 0.0000
# 3 55.3959 54.2228 148.7905 0.0000 -7.7104 0.0000
# 4 0.0000 0.0000 0.0000 24.9623 0.0000 4.8385
# 5 -9.0661 -2.8750 -7.7104 0.0000 34.8582 0.0000
# 6 0.0000 0.0000 0.0000 4.8385 0.0000 16.5054
#
#
#
# Elastic Compliance Matrix: (Units=1/GPa)
#
#
# Indices 1 2 3 4 5 6 
#
# 1 0.028900 -0.007630 -0.007711 0.000000 0.005182 0.000000
# 2 -0.007630 0.016965 -0.003411 0.000000 -0.001340 0.000000
# 3 -0.007711 -0.003411 0.010840 0.000000 0.000111 0.000000
# 4 0.000000 0.000000 0.000000 0.042474 0.000000 -0.012451
# 5 0.005182 -0.001340 0.000111 0.000000 0.029949 0.000000
# 6 0.000000 0.000000 0.000000 -0.012451 0.000000 0.064236
#
#
# Mechanical properties :
#
#
# Convention : Reuss Voigt Hill
#
# Bulk Modulus (GPa) = 52.07822 65.71033 58.89427
# Shear Modulus (GPa) = 21.07316 25.19603 23.13460
#
# Velocity S-wave (km/s) = 3.25953 3.56415 3.41524
# Velocity P-wave (km/s) = 6.35786 7.07580 6.72642
#
# Compressibility (1/GPa) = 0.01920189
#
# Stress axis : x y z
#
# Youngs Moduli (GPa) = 34.60263 58.94393 92.24693
#
# Poissons Ratio (x) = 0.44973 0.71127
# Poissons Ratio (y) = 0.26401 0.31468
# Poissons Ratio (z) = 0.26680 0.20108
#
# Static dielectric constant tensor:
#      x y z
#    x 3.538210 0.000000 0.046680 
#    y 0.000000 3.336960 0.000000 
#    z 0.046680 0.000000 3.913470 
# 
# 
# High freq. dielectric constant tensor:
#      x y z
#    x 1.765630 0.000000 0.007710 
#    y 0.000000 1.737960 0.000000 
#    z 0.007710 0.000000 1.791800 
# 
# From -- ./inp_files/161186.got.cif
#   From: 2010.06.25/outbox.cif.g09.slc.cpg/sg12_81_cif.got.tgz:161186.got - 2010.06.28 00:19:55.
