data_PCOD8094183
_publ_section_title
;
Structure prediction by ZEFSAII (Michael W. Deem and Ramdas Pophale) SiO2 
 PCOD8094183
Probable space group: C 2/M
;
_chemical_formula_sum "Si O2"
_cell_formula_units_Z 48
_cell_length_a 19.944134
_cell_length_b 16.313410
_cell_length_c 9.959675
_cell_angle_alpha 90.000000
_cell_angle_beta 127.991097
_cell_angle_gamma 90.000000
_cell_volume 2553.818104
_symmetry_space_group_name_H-M "C 2/M"
_symmetry_group_IT_number 12
_symmetry_cell_setting 'monoclinic'
loop_
_space_group_symop_operation_xyz
x,y,z
-x,y,-z
-x,-y,-z
x,-y,z
1/2+x,1/2+y,z
1/2-x,1/2+y,-z
1/2-x,1/2-y,-z
1/2+x,1/2-y,z
loop_
_atom_site_type_symbol
_atom_site_label
_atom_site_fract_x
_atom_site_fract_y
_atom_site_fract_z
Si Si1 0.676091 0.251258 0.247398
Si Si2 0.153387 0.230202 0.917398
Si Si3 0.000526 0.332582 0.353429
Si Si4 0.401023 0.591164 0.348839
Si Si5 0.640272 0.704148 0.482375
Si Si6 0.422715 0.907355 0.806349
O O1 0.635798 0.308610 0.315288
O O2 0.777808 0.259116 0.378982
O O3 0.651396 0.156532 0.248405
O O4 0.642375 0.283312 0.063601
O O5 0.123671 0.147992 0.807015
O O6 0.095387 0.307700 0.805399
O O7 0.250000 0.250000 0.000000
O O8 0.056424 0.250033 0.431195
O O9 0.042240 0.395818 0.301212
O O10 0.000000 0.374172 0.500000
O O11 0.500000 0.591873 0.500000
O O12 0.368780 0.500000 0.274598
O O13 0.354226 0.619632 0.428511
O O14 0.387747 0.000000 0.778413
O O15 0.500000 0.889395 0.000000
#
# Coordination Sequence:
#
# PCOD8094183 Si02
#       6
#     8   8   8   8   8   8
#     4  10  21  34  60  85 112 150 197 237 278 345
#     4  12  20  36  59  89 111 150 197 244 281 347
#     4  11  19  35  58  80 114 152 192 233 283 349
#     4  11  22  38  59  86 119 155 194 241 293 343
#     4  10  19  37  56  85 111 151 195 233 282 351
#     4  10  21  35  53  84 118 146 183 235 288 338
#
# _framework density 18.795387999999999
#
# number of rings (size 3 to 8) (size 9 to 14) (size 15 to 20)
#    0.000    1.333    6.667    0.000    0.000    1.000 
#    0.000    1.667    0.000   12.000    0.000    0.000 
#    0.000    0.000    0.000    0.000    0.000    0.000 
#
# Total GULP energy -297555.908776 kJ/mol
# GULP energy per Si atom -12398.162866 kJ/mol
# Density = 1.875261 g / cm^3
# Si number density = 18.795388 Si / 1000 Ang^3
#
#
#
# Elastic Constant Matrix: (Units=GPa)
#
#
# Indices 1 2 3 4 5 6 
#
# 1 87.5180 24.7258 43.5393 0.0000 -14.8086 0.0000
# 2 24.7258 82.2767 33.4128 0.0000 -13.3924 0.0000
# 3 43.5393 33.4128 126.1110 0.0000 -32.6652 0.0000
# 4 0.0000 0.0000 0.0000 21.3880 0.0000 -4.5906
# 5 -14.8086 -13.3924 -32.6652 0.0000 50.6379 0.0000
# 6 0.0000 0.0000 0.0000 -4.5906 0.0000 18.2720
#
#
#
# Elastic Compliance Matrix: (Units=1/GPa)
#
#
# Indices 1 2 3 4 5 6 
#
# 1 0.014297 -0.002509 -0.004034 0.000000 0.000915 0.000000
# 2 -0.002509 0.014159 -0.002528 0.000000 0.001380 0.000000
# 3 -0.004034 -0.002528 0.011422 0.000000 0.005520 0.000000
# 4 0.000000 0.000000 0.000000 0.049420 0.000000 0.012416
# 5 0.000915 0.001380 0.005520 0.000000 0.023941 0.000000
# 6 0.000000 0.000000 0.000000 0.012416 0.000000 0.057848
#
#
# Mechanical properties :
#
#
# Convention : Reuss Voigt Hill
#
# Bulk Modulus (GPa) = 46.00679 55.47350 50.74014
# Shear Modulus (GPa) = 25.44858 31.00811 28.22834
#
# Velocity S-wave (km/s) = 3.68364 4.06615 3.87961
# Velocity P-wave (km/s) = 6.52864 7.18493 6.86463
#
# Compressibility (1/GPa) = 0.02173592
#
# Stress axis : x y z
#
# Youngs Moduli (GPa) = 69.94522 70.62462 87.55321
#
# Poissons Ratio (x) = 0.17722 0.35320
# Poissons Ratio (y) = 0.17551 0.22130
# Poissons Ratio (z) = 0.28216 0.17851
#
# Static dielectric constant tensor:
#      x y z
#    x 3.650380 0.000000 -0.220240 
#    y 0.000000 3.243460 0.000000 
#    z -0.220240 0.000000 3.892390 
# 
# 
# High freq. dielectric constant tensor:
#      x y z
#    x 1.744090 0.000000 -0.006170 
#    y 0.000000 1.688190 0.000000 
#    z -0.006170 0.000000 1.744580 
# 
# From -- ./inp_files/88172.got.cif
#   From: 2010.06.25/outbox.cif.g09.slc.cpg/sg12_45_cif.got.tgz:88172.got - 2010.06.28 00:19:55.
