data_PCOD8094991
_publ_section_title
;
Structure prediction by ZEFSAII (Michael W. Deem and Ramdas Pophale) SiO2 
 PCOD8094991
Probable space group: C 2/M
;
_chemical_formula_sum "Si O2"
_cell_formula_units_Z 64
_cell_length_a 20.666508
_cell_length_b 22.383726
_cell_length_c 11.499877
_cell_angle_alpha 90.000000
_cell_angle_beta 131.831039
_cell_angle_gamma 90.000000
_cell_volume 3963.837765
_symmetry_space_group_name_H-M "C 2/M"
_symmetry_group_IT_number 12
_symmetry_cell_setting 'monoclinic'
loop_
_space_group_symop_operation_xyz
x,y,z
-x,y,-z
-x,-y,-z
x,-y,z
1/2+x,1/2+y,z
1/2-x,1/2+y,-z
1/2-x,1/2-y,-z
1/2+x,1/2-y,z
loop_
_atom_site_type_symbol
_atom_site_label
_atom_site_fract_x
_atom_site_fract_y
_atom_site_fract_z
Si Si1 0.788016 0.930978 0.491075
Si Si2 0.381799 0.753806 0.628030
Si Si3 0.370795 0.369401 0.931315
Si Si4 0.249011 0.763840 0.134113
Si Si5 0.215256 0.433781 0.659604
Si Si6 0.905475 0.327804 0.437339
Si Si7 0.446650 0.634902 0.769885
Si Si8 0.225164 0.313732 0.318402
O O1 0.739275 0.923387 0.554487
O O2 0.889246 0.911287 0.625106
O O3 0.739283 0.885809 0.343396
O O4 0.784146 0.000000 0.442507
O O5 0.417289 0.800775 0.578727
O O6 0.453897 0.702070 0.728388
O O7 0.297901 0.719490 0.480197
O O8 0.363302 0.790790 0.725202
O O9 0.326136 0.311423 0.931945
O O10 0.300254 0.422271 0.841381
O O11 0.401258 0.354383 0.838698
O O12 0.455038 0.390510 0.105924
O O13 0.344323 0.786929 0.283614
O O14 0.227441 0.704895 0.185412
O O15 0.250000 0.750000 0.000000
O O16 0.182774 0.500000 0.644410
O O17 0.136143 0.392701 0.601668
O O18 0.000000 0.335096 0.500000
#
# Coordination Sequence:
#
# PCOD8094991 Si02
#       8
#     8   8   8   8   8   8   8   8
#     4   9  16  27  47  73  95 121 163 204 236 279
#     4   9  15  27  47  66  91 123 157 191 248 289
#     4   9  17  28  43  68  97 126 153 189 237 297
#     4  10  20  32  46  68  99 125 155 196 245 295
#     4   9  17  30  46  66  95 129 162 199 240 279
#     4  10  20  31  46  70  97 125 162 203 238 284
#     4   9  16  26  45  70  98 124 151 192 244 295
#     4   9  15  29  48  65  90 127 154 198 242 283
#
# _framework density 16.145969000000001
#
# number of rings (size 3 to 8) (size 9 to 14) (size 15 to 20)
#    0.000    2.750    2.500    0.000    1.750    0.750 
#    0.000    2.500    0.000    3.000    0.000    0.875 
#    0.000    3.000    0.000    0.000    0.000    0.000 
#
# Total GULP energy -396549.834686 kJ/mol
# GULP energy per Si atom -12392.182334 kJ/mol
# Density = 1.610922 g / cm^3
# Si number density = 16.145969 Si / 1000 Ang^3
#
#
#
# Elastic Constant Matrix: (Units=GPa)
#
#
# Indices 1 2 3 4 5 6 
#
# 1 81.4731 51.6327 35.8662 0.0000 6.6795 0.0000
# 2 51.6327 112.2952 35.7922 0.0000 -6.6452 0.0000
# 3 35.8662 35.7922 48.5426 0.0000 -9.0413 0.0000
# 4 0.0000 0.0000 0.0000 15.6836 0.0000 -3.5940
# 5 6.6795 -6.6452 -9.0413 0.0000 24.2939 0.0000
# 6 0.0000 0.0000 0.0000 -3.5940 0.0000 13.0514
#
#
#
# Elastic Compliance Matrix: (Units=1/GPa)
#
#
# Indices 1 2 3 4 5 6 
#
# 1 0.025188 -0.007381 -0.015938 0.000000 -0.014876 0.000000
# 2 -0.007381 0.013804 -0.003914 0.000000 0.004349 0.000000
# 3 -0.015938 -0.003914 0.038552 0.000000 0.017659 0.000000
# 4 0.000000 0.000000 0.000000 0.068056 0.000000 0.018741
# 5 -0.014876 0.004349 0.017659 0.000000 0.053014 0.000000
# 6 0.000000 0.000000 0.000000 0.018741 0.000000 0.081781
#
#
# Mechanical properties :
#
#
# Convention : Reuss Voigt Hill
#
# Bulk Modulus (GPa) = 43.33628 54.32143 48.82885
# Shear Modulus (GPa) = 14.59618 18.54043 16.56831
#
# Velocity S-wave (km/s) = 3.00994 3.39234 3.20684
# Velocity P-wave (km/s) = 6.24326 7.00435 6.63473
#
# Compressibility (1/GPa) = 0.02307536
#
# Stress axis : x y z
#
# Youngs Moduli (GPa) = 39.70148 72.44257 25.93899
#
# Poissons Ratio (x) = 0.53473 0.41343
# Poissons Ratio (y) = 0.29306 0.10154
# Poissons Ratio (z) = 0.63278 0.28357
#
# Static dielectric constant tensor:
#      x y z
#    x 2.870160 0.000000 0.067940 
#    y 0.000000 3.077270 0.000000 
#    z 0.067940 0.000000 2.984800 
# 
# 
# High freq. dielectric constant tensor:
#      x y z
#    x 1.602760 0.000000 0.008930 
#    y 0.000000 1.614260 0.000000 
#    z 0.008930 0.000000 1.596400 
# 
# From -- ./inp_files/169428.got.cif
#   From: 2010.06.25/outbox.cif.g09.slc.cpg/sg12_85_cif.got.tgz:169428.got - 2010.06.28 00:19:55.
