data_PCOD8094408
_publ_section_title
;
Structure prediction by ZEFSAII (Michael W. Deem and Ramdas Pophale) SiO2 
 PCOD8094408
Probable space group: C 2/M
;
_chemical_formula_sum "Si O2"
_cell_formula_units_Z 56
_cell_length_a 23.967001
_cell_length_b 24.227630
_cell_length_c 14.554014
_cell_angle_alpha 90.000000
_cell_angle_beta 162.690352
_cell_angle_gamma 90.000000
_cell_volume 2514.469729
_symmetry_space_group_name_H-M "C 2/M"
_symmetry_group_IT_number 12
_symmetry_cell_setting 'monoclinic'
loop_
_space_group_symop_operation_xyz
x,y,z
-x,y,-z
-x,-y,-z
x,-y,z
1/2+x,1/2+y,z
1/2-x,1/2+y,-z
1/2-x,1/2-y,-z
1/2+x,1/2-y,z
loop_
_atom_site_type_symbol
_atom_site_label
_atom_site_fract_x
_atom_site_fract_y
_atom_site_fract_z
Si Si1 0.013481 0.855041 0.122146
Si Si2 0.931585 0.785531 0.271596
Si Si3 0.132658 0.564538 0.032423
Si Si4 0.007755 0.937728 0.279485
Si Si5 0.931986 0.336958 0.791423
Si Si6 0.337905 0.740907 0.930432
Si Si7 0.837597 0.905980 0.184621
O O1 0.979485 0.901727 0.144679
O O2 0.212555 0.824698 0.445496
O O3 0.000000 0.882497 0.000000
O O4 0.858178 0.805607 0.883011
O O5 0.892539 0.842226 0.261513
O O6 0.120483 0.756633 0.608185
O O7 0.750000 0.750000 0.000000
O O8 0.943080 0.791196 0.179622
O O9 0.084657 0.500000 0.964707
O O10 0.312718 0.581464 0.377831
O O11 0.153484 0.582606 0.957210
O O12 0.961453 0.599632 0.804640
O O13 0.829085 0.932245 0.068661
O O14 0.029542 0.000000 0.279583
O O15 0.000000 0.326873 0.000000
O O16 0.049770 0.296981 0.910806
O O17 0.000000 0.936138 0.500000
#
# Coordination Sequence:
#
# PCOD8094408 Si02
#       7
#     8   8   8   8   8   8   8
#     4  12  25  42  62  94 133 181 225 263 322 393
#     4  12  23  39  65  99 133 170 210 269 331 402
#     4  10  21  38  67 100 129 166 221 286 340 382
#     4  10  20  39  64  94 129 170 220 275 333 390
#     4  12  23  41  66  95 132 176 226 279 319 380
#     4  12  24  42  62  94 135 174 221 269 325 393
#     4  10  19  37  62  96 129 162 213 274 338 390
#
# _framework density 22.271097000000001
#
# number of rings (size 3 to 8) (size 9 to 14) (size 15 to 20)
#    0.000    0.857    2.857    6.857    0.000    2.857 
#    0.000    0.000    0.000    0.000    0.000    3.000 
#    0.000    0.000    0.000    0.000    0.000    0.000 
#
# Total GULP energy -347088.214166 kJ/mol
# GULP energy per Si atom -12396.007649 kJ/mol
# Density = 2.222041 g / cm^3
# Si number density = 22.271097 Si / 1000 Ang^3
#
#
#
# Elastic Constant Matrix: (Units=GPa)
#
#
# Indices 1 2 3 4 5 6 
#
# 1 91.3953 32.8963 11.1130 0.0000 -20.8537 0.0000
# 2 32.8963 119.7446 18.0895 0.0000 2.0117 0.0000
# 3 11.1130 18.0895 63.8349 0.0004 2.0706 -0.0006
# 4 0.0000 0.0000 0.0004 14.4379 0.0001 16.4368
# 5 -20.8537 2.0117 2.0706 0.0001 33.9703 -0.0002
# 6 0.0000 0.0000 -0.0006 16.4368 -0.0002 6.8382
#
#
#
# Elastic Compliance Matrix: (Units=1/GPa)
#
#
# Indices 1 2 3 4 5 6 
#
# 1 0.014708 -0.003934 -0.001750 0.000000 0.009368 0.000000
# 2 -0.003934 0.009781 -0.001994 0.000000 -0.002872 0.000000
# 3 -0.001750 -0.001994 0.016599 0.000001 -0.001968 -0.000002
# 4 0.000000 0.000000 0.000001 -0.039887 0.000001 0.095876
# 5 0.009368 -0.002872 -0.001968 0.000001 0.035479 -0.000001
# 6 0.000000 0.000000 -0.000002 0.095876 -0.000001 -0.084216
#
#
# Mechanical properties :
#
#
# Convention : Reuss Voigt Hill
#
# Bulk Modulus (GPa) = 38.85967 44.35249 41.60608
# Shear Modulus (GPa) = -211.81718 25.24102 -93.28808
#
# Velocity S-wave (km/s) = -9.76294 3.37018 -6.47908
# Velocity P-wave (km/s) = 10.46902 5.92471 6.10320
#
# Compressibility (1/GPa) = 0.02573362
#
# Stress axis : x y z
#
# Youngs Moduli (GPa) = 67.99201 102.23696 60.24519
#
# Poissons Ratio (x) = 0.40216 0.10541
# Poissons Ratio (y) = 0.26745 0.12012
# Poissons Ratio (z) = 0.11896 0.20384
#
# Static dielectric constant tensor:
#      x y z
#    x 4.057640 0.000000 0.645540 
#    y 0.000000 3.685490 0.000000 
#    z 0.645540 0.000000 3.160820 
# 
# 
# High freq. dielectric constant tensor:
#      x y z
#    x 1.907940 0.000000 0.006690 
#    y 0.000000 1.877120 0.000000 
#    z 0.006690 0.000000 1.833610 
# 
# From -- ./inp_files/242176.got.cif
#   From: 2010.06.25/outbox.cif.g09.slc.cpg/sg12_122_cif.got.tgz:242176.got - 2010.06.28 00:19:55.
