data_PCOD8094947
_publ_section_title
;
Structure prediction by ZEFSAII (Michael W. Deem and Ramdas Pophale) SiO2 
 PCOD8094947
Probable space group: C 2/M
;
_chemical_formula_sum "Si O2"
_cell_formula_units_Z 64
_cell_length_a 29.964871
_cell_length_b 9.057055
_cell_length_c 20.925062
_cell_angle_alpha 90.000000
_cell_angle_beta 133.545798
_cell_angle_gamma 90.000000
_cell_volume 4116.221036
_symmetry_space_group_name_H-M "C 2/M"
_symmetry_group_IT_number 12
_symmetry_cell_setting 'monoclinic'
loop_
_space_group_symop_operation_xyz
x,y,z
-x,y,-z
-x,-y,-z
x,-y,z
1/2+x,1/2+y,z
1/2-x,1/2+y,-z
1/2-x,1/2-y,-z
1/2+x,1/2-y,z
loop_
_atom_site_type_symbol
_atom_site_label
_atom_site_fract_x
_atom_site_fract_y
_atom_site_fract_z
Si Si1 0.057954 0.834091 0.730045
Si Si2 0.333211 0.331698 0.081221
Si Si3 0.243045 0.331598 0.891689
Si Si4 0.840608 0.326920 0.408545
Si Si5 0.656878 0.333690 0.391391
Si Si6 0.159219 0.830011 0.721241
Si Si7 0.066727 0.671729 0.387730
Si Si8 0.752988 0.333346 0.601116
O O1 0.093683 0.812546 0.833229
O O2 0.106038 0.803923 0.720573
O O3 0.003387 0.718041 0.670632
O O4 0.031131 0.000000 0.698232
O O5 0.314786 0.500000 0.084806
O O6 0.298606 0.209006 0.088570
O O7 0.313914 0.310231 0.987205
O O8 0.230631 0.500000 0.859156
O O9 0.224712 0.229394 0.813535
O O10 0.829283 0.500000 0.391191
O O11 0.860227 0.259941 0.360351
O O12 0.895812 0.289452 0.511370
O O13 0.777009 0.253615 0.369369
O O14 0.641474 0.500000 0.354937
O O15 0.594531 0.256965 0.354284
O O16 0.706625 0.331730 0.496394
O O17 0.683611 0.246137 0.356769
O O18 0.167379 0.000000 0.710990
O O19 0.070434 0.500000 0.375749
O O20 0.767926 0.500000 0.637277
#
# Coordination Sequence:
#
# PCOD8094947 Si02
#       8
#     8   8   8   8   8   8   8   8
#     4   9  18  31  44  59  83 115 148 179 212 253
#     4   8  15  27  42  61  83 107 136 171 213 259
#     4   9  15  25  43  63  82 105 135 173 216 257
#     4  10  20  32  44  60  84 114 148 182 215 252
#     4   9  16  27  44  63  83 108 137 171 214 259
#     4  10  20  32  44  60  84 114 148 182 216 255
#     4  10  20  31  43  61  85 113 147 184 216 249
#     4   9  16  27  44  64  84 106 135 173 216 257
#
# _framework density 15.548242
#
# number of rings (size 3 to 8) (size 9 to 14) (size 15 to 20)
#    0.000    2.750    0.000    3.000    0.000    8.000 
#    0.000    2.500    0.000    0.000    0.000    0.000 
#    0.000    1.000    0.000   10.750    0.000    5.500 
#
# Total GULP energy -396620.896474 kJ/mol
# GULP energy per Si atom -12394.403015 kJ/mol
# Density = 1.551285 g / cm^3
# Si number density = 15.548242 Si / 1000 Ang^3
#
#
#
# Elastic Constant Matrix: (Units=GPa)
#
#
# Indices 1 2 3 4 5 6 
#
# 1 59.8304 37.6824 35.5205 0.0000 6.9918 0.0000
# 2 37.6824 97.2927 41.6284 0.0000 6.2167 0.0000
# 3 35.5205 41.6284 69.0705 0.0000 7.2962 0.0000
# 4 0.0000 0.0000 0.0000 22.6566 0.0000 0.0550
# 5 6.9918 6.2167 7.2962 0.0000 2.0641 0.0000
# 6 0.0000 0.0000 0.0000 0.0550 0.0000 28.6849
#
#
#
# Elastic Compliance Matrix: (Units=1/GPa)
#
#
# Indices 1 2 3 4 5 6 
#
# 1 0.031769 -0.005345 -0.005505 0.000000 -0.072054 0.000000
# 2 -0.005345 0.015258 -0.005594 0.000000 -0.008074 0.000000
# 3 -0.005505 -0.005594 0.027020 0.000000 -0.060016 0.000000
# 4 0.000000 0.000000 0.000000 0.044137 0.000000 -0.000085
# 5 -0.072054 -0.008074 -0.060016 0.000000 0.964997 0.000000
# 6 0.000000 0.000000 0.000000 -0.000085 0.000000 0.034862
#
#
# Mechanical properties :
#
#
# Convention : Reuss Voigt Hill
#
# Bulk Modulus (GPa) = 24.29615 50.65070 37.47343
# Shear Modulus (GPa) = 4.29313 18.10528 11.19921
#
# Velocity S-wave (km/s) = 1.66348 3.41612 2.68673
# Velocity P-wave (km/s) = 4.39884 6.94313 5.81192
#
# Compressibility (1/GPa) = 0.04115879
#
# Stress axis : x y z
#
# Youngs Moduli (GPa) = 31.47761 65.53967 37.00939
#
# Poissons Ratio (x) = 0.35031 0.20373
# Poissons Ratio (y) = 0.16825 0.20704
# Poissons Ratio (z) = 0.17328 0.36664
#
# Static dielectric constant tensor:
#      x y z
#    x 2.733190 0.000000 0.008480 
#    y 0.000000 3.126660 0.000000 
#    z 0.008480 0.000000 2.987820 
# 
# 
# High freq. dielectric constant tensor:
#      x y z
#    x 1.558950 0.000000 0.001960 
#    y 0.000000 1.615950 0.000000 
#    z 0.001960 0.000000 1.572350 
# 
# From -- ./inp_files/326928.got.cif
#   From: 2010.06.25/outbox.cif.g09.slc.cpg/sg12_164_cif.got.tgz:326928.got - 2010.06.28 00:19:55.
