data_PCOD8094273
_publ_section_title
;
Structure prediction by ZEFSAII (Michael W. Deem and Ramdas Pophale) SiO2 
 PCOD8094273
Probable space group: C 2/M
;
_chemical_formula_sum "Si O2"
_cell_formula_units_Z 48
_cell_length_a 28.025431
_cell_length_b 18.265017
_cell_length_c 8.995132
_cell_angle_alpha 90.000000
_cell_angle_beta 148.481430
_cell_angle_gamma 90.000000
_cell_volume 2407.102792
_symmetry_space_group_name_H-M "C 2/M"
_symmetry_group_IT_number 12
_symmetry_cell_setting 'monoclinic'
loop_
_space_group_symop_operation_xyz
x,y,z
-x,y,-z
-x,-y,-z
x,-y,z
1/2+x,1/2+y,z
1/2-x,1/2+y,-z
1/2-x,1/2-y,-z
1/2+x,1/2-y,z
loop_
_atom_site_type_symbol
_atom_site_label
_atom_site_fract_x
_atom_site_fract_y
_atom_site_fract_z
Si Si1 0.767544 0.417439 0.143228
Si Si2 0.760994 0.583292 0.773434
Si Si3 0.930849 0.324239 0.207840
Si Si4 0.939662 0.667652 0.714233
Si Si5 0.589409 0.674477 0.325534
Si Si6 0.593447 0.671942 0.690605
O O1 0.757512 0.500000 0.174159
O O2 0.863485 0.386638 0.453428
O O3 0.768528 0.413371 0.969627
O O4 0.682357 0.372020 0.982168
O O5 0.758614 0.500000 0.708625
O O6 0.671223 0.625163 0.478534
O O7 0.848115 0.624684 0.936173
O O8 0.897280 0.253280 0.213702
O O9 0.000000 0.369204 0.500000
O O10 0.989941 0.301439 0.222368
O O11 0.893065 0.739793 0.663569
O O12 0.000000 0.626456 0.000000
O O13 0.585941 0.668028 0.493776
O O14 0.500000 0.646329 0.000000
O O15 0.500000 0.634431 0.500000
#
# Coordination Sequence:
#
# PCOD8094273 Si02
#       6
#     8   8   8   8   8   8
#     4  10  21  37  58  83 115 153 185 224 279 337
#     4  10  21  36  59  86 112 150 190 225 274 335
#     4  11  19  36  62  85 109 142 190 237 270 325
#     4  11  22  38  59  85 114 146 184 233 287 329
#     4  10  20  37  58  85 114 145 184 235 284 322
#     4  10  19  37  60  85 108 144 196 233 269 326
#
# _framework density 19.940985999999999
#
# number of rings (size 3 to 8) (size 9 to 14) (size 15 to 20)
#    0.000    1.667    5.000    1.000    0.000    4.667 
#    3.000    2.500    0.000    0.000    0.000    0.000 
#    0.000    0.000    0.000    0.000    0.000    0.000 
#
# Total GULP energy -297432.455296 kJ/mol
# GULP energy per Si atom -12393.018971 kJ/mol
# Density = 1.989560 g / cm^3
# Si number density = 19.940986 Si / 1000 Ang^3
#
#
#
# Elastic Constant Matrix: (Units=GPa)
#
#
# Indices 1 2 3 4 5 6 
#
# 1 52.7896 32.3323 30.2744 0.0000 19.2488 0.0000
# 2 32.3323 116.4548 68.0753 0.0000 26.7126 0.0000
# 3 30.2744 68.0753 140.4570 0.0000 23.0611 0.0000
# 4 0.0000 0.0000 0.0000 17.5722 0.0000 0.7353
# 5 19.2488 26.7126 23.0611 0.0000 35.9455 0.0000
# 6 0.0000 0.0000 0.0000 0.7353 0.0000 12.1339
#
#
#
# Elastic Compliance Matrix: (Units=1/GPa)
#
#
# Indices 1 2 3 4 5 6 
#
# 1 0.026042 -0.003690 -0.002219 0.000000 -0.009780 0.000000
# 2 -0.003690 0.013688 -0.005022 0.000000 -0.004974 0.000000
# 3 -0.002219 -0.005022 0.010310 0.000000 -0.001694 0.000000
# 4 0.000000 0.000000 0.000000 0.057053 0.000000 -0.003457
# 5 -0.009780 -0.004974 -0.001694 0.000000 0.037840 0.000000
# 6 0.000000 0.000000 0.000000 -0.003457 0.000000 0.082623
#
#
# Mechanical properties :
#
#
# Convention : Reuss Voigt Hill
#
# Bulk Modulus (GPa) = 35.48871 63.45170 49.47020
# Shear Modulus (GPa) = 19.31908 25.06493 22.19201
#
# Velocity S-wave (km/s) = 3.11595 3.54920 3.33961
# Velocity P-wave (km/s) = 5.54807 6.97744 6.30340
#
# Compressibility (1/GPa) = 0.02817798
#
# Stress axis : x y z
#
# Youngs Moduli (GPa) = 38.40014 73.05500 96.99121
#
# Poissons Ratio (x) = 0.26955 0.21523
# Poissons Ratio (y) = 0.14168 0.48712
# Poissons Ratio (z) = 0.08521 0.36690
#
# Static dielectric constant tensor:
#      x y z
#    x 3.524520 0.000000 0.168830 
#    y 0.000000 3.566750 0.000000 
#    z 0.168830 0.000000 3.842200 
# 
# 
# High freq. dielectric constant tensor:
#      x y z
#    x 1.761440 0.000000 0.012100 
#    y 0.000000 1.759810 0.000000 
#    z 0.012100 0.000000 1.790200 
# 
# From -- ./inp_files/112955.got.cif
#   From: 2010.06.25/outbox.cif.g09.slc.cpg/sg12_57_cif.got.tgz:112955.got - 2010.06.28 00:19:55.
