data_PCOD8094000
_publ_section_title
;
Structure prediction by ZEFSAII (Michael W. Deem and Ramdas Pophale) SiO2 
 PCOD8094000
Probable space group: C 2/M
;
_chemical_formula_sum "Si O2"
_cell_formula_units_Z 56
_cell_length_a 23.610296
_cell_length_b 10.930077
_cell_length_c 28.736887
_cell_angle_alpha 90.000000
_cell_angle_beta 157.407331
_cell_angle_gamma 90.000000
_cell_volume 2849.022995
_symmetry_space_group_name_H-M "C 2/M"
_symmetry_group_IT_number 12
_symmetry_cell_setting 'monoclinic'
loop_
_space_group_symop_operation_xyz
x,y,z
-x,y,-z
-x,-y,-z
x,-y,z
1/2+x,1/2+y,z
1/2-x,1/2+y,-z
1/2-x,1/2-y,-z
1/2+x,1/2-y,z
loop_
_atom_site_type_symbol
_atom_site_label
_atom_site_fract_x
_atom_site_fract_y
_atom_site_fract_z
Si Si1 0.629957 0.355193 0.704178
Si Si2 0.417230 0.634997 0.156532
Si Si3 0.181259 0.136628 0.567425
Si Si4 0.628262 0.209973 0.371416
Si Si5 0.155455 0.634746 0.794592
Si Si6 0.140829 0.254001 0.983472
Si Si7 0.839998 0.359006 0.777080
O O1 0.622583 0.500000 0.715442
O O2 0.473822 0.305089 0.566158
O O3 0.672618 0.256899 0.776147
O O4 0.752789 0.340479 0.758299
O O5 0.443674 0.500000 0.158409
O O6 0.553127 0.669604 0.292861
O O7 0.415207 0.720446 0.110184
O O8 0.265961 0.642398 0.071447
O O9 0.296820 0.133583 0.612953
O O10 0.250031 0.202234 0.665431
O O11 0.140320 0.000000 0.551537
O O12 0.750000 0.250000 0.500000
O O13 0.504426 0.128928 0.302478
O O14 0.175169 0.500000 0.784903
O O15 0.282731 0.642910 0.930532
O O16 0.000404 0.300127 0.905871
O O17 0.865781 0.500000 0.784451
#
# Coordination Sequence:
#
# PCOD8094000 Si02
#       7
#     8   8   8   8   8   8   8
#     4  10  22  40  63  90 121 157 203 252 300 354
#     4  10  21  36  57  84 118 156 194 244 297 353
#     4  10  19  36  61  89 118 149 194 249 301 353
#     4  11  21  37  59  90 119 155 193 241 299 368
#     4  11  24  40  60  89 126 163 200 246 301 360
#     4  10  21  38  57  83 119 154 204 246 294 352
#     4  10  20  37  64  90 114 155 206 254 297 352
#
# _framework density 19.655861000000002
#
# number of rings (size 3 to 8) (size 9 to 14) (size 15 to 20)
#    0.000    1.714    2.857    1.714    0.000    6.286 
#    0.000    3.571    0.000    0.857    0.000    0.000 
#    0.000    0.000    0.000    0.000    0.000    0.000 
#
# Total GULP energy -347002.121358 kJ/mol
# GULP energy per Si atom -12392.932906 kJ/mol
# Density = 1.961112 g / cm^3
# Si number density = 19.655861 Si / 1000 Ang^3
#
#
#
# Elastic Constant Matrix: (Units=GPa)
#
#
# Indices 1 2 3 4 5 6 
#
# 1 91.7661 31.8771 43.7964 0.0036 9.2809 -0.0002
# 2 31.8771 90.0063 37.4240 -0.0099 -3.4518 -0.0025
# 3 43.7964 37.4240 131.0887 -0.0266 -2.6329 -0.0039
# 4 0.0036 -0.0099 -0.0266 11.9061 -0.0166 -1.9069
# 5 9.2809 -3.4518 -2.6329 -0.0166 37.0796 -0.0010
# 6 -0.0002 -0.0025 -0.0039 -1.9069 -0.0010 21.6486
#
#
#
# Elastic Compliance Matrix: (Units=1/GPa)
#
#
# Indices 1 2 3 4 5 6 
#
# 1 0.014444 -0.003672 -0.003862 -0.000022 -0.004231 -0.000003
# 2 -0.003672 0.013572 -0.002608 0.000010 0.001997 0.000002
# 3 -0.003862 -0.002608 0.009692 0.000023 0.001412 0.000004
# 4 -0.000022 0.000010 0.000023 0.085193 0.000046 0.007504
# 5 -0.004231 0.001997 0.001412 0.000046 0.028314 0.000006
# 6 -0.000003 0.000002 0.000004 0.007504 0.000006 0.046853
#
#
# Mechanical properties :
#
#
# Convention : Reuss Voigt Hill
#
# Bulk Modulus (GPa) = 57.39390 59.89515 58.64452
# Shear Modulus (GPa) = 22.30553 27.44443 24.87498
#
# Velocity S-wave (km/s) = 3.37234 3.74069 3.56128
# Velocity P-wave (km/s) = 6.66531 7.01392 6.84184
#
# Compressibility (1/GPa) = 0.01742345
#
# Stress axis : x y z
#
# Youngs Moduli (GPa) = 69.23212 73.68317 103.18137
#
# Poissons Ratio (x) = 0.27056 0.39853
# Poissons Ratio (y) = 0.25421 0.26906
# Poissons Ratio (z) = 0.26741 0.19214
#
# Static dielectric constant tensor:
#      x y z
#    x 3.509830 0.000000 -0.031940 
#    y 0.000000 3.291380 -0.000020 
#    z -0.031940 -0.000020 3.798820 
# 
# 
# High freq. dielectric constant tensor:
#      x y z
#    x 1.760560 0.000000 -0.002060 
#    y 0.000000 1.734540 0.000000 
#    z -0.002060 0.000000 1.784260 
# 
# From -- ./inp_files/174476.got.cif
#   From: 2010.06.25/outbox.cif.g09.slc.cpg/sg12_88_cif.got.tgz:174476.got - 2010.06.28 00:19:55.
