data_PCOD8094753
_publ_section_title
;
Structure prediction by ZEFSAII (Michael W. Deem and Ramdas Pophale) SiO2 
 PCOD8094753
Probable space group: C 2/M
;
_chemical_formula_sum "Si O2"
_cell_formula_units_Z 52
_cell_length_a 9.140230
_cell_length_b 32.922615
_cell_length_c 15.066127
_cell_angle_alpha 90.000000
_cell_angle_beta 34.713535
_cell_angle_gamma 90.000000
_cell_volume 2581.824757
_symmetry_space_group_name_H-M "C 2/M"
_symmetry_group_IT_number 12
_symmetry_cell_setting 'monoclinic'
loop_
_space_group_symop_operation_xyz
x,y,z
-x,y,-z
-x,-y,-z
x,-y,z
1/2+x,1/2+y,z
1/2-x,1/2+y,-z
1/2-x,1/2-y,-z
1/2+x,1/2-y,z
loop_
_atom_site_type_symbol
_atom_site_label
_atom_site_fract_x
_atom_site_fract_y
_atom_site_fract_z
Si Si1 0.809491 0.412374 0.746901
Si Si2 0.781262 0.500000 0.034677
Si Si3 0.269889 0.086417 0.969365
Si Si4 0.500000 0.862994 0.000000
Si Si5 0.418716 0.835512 0.444162
Si Si6 0.198538 0.500000 0.322962
Si Si7 0.565816 0.699813 0.241402
Si Si8 0.823169 0.780251 0.172632
O O1 0.521715 0.401243 0.856262
O O2 0.860657 0.459943 0.705587
O O3 0.026207 0.384019 0.591918
O O4 0.826882 0.401700 0.840997
O O5 0.813351 0.538473 0.955663
O O6 0.488273 0.500000 0.218892
O O7 0.000000 0.500000 0.000000
O O8 0.481235 0.108674 0.923250
O O9 0.247747 0.836767 0.126828
O O10 0.500000 0.820324 0.500000
O O11 0.586639 0.811913 0.286835
O O12 0.125742 0.820039 0.589374
O O13 0.000000 0.500000 0.500000
O O14 0.718388 0.734772 0.216403
O O15 0.463460 0.716739 0.197966
O O16 0.000000 0.791242 0.000000
#
# Coordination Sequence:
#
# PCOD8094753 Si02
#       8
#     8   4   8   4   8   4   8   8
#     4  10  21  39  65  95 125 163 214 264 305 374
#     4  10  19  39  61  93 124 171 206 265 313 377
#     4  10  21  37  64  92 125 163 216 256 313 375
#     4  12  24  39  60  90 126 168 206 259 324 384
#     4  10  22  39  62  91 127 160 205 261 320 368
#     4  10  21  37  67  96 127 171 218 263 317 380
#     4  11  25  42  62  90 125 161 211 261 320 386
#     4  11  23  41  66  89 118 162 208 261 317 382
#
# _framework density 20.140792999999999
#
# number of rings (size 3 to 8) (size 9 to 14) (size 15 to 20)
#    0.000    1.538    1.538    3.692    4.308    3.077 
#    0.000    2.308    0.000    0.923    0.000    0.000 
#    0.000    0.000    0.000    0.000    0.000    0.000 
#
# Total GULP energy -322248.834480 kJ/mol
# GULP energy per Si atom -12394.185942 kJ/mol
# Density = 2.009495 g / cm^3
# Si number density = 20.140793 Si / 1000 Ang^3
#
#
#
# Elastic Constant Matrix: (Units=GPa)
#
#
# Indices 1 2 3 4 5 6 
#
# 1 99.9094 43.7582 30.1851 0.0000 1.0390 0.0000
# 2 43.7582 124.7724 51.4237 0.0000 1.6489 0.0000
# 3 30.1851 51.4237 126.1702 0.0000 0.7060 0.0000
# 4 0.0000 0.0000 0.0000 18.4050 0.0000 -9.2674
# 5 1.0390 1.6489 0.7060 0.0000 16.3224 0.0000
# 6 0.0000 0.0000 0.0000 -9.2674 0.0000 70.6179
#
#
#
# Elastic Compliance Matrix: (Units=1/GPa)
#
#
# Indices 1 2 3 4 5 6 
#
# 1 0.012027 -0.003640 -0.001392 0.000000 -0.000338 0.000000
# 2 -0.003640 0.010745 -0.003505 0.000000 -0.000702 0.000000
# 3 -0.001392 -0.003505 0.009687 0.000000 0.000024 0.000000
# 4 0.000000 0.000000 0.000000 0.058177 0.000000 0.007635
# 5 -0.000338 -0.000702 0.000024 0.000000 0.061357 0.000000
# 6 0.000000 0.000000 0.000000 0.007635 0.000000 0.015163
#
#
# Mechanical properties :
#
#
# Convention : Reuss Voigt Hill
#
# Bulk Modulus (GPa) = 64.99303 66.84289 65.91796
# Shear Modulus (GPa) = 26.40502 36.10138 31.25320
#
# Velocity S-wave (km/s) = 3.62473 4.23833 3.94348
# Velocity P-wave (km/s) = 7.06099 7.56380 7.31672
#
# Compressibility (1/GPa) = 0.01538627
#
# Stress axis : x y z
#
# Youngs Moduli (GPa) = 83.14402 93.06871 103.23039
#
# Poissons Ratio (x) = 0.33876 0.14370
# Poissons Ratio (y) = 0.30263 0.36178
# Poissons Ratio (z) = 0.11574 0.32616
#
# Static dielectric constant tensor:
#      x y z
#    x 3.643440 0.000000 -0.209000 
#    y 0.000000 3.903040 0.000000 
#    z -0.209000 0.000000 3.991330 
# 
# 
# High freq. dielectric constant tensor:
#      x y z
#    x 1.771780 0.000000 0.000620 
#    y 0.000000 1.805400 0.000000 
#    z 0.000620 0.000000 1.784060 
# 
# From -- ./inp_files/201217.got.cif
#   From: 2010.06.25/outbox.cif.g09.slc.cpg/sg12_101_cif.got.tgz:201217.got - 2010.06.28 00:19:55.
