data_PCOD8094435
_publ_section_title
;
Structure prediction by ZEFSAII (Michael W. Deem and Ramdas Pophale) SiO2 
 PCOD8094435
Probable space group: C 2/M
;
_chemical_formula_sum "Si O2"
_cell_formula_units_Z 48
_cell_length_a 24.201339
_cell_length_b 11.993324
_cell_length_c 9.663504
_cell_angle_alpha 90.000000
_cell_angle_beta 120.193780
_cell_angle_gamma 90.000000
_cell_volume 2424.336388
_symmetry_space_group_name_H-M "C 2/M"
_symmetry_group_IT_number 12
_symmetry_cell_setting 'monoclinic'
loop_
_space_group_symop_operation_xyz
x,y,z
-x,y,-z
-x,-y,-z
x,-y,z
1/2+x,1/2+y,z
1/2-x,1/2+y,-z
1/2-x,1/2-y,-z
1/2+x,1/2-y,z
loop_
_atom_site_type_symbol
_atom_site_label
_atom_site_fract_x
_atom_site_fract_y
_atom_site_fract_z
Si Si1 0.505417 0.872211 0.162825
Si Si2 0.152495 0.626308 0.397694
Si Si3 0.337747 0.699746 0.368479
Si Si4 0.699072 0.128370 0.154801
Si Si5 0.940705 0.000000 0.230469
Si Si6 0.918577 0.000000 0.528270
Si Si7 0.604831 0.737891 0.847254
O O1 0.576556 0.859338 0.307863
O O2 0.460352 0.804506 0.209246
O O3 0.482229 0.000000 0.133533
O O4 0.500000 0.824647 0.000000
O O5 0.173161 0.500000 0.453970
O O6 0.183157 0.700845 0.556463
O O7 0.179554 0.664188 0.284327
O O8 0.274528 0.642233 0.226690
O O9 0.377432 0.610372 0.509810
O O10 0.379893 0.747535 0.295943
O O11 0.679299 0.000000 0.100862
O O12 0.662986 0.210477 0.005799
O O13 0.906797 0.891034 0.123167
O O14 0.932418 0.000000 0.383558
O O15 0.017200 0.000000 0.297995
#
# Coordination Sequence:
#
# PCOD8094435 Si02
#       7
#     8   8   8   8   4   4   8
#     4  10  19  37  63  88 116 156 199 245 302 368
#     4  10  22  38  61  89 120 155 199 250 308 361
#     4  11  22  39  60  90 120 158 208 253 296 359
#     4  11  22  41  63  85 120 169 207 241 303 374
#     4   9  20  36  58  89 124 153 199 254 304 354
#     4   9  18  38  61  82 119 167 198 240 304 362
#     4  11  22  38  62  91 120 159 203 252 307 357
#
# _framework density 19.799233000000001
#
# number of rings (size 3 to 8) (size 9 to 14) (size 15 to 20)
#    0.000    1.667    2.500    2.500    0.000    3.333 
#    1.500    2.917    0.000    0.000    0.000    0.000 
#    0.000    0.000    0.000    0.000    0.000    0.000 
#
# Total GULP energy -297687.329675 kJ/mol
# GULP energy per Si atom -12403.638736 kJ/mol
# Density = 1.975417 g / cm^3
# Si number density = 19.799233 Si / 1000 Ang^3
#
#
#
# Elastic Constant Matrix: (Units=GPa)
#
#
# Indices 1 2 3 4 5 6 
#
# 1 73.5181 22.0146 16.7909 0.0000 -5.3316 0.0000
# 2 22.0146 107.4206 51.3018 0.0000 -4.8637 0.0000
# 3 16.7909 51.3018 67.5871 0.0000 -1.2163 0.0000
# 4 0.0000 0.0000 0.0000 34.1174 0.0000 10.3196
# 5 -5.3316 -4.8637 -1.2163 0.0000 35.5529 0.0000
# 6 0.0000 0.0000 0.0000 10.3196 0.0000 24.5673
#
#
#
# Elastic Compliance Matrix: (Units=1/GPa)
#
#
# Indices 1 2 3 4 5 6 
#
# 1 0.014811 -0.001896 -0.002206 0.000000 0.001886 0.000000
# 2 -0.001896 0.014939 -0.010844 0.000000 0.001388 0.000000
# 3 -0.002206 -0.010844 0.023556 0.000000 -0.001008 0.000000
# 4 0.000000 0.000000 0.000000 0.033577 0.000000 -0.014104
# 5 0.001886 0.001388 -0.001008 0.000000 0.028565 0.000000
# 6 0.000000 0.000000 0.000000 -0.014104 0.000000 0.046629
#
#
# Mechanical properties :
#
#
# Convention : Reuss Voigt Hill
#
# Bulk Modulus (GPa) = 42.70876 47.63780 45.17328
# Shear Modulus (GPa) = 25.02825 29.40873 27.21849
#
# Velocity S-wave (km/s) = 3.55928 3.85820 3.71175
# Velocity P-wave (km/s) = 6.20556 6.63026 6.42142
#
# Compressibility (1/GPa) = 0.02341440
#
# Stress axis : x y z
#
# Youngs Moduli (GPa) = 67.51934 66.93726 42.45115
#
# Poissons Ratio (x) = 0.12693 0.09365
# Poissons Ratio (y) = 0.12803 0.46032
# Poissons Ratio (z) = 0.14896 0.72584
#
# Static dielectric constant tensor:
#      x y z
#    x 3.689180 0.000000 0.055500 
#    y 0.000000 3.735970 0.000000 
#    z 0.055500 0.000000 3.282630 
# 
# 
# High freq. dielectric constant tensor:
#      x y z
#    x 1.784880 0.000000 0.007020 
#    y 0.000000 1.777500 0.000000 
#    z 0.007020 0.000000 1.744830 
# 
# From -- ./inp_files/94937.got.cif
#   From: 2010.06.25/outbox.cif.g09.slc.cpg/sg12_48_cif.got.tgz:94937.got - 2010.06.28 00:19:55.
