data_PCOD8094058
_publ_section_title
;
Structure prediction by ZEFSAII (Michael W. Deem and Ramdas Pophale) SiO2 
 PCOD8094058
Probable space group: C 2/M
;
_chemical_formula_sum "Si O2"
_cell_formula_units_Z 64
_cell_length_a 27.234038
_cell_length_b 15.725764
_cell_length_c 12.578001
_cell_angle_alpha 90.000000
_cell_angle_beta 36.174272
_cell_angle_gamma 90.000000
_cell_volume 3179.555781
_symmetry_space_group_name_H-M "C 2/M"
_symmetry_group_IT_number 12
_symmetry_cell_setting 'monoclinic'
loop_
_space_group_symop_operation_xyz
x,y,z
-x,y,-z
-x,-y,-z
x,-y,z
1/2+x,1/2+y,z
1/2-x,1/2+y,-z
1/2-x,1/2-y,-z
1/2+x,1/2-y,z
loop_
_atom_site_type_symbol
_atom_site_label
_atom_site_fract_x
_atom_site_fract_y
_atom_site_fract_z
Si Si1 0.325486 0.096592 0.418026
Si Si2 0.806348 0.596866 0.783459
Si Si3 0.289550 0.833359 0.256287
Si Si4 0.106968 0.765078 0.601440
Si Si5 0.005396 0.090771 0.114330
Si Si6 0.972776 0.327482 0.433082
Si Si7 0.643402 0.099076 0.076801
Si Si8 0.814414 0.851796 0.183272
O O1 0.317213 0.107967 0.305842
O O2 0.386129 0.170838 0.356753
O O3 0.235975 0.104612 0.631933
O O4 0.359676 0.000000 0.378589
O O5 0.776234 0.500000 0.828743
O O6 0.899926 0.602044 0.572246
O O7 0.807237 0.631671 0.903740
O O8 0.742330 0.651604 0.824336
O O9 0.193642 0.811109 0.436090
O O10 0.339265 0.744484 0.171546
O O11 0.304639 0.881673 0.119523
O O12 0.064416 0.754034 0.561545
O O13 0.049578 0.827810 0.766665
O O14 0.974073 0.000000 0.219352
O O15 0.100323 0.100105 0.987884
O O16 0.000000 0.080576 0.000000
O O17 0.000000 0.293835 0.500000
O O18 0.051130 0.362265 0.229965
O O19 0.631042 0.000000 0.113639
#
# Coordination Sequence:
#
# PCOD8094058 Si02
#       8
#     8   8   8   8   8   8   8   8
#     4  11  22  38  66  93 122 160 201 253 312 372
#     4  10  19  36  62  90 116 153 207 259 307 358
#     4  11  22  39  58  88 126 164 198 244 307 378
#     4  11  23  40  60  91 125 163 206 250 306 371
#     4  11  23  39  61  89 119 159 209 260 305 352
#     4  10  20  38  61  90 121 157 198 255 311 361
#     4  10  22  37  59  88 122 160 201 253 308 369
#     4  11  21  38  63  88 116 157 211 262 299 353
#
# _framework density 20.128598
#
# number of rings (size 3 to 8) (size 9 to 14) (size 15 to 20)
#    0.000    1.375    2.500    5.625    0.000    4.500 
#    2.250    0.000    0.000    4.500    0.000    0.000 
#    0.000    0.000    0.000    0.000    0.000    0.000 
#
# Total GULP energy -396657.596424 kJ/mol
# GULP energy per Si atom -12395.549888 kJ/mol
# Density = 2.008278 g / cm^3
# Si number density = 20.128598 Si / 1000 Ang^3
#
#
#
# Elastic Constant Matrix: (Units=GPa)
#
#
# Indices 1 2 3 4 5 6 
#
# 1 108.2595 30.2282 45.6629 0.0000 3.3452 0.0000
# 2 30.2282 108.3831 38.3331 0.0000 -3.7044 0.0000
# 3 45.6629 38.3331 82.9759 0.0000 10.0445 0.0000
# 4 0.0000 0.0000 0.0000 23.6576 0.0000 3.6079
# 5 3.3452 -3.7044 10.0445 0.0000 31.9634 0.0000
# 6 0.0000 0.0000 0.0000 3.6079 0.0000 24.9611
#
#
#
# Elastic Compliance Matrix: (Units=1/GPa)
#
#
# Indices 1 2 3 4 5 6 
#
# 1 0.012173 -0.001176 -0.006222 0.000000 0.000545 0.000000
# 2 -0.001176 0.011425 -0.004996 0.000000 0.003017 0.000000
# 3 -0.006222 -0.004996 0.018478 0.000000 -0.005734 0.000000
# 4 0.000000 0.000000 0.000000 0.043222 0.000000 -0.006247
# 5 0.000545 0.003017 -0.005734 0.000000 0.033380 0.000000
# 6 0.000000 0.000000 0.000000 -0.006247 0.000000 0.040965
#
#
# Mechanical properties :
#
#
# Convention : Reuss Voigt Hill
#
# Bulk Modulus (GPa) = 57.84327 58.67409 58.25868
# Shear Modulus (GPa) = 26.28907 28.47605 27.38256
#
# Velocity S-wave (km/s) = 3.61786 3.76534 3.69234
# Velocity P-wave (km/s) = 6.80082 6.93661 6.86905
#
# Compressibility (1/GPa) = 0.01728810
#
# Stress axis : x y z
#
# Youngs Moduli (GPa) = 82.15063 87.53024 54.11915
#
# Poissons Ratio (x) = 0.10293 0.33671
# Poissons Ratio (y) = 0.09660 0.27038
# Poissons Ratio (z) = 0.51111 0.43730
#
# Static dielectric constant tensor:
#      x y z
#    x 3.864790 0.000000 0.095100 
#    y 0.000000 3.867180 0.000000 
#    z 0.095100 0.000000 3.589310 
# 
# 
# High freq. dielectric constant tensor:
#      x y z
#    x 1.795080 0.000000 0.004960 
#    y 0.000000 1.783800 0.000000 
#    z 0.004960 0.000000 1.769050 
# 
# From -- ./inp_files/183797.got.cif
#   From: 2010.06.25/outbox.cif.g09.slc.cpg/sg12_92_cif.got.tgz:183797.got - 2010.06.28 00:19:55.
