data_PCOD8094626
_publ_section_title
;
Structure prediction by ZEFSAII (Michael W. Deem and Ramdas Pophale) SiO2 
 PCOD8094626
Probable space group: C 2/M
;
_chemical_formula_sum "Si O2"
_cell_formula_units_Z 64
_cell_length_a 19.133064
_cell_length_b 9.027280
_cell_length_c 30.547705
_cell_angle_alpha 90.000000
_cell_angle_beta 38.649383
_cell_angle_gamma 90.000000
_cell_volume 3295.257008
_symmetry_space_group_name_H-M "C 2/M"
_symmetry_group_IT_number 12
_symmetry_cell_setting 'monoclinic'
loop_
_space_group_symop_operation_xyz
x,y,z
-x,y,-z
-x,-y,-z
x,-y,z
1/2+x,1/2+y,z
1/2-x,1/2+y,-z
1/2-x,1/2-y,-z
1/2+x,1/2-y,z
loop_
_atom_site_type_symbol
_atom_site_label
_atom_site_fract_x
_atom_site_fract_y
_atom_site_fract_z
Si Si1 0.041190 0.674553 0.431630
Si Si2 0.283165 0.675769 0.938470
Si Si3 0.874254 0.323238 0.063235
Si Si4 0.514504 0.331946 0.304873
Si Si5 0.744841 0.826083 0.793638
Si Si6 0.226222 0.326222 0.705903
Si Si7 0.131140 0.325835 0.559611
Si Si8 0.988489 0.832648 0.216859
O O1 0.060121 0.500000 0.419154
O O2 0.948527 0.727220 0.441517
O O3 0.000000 0.721374 0.500000
O O4 0.159899 0.750299 0.365027
O O5 0.274773 0.500000 0.947294
O O6 0.197341 0.733124 0.943217
O O7 0.409858 0.723131 0.863672
O O8 0.250000 0.750000 0.000000
O O9 0.873592 0.500000 0.064426
O O10 0.824152 0.254603 0.132683
O O11 0.000000 0.261261 0.000000
O O12 0.487534 0.500000 0.333259
O O13 0.628344 0.268580 0.269929
O O14 0.419088 0.223539 0.369217
O O15 0.532504 0.325823 0.244476
O O16 0.692646 0.785990 0.772322
O O17 0.748667 0.000000 0.800356
O O18 0.242416 0.500000 0.691195
O O19 0.120156 0.270464 0.730762
O O20 0.148165 0.500000 0.549925
O O21 0.250000 0.250000 0.500000
O O22 0.954169 0.000000 0.220831
#
# Coordination Sequence:
#
# PCOD8094626 Si02
#       8
#     8   8   8   8   8   8   8   8
#     4  10  23  43  62  82 115 159 197 227 277 352
#     4  10  21  37  57  83 116 154 192 237 290 345
#     4   9  17  31  55  84 111 146 193 237 277 332
#     4  10  19  38  63  82 110 152 198 242 285 340
#     4   9  17  33  56  83 111 143 189 239 286 332
#     4  11  23  37  60  91 118 145 187 249 298 332
#     4  11  24  40  61  89 119 152 193 239 287 341
#     4  10  22  39  59  82 116 160 197 231 286 360
#
# _framework density 19.421855000000001
#
# number of rings (size 3 to 8) (size 9 to 14) (size 15 to 20)
#    0.000    2.000    2.500    0.750    3.500    1.750 
#    0.000    0.000    0.000    1.875    0.000    0.000 
#    0.000    0.000    0.000    0.000    0.000    0.000 
#
# Total GULP energy -396751.585196 kJ/mol
# GULP energy per Si atom -12398.487037 kJ/mol
# Density = 1.937765 g / cm^3
# Si number density = 19.421855 Si / 1000 Ang^3
#
#
#
# Elastic Constant Matrix: (Units=GPa)
#
#
# Indices 1 2 3 4 5 6 
#
# 1 84.2410 29.9131 45.5450 0.0036 -10.9177 0.0029
# 2 29.9131 42.3372 39.4407 0.0031 -2.8906 0.0069
# 3 45.5450 39.4407 142.6410 0.0004 -2.9348 -0.0005
# 4 0.0036 0.0031 0.0004 29.0000 0.0001 2.6718
# 5 -10.9177 -2.8906 -2.9348 0.0001 36.0911 -0.0015
# 6 0.0029 0.0069 -0.0005 2.6718 -0.0015 25.0899
#
#
#
# Elastic Compliance Matrix: (Units=1/GPa)
#
#
# Indices 1 2 3 4 5 6 
#
# 1 0.017247 -0.009223 -0.002870 -0.000001 0.004245 0.000001
# 2 -0.009223 0.036869 -0.007258 -0.000002 -0.000427 -0.000009
# 3 -0.002870 -0.007258 0.009921 0.000001 -0.000643 0.000002
# 4 -0.000001 -0.000002 0.000001 0.034824 -0.000001 -0.003708
# 5 0.004245 -0.000427 -0.000643 -0.000001 0.028905 0.000001
# 6 0.000001 -0.000009 0.000002 -0.003708 0.000001 0.040252
#
#
# Mechanical properties :
#
#
# Convention : Reuss Voigt Hill
#
# Bulk Modulus (GPa) = 39.47070 55.44631 47.45851
# Shear Modulus (GPa) = 23.23802 28.32422 25.78112
#
# Velocity S-wave (km/s) = 3.46278 3.82300 3.64734
# Velocity P-wave (km/s) = 6.02949 6.93524 6.49816
#
# Compressibility (1/GPa) = 0.02533525
#
# Stress axis : x y z
#
# Youngs Moduli (GPa) = 57.98020 27.12318 100.80082
#
# Poissons Ratio (x) = 0.25015 0.28925
# Poissons Ratio (y) = 0.53475 0.73164
# Poissons Ratio (z) = 0.16637 0.19687
#
# Static dielectric constant tensor:
#      x y z
#    x 3.677670 -0.000010 0.051650 
#    y -0.000010 3.229630 -0.000010 
#    z 0.051650 -0.000010 3.697030 
# 
# 
# High freq. dielectric constant tensor:
#      x y z
#    x 1.764750 0.000000 0.000390 
#    y 0.000000 1.722530 0.000000 
#    z 0.000390 0.000000 1.771630 
# 
# From -- ./inp_files/378157.got.cif
#   From: 2010.06.25/outbox.cif.g09.slc.cpg/sg12_190_cif.got.tgz:378157.got - 2010.06.28 00:19:55.
