data_PCOD8094549
_publ_section_title
;
Structure prediction by ZEFSAII (Michael W. Deem and Ramdas Pophale) SiO2 
 PCOD8094549
Probable space group: C 2/M
;
_chemical_formula_sum "Si O2"
_cell_formula_units_Z 52
_cell_length_a 26.139300
_cell_length_b 23.992989
_cell_length_c 9.503970
_cell_angle_alpha 90.000000
_cell_angle_beta 25.544231
_cell_angle_gamma 90.000000
_cell_volume 2570.217733
_symmetry_space_group_name_H-M "C 2/M"
_symmetry_group_IT_number 12
_symmetry_cell_setting 'monoclinic'
loop_
_space_group_symop_operation_xyz
x,y,z
-x,y,-z
-x,-y,-z
x,-y,z
1/2+x,1/2+y,z
1/2-x,1/2+y,-z
1/2-x,1/2-y,-z
1/2+x,1/2-y,z
loop_
_atom_site_type_symbol
_atom_site_label
_atom_site_fract_x
_atom_site_fract_y
_atom_site_fract_z
Si Si1 0.614181 0.500000 0.616666
Si Si2 0.374292 0.500000 0.746905
Si Si3 0.999862 0.436838 0.702068
Si Si4 0.134614 0.801583 0.690486
Si Si5 0.000000 0.603746 0.000000
Si Si6 0.752690 0.612033 0.925033
Si Si7 0.217811 0.684370 0.408153
Si Si8 0.745635 0.893674 0.768412
O O1 0.600949 0.500000 0.480938
O O2 0.685902 0.444537 0.476117
O O3 0.500000 0.500000 0.000000
O O4 0.500000 0.500000 0.500000
O O5 0.305373 0.553717 0.979234
O O6 0.023630 0.500000 0.592024
O O7 0.979255 0.436469 0.919945
O O8 0.107713 0.396041 0.402511
O O9 0.891403 0.411252 0.883278
O O10 0.146296 0.742418 0.582353
O O11 0.169183 0.804183 0.769923
O O12 0.234618 0.840500 0.375986
O O13 0.000000 0.823034 0.000000
O O14 0.878948 0.639238 0.304886
O O15 0.728263 0.662932 0.876066
O O16 0.704101 0.624117 0.202479
#
# Coordination Sequence:
#
# PCOD8094549 Si02
#       8
#     4   4   8   8   4   8   8   8
#     4  10  22  39  55  82 118 159 202 252 291 373
#     4  10  22  41  59  84 124 161 202 244 316 374
#     4  11  20  36  61  92 126 157 203 254 318 374
#     4  11  23  41  64  88 120 168 208 258 311 372
#     4  10  19  38  58  92 122 155 198 266 302 374
#     4  10  23  38  60  91 120 162 197 258 314 375
#     4  10  22  40  63  87 122 154 211 255 315 359
#     4  11  22  37  60  89 123 157 206 249 316 370
#
# _framework density 20.231749000000001
#
# number of rings (size 3 to 8) (size 9 to 14) (size 15 to 20)
#    0.000    1.538    3.846    1.154    0.000    4.923 
#    0.000    0.000    0.000    1.846    0.000    0.000 
#    0.000    0.000    0.000    0.000    0.000    0.000 
#
# Total GULP energy -322209.353748 kJ/mol
# GULP energy per Si atom -12392.667452 kJ/mol
# Density = 2.018570 g / cm^3
# Si number density = 20.231749 Si / 1000 Ang^3
#
#
#
# Elastic Constant Matrix: (Units=GPa)
#
#
# Indices 1 2 3 4 5 6 
#
# 1 91.3356 34.3179 20.9058 0.0023 -0.6685 -0.0006
# 2 34.3179 92.5186 20.6532 0.0009 9.4077 -0.0001
# 3 20.9058 20.6532 64.1971 0.0055 -3.5261 -0.0013
# 4 0.0023 0.0009 0.0055 21.9702 -0.0031 -2.4890
# 5 -0.6685 9.4077 -3.5261 -0.0031 42.2531 0.0008
# 6 -0.0006 -0.0001 -0.0013 -2.4890 0.0008 23.7794
#
#
#
# Elastic Compliance Matrix: (Units=1/GPa)
#
#
# Indices 1 2 3 4 5 6 
#
# 1 0.013253 -0.004374 -0.002857 0.000000 0.000945 0.000000
# 2 -0.004374 0.013458 -0.003088 0.000000 -0.003323 0.000000
# 3 -0.002857 -0.003088 0.017617 -0.000004 0.002112 0.000000
# 4 0.000000 0.000000 -0.000004 0.046062 0.000003 0.004821
# 5 0.000945 -0.003323 0.002112 0.000003 0.024598 0.000000
# 6 0.000000 0.000000 0.000000 0.004821 0.000000 0.042558
#
#
# Mechanical properties :
#
#
# Convention : Reuss Voigt Hill
#
# Bulk Modulus (GPa) = 42.21089 44.42278 43.31683
# Shear Modulus (GPa) = 26.87001 29.07884 27.97443
#
# Velocity S-wave (km/s) = 3.64828 3.79527 3.72250
# Velocity P-wave (km/s) = 6.21736 6.41951 6.31924
#
# Compressibility (1/GPa) = 0.02369057
#
# Stress axis : x y z
#
# Youngs Moduli (GPa) = 75.45462 74.30269 56.76422
#
# Poissons Ratio (x) = 0.32503 0.16215
# Poissons Ratio (y) = 0.33007 0.17528
# Poissons Ratio (z) = 0.21555 0.22943
#
# Static dielectric constant tensor:
#      x y z
#    x 3.775370 0.000000 0.100670 
#    y 0.000000 3.613570 0.000000 
#    z 0.100670 0.000000 3.483320 
# 
# 
# High freq. dielectric constant tensor:
#      x y z
#    x 1.796540 0.000000 0.001570 
#    y 0.000000 1.784230 0.000000 
#    z 0.001570 0.000000 1.782950 
# 
# From -- ./inp_files/106859.got.cif
#   From: 2010.06.25/outbox.cif.g09.slc.cpg/sg12_54_cif.got.tgz:106859.got - 2010.06.28 00:19:55.
