data_PCOD8094699
_publ_section_title
;
Structure prediction by ZEFSAII (Michael W. Deem and Ramdas Pophale) SiO2 
 PCOD8094699
Probable space group: C 2/M
;
_chemical_formula_sum "Si O2"
_cell_formula_units_Z 48
_cell_length_a 20.553442
_cell_length_b 17.220705
_cell_length_c 9.048963
_cell_angle_alpha 90.000000
_cell_angle_beta 132.446128
_cell_angle_gamma 90.000000
_cell_volume 2363.409679
_symmetry_space_group_name_H-M "C 2/M"
_symmetry_group_IT_number 12
_symmetry_cell_setting 'monoclinic'
loop_
_space_group_symop_operation_xyz
x,y,z
-x,y,-z
-x,-y,-z
x,-y,z
1/2+x,1/2+y,z
1/2-x,1/2+y,-z
1/2-x,1/2-y,-z
1/2+x,1/2-y,z
loop_
_atom_site_type_symbol
_atom_site_label
_atom_site_fract_x
_atom_site_fract_y
_atom_site_fract_z
Si Si1 0.267525 0.090682 0.235173
Si Si2 0.583534 0.409733 0.453205
Si Si3 0.919666 0.590762 0.984482
Si Si4 0.253681 0.092370 0.546217
Si Si5 0.604763 0.354418 0.809380
Si Si6 0.087668 0.680694 0.728326
O O1 0.269475 0.123508 0.405184
O O2 0.340275 0.134187 0.252405
O O3 0.290341 0.000000 0.266505
O O4 0.170510 0.104870 0.023220
O O5 0.565173 0.500000 0.397038
O O6 0.659981 0.377103 0.463370
O O7 0.614338 0.398038 0.668439
O O8 0.494650 0.362665 0.280792
O O9 0.912404 0.500000 0.009678
O O10 0.830888 0.622789 0.771706
O O11 0.937050 0.634754 0.162609
O O12 0.000000 0.608774 0.000000
O O13 0.254026 0.000000 0.546865
O O14 0.628437 0.264059 0.830451
O O15 0.000000 0.692925 0.500000
#
# Coordination Sequence:
#
# PCOD8094699 Si02
#       6
#     8   8   8   8   8   8
#     4  11  23  40  65  93 122 162 211 258 305 366
#     4  10  19  38  66  87 120 167 209 254 302 366
#     4  10  21  40  64  89 122 166 214 257 302 367
#     4   9  20  38  61  93 121 153 207 261 305 355
#     4  11  22  40  59  91 127 160 204 255 311 372
#     4  12  24  41  61  91 129 163 201 258 314 369
#
# _framework density 20.309640999999999
#
# number of rings (size 3 to 8) (size 9 to 14) (size 15 to 20)
#    0.000    1.500    1.667    5.000    0.000    4.667 
#    3.000    4.167    0.000    0.000    0.000    0.000 
#    0.000    0.000    0.000    0.000    0.000    0.000 
#
# Total GULP energy -297716.630652 kJ/mol
# GULP energy per Si atom -12404.859610 kJ/mol
# Density = 2.026342 g / cm^3
# Si number density = 20.309641 Si / 1000 Ang^3
#
#
#
# Elastic Constant Matrix: (Units=GPa)
#
#
# Indices 1 2 3 4 5 6 
#
# 1 101.6167 45.6684 27.7764 0.0000 -1.3193 0.0000
# 2 45.6684 68.4608 8.3513 0.0000 -2.0407 0.0000
# 3 27.7764 8.3513 62.9030 0.0000 -4.2204 0.0000
# 4 0.0000 0.0000 0.0000 22.3011 0.0000 13.4359
# 5 -1.3193 -2.0407 -4.2204 0.0000 30.1567 0.0000
# 6 0.0000 0.0000 0.0000 13.4359 0.0000 -0.5622
#
#
#
# Elastic Compliance Matrix: (Units=1/GPa)
#
#
# Indices 1 2 3 4 5 6 
#
# 1 0.015845 -0.009893 -0.005735 0.000000 -0.000779 0.000000
# 2 -0.009893 0.021041 0.001657 0.000000 0.001223 0.000000
# 3 -0.005735 0.001657 0.018373 0.000000 0.002433 0.000000
# 4 0.000000 0.000000 0.000000 0.002912 0.000000 0.069594
# 5 -0.000779 0.001223 0.002433 0.000000 0.033549 0.000000
# 6 0.000000 0.000000 0.000000 0.069594 0.000000 -0.115513
#
#
# Mechanical properties :
#
#
# Convention : Reuss Voigt Hill
#
# Bulk Modulus (GPa) = 36.60880 44.06362 40.33621
# Shear Modulus (GPa) = 377.23478 20.45811 198.84644
#
# Velocity S-wave (km/s) = 13.64350 3.17726 9.90555
# Velocity P-wave (km/s) = 16.31741 5.93321 12.27723
#
# Compressibility (1/GPa) = 0.02731584
#
# Stress axis : x y z
#
# Youngs Moduli (GPa) = 63.11258 47.52705 54.42682
#
# Poissons Ratio (x) = 0.47019 0.31216
# Poissons Ratio (y) = 0.62438 -0.09019
# Poissons Ratio (z) = 0.36198 -0.07876
#
# Static dielectric constant tensor:
#      x y z
#    x 3.854430 0.000000 0.031270 
#    y 0.000000 3.535180 0.000000 
#    z 0.031270 0.000000 3.824450 
# 
# 
# High freq. dielectric constant tensor:
#      x y z
#    x 1.806280 0.000000 0.005140 
#    y 0.000000 1.780970 0.000000 
#    z 0.005140 0.000000 1.799580 
# 
# From -- ./inp_files/88143.got.cif
#   From: 2010.06.25/outbox.cif.g09.slc.cpg/sg12_45_cif.got.tgz:88143.got - 2010.06.28 00:19:55.
