data_PCOD8094682
_publ_section_title
;
Structure prediction by ZEFSAII (Michael W. Deem and Ramdas Pophale) SiO2 
 PCOD8094682
Probable space group: C 2/M
;
_chemical_formula_sum "Si O2"
_cell_formula_units_Z 64
_cell_length_a 24.019304
_cell_length_b 17.864314
_cell_length_c 17.156967
_cell_angle_alpha 90.000000
_cell_angle_beta 26.029914
_cell_angle_gamma 90.000000
_cell_volume 3230.679134
_symmetry_space_group_name_H-M "C 2/M"
_symmetry_group_IT_number 12
_symmetry_cell_setting 'monoclinic'
loop_
_space_group_symop_operation_xyz
x,y,z
-x,y,-z
-x,-y,-z
x,-y,z
1/2+x,1/2+y,z
1/2-x,1/2+y,-z
1/2-x,1/2-y,-z
1/2+x,1/2-y,z
loop_
_atom_site_type_symbol
_atom_site_label
_atom_site_fract_x
_atom_site_fract_y
_atom_site_fract_z
Si Si1 0.876004 0.332580 0.803568
Si Si2 0.867901 0.833977 0.790005
Si Si3 0.599637 0.412821 0.561656
Si Si4 0.996779 0.586045 0.093983
Si Si5 0.714074 0.585600 0.253661
Si Si6 0.636727 0.911386 0.498351
Si Si7 0.772939 0.662244 0.464729
Si Si8 0.151033 0.582149 0.309188
O O1 0.925620 0.249237 0.722416
O O2 0.806000 0.362214 0.813094
O O3 0.992403 0.382782 0.685648
O O4 0.775169 0.334229 0.999358
O O5 0.866600 0.862222 0.702569
O O6 0.954602 0.888488 0.732439
O O7 0.605966 0.500000 0.570685
O O8 0.682982 0.390519 0.381194
O O9 0.654403 0.371376 0.567866
O O10 0.947978 0.500000 0.164218
O O11 0.904618 0.641786 0.256155
O O12 0.000000 0.609237 0.000000
O O13 0.137374 0.594953 0.951193
O O14 0.671387 0.500000 0.293443
O O15 0.724877 0.872044 0.451274
O O16 0.695720 0.891378 0.339060
O O17 0.633245 0.000000 0.516828
O O18 0.750000 0.750000 0.500000
O O19 0.207323 0.500000 0.220275
O O20 0.000000 0.578315 0.500000
#
# Coordination Sequence:
#
# PCOD8094682 Si02
#       8
#     8   8   8   8   8   8   8   8
#     4  10  21  37  55  83 118 148 191 245 297 348
#     4  11  23  35  53  83 120 160 189 232 296 366
#     4  11  23  39  56  80 119 160 194 234 295 362
#     4  10  19  38  65  89 114 153 204 251 292 339
#     4  10  21  37  60  87 114 150 200 246 288 348
#     4  10  20  37  63  87 108 144 202 254 290 338
#     4  12  24  37  59  88 123 156 190 240 305 360
#     4   8  16  32  56  82 104 133 178 239 297 334
#
# _framework density 19.810077
#
# number of rings (size 3 to 8) (size 9 to 14) (size 15 to 20)
#    0.000    1.750    1.250    4.500    0.000    9.000 
#    0.000    0.000    0.000    0.000    0.000    2.625 
#    0.000    0.000    0.000    0.000    0.000    0.000 
#
# Total GULP energy -396839.450548 kJ/mol
# GULP energy per Si atom -12401.232830 kJ/mol
# Density = 1.976499 g / cm^3
# Si number density = 19.810077 Si / 1000 Ang^3
#
#
#
# Elastic Constant Matrix: (Units=GPa)
#
#
# Indices 1 2 3 4 5 6 
#
# 1 147.7361 63.4393 9.0697 0.0003 3.4218 -0.0001
# 2 63.4393 120.2450 26.6224 0.0004 5.0190 -0.0002
# 3 9.0697 26.6224 30.2711 0.0009 -0.6459 -0.0002
# 4 0.0003 0.0004 0.0009 25.8893 -0.0003 -3.1613
# 5 3.4218 5.0190 -0.6459 -0.0003 28.2425 0.0000
# 6 -0.0001 -0.0002 -0.0002 -3.1613 0.0000 28.2729
#
#
#
# Elastic Compliance Matrix: (Units=1/GPa)
#
#
# Indices 1 2 3 4 5 6 
#
# 1 0.008830 -0.005050 0.001793 0.000000 -0.000131 0.000000
# 2 -0.005050 0.013335 -0.010257 0.000000 -0.001992 0.000000
# 3 0.001793 -0.010257 0.041573 -0.000001 0.002556 0.000000
# 4 0.000000 0.000000 -0.000001 0.039161 0.000000 0.004379
# 5 -0.000131 -0.001992 0.002556 0.000000 0.035836 0.000000
# 6 0.000000 0.000000 0.000000 0.004379 0.000000 0.035859
#
#
# Mechanical properties :
#
#
# Convention : Reuss Voigt Hill
#
# Bulk Modulus (GPa) = 27.24080 55.16836 41.20458
# Shear Modulus (GPa) = 23.37989 29.75565 26.56777
#
# Velocity S-wave (km/s) = 3.43913 3.87983 3.66611
# Velocity P-wave (km/s) = 5.43609 6.92675 6.22619
#
# Compressibility (1/GPa) = 0.03670964
#
# Stress axis : x y z
#
# Youngs Moduli (GPa) = 113.24473 74.99137 24.05421
#
# Poissons Ratio (x) = 0.37873 -0.04313
# Poissons Ratio (y) = 0.57192 0.24672
# Poissons Ratio (z) = -0.20305 0.76918
#
# Static dielectric constant tensor:
#      x y z
#    x 3.897690 0.000000 0.154230 
#    y 0.000000 3.668550 0.000000 
#    z 0.154230 0.000000 3.353650 
# 
# 
# High freq. dielectric constant tensor:
#      x y z
#    x 1.785350 0.000000 0.008210 
#    y 0.000000 1.772070 0.000000 
#    z 0.008210 0.000000 1.745260 
# 
# From -- ./inp_files/290110.got.cif
#   From: 2010.06.25/outbox.cif.g09.slc.cpg/sg12_146_cif.got.tgz:290110.got - 2010.06.28 00:19:55.
