data_PCOD8094752
_publ_section_title
;
Structure prediction by ZEFSAII (Michael W. Deem and Ramdas Pophale) SiO2 
 PCOD8094752
Probable space group: C 2/M
;
_chemical_formula_sum "Si O2"
_cell_formula_units_Z 64
_cell_length_a 14.835325
_cell_length_b 16.849520
_cell_length_c 12.396067
_cell_angle_alpha 90.000000
_cell_angle_beta 84.843141
_cell_angle_gamma 90.000000
_cell_volume 3086.079272
_symmetry_space_group_name_H-M "C 2/M"
_symmetry_group_IT_number 12
_symmetry_cell_setting 'monoclinic'
loop_
_space_group_symop_operation_xyz
x,y,z
-x,y,-z
-x,-y,-z
x,-y,z
1/2+x,1/2+y,z
1/2-x,1/2+y,-z
1/2-x,1/2-y,-z
1/2+x,1/2-y,z
loop_
_atom_site_type_symbol
_atom_site_label
_atom_site_fract_x
_atom_site_fract_y
_atom_site_fract_z
Si Si1 0.400192 0.410285 0.487569
Si Si2 0.448658 0.322450 0.864991
Si Si3 0.776779 0.203867 0.388536
Si Si4 0.334241 0.588772 0.726528
Si Si5 0.144593 0.835402 0.913717
Si Si6 0.194814 0.590369 0.230952
Si Si7 0.976026 0.359430 0.881182
Si Si8 0.335269 0.179980 0.202727
O O1 0.500000 0.376086 0.500000
O O2 0.409396 0.500000 0.444536
O O3 0.355342 0.359642 0.398832
O O4 0.333122 0.404940 0.597594
O O5 0.411893 0.349750 0.753857
O O6 0.551873 0.351086 0.857835
O O7 0.440519 0.229834 0.888541
O O8 0.379821 0.359491 0.961356
O O9 0.750000 0.250000 0.500000
O O10 0.697977 0.154666 0.330744
O O11 0.821958 0.270427 0.311882
O O12 0.359069 0.500000 0.760823
O O13 0.240090 0.611961 0.792587
O O14 0.223644 0.891061 0.860588
O O15 0.171333 0.741400 0.897868
O O16 0.205456 0.500000 0.273583
O O17 0.101035 0.591790 0.173416
O O18 0.068637 0.364524 0.802959
O O19 0.000000 0.390459 0.000000
#
# Coordination Sequence:
#
# PCOD8094752 Si02
#       8
#     8   8   8   8   8   8   8   8
#     4  10  23  40  61  91 126 161 197 251 322 385
#     4  10  19  39  61  92 119 160 209 257 304 380
#     4  11  22  42  68  93 118 164 210 268 311 372
#     4  11  24  37  58  90 126 162 200 254 315 381
#     4   9  20  38  62  87 120 162 203 258 314 364
#     4  11  26  41  61  94 132 167 207 261 319 376
#     4  11  23  42  68  90 122 171 219 265 307 365
#     4  10  21  40  62  89 117 158 216 260 303 357
#
# _framework density 20.738287
#
# number of rings (size 3 to 8) (size 9 to 14) (size 15 to 20)
#    0.000    1.625    3.750    1.875    7.000    2.750 
#    0.000    1.250    0.000    0.750    0.000    0.000 
#    0.000    0.000    0.000    0.000    0.000    0.000 
#
# Total GULP energy -396562.507575 kJ/mol
# GULP energy per Si atom -12392.578362 kJ/mol
# Density = 2.069109 g / cm^3
# Si number density = 20.738287 Si / 1000 Ang^3
#
#
#
# Elastic Constant Matrix: (Units=GPa)
#
#
# Indices 1 2 3 4 5 6 
#
# 1 106.7792 29.9468 21.5382 0.0000 -3.9173 0.0000
# 2 29.9468 62.8727 24.9682 0.0000 2.2735 0.0000
# 3 21.5382 24.9682 56.6384 0.0000 4.2107 0.0000
# 4 0.0000 0.0000 0.0000 18.6886 0.0000 7.5859
# 5 -3.9173 2.2735 4.2107 0.0000 33.7549 0.0000
# 6 0.0000 0.0000 0.0000 7.5859 0.0000 17.0917
#
#
#
# Elastic Compliance Matrix: (Units=1/GPa)
#
#
# Indices 1 2 3 4 5 6 
#
# 1 0.011166 -0.004418 -0.002439 0.000000 0.001898 0.000000
# 2 -0.004418 0.021031 -0.007517 0.000000 -0.000992 0.000000
# 3 -0.002439 -0.007517 0.022086 0.000000 -0.002532 0.000000
# 4 0.000000 0.000000 0.000000 0.065267 0.000000 -0.028968
# 5 0.001898 -0.000992 -0.002532 0.000000 0.030228 0.000000
# 6 0.000000 0.000000 0.000000 -0.028968 0.000000 0.071365
#
#
# Mechanical properties :
#
#
# Convention : Reuss Voigt Hill
#
# Bulk Modulus (GPa) = 39.16602 42.13296 40.64949
# Shear Modulus (GPa) = 19.34962 23.89618 21.62290
#
# Velocity S-wave (km/s) = 3.05788 3.39820 3.23252
# Velocity P-wave (km/s) = 5.60307 5.97977 5.79448
#
# Compressibility (1/GPa) = 0.02553234
#
# Stress axis : x y z
#
# Youngs Moduli (GPa) = 89.55814 47.54949 45.27835
#
# Poissons Ratio (x) = 0.21009 0.11046
# Poissons Ratio (y) = 0.39569 0.34037
# Poissons Ratio (z) = 0.21848 0.35744
#
# Static dielectric constant tensor:
#      x y z
#    x 3.984930 0.000000 -0.086610 
#    y 0.000000 3.669920 0.000000 
#    z -0.086610 0.000000 3.870520 
# 
# 
# High freq. dielectric constant tensor:
#      x y z
#    x 1.814500 0.000000 -0.003250 
#    y 0.000000 1.796120 0.000000 
#    z -0.003250 0.000000 1.806890 
# 
# From -- ./inp_files/146134.got.cif
#   From: 2010.06.25/outbox.cif.g09.slc.cpg/sg12_74_cif.got.tgz:146134.got - 2010.06.28 00:19:55.
