data_PCOD8094911
_publ_section_title
;
Structure prediction by ZEFSAII (Michael W. Deem and Ramdas Pophale) SiO2 
 PCOD8094911
Probable space group: C 2/M
;
_chemical_formula_sum "Si O2"
_cell_formula_units_Z 44
_cell_length_a 23.218176
_cell_length_b 9.200076
_cell_length_c 16.203940
_cell_angle_alpha 90.000000
_cell_angle_beta 134.601008
_cell_angle_gamma 90.000000
_cell_volume 2464.498091
_symmetry_space_group_name_H-M "C 2/M"
_symmetry_group_IT_number 12
_symmetry_cell_setting 'monoclinic'
loop_
_space_group_symop_operation_xyz
x,y,z
-x,y,-z
-x,-y,-z
x,-y,z
1/2+x,1/2+y,z
1/2-x,1/2+y,-z
1/2-x,1/2-y,-z
1/2+x,1/2-y,z
loop_
_atom_site_type_symbol
_atom_site_label
_atom_site_fract_x
_atom_site_fract_y
_atom_site_fract_z
Si Si1 0.815432 0.333226 0.618973
Si Si2 0.241806 0.166109 0.108892
Si Si3 0.500000 0.748067 0.000000
Si Si4 0.319437 0.841280 0.811460
Si Si5 0.123726 0.334037 0.875235
Si Si6 0.522409 0.336560 0.205932
O O1 0.820822 0.500000 0.595261
O O2 0.750000 0.250000 0.500000
O O3 0.790920 0.320725 0.689438
O O4 0.901769 0.260003 0.693878
O O5 0.228625 0.213104 0.190138
O O6 0.335895 0.176822 0.175511
O O7 0.210649 0.000000 0.065237
O O8 0.190935 0.283667 0.007448
O O9 0.582717 0.839944 0.081130
O O10 0.501273 0.657227 0.086714
O O11 0.291942 0.000000 0.815827
O O12 0.098663 0.500000 0.870267
O O13 0.048225 0.228673 0.808485
O O14 0.538402 0.500000 0.251404
#
# Coordination Sequence:
#
# PCOD8094911 Si02
#       6
#     8   8   4   8   8   8
#     4  10  22  39  57  79 105 138 178 218 266 314
#     4  10  20  32  49  75 107 142 178 214 258 310
#     4  10  20  30  48  78 110 138 174 210 258 318
#     4  10  20  33  53  77 107 140 173 215 262 315
#     4  10  20  33  49  73 108 144 177 214 257 311
#     4  11  21  33  53  79 108 140 175 218 262 312
#
# _framework density 17.853532000000001
#
# number of rings (size 3 to 8) (size 9 to 14) (size 15 to 20)
#    0.000    1.818    1.818    2.727    0.000    7.273 
#    0.000    0.000    0.000    1.091    0.000    7.636 
#    0.000    0.000    0.000    0.000    0.000    0.000 
#
# Total GULP energy -272665.228622 kJ/mol
# GULP energy per Si atom -12393.874028 kJ/mol
# Density = 1.781290 g / cm^3
# Si number density = 17.853532 Si / 1000 Ang^3
#
#
#
# Elastic Constant Matrix: (Units=GPa)
#
#
# Indices 1 2 3 4 5 6 
#
# 1 107.0761 58.2706 32.5598 0.0000 8.4517 0.0000
# 2 58.2706 136.8899 40.1548 0.0000 2.5529 0.0000
# 3 32.5598 40.1548 90.4418 0.0000 2.4851 0.0000
# 4 0.0000 0.0000 0.0000 25.1994 0.0000 3.5996
# 5 8.4517 2.5529 2.4851 0.0000 14.1727 0.0000
# 6 0.0000 0.0000 0.0000 3.5996 0.0000 24.6412
#
#
#
# Elastic Compliance Matrix: (Units=1/GPa)
#
#
# Indices 1 2 3 4 5 6 
#
# 1 0.013205 -0.004779 -0.002451 0.000000 -0.006584 0.000000
# 2 -0.004779 0.010139 -0.002823 0.000000 0.001519 0.000000
# 3 -0.002451 -0.002823 0.013202 0.000000 -0.000345 0.000000
# 4 0.000000 0.000000 0.000000 0.040529 0.000000 -0.005920
# 5 -0.006584 0.001519 -0.000345 0.000000 0.074271 0.000000
# 6 0.000000 0.000000 0.000000 -0.005920 0.000000 0.041447
#
#
# Mechanical properties :
#
#
# Convention : Reuss Voigt Hill
#
# Bulk Modulus (GPa) = 60.82748 66.26424 63.54586
# Shear Modulus (GPa) = 22.89583 26.36418 24.63000
#
# Velocity S-wave (km/s) = 3.58498 3.84694 3.71827
# Velocity P-wave (km/s) = 7.16103 7.54507 7.35556
#
# Compressibility (1/GPa) = 0.01643994
#
# Stress axis : x y z
#
# Youngs Moduli (GPa) = 75.72859 98.62638 75.74600
#
# Poissons Ratio (x) = 0.47136 0.18566
# Poissons Ratio (y) = 0.36193 0.21382
# Poissons Ratio (z) = 0.18562 0.27841
#
# Static dielectric constant tensor:
#      x y z
#    x 3.635590 0.000000 0.047900 
#    y 0.000000 3.418440 0.000000 
#    z 0.047900 0.000000 3.096990 
# 
# 
# High freq. dielectric constant tensor:
#      x y z
#    x 1.696970 0.000000 0.005460 
#    y 0.000000 1.708390 0.000000 
#    z 0.005460 0.000000 1.645330 
# 
# From -- ./inp_files/288536.got.cif
#   From: 2010.06.25/outbox.cif.g09.slc.cpg/sg12_145_cif.got.tgz:288536.got - 2010.06.28 00:19:55.
