data_PCOD8094248
_publ_section_title
;
Structure prediction by ZEFSAII (Michael W. Deem and Ramdas Pophale) SiO2 
 PCOD8094248
Probable space group: C 2/M
;
_chemical_formula_sum "Si O2"
_cell_formula_units_Z 56
_cell_length_a 25.159888
_cell_length_b 8.581937
_cell_length_c 14.976908
_cell_angle_alpha 90.000000
_cell_angle_beta 105.758780
_cell_angle_gamma 90.000000
_cell_volume 3112.274916
_symmetry_space_group_name_H-M "C 2/M"
_symmetry_group_IT_number 12
_symmetry_cell_setting 'monoclinic'
loop_
_space_group_symop_operation_xyz
x,y,z
-x,y,-z
-x,-y,-z
x,-y,z
1/2+x,1/2+y,z
1/2-x,1/2+y,-z
1/2-x,1/2-y,-z
1/2+x,1/2-y,z
loop_
_atom_site_type_symbol
_atom_site_label
_atom_site_fract_x
_atom_site_fract_y
_atom_site_fract_z
Si Si1 0.995079 0.816242 0.601576
Si Si2 0.125637 0.816401 0.409690
Si Si3 0.603141 0.818502 0.730062
Si Si4 0.796650 0.182386 0.711456
Si Si5 0.707263 0.819116 0.104686
Si Si6 0.826948 0.818764 0.088699
Si Si7 0.319941 0.317085 0.384738
O O1 0.936506 0.751278 0.610763
O O2 0.000000 0.772919 0.500000
O O3 0.040858 0.727365 0.679257
O O4 0.002790 0.000000 0.619286
O O5 0.153179 0.763380 0.329488
O O6 0.163248 0.758295 0.509160
O O7 0.121513 0.000000 0.414004
O O8 0.621049 0.727955 0.827636
O O9 0.643079 0.776133 0.667539
O O10 0.607427 0.000000 0.751857
O O11 0.813838 0.220342 0.820481
O O12 0.743852 0.282012 0.659371
O O13 0.783896 0.000000 0.694068
O O14 0.771043 0.774591 0.116044
O O15 0.700388 0.000000 0.123277
O O16 0.670135 0.774877 0.002712
O O17 0.828333 0.000000 0.066257
O O18 0.331135 0.500000 0.375530
#
# Coordination Sequence:
#
# PCOD8094248 Si02
#       7
#     8   8   8   8   8   8   8
#     4  10  19  37  60  77 103 146 190 229 269 317
#     4   9  20  36  55  78 107 147 190 226 266 321
#     4  12  23  34  53  83 115 142 177 228 278 321
#     4  11  21  34  53  81 114 146 181 223 271 323
#     4  10  20  34  54  80 111 143 178 218 268 326
#     4  10  20  35  56  80 108 142 179 220 271 326
#     4  11  20  35  54  77 109 149 188 221 267 323
#
# _framework density 17.993269000000002
#
# number of rings (size 3 to 8) (size 9 to 14) (size 15 to 20)
#    0.000    1.571    2.857    3.429    0.000    1.429 
#    0.000    3.571    0.000    0.857    0.000    6.000 
#    0.000    0.000    0.000    0.000    0.000    0.000 
#
# Total GULP energy -347307.457515 kJ/mol
# GULP energy per Si atom -12403.837768 kJ/mol
# Density = 1.795232 g / cm^3
# Si number density = 17.993269 Si / 1000 Ang^3
#
#
#
# Elastic Constant Matrix: (Units=GPa)
#
#
# Indices 1 2 3 4 5 6 
#
# 1 103.8056 12.0609 51.3925 0.0000 -6.9143 0.0000
# 2 12.0609 38.8570 18.1975 0.0000 -2.1341 0.0000
# 3 51.3925 18.1975 122.0378 0.0000 -0.1858 0.0000
# 4 0.0000 0.0000 0.0000 28.2267 0.0000 4.1206
# 5 -6.9143 -2.1341 -0.1858 0.0000 22.8392 0.0000
# 6 0.0000 0.0000 0.0000 4.1206 0.0000 22.5200
#
#
#
# Elastic Compliance Matrix: (Units=1/GPa)
#
#
# Indices 1 2 3 4 5 6 
#
# 1 0.012544 -0.001314 -0.005081 0.000000 0.003633 0.000000
# 2 -0.001314 0.027955 -0.003612 0.000000 0.002185 0.000000
# 3 -0.005081 -0.003612 0.010870 0.000000 -0.001787 0.000000
# 4 0.000000 0.000000 0.000000 0.036400 0.000000 -0.006660
# 5 0.003633 0.002185 -0.001787 0.000000 0.045074 0.000000
# 6 0.000000 0.000000 0.000000 -0.006660 0.000000 0.045624
#
#
# Mechanical properties :
#
#
# Convention : Reuss Voigt Hill
#
# Bulk Modulus (GPa) = 31.89352 47.55580 39.72466
# Shear Modulus (GPa) = 23.93145 26.92050 25.42597
#
# Velocity S-wave (km/s) = 3.65090 3.87220 3.76318
# Velocity P-wave (km/s) = 5.96120 6.81755 6.40371
#
# Compressibility (1/GPa) = 0.03135433
#
# Stress axis : x y z
#
# Youngs Moduli (GPa) = 79.72236 35.77206 91.99957
#
# Poissons Ratio (x) = 0.04702 0.46743
# Poissons Ratio (y) = 0.10479 0.33226
# Poissons Ratio (z) = 0.40505 0.12919
#
# Static dielectric constant tensor:
#      x y z
#    x 3.408730 0.000000 0.001960 
#    y 0.000000 3.242880 0.000000 
#    z 0.001960 0.000000 3.439650 
# 
# 
# High freq. dielectric constant tensor:
#      x y z
#    x 1.674750 0.000000 0.001910 
#    y 0.000000 1.693760 0.000000 
#    z 0.001910 0.000000 1.703180 
# 
# From -- ./inp_files/237455.got.cif
#   From: 2010.06.25/outbox.cif.g09.slc.cpg/sg12_119_cif.got.tgz:237455.got - 2010.06.28 00:19:55.
