data_PCOD8094693
_publ_section_title
;
Structure prediction by ZEFSAII (Michael W. Deem and Ramdas Pophale) SiO2 
 PCOD8094693
Probable space group: C 2/M
;
_chemical_formula_sum "Si O2"
_cell_formula_units_Z 48
_cell_length_a 8.885997
_cell_length_b 28.262358
_cell_length_c 13.075767
_cell_angle_alpha 90.000000
_cell_angle_beta 44.717470
_cell_angle_gamma 90.000000
_cell_volume 2310.545875
_symmetry_space_group_name_H-M "C 2/M"
_symmetry_group_IT_number 12
_symmetry_cell_setting 'monoclinic'
loop_
_space_group_symop_operation_xyz
x,y,z
-x,y,-z
-x,-y,-z
x,-y,z
1/2+x,1/2+y,z
1/2-x,1/2+y,-z
1/2-x,1/2-y,-z
1/2+x,1/2-y,z
loop_
_atom_site_type_symbol
_atom_site_label
_atom_site_fract_x
_atom_site_fract_y
_atom_site_fract_z
Si Si1 0.696762 0.108285 0.977232
Si Si2 0.953458 0.552962 0.244775
Si Si3 0.238988 0.792021 0.424421
Si Si4 0.048365 0.054968 0.301361
Si Si5 0.912779 0.292564 0.927464
Si Si6 0.135010 0.611472 0.536570
O O1 0.902746 0.091241 0.815146
O O2 0.500000 0.119869 0.000000
O O3 0.636568 0.062745 0.073635
O O4 0.722743 0.158359 0.024669
O O5 0.974814 0.500000 0.275515
O O6 0.718230 0.562203 0.310526
O O7 0.014479 0.590425 0.302902
O O8 0.250000 0.750000 0.500000
O O9 0.403153 0.787580 0.249210
O O10 0.277744 0.838083 0.473640
O O11 0.000000 0.794974 0.500000
O O12 0.815555 0.070742 0.448122
O O13 0.047547 0.000000 0.267417
O O14 0.750000 0.250000 0.000000
O O15 0.000000 0.290141 0.000000
O O16 0.000000 0.616600 0.500000
#
# Coordination Sequence:
#
# PCOD8094693 Si02
#       6
#     8   8   8   8   8   8
#     4   9  19  37  64  95 126 161 213 268 332 387
#     4  10  19  38  65  93 125 166 216 272 324 388
#     4  12  26  46  73 101 133 172 220 273 332 399
#     4  10  21  38  65  96 126 170 220 273 329 391
#     4  11  24  43  69 100 132 170 214 271 334 395
#     4  12  26  41  61  92 133 175 220 265 326 388
#
# _framework density 20.774312999999999
#
# number of rings (size 3 to 8) (size 9 to 14) (size 15 to 20)
#    0.000    1.333    1.667    4.000    7.000    4.667 
#    0.000    0.833    0.000    2.000    0.000    0.000 
#    0.000    0.000    0.000    0.000    0.000    0.000 
#
# Total GULP energy -297396.353196 kJ/mol
# GULP energy per Si atom -12391.514717 kJ/mol
# Density = 2.072703 g / cm^3
# Si number density = 20.774313 Si / 1000 Ang^3
#
#
#
# Elastic Constant Matrix: (Units=GPa)
#
#
# Indices 1 2 3 4 5 6 
#
# 1 103.8262 62.5011 35.3711 0.0000 15.9074 0.0000
# 2 62.5011 174.3084 49.5751 0.0000 12.6626 0.0000
# 3 35.3711 49.5751 94.7536 0.0000 15.9982 0.0000
# 4 0.0000 0.0000 0.0000 29.7833 0.0000 10.8428
# 5 15.9074 12.6626 15.9982 0.0000 21.1695 0.0000
# 6 0.0000 0.0000 0.0000 10.8428 0.0000 30.8661
#
#
#
# Elastic Compliance Matrix: (Units=1/GPa)
#
#
# Indices 1 2 3 4 5 6 
#
# 1 0.013608 -0.003849 -0.001981 0.000000 -0.006426 0.000000
# 2 -0.003849 0.007874 -0.002724 0.000000 0.000241 0.000000
# 3 -0.001981 -0.002724 0.013975 0.000000 -0.007443 0.000000
# 4 0.000000 0.000000 0.000000 0.038499 0.000000 -0.013524
# 5 -0.006426 0.000241 -0.007443 0.000000 0.057548 0.000000
# 6 0.000000 0.000000 0.000000 -0.013524 0.000000 0.037149
#
#
# Mechanical properties :
#
#
# Convention : Reuss Voigt Hill
#
# Bulk Modulus (GPa) = 54.49656 74.19809 64.34733
# Shear Modulus (GPa) = 26.05838 31.39318 28.72578
#
# Velocity S-wave (km/s) = 3.54553 3.89157 3.72258
# Velocity P-wave (km/s) = 6.56130 7.48240 7.03694
#
# Compressibility (1/GPa) = 0.01834978
#
# Stress axis : x y z
#
# Youngs Moduli (GPa) = 73.48634 126.99604 71.55688
#
# Poissons Ratio (x) = 0.48882 0.14175
# Poissons Ratio (y) = 0.28286 0.19489
# Poissons Ratio (z) = 0.14557 0.34588
#
# Static dielectric constant tensor:
#      x y z
#    x 2.742870 0.000000 -0.424780 
#    y 0.000000 4.059070 0.000000 
#    z -0.424780 0.000000 3.350010 
# 
# 
# High freq. dielectric constant tensor:
#      x y z
#    x 1.783210 0.000000 0.021070 
#    y 0.000000 1.838490 0.000000 
#    z 0.021070 0.000000 1.823820 
# 
# From -- ./inp_files/200113.got.cif
#   From: 2010.06.25/outbox.cif.g09.slc.cpg/sg12_101_cif.got.tgz:200113.got - 2010.06.28 00:19:55.
