data_PCOD8094145
_publ_section_title
;
Structure prediction by ZEFSAII (Michael W. Deem and Ramdas Pophale) SiO2 
 PCOD8094145
Probable space group: C 2/M
;
_chemical_formula_sum "Si O2"
_cell_formula_units_Z 48
_cell_length_a 12.310755
_cell_length_b 15.630667
_cell_length_c 11.697262
_cell_angle_alpha 90.000000
_cell_angle_beta 68.493745
_cell_angle_gamma 90.000000
_cell_volume 2094.139650
_symmetry_space_group_name_H-M "C 2/M"
_symmetry_group_IT_number 12
_symmetry_cell_setting 'monoclinic'
loop_
_space_group_symop_operation_xyz
x,y,z
-x,y,-z
-x,-y,-z
x,-y,z
1/2+x,1/2+y,z
1/2-x,1/2+y,-z
1/2-x,1/2-y,-z
1/2+x,1/2-y,z
loop_
_atom_site_type_symbol
_atom_site_label
_atom_site_fract_x
_atom_site_fract_y
_atom_site_fract_z
Si Si1 0.451665 0.596032 0.195592
Si Si2 0.289018 0.097771 0.323878
Si Si3 0.093086 0.156168 0.550231
Si Si4 0.725822 0.898421 0.160709
Si Si5 0.999029 0.655718 0.628933
Si Si6 0.209013 0.898962 0.109839
O O1 0.471222 0.500000 0.145996
O O2 0.396458 0.597045 0.343277
O O3 0.354716 0.635881 0.148076
O O4 0.578614 0.642543 0.146922
O O5 0.217077 0.158479 0.438117
O O6 0.423078 0.101380 0.312330
O O7 0.272841 0.133743 0.200678
O O8 0.244822 0.000000 0.348642
O O9 0.049260 0.249096 0.604880
O O10 0.000000 0.113776 0.500000
O O11 0.631426 0.846200 0.270308
O O12 0.712016 0.000000 0.189615
O O13 0.712920 0.875657 0.031060
O O14 0.000000 0.616280 0.500000
O O15 0.194070 0.000000 0.124748
#
# Coordination Sequence:
#
# PCOD8094145 Si02
#       6
#     8   8   8   8   8   8
#     4  10  19  36  65  94 120 152 201 253 294 345
#     4  11  22  38  65  93 119 153 198 252 298 352
#     4  11  22  38  61  85 121 159 197 248 300 348
#     4  10  21  39  64  91 121 158 198 243 296 357
#     4  11  25  41  58  84 126 165 199 239 299 360
#     4   9  19  36  63  96 121 149 195 250 302 346
#
# _framework density 22.921109000000001
#
# number of rings (size 3 to 8) (size 9 to 14) (size 15 to 20)
#    0.000    1.667    1.667    3.000    0.000    7.333 
#    0.000    3.333    3.667    0.000    0.000    0.000 
#    0.000    0.000    0.000    0.000    0.000    0.000 
#
# Total GULP energy -297512.828727 kJ/mol
# GULP energy per Si atom -12396.367864 kJ/mol
# Density = 2.286894 g / cm^3
# Si number density = 22.921109 Si / 1000 Ang^3
#
#
#
# Elastic Constant Matrix: (Units=GPa)
#
#
# Indices 1 2 3 4 5 6 
#
# 1 142.0909 16.5584 64.0095 0.0000 11.3371 0.0000
# 2 16.5584 45.3009 19.5215 0.0000 0.9960 0.0000
# 3 64.0095 19.5215 170.2604 0.0000 9.4758 0.0000
# 4 0.0000 0.0000 0.0000 15.8510 0.0000 -3.3467
# 5 11.3371 0.9960 9.4758 0.0000 35.4435 0.0000
# 6 0.0000 0.0000 0.0000 -3.3467 0.0000 22.4229
#
#
#
# Elastic Compliance Matrix: (Units=1/GPa)
#
#
# Indices 1 2 3 4 5 6 
#
# 1 0.008748 -0.001877 -0.002965 0.000000 -0.001953 0.000000
# 2 -0.001877 0.023625 -0.002030 0.000000 0.000479 0.000000
# 3 -0.002965 -0.002030 0.007273 0.000000 -0.000939 0.000000
# 4 0.000000 0.000000 0.000000 0.065140 0.000000 0.009723
# 5 -0.001953 0.000479 -0.000939 0.000000 0.029076 0.000000
# 6 0.000000 0.000000 0.000000 0.009723 0.000000 0.046048
#
#
# Mechanical properties :
#
#
# Convention : Reuss Voigt Hill
#
# Bulk Modulus (GPa) = 38.60631 61.98122 50.29376
# Shear Modulus (GPa) = 24.71724 31.91432 28.31578
#
# Velocity S-wave (km/s) = 3.28740 3.73548 3.51858
# Velocity P-wave (km/s) = 5.59366 6.76054 6.20459
#
# Compressibility (1/GPa) = 0.02590250
#
# Stress axis : x y z
#
# Youngs Moduli (GPa) = 114.31287 42.32840 137.49475
#
# Poissons Ratio (x) = 0.07945 0.40766
# Poissons Ratio (y) = 0.21456 0.27908
# Poissons Ratio (z) = 0.33893 0.08592
#
# Static dielectric constant tensor:
#      x y z
#    x 4.371740 0.000000 0.253240 
#    y 0.000000 3.562360 0.000000 
#    z 0.253240 0.000000 4.233980 
# 
# 
# High freq. dielectric constant tensor:
#      x y z
#    x 1.911900 0.000000 0.012300 
#    y 0.000000 1.862340 0.000000 
#    z 0.012300 0.000000 1.913270 
# 
# From -- ./inp_files/131662.got.cif
#   From: 2010.06.25/outbox.cif.g09.slc.cpg/sg12_66_cif.got.tgz:131662.got - 2010.06.28 00:19:55.
