data_PCOD8094274
_publ_section_title
;
Structure prediction by ZEFSAII (Michael W. Deem and Ramdas Pophale) SiO2 
 PCOD8094274
Probable space group: C 2/M
;
_chemical_formula_sum "Si O2"
_cell_formula_units_Z 64
_cell_length_a 14.018242
_cell_length_b 27.512203
_cell_length_c 13.542900
_cell_angle_alpha 90.000000
_cell_angle_beta 138.898149
_cell_angle_gamma 90.000000
_cell_volume 3433.681598
_symmetry_space_group_name_H-M "C 2/M"
_symmetry_group_IT_number 12
_symmetry_cell_setting 'monoclinic'
loop_
_space_group_symop_operation_xyz
x,y,z
-x,y,-z
-x,-y,-z
x,-y,z
1/2+x,1/2+y,z
1/2-x,1/2+y,-z
1/2-x,1/2-y,-z
1/2+x,1/2-y,z
loop_
_atom_site_type_symbol
_atom_site_label
_atom_site_fract_x
_atom_site_fract_y
_atom_site_fract_z
Si Si1 0.183785 0.640037 0.324108
Si Si2 0.616662 0.123086 0.826288
Si Si3 0.808419 0.131760 0.624808
Si Si4 0.562745 0.946006 0.440683
Si Si5 0.347743 0.186418 0.332461
Si Si6 0.163127 0.944374 0.664133
Si Si7 0.138759 0.800052 0.674205
Si Si8 0.871454 0.120970 0.176490
O O1 0.269041 0.656581 0.489556
O O2 0.232590 0.585712 0.328568
O O3 0.218782 0.678897 0.267259
O O4 0.012170 0.644196 0.206551
O O5 0.558013 0.074461 0.728440
O O6 0.669058 0.160764 0.784886
O O7 0.753482 0.113221 0.000531
O O8 0.710076 0.084168 0.556848
O O9 0.778385 0.169990 0.690124
O O10 0.974106 0.114341 0.756509
O O11 0.500000 0.945607 0.500000
O O12 0.601692 0.000000 0.435698
O O13 0.500000 0.170919 0.500000
O O14 0.341954 0.242935 0.302393
O O15 0.163688 0.920922 0.772584
O O16 0.000000 0.941439 0.500000
O O17 0.218938 0.000000 0.712372
O O18 0.128509 0.825302 0.773572
O O19 0.000000 0.815065 0.500000
#
# Coordination Sequence:
#
# PCOD8094274 Si02
#       8
#     8   8   8   8   8   8   8   8
#     4  10  19  37  60  85 112 152 198 236 291 344
#     4  11  23  39  58  86 124 156 191 245 298 347
#     4  11  19  37  61  87 114 154 202 239 291 345
#     4  10  20  39  63  83 111 152 200 242 283 345
#     4  11  21  38  61  87 117 153 208 246 280 348
#     4  10  20  37  61  88 113 145 191 241 284 348
#     4  10  21  37  60  89 117 154 202 249 288 342
#     4  11  23  39  58  87 127 154 187 244 304 350
#
# _framework density 18.638885999999999
#
# number of rings (size 3 to 8) (size 9 to 14) (size 15 to 20)
#    0.000    1.500    6.250    0.750    0.000    7.500 
#    0.000    1.875    0.000    1.500    0.000    0.000 
#    0.000    0.000    0.000    0.000    0.000    0.000 
#
# Total GULP energy -396813.215596 kJ/mol
# GULP energy per Si atom -12400.412987 kJ/mol
# Density = 1.859646 g / cm^3
# Si number density = 18.638886 Si / 1000 Ang^3
#
#
#
# Elastic Constant Matrix: (Units=GPa)
#
#
# Indices 1 2 3 4 5 6 
#
# 1 109.6012 34.7759 44.4141 0.0000 -1.9962 0.0000
# 2 34.7759 104.4059 40.4772 0.0000 -13.9256 0.0000
# 3 44.4141 40.4772 122.3336 0.0000 5.3254 0.0000
# 4 0.0000 0.0000 0.0000 10.9039 0.0000 -7.9643
# 5 -1.9962 -13.9256 5.3254 0.0000 26.8442 0.0000
# 6 0.0000 0.0000 0.0000 -7.9643 0.0000 15.4663
#
#
#
# Elastic Compliance Matrix: (Units=1/GPa)
#
#
# Indices 1 2 3 4 5 6 
#
# 1 0.011231 -0.002440 -0.003280 0.000000 0.000220 0.000000
# 2 -0.002440 0.012760 -0.003648 0.000000 0.007162 0.000000
# 3 -0.003280 -0.003648 0.010758 0.000000 -0.004270 0.000000
# 4 0.000000 0.000000 0.000000 0.146998 0.000000 0.075696
# 5 0.000220 0.007162 -0.004270 0.000000 0.041831 0.000000
# 6 0.000000 0.000000 0.000000 0.075696 0.000000 0.103636
#
#
# Mechanical properties :
#
#
# Convention : Reuss Voigt Hill
#
# Bulk Modulus (GPa) = 62.44551 63.96388 63.20470
# Shear Modulus (GPa) = 14.23332 25.08779 19.66055
#
# Velocity S-wave (km/s) = 2.76639 3.67276 3.25131
# Velocity P-wave (km/s) = 6.61660 7.23723 6.93386
#
# Compressibility (1/GPa) = 0.01601396
#
# Stress axis : x y z
#
# Youngs Moduli (GPa) = 89.03678 78.36849 92.95362
#
# Poissons Ratio (x) = 0.19122 0.30487
# Poissons Ratio (y) = 0.21725 0.33909
# Poissons Ratio (z) = 0.29203 0.28588
#
# Static dielectric constant tensor:
#      x y z
#    x 2.939270 0.000000 0.319340 
#    y 0.000000 3.506530 0.000000 
#    z 0.319340 0.000000 2.969530 
# 
# 
# High freq. dielectric constant tensor:
#      x y z
#    x 1.740270 0.000000 -0.009080 
#    y 0.000000 1.719460 0.000000 
#    z -0.009080 0.000000 1.702790 
# 
# From -- ./inp_files/149822.got.cif
#   From: 2010.06.25/outbox.cif.g09.slc.cpg/sg12_75_cif.got.tgz:149822.got - 2010.06.28 00:19:55.
