data_PCOD8094931
_publ_section_title
;
Structure prediction by ZEFSAII (Michael W. Deem and Ramdas Pophale) SiO2 
 PCOD8094931
Probable space group: C 2/M
;
_chemical_formula_sum "Si O2"
_cell_formula_units_Z 56
_cell_length_a 9.627067
_cell_length_b 17.983371
_cell_length_c 18.997075
_cell_angle_alpha 90.000000
_cell_angle_beta 60.925206
_cell_angle_gamma 90.000000
_cell_volume 2874.460577
_symmetry_space_group_name_H-M "C 2/M"
_symmetry_group_IT_number 12
_symmetry_cell_setting 'monoclinic'
loop_
_space_group_symop_operation_xyz
x,y,z
-x,y,-z
-x,-y,-z
x,-y,z
1/2+x,1/2+y,z
1/2-x,1/2+y,-z
1/2-x,1/2-y,-z
1/2+x,1/2-y,z
loop_
_atom_site_type_symbol
_atom_site_label
_atom_site_fract_x
_atom_site_fract_y
_atom_site_fract_z
Si Si1 0.685800 0.340992 0.447978
Si Si2 0.325251 0.701462 0.783053
Si Si3 0.308915 0.085967 0.830464
Si Si4 0.813148 0.168558 0.266845
Si Si5 0.816069 0.783428 0.054593
Si Si6 0.184196 0.672235 0.442440
Si Si7 0.676240 0.085835 0.722379
O O1 0.500000 0.343729 0.500000
O O2 0.743733 0.371808 0.509167
O O3 0.749761 0.256955 0.421610
O O4 0.749208 0.392096 0.370335
O O5 0.300649 0.762645 0.727702
O O6 0.506867 0.695789 0.764239
O O7 0.215099 0.724444 0.875648
O O8 0.264169 0.624125 0.766539
O O9 0.194969 0.106403 0.792341
O O10 0.264783 0.137091 0.908125
O O11 0.489920 0.104782 0.765798
O O12 0.283859 0.000000 0.856893
O O13 0.739718 0.133363 0.356251
O O14 0.750000 0.750000 0.000000
O O15 0.000000 0.798329 0.000000
O O16 0.000000 0.670270 0.500000
O O17 0.706320 0.000000 0.727841
#
# Coordination Sequence:
#
# PCOD8094931 Si02
#       7
#     8   8   8   8   8   8   8
#     4  10  20  33  51  80 114 150 196 242 293 336
#     4  11  22  38  60  89 116 149 198 238 291 347
#     4  10  23  41  61  87 118 158 194 232 292 351
#     4  11  21  36  62  84 118 156 195 251 280 344
#     4  11  22  39  64  91 115 147 184 238 290 348
#     4  10  20  30  53  82 112 148 192 248 292 332
#     4  11  22  39  60  81 119 162 198 241 288 346
#
# _framework density 19.481915000000001
#
# number of rings (size 3 to 8) (size 9 to 14) (size 15 to 20)
#    0.000    1.429    1.429    6.000    4.000    1.143 
#    0.000    1.429    0.000    5.143    0.000    0.000 
#    0.000    0.000    0.000    0.000    0.000    0.000 
#
# Total GULP energy -347202.364106 kJ/mol
# GULP energy per Si atom -12400.084432 kJ/mol
# Density = 1.943757 g / cm^3
# Si number density = 19.481915 Si / 1000 Ang^3
#
#
#
# Elastic Constant Matrix: (Units=GPa)
#
#
# Indices 1 2 3 4 5 6 
#
# 1 115.2776 49.1652 38.0300 0.0000 7.0082 0.0000
# 2 49.1652 103.2278 54.7837 0.0000 4.1358 0.0000
# 3 38.0300 54.7837 134.1728 0.0000 6.6537 0.0000
# 4 0.0000 0.0000 0.0000 26.4719 0.0000 5.3724
# 5 7.0082 4.1358 6.6537 0.0000 39.9704 0.0000
# 6 0.0000 0.0000 0.0000 5.3724 0.0000 11.6749
#
#
#
# Elastic Compliance Matrix: (Units=1/GPa)
#
#
# Indices 1 2 3 4 5 6 
#
# 1 0.011113 -0.004601 -0.001208 0.000000 -0.001271 0.000000
# 2 -0.004601 0.014280 -0.004531 0.000000 0.000083 0.000000
# 3 -0.001208 -0.004531 0.009692 0.000000 -0.000933 0.000000
# 4 0.000000 0.000000 0.000000 0.041667 0.000000 -0.019174
# 5 -0.001271 0.000083 -0.000933 0.000000 0.025388 0.000000
# 6 0.000000 0.000000 0.000000 -0.019174 0.000000 0.094477
#
#
# Mechanical properties :
#
#
# Convention : Reuss Voigt Hill
#
# Bulk Modulus (GPa) = 69.42017 70.73734 70.07876
# Shear Modulus (GPa) = 22.51272 29.67006 26.09139
#
# Velocity S-wave (km/s) = 3.40306 3.90674 3.66356
# Velocity P-wave (km/s) = 7.15203 7.53248 7.34472
#
# Compressibility (1/GPa) = 0.01440504
#
# Stress axis : x y z
#
# Youngs Moduli (GPa) = 89.98685 70.03028 103.18130
#
# Poissons Ratio (x) = 0.32218 0.12467
# Poissons Ratio (y) = 0.41399 0.46747
# Poissons Ratio (z) = 0.10873 0.31728
#
# Static dielectric constant tensor:
#      x y z
#    x 3.756700 0.000000 0.144720 
#    y 0.000000 3.387140 0.000000 
#    z 0.144720 0.000000 3.700920 
# 
# 
# High freq. dielectric constant tensor:
#      x y z
#    x 1.774280 0.000000 0.002460 
#    y 0.000000 1.728130 0.000000 
#    z 0.002460 0.000000 1.769250 
# 
# From -- ./inp_files/257032.got.cif
#   From: 2010.06.25/outbox.cif.g09.slc.cpg/sg12_129_cif.got.tgz:257032.got - 2010.06.28 00:19:55.
