data_PCOD8094402
_publ_section_title
;
Structure prediction by ZEFSAII (Michael W. Deem and Ramdas Pophale) SiO2 
 PCOD8094402
Probable space group: C 2/M
;
_chemical_formula_sum "Si O2"
_cell_formula_units_Z 64
_cell_length_a 20.017029
_cell_length_b 17.506826
_cell_length_c 23.635089
_cell_angle_alpha 90.000000
_cell_angle_beta 156.236667
_cell_angle_gamma 90.000000
_cell_volume 3337.535276
_symmetry_space_group_name_H-M "C 2/M"
_symmetry_group_IT_number 12
_symmetry_cell_setting 'monoclinic'
loop_
_space_group_symop_operation_xyz
x,y,z
-x,y,-z
-x,-y,-z
x,-y,z
1/2+x,1/2+y,z
1/2-x,1/2+y,-z
1/2-x,1/2-y,-z
1/2+x,1/2-y,z
loop_
_atom_site_type_symbol
_atom_site_label
_atom_site_fract_x
_atom_site_fract_y
_atom_site_fract_z
Si Si1 0.969395 0.084788 0.781832
Si Si2 0.910944 0.584640 0.533575
Si Si3 0.298309 0.312009 0.490904
Si Si4 0.200938 0.194218 0.013546
Si Si5 0.000012 0.412341 0.732636
Si Si6 0.399210 0.413853 0.236004
Si Si7 0.475134 0.765458 0.417897
Si Si8 0.180696 0.710236 0.112807
O O1 0.784815 0.102296 0.617111
O O2 0.100553 0.086606 0.831749
O O3 0.975429 0.000000 0.814733
O O4 0.023861 0.152550 0.866342
O O5 0.947024 0.500000 0.538241
O O6 0.013774 0.642305 0.573866
O O7 0.977430 0.593782 0.648263
O O8 0.250000 0.250000 0.500000
O O9 0.438245 0.369274 0.619790
O O10 0.363830 0.264549 0.489207
O O11 0.143869 0.362220 0.349853
O O12 0.328462 0.124425 0.115772
O O13 0.190709 0.236140 0.065607
O O14 0.250000 0.250000 0.000000
O O15 0.992713 0.500000 0.747899
O O16 0.405182 0.500000 0.264393
O O17 0.235190 0.373853 0.134166
O O18 0.500000 0.733732 0.500000
O O19 0.303243 0.739438 0.256827
O O20 0.000000 0.706778 0.000000
#
# Coordination Sequence:
#
# PCOD8094402 Si02
#       8
#     8   8   8   8   8   8   8   8
#     4  10  20  35  60  95 124 153 198 249 310 369
#     4  10  20  37  64  92 121 157 201 251 304 363
#     4  11  19  35  64  96 122 150 202 252 306 360
#     4  12  24  38  62  90 125 164 200 255 303 359
#     4  11  21  37  63  94 126 157 196 255 312 362
#     4  10  19  37  62  89 121 158 198 252 304 357
#     4  11  24  40  63  87 122 161 203 253 299 359
#     4  11  25  43  58  88 122 163 208 247 302 360
#
# _framework density 19.175827999999999
#
# number of rings (size 3 to 8) (size 9 to 14) (size 15 to 20)
#    0.000    1.250    5.000    1.500    3.500    0.500 
#    0.000    0.000    0.000   12.750    0.000    0.000 
#    0.000    0.000    0.000    0.000    0.000    0.000 
#
# Total GULP energy -396720.567027 kJ/mol
# GULP energy per Si atom -12397.517720 kJ/mol
# Density = 1.913218 g / cm^3
# Si number density = 19.175828 Si / 1000 Ang^3
#
#
#
# Elastic Constant Matrix: (Units=GPa)
#
#
# Indices 1 2 3 4 5 6 
#
# 1 90.7588 37.8593 36.3897 0.0580 -1.3301 -0.0015
# 2 37.8593 140.8894 48.6957 0.0596 1.9470 0.0138
# 3 36.3897 48.6957 83.4147 0.0829 -4.7509 0.0119
# 4 0.0580 0.0596 0.0829 39.0707 0.0019 2.0675
# 5 -1.3301 1.9470 -4.7509 0.0019 33.0480 -0.0049
# 6 -0.0015 0.0138 0.0119 2.0675 -0.0049 16.6434
#
#
#
# Elastic Compliance Matrix: (Units=1/GPa)
#
#
# Indices 1 2 3 4 5 6 
#
# 1 0.013807 -0.002039 -0.004834 -0.000008 -0.000019 0.000007
# 2 -0.002039 0.009247 -0.004582 -0.000001 -0.001286 -0.000005
# 3 -0.004834 -0.004582 0.016915 -0.000022 0.002507 -0.000005
# 4 -0.000008 -0.000001 -0.000022 0.025764 -0.000005 -0.003201
# 5 -0.000019 -0.001286 0.002507 -0.000005 0.030694 0.000009
# 6 0.000007 -0.000005 -0.000005 -0.003201 0.000009 0.060481
#
#
# Mechanical properties :
#
#
# Convention : Reuss Voigt Hill
#
# Bulk Modulus (GPa) = 58.62104 62.32805 60.47454
# Shear Modulus (GPa) = 26.95354 30.56031 28.75692
#
# Velocity S-wave (km/s) = 3.75320 3.99643 3.87673
# Velocity P-wave (km/s) = 7.02984 7.33957 7.18638
#
# Compressibility (1/GPa) = 0.01705872
#
# Stress axis : x y z
#
# Youngs Moduli (GPa) = 72.42876 108.14175 59.12009
#
# Poissons Ratio (x) = 0.22051 0.28578
# Poissons Ratio (y) = 0.14769 0.27088
# Poissons Ratio (z) = 0.35011 0.49550
#
# Static dielectric constant tensor:
#      x y z
#    x 3.315250 0.000030 0.038970 
#    y 0.000030 3.906670 -0.000040 
#    z 0.038970 -0.000040 3.496910 
# 
# 
# High freq. dielectric constant tensor:
#      x y z
#    x 1.717070 0.000000 -0.000620 
#    y 0.000000 1.765560 -0.000010 
#    z -0.000620 -0.000010 1.748900 
# 
# From -- ./inp_files/347889.got.cif
#   From: 2010.06.25/outbox.cif.g09.slc.cpg/sg12_174_cif.got.tgz:347889.got - 2010.06.28 00:19:55.
