data_PCOD8094509
_publ_section_title
;
Structure prediction by ZEFSAII (Michael W. Deem and Ramdas Pophale) SiO2 
 PCOD8094509
Probable space group: C 2/M
;
_chemical_formula_sum "Si O2"
_cell_formula_units_Z 44
_cell_length_a 23.335627
_cell_length_b 13.068794
_cell_length_c 18.020103
_cell_angle_alpha 90.000000
_cell_angle_beta 22.955764
_cell_angle_gamma 90.000000
_cell_volume 2143.381579
_symmetry_space_group_name_H-M "C 2/M"
_symmetry_group_IT_number 12
_symmetry_cell_setting 'monoclinic'
loop_
_space_group_symop_operation_xyz
x,y,z
-x,y,-z
-x,-y,-z
x,-y,z
1/2+x,1/2+y,z
1/2-x,1/2+y,-z
1/2-x,1/2-y,-z
1/2+x,1/2-y,z
loop_
_atom_site_type_symbol
_atom_site_label
_atom_site_fract_x
_atom_site_fract_y
_atom_site_fract_z
Si Si1 0.579459 0.278423 0.827052
Si Si2 0.594357 0.801325 0.549855
Si Si3 0.051044 0.616394 0.127813
Si Si4 0.839075 0.836207 0.855721
Si Si5 0.312365 0.500000 0.002472
Si Si6 0.492012 0.500000 0.097949
Si Si7 0.519156 0.000000 0.563621
O O1 0.749000 0.245182 0.630446
O O2 0.488899 0.194060 0.890027
O O3 0.584640 0.393629 0.785032
O O4 0.500000 0.285700 0.000000
O O5 0.536141 0.843399 0.697085
O O6 0.485744 0.714076 0.645323
O O7 0.609427 0.898155 0.476820
O O8 0.001690 0.500000 0.167818
O O9 0.229423 0.613329 0.925974
O O10 0.882587 0.906944 0.873151
O O11 0.750000 0.750000 0.000000
O O12 0.353469 0.500000 0.040796
O O13 0.135367 0.500000 0.207521
O O14 0.500000 0.500000 0.000000
O O15 0.500000 0.000000 0.500000
#
# Coordination Sequence:
#
# PCOD8094509 Si02
#       7
#     8   8   8   8   4   4   4
#     4  11  26  42  64  92 133 175 211 267 329 384
#     4  11  22  43  61  96 127 167 218 258 321 389
#     4  11  21  42  68  92 129 170 216 266 317 385
#     4  10  19  37  67  91 120 160 218 263 306 373
#     4  12  20  40  62  99 119 168 210 265 319 372
#     4  10  23  38  61  90 134 164 204 253 329 392
#     4  12  25  34  68  98 134 162 205 267 336 386
#
# _framework density 20.528310000000001
#
# number of rings (size 3 to 8) (size 9 to 14) (size 15 to 20)
#    0.000    1.091    5.455    3.273    5.091    0.364 
#    1.636    0.000    0.000    1.091    0.000    0.000 
#    0.000    0.000    0.000    0.000    0.000    0.000 
#
# Total GULP energy -272598.439617 kJ/mol
# GULP energy per Si atom -12390.838164 kJ/mol
# Density = 2.048159 g / cm^3
# Si number density = 20.528310 Si / 1000 Ang^3
#
#
#
# Elastic Constant Matrix: (Units=GPa)
#
#
# Indices 1 2 3 4 5 6 
#
# 1 115.5032 50.0596 32.5917 0.0003 -13.2130 -0.0002
# 2 50.0596 130.6981 33.9444 0.0004 -1.2145 -0.0002
# 3 32.5917 33.9444 88.4344 0.0006 -24.0057 -0.0004
# 4 0.0003 0.0004 0.0006 17.9634 -0.0005 -5.6897
# 5 -13.2130 -1.2145 -24.0057 -0.0005 30.0389 0.0003
# 6 -0.0002 -0.0002 -0.0004 -5.6897 0.0003 27.2505
#
#
#
# Elastic Compliance Matrix: (Units=1/GPa)
#
#
# Indices 1 2 3 4 5 6 
#
# 1 0.011182 -0.003797 -0.001750 0.000000 0.003367 0.000000
# 2 -0.003797 0.009989 -0.003548 0.000000 -0.004102 0.000000
# 3 -0.001750 -0.003548 0.016687 0.000000 0.012422 0.000000
# 4 0.000000 0.000000 0.000000 0.059611 0.000001 0.012446
# 5 0.003367 -0.004102 0.012422 0.000001 0.044532 0.000000
# 6 0.000000 0.000000 0.000000 0.012446 0.000000 0.039295
#
#
# Mechanical properties :
#
#
# Convention : Reuss Voigt Hill
#
# Bulk Modulus (GPa) = 50.84486 63.09191 56.96838
# Shear Modulus (GPa) = 24.26678 29.58656 26.92667
#
# Velocity S-wave (km/s) = 3.44192 3.80051 3.62565
# Velocity P-wave (km/s) = 6.37320 7.07526 6.73339
#
# Compressibility (1/GPa) = 0.01966767
#
# Stress axis : x y z
#
# Youngs Moduli (GPa) = 89.42601 100.10935 59.92840
#
# Poissons Ratio (x) = 0.38015 0.10485
# Poissons Ratio (y) = 0.33958 0.21264
# Poissons Ratio (z) = 0.15646 0.35521
#
# Static dielectric constant tensor:
#      x y z
#    x 4.052480 0.000180 -0.732400 
#    y 0.000180 14.229770 -0.000230 
#    z -0.732400 -0.000230 4.068510 
# 
# 
# High freq. dielectric constant tensor:
#      x y z
#    x 1.794550 0.000000 -0.022960 
#    y 0.000000 1.815260 0.000000 
#    z -0.022960 0.000000 1.777590 
# 
# From -- ./inp_files/290038.got.cif
#   From: 2010.06.25/outbox.cif.g09.slc.cpg/sg12_146_cif.got.tgz:290038.got - 2010.06.28 00:19:55.
