data_PCOD8094190
_publ_section_title
;
Structure prediction by ZEFSAII (Michael W. Deem and Ramdas Pophale) SiO2 
 PCOD8094190
Probable space group: C 2/M
;
_chemical_formula_sum "Si O2"
_cell_formula_units_Z 64
_cell_length_a 25.826696
_cell_length_b 22.293298
_cell_length_c 11.812760
_cell_angle_alpha 90.000000
_cell_angle_beta 29.964436
_cell_angle_gamma 90.000000
_cell_volume 3397.013808
_symmetry_space_group_name_H-M "C 2/M"
_symmetry_group_IT_number 12
_symmetry_cell_setting 'monoclinic'
loop_
_space_group_symop_operation_xyz
x,y,z
-x,y,-z
-x,-y,-z
x,-y,z
1/2+x,1/2+y,z
1/2-x,1/2+y,-z
1/2-x,1/2-y,-z
1/2+x,1/2-y,z
loop_
_atom_site_type_symbol
_atom_site_label
_atom_site_fract_x
_atom_site_fract_y
_atom_site_fract_z
Si Si1 0.022145 0.434161 0.715621
Si Si2 0.401730 0.123881 0.756985
Si Si3 0.230687 0.272742 0.911261
Si Si4 0.098898 0.796163 0.581919
Si Si5 0.066487 0.674333 0.771448
Si Si6 0.729647 0.931431 0.187918
Si Si7 0.784377 0.181495 0.424714
Si Si8 0.371879 0.335223 0.020867
O O1 0.005017 0.500000 0.802370
O O2 0.001766 0.381510 0.843933
O O3 0.139546 0.427215 0.450940
O O4 0.943164 0.428675 0.760012
O O5 0.500000 0.148989 0.500000
O O6 0.309485 0.098483 0.854307
O O7 0.358345 0.177233 0.916812
O O8 0.336208 0.298702 0.657208
O O9 0.195594 0.219429 0.897316
O O10 0.250000 0.250000 0.000000
O O11 0.081215 0.726860 0.651702
O O12 0.158483 0.834633 0.566184
O O13 0.991135 0.828926 0.759754
O O14 0.176008 0.647048 0.608612
O O15 0.000000 0.702149 0.000000
O O16 0.829479 0.896764 0.047310
O O17 0.762096 0.000000 0.103124
O O18 0.750000 0.250000 0.500000
O O19 0.862873 0.166816 0.173969
#
# Coordination Sequence:
#
# PCOD8094190 Si02
#       8
#     8   8   8   8   8   8   8   8
#     4  10  20  36  59  85 114 152 197 244 293 346
#     4  10  22  36  59  86 119 155 194 238 295 357
#     4  12  24  36  57  91 126 149 185 241 300 352
#     4  11  24  37  59  88 119 156 194 235 296 360
#     4  11  21  35  60  86 120 155 190 237 299 353
#     4  10  20  39  60  83 114 156 204 246 280 341
#     4  10  19  37  57  84 117 151 192 232 287 352
#     4  12  21  38  61  87 117 153 198 240 291 350
#
# _framework density 18.840076
#
# number of rings (size 3 to 8) (size 9 to 14) (size 15 to 20)
#    0.000    1.250    5.000    3.000    5.250    1.750 
#    0.000    0.000    0.000    4.500    0.000    0.000 
#    0.000    0.000    0.000    0.000    0.000    0.000 
#
# Total GULP energy -396810.433316 kJ/mol
# GULP energy per Si atom -12400.326041 kJ/mol
# Density = 1.879720 g / cm^3
# Si number density = 18.840076 Si / 1000 Ang^3
#
#
#
# Elastic Constant Matrix: (Units=GPa)
#
#
# Indices 1 2 3 4 5 6 
#
# 1 101.4664 28.4970 42.2042 0.0000 -3.4710 0.0000
# 2 28.4970 92.3221 28.7576 0.0000 -1.2191 0.0000
# 3 42.2042 28.7576 118.5662 0.0000 1.1775 0.0000
# 4 0.0000 0.0000 0.0000 19.0509 0.0000 -1.3400
# 5 -3.4710 -1.2191 1.1775 0.0000 32.1785 0.0000
# 6 0.0000 0.0000 0.0000 -1.3400 0.0000 20.2789
#
#
#
# Elastic Compliance Matrix: (Units=1/GPa)
#
#
# Indices 1 2 3 4 5 6 
#
# 1 0.012174 -0.002581 -0.003721 0.000000 0.001352 0.000000
# 2 -0.002581 0.012274 -0.002061 0.000000 0.000262 0.000000
# 3 -0.003721 -0.002061 0.010267 0.000000 -0.000855 0.000000
# 4 0.000000 0.000000 0.000000 0.052736 0.000000 0.003485
# 5 0.001352 0.000262 -0.000855 0.000000 0.031264 0.000000
# 6 0.000000 0.000000 0.000000 0.003485 0.000000 0.049543
#
#
# Mechanical properties :
#
#
# Convention : Reuss Voigt Hill
#
# Bulk Modulus (GPa) = 55.58792 56.80802 56.19797
# Shear Modulus (GPa) = 26.18088 28.49472 27.33780
#
# Velocity S-wave (km/s) = 3.73183 3.89325 3.81339
# Velocity P-wave (km/s) = 6.93815 7.10127 7.02018
#
# Compressibility (1/GPa) = 0.01798952
#
# Stress axis : x y z
#
# Youngs Moduli (GPa) = 82.14048 81.47506 97.40014
#
# Poissons Ratio (x) = 0.21028 0.36242
# Poissons Ratio (y) = 0.21200 0.20073
# Poissons Ratio (z) = 0.30564 0.16791
#
# Static dielectric constant tensor:
#      x y z
#    x 4.068350 0.000000 -0.067960 
#    y 0.000000 3.296640 0.000000 
#    z -0.067960 0.000000 3.485260 
# 
# 
# High freq. dielectric constant tensor:
#      x y z
#    x 1.741540 0.000000 -0.001890 
#    y 0.000000 1.699130 0.000000 
#    z -0.001890 0.000000 1.723190 
# 
# From -- ./inp_files/184673.got.cif
#   From: 2010.06.25/outbox.cif.g09.slc.cpg/sg12_93_cif.got.tgz:184673.got - 2010.06.28 00:19:55.
