data_PCOD8094169
_publ_section_title
;
Structure prediction by ZEFSAII (Michael W. Deem and Ramdas Pophale) SiO2 
 PCOD8094169
Probable space group: C 2/M
;
_chemical_formula_sum "Si O2"
_cell_formula_units_Z 64
_cell_length_a 34.403250
_cell_length_b 22.784493
_cell_length_c 9.487891
_cell_angle_alpha 90.000000
_cell_angle_beta 24.779495
_cell_angle_gamma 90.000000
_cell_volume 3117.125967
_symmetry_space_group_name_H-M "C 2/M"
_symmetry_group_IT_number 12
_symmetry_cell_setting 'monoclinic'
loop_
_space_group_symop_operation_xyz
x,y,z
-x,y,-z
-x,-y,-z
x,-y,z
1/2+x,1/2+y,z
1/2-x,1/2+y,-z
1/2-x,1/2-y,-z
1/2+x,1/2-y,z
loop_
_atom_site_type_symbol
_atom_site_label
_atom_site_fract_x
_atom_site_fract_y
_atom_site_fract_z
Si Si1 0.180690 0.567325 0.491498
Si Si2 0.712727 0.434445 0.578536
Si Si3 0.176189 0.118128 0.184047
Si Si4 0.397259 0.718261 0.043669
Si Si5 0.711873 0.722133 0.881472
Si Si6 0.774622 0.158724 0.675596
Si Si7 0.511812 0.603717 0.303062
Si Si8 0.916514 0.681422 0.170085
O O1 0.145327 0.500000 0.604650
O O2 0.255091 0.579269 0.369511
O O3 0.092409 0.610077 0.812263
O O4 0.235599 0.582318 0.166551
O O5 0.738685 0.500000 0.447655
O O6 0.765832 0.391449 0.294827
O O7 0.602113 0.425127 0.934750
O O8 0.187987 0.126971 0.309991
O O9 0.079491 0.083110 0.481868
O O10 0.156221 0.179849 0.169008
O O11 0.319201 0.717068 0.179018
O O12 0.355058 0.693264 0.327824
O O13 0.433570 0.784217 0.963904
O O14 0.479641 0.675131 0.725543
O O15 0.699413 0.791005 0.965882
O O16 0.817860 0.701997 0.555058
O O17 0.500000 0.580319 0.500000
O O18 0.000000 0.697578 0.000000
#
# Coordination Sequence:
#
# PCOD8094169 Si02
#       8
#     8   8   8   8   8   8   8   8
#     4  10  21  39  58  75 103 147 192 224 265 327
#     4  10  21  37  57  78 103 147 194 222 258 322
#     4  11  21  33  53  83 112 143 176 220 279 328
#     4  10  20  34  57  79 112 149 181 217 269 334
#     4  10  19  37  55  77 111 149 182 215 270 343
#     4  10  20  33  53  78 109 140 177 228 274 310
#     4  11  19  34  53  80 114 145 179 215 265 330
#     4  10  20  33  55  84 109 134 180 234 279 312
#
# _framework density 20.531732999999999
#
# number of rings (size 3 to 8) (size 9 to 14) (size 15 to 20)
#    0.000    1.750    2.500    4.875    3.500    3.000 
#    0.000    0.625    0.000    0.000    0.000    0.000 
#    0.000   15.500    0.000    0.000    0.000    0.000 
#
# Total GULP energy -396504.257876 kJ/mol
# GULP energy per Si atom -12390.758059 kJ/mol
# Density = 2.048500 g / cm^3
# Si number density = 20.531733 Si / 1000 Ang^3
#
#
#
# Elastic Constant Matrix: (Units=GPa)
#
#
# Indices 1 2 3 4 5 6 
#
# 1 113.4650 29.0634 20.3352 0.0000 3.7593 0.0000
# 2 29.0634 103.9254 6.1157 0.0000 1.3666 0.0000
# 3 20.3352 6.1157 27.0671 0.0000 -10.4267 0.0000
# 4 0.0000 0.0000 0.0000 17.8156 0.0000 0.0294
# 5 3.7593 1.3666 -10.4267 0.0000 27.2739 0.0000
# 6 0.0000 0.0000 0.0000 0.0294 0.0000 22.7073
#
#
#
# Elastic Compliance Matrix: (Units=1/GPa)
#
#
# Indices 1 2 3 4 5 6 
#
# 1 0.011443 -0.002538 -0.010064 0.000000 -0.005297 0.000000
# 2 -0.002538 0.010372 -0.000589 0.000000 -0.000395 0.000000
# 3 -0.010064 -0.000589 0.052988 0.000000 0.021674 0.000000
# 4 0.000000 0.000000 0.000000 0.056131 0.000000 -0.000073
# 5 -0.005297 -0.000395 0.021674 0.000000 0.045701 0.000000
# 6 0.000000 0.000000 0.000000 -0.000073 0.000000 0.044039
#
#
# Mechanical properties :
#
#
# Convention : Reuss Voigt Hill
#
# Bulk Modulus (GPa) = 20.65207 39.49846 30.07526
# Shear Modulus (GPa) = 18.99729 26.15556 22.57643
#
# Velocity S-wave (km/s) = 3.04512 3.57306 3.31960
# Velocity P-wave (km/s) = 4.73752 6.02510 5.41968
#
# Compressibility (1/GPa) = 0.04842130
#
# Stress axis : x y z
#
# Youngs Moduli (GPa) = 87.39294 96.41408 18.87209
#
# Poissons Ratio (x) = 0.24471 0.18993
# Poissons Ratio (y) = 0.22181 0.01111
# Poissons Ratio (z) = 0.87951 0.05677
#
# Static dielectric constant tensor:
#      x y z
#    x 3.588960 0.000000 0.017880 
#    y 0.000000 4.257600 0.000000 
#    z 0.017880 0.000000 3.412160 
# 
# 
# High freq. dielectric constant tensor:
#      x y z
#    x 1.796920 0.000000 -0.002040 
#    y 0.000000 1.806920 0.000000 
#    z -0.002040 0.000000 1.761060 
# 
# From -- ./inp_files/113606.got.cif
#   From: 2010.06.25/outbox.cif.g09.slc.cpg/sg12_57_cif.got.tgz:113606.got - 2010.06.28 00:19:55.
