data_PCOD8094932
_publ_section_title
;
Structure prediction by ZEFSAII (Michael W. Deem and Ramdas Pophale) SiO2 
 PCOD8094932
Probable space group: C 2/M
;
_chemical_formula_sum "Si O2"
_cell_formula_units_Z 56
_cell_length_a 9.754470
_cell_length_b 17.536683
_cell_length_c 17.381256
_cell_angle_alpha 90.000000
_cell_angle_beta 74.199644
_cell_angle_gamma 90.000000
_cell_volume 2860.915268
_symmetry_space_group_name_H-M "C 2/M"
_symmetry_group_IT_number 12
_symmetry_cell_setting 'monoclinic'
loop_
_space_group_symop_operation_xyz
x,y,z
-x,y,-z
-x,-y,-z
x,-y,z
1/2+x,1/2+y,z
1/2-x,1/2+y,-z
1/2-x,1/2-y,-z
1/2+x,1/2-y,z
loop_
_atom_site_type_symbol
_atom_site_label
_atom_site_fract_x
_atom_site_fract_y
_atom_site_fract_z
Si Si1 0.845908 0.331284 0.055666
Si Si2 0.453479 0.088271 0.333563
Si Si3 0.735135 0.588996 0.773886
Si Si4 0.298949 0.834783 0.228920
Si Si5 0.340401 0.344666 0.051106
Si Si6 0.600471 0.226853 0.555179
Si Si7 0.465908 0.301115 0.277782
O O1 0.837573 0.370772 0.140327
O O2 0.801763 0.243065 0.073915
O O3 0.745911 0.373922 0.010002
O O4 0.000000 0.339738 0.000000
O O5 0.606254 0.116090 0.275965
O O6 0.329568 0.101077 0.288586
O O7 0.414455 0.139247 0.413910
O O8 0.454823 0.000000 0.358208
O O9 0.724891 0.500000 0.764511
O O10 0.703886 0.608443 0.867230
O O11 0.614071 0.622424 0.736256
O O12 0.404746 0.764176 0.230697
O O13 0.135763 0.808253 0.248135
O O14 0.500000 0.358073 0.000000
O O15 0.500000 0.243030 0.500000
O O16 0.750000 0.250000 0.500000
O O17 0.569571 0.284447 0.628913
#
# Coordination Sequence:
#
# PCOD8094932 Si02
#       7
#     8   8   8   8   8   8   8
#     4  10  20  30  53  82 114 151 198 257 301 339
#     4  10  23  41  62  89 120 159 197 239 295 358
#     4  11  22  39  61  84 122 165 206 248 292 354
#     4  11  21  36  62  84 119 159 200 255 290 351
#     4  10  20  33  51  81 117 155 202 251 302 340
#     4  11  22  39  64  92 117 147 186 242 295 356
#     4  11  22  38  60  89 117 152 200 241 298 354
#
# _framework density 19.574155999999999
#
# number of rings (size 3 to 8) (size 9 to 14) (size 15 to 20)
#    0.000    1.429    1.429    6.000    4.000    1.143 
#    0.000    1.429    0.000    4.286    0.000    0.000 
#    0.000    0.000    0.000    0.000    0.000    0.000 
#
# Total GULP energy -347122.093638 kJ/mol
# GULP energy per Si atom -12397.217630 kJ/mol
# Density = 1.952960 g / cm^3
# Si number density = 19.574156 Si / 1000 Ang^3
#
#
#
# Elastic Constant Matrix: (Units=GPa)
#
#
# Indices 1 2 3 4 5 6 
#
# 1 135.1821 36.5592 48.4605 0.0000 17.7192 0.0000
# 2 36.5592 63.7063 33.2047 0.0000 -5.7340 0.0000
# 3 48.4605 33.2047 141.4172 0.0000 14.7920 0.0000
# 4 0.0000 0.0000 0.0000 26.1220 0.0000 1.4443
# 5 17.7192 -5.7340 14.7920 0.0000 40.2569 0.0000
# 6 0.0000 0.0000 0.0000 1.4443 0.0000 22.2396
#
#
#
# Elastic Compliance Matrix: (Units=1/GPa)
#
#
# Indices 1 2 3 4 5 6 
#
# 1 0.010035 -0.005266 -0.001728 0.000000 -0.004532 0.000000
# 2 -0.005266 0.021378 -0.003927 0.000000 0.006806 0.000000
# 3 -0.001728 -0.003927 0.008907 0.000000 -0.003071 0.000000
# 4 0.000000 0.000000 0.000000 0.038420 0.000000 -0.002495
# 5 -0.004532 0.006806 -0.003071 0.000000 0.028933 0.000000
# 6 0.000000 0.000000 0.000000 -0.002495 0.000000 0.045127
#
#
# Mechanical properties :
#
#
# Convention : Reuss Voigt Hill
#
# Bulk Modulus (GPa) = 54.11888 64.08381 59.10134
# Shear Modulus (GPa) = 27.65451 32.52911 30.09181
#
# Velocity S-wave (km/s) = 3.76281 4.08099 3.92513
# Velocity P-wave (km/s) = 6.82543 7.41728 7.12750
#
# Compressibility (1/GPa) = 0.01847784
#
# Stress axis : x y z
#
# Youngs Moduli (GPa) = 99.64905 46.77611 112.27313
#
# Poissons Ratio (x) = 0.24632 0.19405
# Poissons Ratio (y) = 0.52475 0.44089
# Poissons Ratio (z) = 0.17223 0.18369
#
# Static dielectric constant tensor:
#      x y z
#    x 3.903560 0.000000 0.128550 
#    y 0.000000 -2.556190 0.000000 
#    z 0.128550 0.000000 3.529710 
# 
# 
# High freq. dielectric constant tensor:
#      x y z
#    x 1.783200 0.000000 0.005100 
#    y 0.000000 1.729920 0.000000 
#    z 0.005100 0.000000 1.774040 
# 
# From -- ./inp_files/257026.got.cif
#   From: 2010.06.25/outbox.cif.g09.slc.cpg/sg12_129_cif.got.tgz:257026.got - 2010.06.28 00:19:55.
