data_PCOD8094018
_publ_section_title
;
Structure prediction by ZEFSAII (Michael W. Deem and Ramdas Pophale) SiO2 
 PCOD8094018
Probable space group: C 2/M
;
_chemical_formula_sum "Si O2"
_cell_formula_units_Z 56
_cell_length_a 28.944716
_cell_length_b 8.706085
_cell_length_c 12.556594
_cell_angle_alpha 90.000000
_cell_angle_beta 60.983437
_cell_angle_gamma 90.000000
_cell_volume 2767.028880
_symmetry_space_group_name_H-M "C 2/M"
_symmetry_group_IT_number 12
_symmetry_cell_setting 'monoclinic'
loop_
_space_group_symop_operation_xyz
x,y,z
-x,y,-z
-x,-y,-z
x,-y,z
1/2+x,1/2+y,z
1/2-x,1/2+y,-z
1/2-x,1/2-y,-z
1/2+x,1/2-y,z
loop_
_atom_site_type_symbol
_atom_site_label
_atom_site_fract_x
_atom_site_fract_y
_atom_site_fract_z
Si Si1 0.194942 0.819237 0.597197
Si Si2 0.550463 0.675639 0.014775
Si Si3 0.106174 0.682340 0.544977
Si Si4 0.108784 0.320023 0.304248
Si Si5 0.693385 0.817952 0.041737
Si Si6 0.343741 0.179221 0.148881
Si Si7 0.512880 0.179130 0.269908
O O1 0.250000 0.750000 0.500000
O O2 0.146867 0.756556 0.580758
O O3 0.187493 0.775206 0.728272
O O4 0.197148 0.000000 0.581837
O O5 0.569953 0.500000 0.990389
O O6 0.537706 0.721623 0.148759
O O7 0.500000 0.702555 0.000000
O O8 0.594364 0.784508 0.913632
O O9 0.112332 0.500000 0.543298
O O10 0.117311 0.746785 0.413444
O O11 0.046846 0.731695 0.642085
O O12 0.118244 0.500000 0.298755
O O13 0.151743 0.249458 0.174219
O O14 0.048880 0.286355 0.333254
O O15 0.695138 0.000000 0.046911
O O16 0.750000 0.750000 0.000000
O O17 0.676293 0.765286 0.943615
O O18 0.334163 0.000000 0.180334
O O19 0.516087 0.000000 0.235402
#
# Coordination Sequence:
#
# PCOD8094018 Si02
#       7
#     8   8   8   8   8   8   8
#     4  12  27  46  66  90 124 163 208 258 308 365
#     4  11  23  37  57  88 126 166 206 253 307 364
#     4  10  21  38  65  95 125 164 209 254 309 369
#     4   9  18  37  62  93 126 161 203 253 306 364
#     4  10  22  39  62  92 126 159 202 254 307 369
#     4  11  23  43  67  93 123 159 207 256 307 367
#     4  10  19  36  61  91 125 163 207 254 304 366
#
# _framework density 20.238315
#
# number of rings (size 3 to 8) (size 9 to 14) (size 15 to 20)
#    0.000    1.571    1.429    3.429    2.000    6.857 
#    0.000    0.714    0.000    1.714    0.000    0.000 
#    0.000    0.000    0.000    0.000    0.000    0.000 
#
# Total GULP energy -347271.419954 kJ/mol
# GULP energy per Si atom -12402.550713 kJ/mol
# Density = 2.019225 g / cm^3
# Si number density = 20.238315 Si / 1000 Ang^3
#
#
#
# Elastic Constant Matrix: (Units=GPa)
#
#
# Indices 1 2 3 4 5 6 
#
# 1 102.4712 30.4715 46.6904 0.0000 -23.3344 0.0000
# 2 30.4715 36.2665 23.0297 0.0000 -5.5451 0.0000
# 3 46.6904 23.0297 138.5384 0.0000 -13.2988 0.0000
# 4 0.0000 0.0000 0.0000 28.3262 0.0000 -3.5471
# 5 -23.3344 -5.5451 -13.2988 0.0000 35.1748 0.0000
# 6 0.0000 0.0000 0.0000 -3.5471 0.0000 26.8338
#
#
#
# Elastic Compliance Matrix: (Units=1/GPa)
#
#
# Indices 1 2 3 4 5 6 
#
# 1 0.015948 -0.010358 -0.002899 0.000000 0.007850 0.000000
# 2 -0.010358 0.037870 -0.003000 0.000000 -0.002035 0.000000
# 3 -0.002899 -0.003000 0.008783 0.000000 0.000924 0.000000
# 4 0.000000 0.000000 0.000000 0.035897 0.000000 0.004745
# 5 0.007850 -0.002035 0.000924 0.000000 0.033666 0.000000
# 6 0.000000 0.000000 0.000000 0.004745 0.000000 0.037894
#
#
# Mechanical properties :
#
#
# Convention : Reuss Voigt Hill
#
# Bulk Modulus (GPa) = 33.23754 53.07325 43.15540
# Shear Modulus (GPa) = 23.51831 29.87261 26.69546
#
# Velocity S-wave (km/s) = 3.41261 3.84610 3.63582
# Velocity P-wave (km/s) = 5.65567 6.78265 6.24464
#
# Compressibility (1/GPa) = 0.03008646
#
# Stress axis : x y z
#
# Youngs Moduli (GPa) = 62.70517 26.40595 113.85982
#
# Poissons Ratio (x) = 0.27351 0.33011
# Poissons Ratio (y) = 0.64950 0.34156
# Poissons Ratio (z) = 0.18180 0.07921
#
# Static dielectric constant tensor:
#      x y z
#    x 3.786730 0.000000 0.034170 
#    y 0.000000 3.491340 0.000000 
#    z 0.034170 0.000000 3.998320 
# 
# 
# High freq. dielectric constant tensor:
#      x y z
#    x 1.803540 0.000000 0.001250 
#    y 0.000000 1.769080 0.000000 
#    z 0.001250 0.000000 1.806480 
# 
# From -- ./inp_files/180779.got.cif
#   From: 2010.06.25/outbox.cif.g09.slc.cpg/sg12_91_cif.got.tgz:180779.got - 2010.06.28 00:19:55.
