data_PCOD8094197
_publ_section_title
;
Structure prediction by ZEFSAII (Michael W. Deem and Ramdas Pophale) SiO2 
 PCOD8094197
Probable space group: C 2/M
;
_chemical_formula_sum "Si O2"
_cell_formula_units_Z 48
_cell_length_a 9.787182
_cell_length_b 16.633388
_cell_length_c 15.336727
_cell_angle_alpha 90.000000
_cell_angle_beta 102.462670
_cell_angle_gamma 90.000000
_cell_volume 2437.896232
_symmetry_space_group_name_H-M "C 2/M"
_symmetry_group_IT_number 12
_symmetry_cell_setting 'monoclinic'
loop_
_space_group_symop_operation_xyz
x,y,z
-x,y,-z
-x,-y,-z
x,-y,z
1/2+x,1/2+y,z
1/2-x,1/2+y,-z
1/2-x,1/2-y,-z
1/2+x,1/2-y,z
loop_
_atom_site_type_symbol
_atom_site_label
_atom_site_fract_x
_atom_site_fract_y
_atom_site_fract_z
Si Si1 0.772032 0.786787 0.842896
Si Si2 0.344781 0.594900 0.703157
Si Si3 0.632849 0.670640 0.687189
Si Si4 0.086631 0.409133 0.279920
Si Si5 0.914053 0.328219 0.403268
Si Si6 0.989266 0.667915 0.094112
O O1 0.808385 0.864736 0.790347
O O2 0.684544 0.721903 0.776332
O O3 0.917310 0.749174 0.896021
O O4 0.673626 0.812530 0.909735
O O5 0.339813 0.500000 0.715280
O O6 0.494764 0.621764 0.689876
O O7 0.231838 0.623320 0.615281
O O8 0.750382 0.605920 0.678043
O O9 0.610316 0.731990 0.603046
O O10 0.048439 0.500000 0.299245
O O11 0.049756 0.393296 0.174051
O O12 0.997206 0.349199 0.326528
O O13 0.000000 0.353538 0.500000
O O14 0.000000 0.627243 0.000000
#
# Coordination Sequence:
#
# PCOD8094197 Si02
#       6
#     8   8   8   8   8   8
#     4  10  19  37  57  88 117 153 198 244 279 340
#     4  11  21  36  61  87 119 156 190 237 297 349
#     4  10  20  39  61  84 115 154 199 233 287 345
#     4  11  23  39  59  88 123 151 189 246 295 341
#     4  11  23  40  63  87 114 153 198 239 285 348
#     4  11  21  36  62  88 118 158 200 239 287 344
#
# _framework density 19.689107
#
# number of rings (size 3 to 8) (size 9 to 14) (size 15 to 20)
#    0.000    1.333    5.000    3.500    0.000    4.333 
#    0.000    0.000    0.000    3.500    0.000    0.000 
#    0.000    0.000    0.000    0.000    0.000    0.000 
#
# Total GULP energy -297635.555580 kJ/mol
# GULP energy per Si atom -12401.481483 kJ/mol
# Density = 1.964429 g / cm^3
# Si number density = 19.689107 Si / 1000 Ang^3
#
#
#
# Elastic Constant Matrix: (Units=GPa)
#
#
# Indices 1 2 3 4 5 6 
#
# 1 126.7521 30.6190 11.0026 0.0000 2.4313 0.0000
# 2 30.6190 93.8207 21.0174 0.0000 4.2310 0.0000
# 3 11.0026 21.0174 72.7002 0.0000 14.2621 0.0000
# 4 0.0000 0.0000 0.0000 9.7801 0.0000 -0.3308
# 5 2.4313 4.2310 14.2621 0.0000 17.5627 0.0000
# 6 0.0000 0.0000 0.0000 -0.3308 0.0000 26.6258
#
#
#
# Elastic Compliance Matrix: (Units=1/GPa)
#
#
# Indices 1 2 3 4 5 6 
#
# 1 0.008583 -0.002684 -0.000496 0.000000 -0.000139 0.000000
# 2 -0.002684 0.012236 -0.003123 0.000000 -0.000040 0.000000
# 3 -0.000496 -0.003123 0.017333 0.000000 -0.013255 0.000000
# 4 0.000000 0.000000 0.000000 0.102291 0.000000 0.001271
# 5 -0.000139 -0.000040 -0.013255 0.000000 0.067732 0.000000
# 6 0.000000 0.000000 0.000000 0.001271 0.000000 0.037573
#
#
# Mechanical properties :
#
#
# Convention : Reuss Voigt Hill
#
# Bulk Modulus (GPa) = 39.14424 46.50568 42.82496
# Shear Modulus (GPa) = 18.73564 26.16931 22.45248
#
# Velocity S-wave (km/s) = 3.08811 3.64967 3.38057
# Velocity P-wave (km/s) = 5.71310 6.43673 6.08568
#
# Compressibility (1/GPa) = 0.02554654
#
# Stress axis : x y z
#
# Youngs Moduli (GPa) = 116.50300 81.72581 57.69206
#
# Poissons Ratio (x) = 0.21935 0.02861
# Poissons Ratio (y) = 0.31269 0.18020
# Poissons Ratio (z) = 0.05777 0.25526
#
# Static dielectric constant tensor:
#      x y z
#    x 3.916920 0.000000 0.088810 
#    y 0.000000 3.410560 0.000000 
#    z 0.088810 0.000000 3.360700 
# 
# 
# High freq. dielectric constant tensor:
#      x y z
#    x 1.791010 0.000000 -0.000350 
#    y 0.000000 1.753160 0.000000 
#    z -0.000350 0.000000 1.745360 
# 
# From -- ./inp_files/195967.got.cif
#   From: 2010.06.25/outbox.cif.g09.slc.cpg/sg12_98_cif.got.tgz:195967.got - 2010.06.28 00:19:55.
