data_PCOD8094873
_publ_section_title
;
Structure prediction by ZEFSAII (Michael W. Deem and Ramdas Pophale) SiO2 
 PCOD8094873
Probable space group: C 2/M
;
_chemical_formula_sum "Si O2"
_cell_formula_units_Z 52
_cell_length_a 21.031300
_cell_length_b 28.760349
_cell_length_c 8.562465
_cell_angle_alpha 90.000000
_cell_angle_beta 151.898556
_cell_angle_gamma 90.000000
_cell_volume 2439.559641
_symmetry_space_group_name_H-M "C 2/M"
_symmetry_group_IT_number 12
_symmetry_cell_setting 'monoclinic'
loop_
_space_group_symop_operation_xyz
x,y,z
-x,y,-z
-x,-y,-z
x,-y,z
1/2+x,1/2+y,z
1/2-x,1/2+y,-z
1/2-x,1/2-y,-z
1/2+x,1/2-y,z
loop_
_atom_site_type_symbol
_atom_site_label
_atom_site_fract_x
_atom_site_fract_y
_atom_site_fract_z
Si Si1 0.318597 0.594515 0.780069
Si Si2 0.229837 0.500000 0.750935
Si Si3 0.870051 0.219309 0.608527
Si Si4 0.610963 0.500000 0.612169
Si Si5 0.278756 0.574698 0.332942
Si Si6 0.656173 0.180511 0.375404
Si Si7 0.557367 0.000000 0.795443
Si Si8 0.060180 0.144725 0.458405
O O1 0.296898 0.546894 0.828350
O O2 0.307064 0.584117 0.573120
O O3 0.208162 0.634900 0.581002
O O4 0.462313 0.617466 0.127362
O O5 0.071477 0.500000 0.367513
O O6 0.249427 0.500000 0.983431
O O7 0.746808 0.189261 0.415644
O O8 0.825645 0.272701 0.481048
O O9 0.917687 0.197860 0.546409
O O10 0.000000 0.219187 0.000000
O O11 0.500000 0.500000 0.500000
O O12 0.599259 0.543554 0.472631
O O13 0.292505 0.620311 0.250786
O O14 0.139108 0.547139 0.009872
O O15 0.500000 0.171168 0.000000
O O16 0.500000 0.000000 0.500000
O O17 0.000000 0.142050 0.500000
#
# Coordination Sequence:
#
# PCOD8094873 Si02
#       8
#     8   4   8   4   8   8   4   8
#     4  12  25  42  68 102 132 178 234 291 334 412
#     4  12  25  40  62  95 142 178 224 282 347 403
#     4  10  19  43  71  98 135 179 226 288 342 413
#     4  11  22  41  60  89 126 173 219 269 337 395
#     4  11  22  40  64  91 124 178 226 273 324 405
#     4  10  22  39  72 101 132 176 232 283 347 408
#     4  11  25  44  64  88 142 190 220 275 349 410
#     4  12  24  41  69 102 138 174 226 293 355 407
#
# _framework density 21.315321999999998
#
# number of rings (size 3 to 8) (size 9 to 14) (size 15 to 20)
#    0.000    0.923    4.615    3.692    2.154    1.231 
#    0.000    5.385    0.000    0.000    0.000    0.000 
#    0.000    0.000    0.000    0.000    0.000    0.000 
#
# Total GULP energy -322093.779537 kJ/mol
# GULP energy per Si atom -12388.222290 kJ/mol
# Density = 2.126681 g / cm^3
# Si number density = 21.315322 Si / 1000 Ang^3
#
#
#
# Elastic Constant Matrix: (Units=GPa)
#
#
# Indices 1 2 3 4 5 6 
#
# 1 101.9431 45.6494 33.8331 0.0000 -8.7791 0.0000
# 2 45.6494 153.6647 29.2824 0.0000 -7.5053 0.0000
# 3 33.8331 29.2824 81.1206 0.0000 14.6634 0.0000
# 4 0.0000 0.0000 0.0000 25.9894 0.0000 13.8805
# 5 -8.7791 -7.5053 14.6634 0.0000 41.1368 0.0000
# 6 0.0000 0.0000 0.0000 13.8805 0.0000 39.5392
#
#
#
# Elastic Compliance Matrix: (Units=1/GPa)
#
#
# Indices 1 2 3 4 5 6 
#
# 1 0.013119 -0.002691 -0.005256 0.000000 0.004182 0.000000
# 2 -0.002691 0.007755 -0.001955 0.000000 0.001537 0.000000
# 3 -0.005256 -0.001955 0.016559 0.000000 -0.007381 0.000000
# 4 0.000000 0.000000 0.000000 0.047356 0.000000 -0.016625
# 5 0.004182 0.001537 -0.007381 0.000000 0.028113 0.000000
# 6 0.000000 0.000000 0.000000 -0.016625 0.000000 0.031128
#
#
# Mechanical properties :
#
#
# Convention : Reuss Voigt Hill
#
# Bulk Modulus (GPa) = 56.72505 61.58424 59.15465
# Shear Modulus (GPa) = 29.46188 36.53063 32.99625
#
# Velocity S-wave (km/s) = 3.72182 4.14432 3.93874
# Velocity P-wave (km/s) = 6.71858 7.20106 6.96400
#
# Compressibility (1/GPa) = 0.01762889
#
# Stress axis : x y z
#
# Youngs Moduli (GPa) = 76.22420 128.95270 60.38929
#
# Poissons Ratio (x) = 0.34707 0.31741
# Poissons Ratio (y) = 0.20515 0.11804
# Poissons Ratio (z) = 0.40064 0.25205
#
# Static dielectric constant tensor:
#      x y z
#    x 3.877640 0.000000 1.096540 
#    y 0.000000 4.293700 0.000000 
#    z 1.096540 0.000000 13.389510 
# 
# 
# High freq. dielectric constant tensor:
#      x y z
#    x 1.831830 0.000000 0.025720 
#    y 0.000000 1.855310 0.000000 
#    z 0.025720 0.000000 1.822480 
# 
# From -- ./inp_files/91514.got.cif
#   From: 2010.06.25/outbox.cif.g09.slc.cpg/sg12_46_cif.got.tgz:91514.got - 2010.06.28 00:19:55.
