data_PCOD8094307
_publ_section_title
;
Structure prediction by ZEFSAII (Michael W. Deem and Ramdas Pophale) SiO2 
 PCOD8094307
Probable space group: C 2/M
;
_chemical_formula_sum "Si O2"
_cell_formula_units_Z 56
_cell_length_a 23.746714
_cell_length_b 8.964054
_cell_length_c 30.766087
_cell_angle_alpha 90.000000
_cell_angle_beta 25.715433
_cell_angle_gamma 90.000000
_cell_volume 2841.657168
_symmetry_space_group_name_H-M "C 2/M"
_symmetry_group_IT_number 12
_symmetry_cell_setting 'monoclinic'
loop_
_space_group_symop_operation_xyz
x,y,z
-x,y,-z
-x,-y,-z
x,-y,z
1/2+x,1/2+y,z
1/2-x,1/2+y,-z
1/2-x,1/2-y,-z
1/2+x,1/2-y,z
loop_
_atom_site_type_symbol
_atom_site_label
_atom_site_fract_x
_atom_site_fract_y
_atom_site_fract_z
Si Si1 0.139292 0.172414 0.881816
Si Si2 0.190451 0.828207 0.476007
Si Si3 0.163801 0.823461 0.022664
Si Si4 0.921788 0.830632 0.353890
Si Si5 0.876314 0.176792 0.205574
Si Si6 0.721588 0.672671 0.140225
Si Si7 0.867700 0.323164 0.570716
O O1 0.135068 0.237178 0.835809
O O2 0.242500 0.269346 0.836887
O O3 0.182784 0.000000 0.852534
O O4 0.000000 0.193780 0.000000
O O5 0.100699 0.794430 0.579910
O O6 0.338106 0.778882 0.382215
O O7 0.129955 0.732331 0.479858
O O8 0.190446 0.000000 0.462632
O O9 0.206234 0.770778 0.945699
O O10 0.180819 0.000000 0.014033
O O11 0.250000 0.750000 0.000000
O O12 0.012747 0.775816 0.132983
O O13 0.069566 0.804972 0.238630
O O14 0.878029 0.000000 0.374495
O O15 0.757357 0.242012 0.316591
O O16 0.870181 0.000000 0.207627
O O17 0.761216 0.500000 0.107873
O O18 0.862554 0.500000 0.574662
O O19 0.000000 0.263522 0.500000
#
# Coordination Sequence:
#
# PCOD8094307 Si02
#       7
#     8   8   8   8   8   8   8
#     4  10  19  37  61  83 111 151 195 238 286 344
#     4  10  21  39  61  86 114 148 196 246 292 345
#     4  11  23  41  61  86 121 160 201 242 290 353
#     4   9  21  40  60  83 117 154 188 236 300 354
#     4   9  20  39  60  83 116 157 194 238 294 347
#     4  11  23  38  59  89 119 152 191 241 297 349
#     4  10  22  39  60  86 117 156 198 238 292 359
#
# _framework density 19.706810000000001
#
# number of rings (size 3 to 8) (size 9 to 14) (size 15 to 20)
#    0.000    2.000    1.429    1.286    4.000    2.286 
#    0.000    1.429    0.000    0.000    0.000    0.000 
#    0.000    0.000    0.000    0.000    0.000    0.000 
#
# Total GULP energy -347271.944323 kJ/mol
# GULP energy per Si atom -12402.569440 kJ/mol
# Density = 1.966196 g / cm^3
# Si number density = 19.706810 Si / 1000 Ang^3
#
#
#
# Elastic Constant Matrix: (Units=GPa)
#
#
# Indices 1 2 3 4 5 6 
#
# 1 121.0325 27.2601 46.4342 -0.0211 -9.0655 0.0661
# 2 27.2601 40.8911 36.3734 -0.0190 -4.3433 0.0758
# 3 46.4342 36.3734 111.7694 -0.0082 -12.0075 0.0012
# 4 -0.0211 -0.0190 -0.0082 23.7390 -0.0018 -2.5721
# 5 -9.0655 -4.3433 -12.0075 -0.0018 23.3436 -0.0118
# 6 0.0661 0.0758 0.0012 -2.5721 -0.0118 35.4557
#
#
#
# Elastic Compliance Matrix: (Units=1/GPa)
#
#
# Indices 1 2 3 4 5 6 
#
# 1 0.010420 -0.004329 -0.002722 0.000004 0.001841 -0.000009
# 2 -0.004329 0.036228 -0.010000 0.000014 -0.000085 -0.000068
# 3 -0.002722 -0.010000 0.013780 -0.000002 0.004171 0.000027
# 4 0.000004 0.000014 -0.000002 0.042458 0.000008 0.003080
# 5 0.001841 -0.000085 0.004171 0.000008 0.045683 0.000012
# 6 -0.000009 -0.000068 0.000027 0.003080 0.000012 0.028428
#
#
# Mechanical properties :
#
#
# Convention : Reuss Voigt Hill
#
# Bulk Modulus (GPa) = 37.98751 54.86980 46.42866
# Shear Modulus (GPa) = 22.74022 27.41600 25.07811
#
# Velocity S-wave (km/s) = 3.40064 3.73392 3.57117
# Velocity P-wave (km/s) = 5.89383 6.81858 6.37300
#
# Compressibility (1/GPa) = 0.02632444
#
# Stress axis : x y z
#
# Youngs Moduli (GPa) = 95.97341 27.60314 72.56718
#
# Poissons Ratio (x) = 0.11950 0.19754
# Poissons Ratio (y) = 0.41550 0.72569
# Poissons Ratio (z) = 0.26125 0.27604
#
# Static dielectric constant tensor:
#      x y z
#    x 3.675520 -0.000080 -0.031650 
#    y -0.000080 3.437120 0.000050 
#    z -0.031650 0.000050 3.745820 
# 
# 
# High freq. dielectric constant tensor:
#      x y z
#    x 1.778410 0.000000 -0.002660 
#    y 0.000000 1.751280 0.000000 
#    z -0.002660 0.000000 1.772990 
# 
# From -- ./inp_files/380581.got.cif
#   From: 2010.06.25/outbox.cif.g09.slc.cpg/sg12_191_cif.got.tgz:380581.got - 2010.06.28 00:19:55.
