data_PCOD8094757
_publ_section_title
;
Structure prediction by ZEFSAII (Michael W. Deem and Ramdas Pophale) SiO2 
 PCOD8094757
Probable space group: C 2/M
;
_chemical_formula_sum "Si O2"
_cell_formula_units_Z 44
_cell_length_a 9.712164
_cell_length_b 28.819947
_cell_length_c 9.025698
_cell_angle_alpha 90.000000
_cell_angle_beta 60.286000
_cell_angle_gamma 90.000000
_cell_volume 2194.143456
_symmetry_space_group_name_H-M "C 2/M"
_symmetry_group_IT_number 12
_symmetry_cell_setting 'monoclinic'
loop_
_space_group_symop_operation_xyz
x,y,z
-x,y,-z
-x,-y,-z
x,-y,z
1/2+x,1/2+y,z
1/2-x,1/2+y,-z
1/2-x,1/2-y,-z
1/2+x,1/2-y,z
loop_
_atom_site_type_symbol
_atom_site_label
_atom_site_fract_x
_atom_site_fract_y
_atom_site_fract_z
Si Si1 0.750857 0.362221 0.914360
Si Si2 0.372048 0.379839 0.337589
Si Si3 0.144699 0.185752 0.247755
Si Si4 0.000000 0.266173 0.500000
Si Si5 0.912594 0.949501 0.893704
Si Si6 0.390433 0.157537 0.350124
O O1 0.646174 0.362001 0.821865
O O2 0.934131 0.359141 0.776344
O O3 0.692406 0.319023 0.048186
O O4 0.725737 0.410831 0.016772
O O5 0.483932 0.343213 0.364602
O O6 0.457118 0.430028 0.292936
O O7 0.204116 0.383030 0.511080
O O8 0.300329 0.167104 0.246685
O O9 0.107837 0.237413 0.326064
O O10 0.884818 0.297787 0.461367
O O11 0.847114 0.000000 0.874403
O O12 0.000000 0.957397 0.000000
#
# Coordination Sequence:
#
# PCOD8094757 Si02
#       6
#     8   8   8   4   8   8
#     4  10  21  38  61  86 117 153 188 242 294 337
#     4  10  19  39  62  83 117 156 188 237 292 341
#     4  11  23  38  59  81 111 161 198 233 289 343
#     4  12  24  38  60  78 118 154 206 246 280 336
#     4   8  16  33  61  91 115 148 192 229 278 356
#     4  12  22  39  57  84 118 153 195 246 293 329
#
# _framework density 20.053383
#
# number of rings (size 3 to 8) (size 9 to 14) (size 15 to 20)
#    0.000    1.636    3.636    2.727    0.000    0.727 
#    0.000    2.727    0.000   21.818    0.000    0.000 
#    0.000    0.000    0.000    0.000    0.000    0.000 
#
# Total GULP energy -272637.413279 kJ/mol
# GULP energy per Si atom -12392.609695 kJ/mol
# Density = 2.000774 g / cm^3
# Si number density = 20.053383 Si / 1000 Ang^3
#
#
#
# Elastic Constant Matrix: (Units=GPa)
#
#
# Indices 1 2 3 4 5 6 
#
# 1 82.5668 28.0472 16.4419 0.0000 0.1989 0.0000
# 2 28.0472 109.4497 46.1064 0.0000 -15.2440 0.0000
# 3 16.4419 46.1064 99.3851 0.0000 -20.2470 0.0000
# 4 0.0000 0.0000 0.0000 58.7668 0.0000 8.8375
# 5 0.1989 -15.2440 -20.2470 0.0000 40.0322 0.0000
# 6 0.0000 0.0000 0.0000 8.8375 0.0000 18.7356
#
#
#
# Elastic Compliance Matrix: (Units=1/GPa)
#
#
# Indices 1 2 3 4 5 6 
#
# 1 0.013435 -0.003239 -0.001098 0.000000 -0.001855 0.000000
# 2 -0.003239 0.012261 -0.004680 0.000000 0.002318 0.000000
# 3 -0.001098 -0.004680 0.013437 0.000000 0.005019 0.000000
# 4 0.000000 0.000000 0.000000 0.018316 0.000000 -0.008639
# 5 -0.001855 0.002318 0.005019 0.000000 0.028410 0.000000
# 6 0.000000 0.000000 0.000000 -0.008639 0.000000 0.057449
#
#
# Mechanical properties :
#
#
# Convention : Reuss Voigt Hill
#
# Bulk Modulus (GPa) = 47.39481 52.51028 49.95255
# Shear Modulus (GPa) = 29.69565 36.89400 33.29483
#
# Velocity S-wave (km/s) = 3.85233 4.29393 4.07911
# Velocity P-wave (km/s) = 6.59340 7.12923 6.86654
#
# Compressibility (1/GPa) = 0.02109936
#
# Stress axis : x y z
#
# Youngs Moduli (GPa) = 74.43441 81.56050 74.41988
#
# Poissons Ratio (x) = 0.26413 0.08173
# Poissons Ratio (y) = 0.24106 0.34829
# Poissons Ratio (z) = 0.08174 0.38170
#
# Static dielectric constant tensor:
#      x y z
#    x 3.634160 0.000000 0.042920 
#    y 0.000000 3.720570 0.000000 
#    z 0.042920 0.000000 3.727020 
# 
# 
# High freq. dielectric constant tensor:
#      x y z
#    x 1.781340 0.000000 0.000140 
#    y 0.000000 1.750650 0.000000 
#    z 0.000140 0.000000 1.791980 
# 
# From -- ./inp_files/42073.got.cif
#   From: 2010.06.25/outbox.cif.g09.slc.cpg/sg12_22_cif.got.tgz:42073.got - 2010.06.28 00:19:55.
