data_PCOD8094644
_publ_section_title
;
Structure prediction by ZEFSAII (Michael W. Deem and Ramdas Pophale) SiO2 
 PCOD8094644
Probable space group: C 2/M
;
_chemical_formula_sum "Si O2"
_cell_formula_units_Z 56
_cell_length_a 19.761230
_cell_length_b 8.903283
_cell_length_c 26.023964
_cell_angle_alpha 90.000000
_cell_angle_beta 140.816483
_cell_angle_gamma 90.000000
_cell_volume 2892.821117
_symmetry_space_group_name_H-M "C 2/M"
_symmetry_group_IT_number 12
_symmetry_cell_setting 'monoclinic'
loop_
_space_group_symop_operation_xyz
x,y,z
-x,y,-z
-x,-y,-z
x,-y,z
1/2+x,1/2+y,z
1/2-x,1/2+y,-z
1/2-x,1/2-y,-z
1/2+x,1/2-y,z
loop_
_atom_site_type_symbol
_atom_site_label
_atom_site_fract_x
_atom_site_fract_y
_atom_site_fract_z
Si Si1 0.253403 0.326709 0.743348
Si Si2 0.915186 0.824062 0.992668
Si Si3 0.682198 0.828816 0.813781
Si Si4 0.970820 0.322829 0.851208
Si Si5 0.986515 0.176235 0.749967
Si Si6 0.380562 0.178550 0.431976
Si Si7 0.228953 0.822810 0.433130
O O1 0.286997 0.500000 0.754323
O O2 0.183235 0.309500 0.753106
O O3 0.360213 0.230109 0.811522
O O4 0.184330 0.262649 0.655520
O O5 0.796707 0.784213 0.904164
O O6 0.930333 0.000000 0.011645
O O7 0.000000 0.768453 0.000000
O O8 0.933187 0.736859 0.056537
O O9 0.594513 0.716039 0.783841
O O10 0.652723 0.000000 0.811212
O O11 0.975767 0.500000 0.851700
O O12 0.984009 0.259999 0.802221
O O13 0.885741 0.228723 0.656400
O O14 0.980929 0.000000 0.757444
O O15 0.500000 0.247028 0.500000
O O16 0.321314 0.233700 0.448583
O O17 0.385310 0.000000 0.432899
O O18 0.250000 0.750000 0.500000
O O19 0.233521 0.000000 0.442459
#
# Coordination Sequence:
#
# PCOD8094644 Si02
#       7
#     8   8   8   8   8   8   8
#     4  10  19  38  63  87 121 160 201 244 298 361
#     4  10  20  39  64  89 120 158 199 246 304 361
#     4  10  22  38  63  94 119 154 203 251 297 356
#     4  12  24  38  62  91 121 158 204 251 298 355
#     4  11  24  43  62  84 123 167 202 243 300 362
#     4   9  18  34  60  90 116 150 198 244 288 350
#     4  10  22  39  61  87 119 157 198 243 298 359
#
# _framework density 19.358266
#
# number of rings (size 3 to 8) (size 9 to 14) (size 15 to 20)
#    0.000    1.714    2.857    1.714    2.000    3.143 
#    0.000    0.000    0.000    0.857    0.000    0.000 
#    0.000    0.000    0.000    0.000    0.000    0.000 
#
# Total GULP energy -347309.014106 kJ/mol
# GULP energy per Si atom -12403.893361 kJ/mol
# Density = 1.931421 g / cm^3
# Si number density = 19.358266 Si / 1000 Ang^3
#
#
#
# Elastic Constant Matrix: (Units=GPa)
#
#
# Indices 1 2 3 4 5 6 
#
# 1 115.8279 46.1138 74.8799 0.0000 -0.6231 -0.0001
# 2 46.1138 62.6663 45.0647 0.0000 -8.1295 0.0000
# 3 74.8799 45.0647 141.4121 0.0000 -12.0688 0.0000
# 4 0.0000 0.0000 0.0000 25.3262 0.0000 -1.4035
# 5 -0.6231 -8.1295 -12.0688 0.0000 41.6273 0.0000
# 6 -0.0001 0.0000 0.0000 -1.4035 0.0000 32.6160
#
#
#
# Elastic Compliance Matrix: (Units=1/GPa)
#
#
# Indices 1 2 3 4 5 6 
#
# 1 0.015519 -0.007413 -0.006110 0.000000 -0.002987 0.000000
# 2 -0.007413 0.024439 -0.003553 0.000000 0.003632 0.000000
# 3 -0.006110 -0.003553 0.011660 0.000000 0.002595 0.000000
# 4 0.000000 0.000000 0.000000 0.039579 0.000000 0.001703
# 5 -0.002987 0.003632 0.002595 0.000000 0.025440 0.000000
# 6 0.000000 0.000000 0.000000 0.001703 0.000000 0.030733
#
#
# Mechanical properties :
#
#
# Convention : Reuss Voigt Hill
#
# Bulk Modulus (GPa) = 57.25355 72.44703 64.85029
# Shear Modulus (GPa) = 26.68893 30.17043 28.42968
#
# Velocity S-wave (km/s) = 3.71709 3.95210 3.83640
# Velocity P-wave (km/s) = 6.93270 7.63748 7.29361
#
# Compressibility (1/GPa) = 0.01746617
#
# Stress axis : x y z
#
# Youngs Moduli (GPa) = 64.43804 40.91874 85.76028
#
# Poissons Ratio (x) = 0.30335 0.52398
# Poissons Ratio (y) = 0.47771 0.30467
# Poissons Ratio (z) = 0.39371 0.14537
#
# Static dielectric constant tensor:
#      x y z
#    x 3.616430 0.000000 -0.012010 
#    y 0.000000 3.311900 0.000000 
#    z -0.012010 0.000000 3.763030 
# 
# 
# High freq. dielectric constant tensor:
#      x y z
#    x 1.760980 0.000000 -0.006190 
#    y 0.000000 1.728260 0.000000 
#    z -0.006190 0.000000 1.767890 
# 
# From -- ./inp_files/363096.got.cif
#   From: 2010.06.25/outbox.cif.g09.slc.cpg/sg12_182_cif.got.tgz:363096.got - 2010.06.28 00:19:55.
