data_PCOD8094553
_publ_section_title
;
Structure prediction by ZEFSAII (Michael W. Deem and Ramdas Pophale) SiO2 
 PCOD8094553
Probable space group: C 2/M
;
_chemical_formula_sum "Si O2"
_cell_formula_units_Z 28
_cell_length_a 12.518555
_cell_length_b 25.700017
_cell_length_c 7.377536
_cell_angle_alpha 90.000000
_cell_angle_beta 35.572837
_cell_angle_gamma 90.000000
_cell_volume 1380.784666
_symmetry_space_group_name_H-M "C 2/M"
_symmetry_group_IT_number 12
_symmetry_cell_setting 'monoclinic'
loop_
_space_group_symop_operation_xyz
x,y,z
-x,y,-z
-x,-y,-z
x,-y,z
1/2+x,1/2+y,z
1/2-x,1/2+y,-z
1/2-x,1/2-y,-z
1/2+x,1/2-y,z
loop_
_atom_site_type_symbol
_atom_site_label
_atom_site_fract_x
_atom_site_fract_y
_atom_site_fract_z
Si Si1 0.824563 0.000000 0.863318
Si Si2 0.845429 0.302938 0.579331
Si Si3 0.561192 0.000000 0.628176
Si Si4 0.303566 0.414376 0.190966
Si Si5 0.500000 0.233480 0.000000
O O1 0.000000 0.000000 0.500000
O O2 0.830798 0.052699 0.971265
O O3 0.636950 0.000000 0.996642
O O4 0.803173 0.361422 0.701311
O O5 0.662793 0.268915 0.854137
O O6 0.000000 0.279893 0.500000
O O7 0.919789 0.302563 0.270460
O O8 0.500000 0.000000 0.500000
O O9 0.683857 0.948903 0.498547
O O10 0.500000 0.400056 0.000000
#
# Coordination Sequence:
#
# PCOD8094553 Si02
#       5
#     4   8   4   8   4
#     4  10  20  37  58  92 117 155 207 248 302 378
#     4  11  21  42  64  89 126 165 203 262 310 360
#     4   8  16  33  56  79 112 152 194 234 304 365
#     4  10  19  38  59  83 122 164 196 248 310 367
#     4  10  24  40  62  96 120 160 222 250 310 370
#
# _framework density 20.278324000000001
#
# number of rings (size 3 to 8) (size 9 to 14) (size 15 to 20)
#    0.000    2.286    1.429    5.143    0.000    0.000 
#   10.286    2.857    0.000    0.000    0.000    0.000 
#    0.000    0.000    0.000    0.000    0.000    0.000 
#
# Total GULP energy -173535.082493 kJ/mol
# GULP energy per Si atom -12395.363035 kJ/mol
# Density = 2.023217 g / cm^3
# Si number density = 20.278324 Si / 1000 Ang^3
#
#
#
# Elastic Constant Matrix: (Units=GPa)
#
#
# Indices 1 2 3 4 5 6 
#
# 1 76.2373 30.0426 35.7192 0.0000 -30.1862 0.0000
# 2 30.0426 111.9687 45.4729 0.0000 3.1535 0.0000
# 3 35.7192 45.4729 151.0584 0.0000 -17.4871 0.0000
# 4 0.0000 0.0000 0.0000 14.4981 0.0000 2.0885
# 5 -30.1862 3.1535 -17.4871 0.0000 44.3318 0.0000
# 6 0.0000 0.0000 0.0000 2.0885 0.0000 15.3767
#
#
#
# Elastic Compliance Matrix: (Units=1/GPa)
#
#
# Indices 1 2 3 4 5 6 
#
# 1 0.021954 -0.005562 -0.001824 0.000000 0.014625 0.000000
# 2 -0.005562 0.011760 -0.002892 0.000000 -0.005765 0.000000
# 3 -0.001824 -0.002892 0.008175 0.000000 0.002189 0.000000
# 4 0.000000 0.000000 0.000000 0.070351 0.000000 -0.009555
# 5 0.014625 -0.005765 0.002189 0.000000 0.033789 0.000000
# 6 0.000000 0.000000 0.000000 -0.009555 0.000000 0.066331
#
#
# Mechanical properties :
#
#
# Convention : Reuss Voigt Hill
#
# Bulk Modulus (GPa) = 46.87459 62.41489 54.64474
# Shear Modulus (GPa) = 20.83087 30.04328 25.43708
#
# Velocity S-wave (km/s) = 3.20855 3.85326 3.54559
# Velocity P-wave (km/s) = 6.07389 7.11637 6.61570
#
# Compressibility (1/GPa) = 0.02133352
#
# Stress axis : x y z
#
# Youngs Moduli (GPa) = 45.54988 85.03132 122.31938
#
# Poissons Ratio (x) = 0.47292 0.22311
# Poissons Ratio (y) = 0.25333 0.35380
# Poissons Ratio (z) = 0.08308 0.24595
#
# Static dielectric constant tensor:
#      x y z
#    x 3.589210 0.000000 -0.565710 
#    y 0.000000 3.492760 0.000000 
#    z -0.565710 0.000000 4.314140 
# 
# 
# High freq. dielectric constant tensor:
#      x y z
#    x 1.778950 0.000000 -0.037350 
#    y 0.000000 1.784530 0.000000 
#    z -0.037350 0.000000 1.806140 
# 
# From -- ./inp_files/64577.got.cif
#   From: 2010.06.25/outbox.cif.g09.slc.cpg/sg12_33_cif.got.tgz:64577.got - 2010.06.28 00:19:55.
