data_PCOD8094297
_publ_section_title
;
Structure prediction by ZEFSAII (Michael W. Deem and Ramdas Pophale) SiO2 
 PCOD8094297
Probable space group: C 2/M
;
_chemical_formula_sum "Si O2"
_cell_formula_units_Z 56
_cell_length_a 19.560455
_cell_length_b 8.842523
_cell_length_c 24.679662
_cell_angle_alpha 90.000000
_cell_angle_beta 45.314561
_cell_angle_gamma 90.000000
_cell_volume 3034.943770
_symmetry_space_group_name_H-M "C 2/M"
_symmetry_group_IT_number 12
_symmetry_cell_setting 'monoclinic'
loop_
_space_group_symop_operation_xyz
x,y,z
-x,y,-z
-x,-y,-z
x,-y,z
1/2+x,1/2+y,z
1/2-x,1/2+y,-z
1/2-x,1/2-y,-z
1/2+x,1/2-y,z
loop_
_atom_site_type_symbol
_atom_site_label
_atom_site_fract_x
_atom_site_fract_y
_atom_site_fract_z
Si Si1 0.180650 0.180206 0.195359
Si Si2 0.327796 0.675825 0.493628
Si Si3 0.714295 0.321904 0.964916
Si Si4 0.802671 0.678952 0.342622
Si Si5 0.463044 0.678220 0.329045
Si Si6 0.017917 0.671605 0.053349
Si Si7 0.318029 0.179437 0.213322
O O1 0.225015 0.252079 0.117454
O O2 0.238418 0.240882 0.215677
O O3 0.071146 0.237167 0.261642
O O4 0.188040 0.000000 0.186425
O O5 0.312006 0.500000 0.497106
O O6 0.250000 0.750000 0.500000
O O7 0.300202 0.722747 0.570898
O O8 0.431236 0.718938 0.409538
O O9 0.729784 0.500000 0.957455
O O10 0.750000 0.250000 0.000000
O O11 0.602329 0.285105 0.021305
O O12 0.817801 0.500000 0.332257
O O13 0.894058 0.745561 0.323342
O O14 0.797253 0.745147 0.284855
O O15 0.457589 0.500000 0.322275
O O16 0.043746 0.500000 0.056987
O O17 0.923550 0.732897 0.136388
O O18 0.000000 0.675376 0.000000
O O19 0.313075 0.000000 0.215893
#
# Coordination Sequence:
#
# PCOD8094297 Si02
#       7
#     8   8   8   8   8   8   8
#     4  10  20  38  56  75 106 143 177 214 268 321
#     4   8  14  27  46  72 103 134 170 214 261 307
#     4  12  26  41  58  81 109 139 178 223 268 318
#     4   9  17  30  51  77 104 136 177 217 258 315
#     4   9  18  31  51  76 104 137 174 219 266 309
#     4  10  19  37  61  80 105 144 181 214 262 321
#     4   9  18  33  54  77 104 140 177 212 259 316
#
# _framework density 18.451743
#
# number of rings (size 3 to 8) (size 9 to 14) (size 15 to 20)
#    0.000    2.429    1.429    1.286    2.000    0.857 
#    0.000    1.429    0.000    4.286    0.000    0.000 
#    0.000   12.571    0.000    0.000    0.000    0.000 
#
# Total GULP energy -346946.650370 kJ/mol
# GULP energy per Si atom -12390.951799 kJ/mol
# Density = 1.840975 g / cm^3
# Si number density = 18.451743 Si / 1000 Ang^3
#
#
#
# Elastic Constant Matrix: (Units=GPa)
#
#
# Indices 1 2 3 4 5 6 
#
# 1 111.7968 29.6630 97.9318 0.0000 1.0823 -0.0004
# 2 29.6630 32.0850 31.4363 0.0002 1.0082 -0.0009
# 3 97.9318 31.4363 173.9709 0.0000 21.8920 0.0000
# 4 0.0000 0.0002 0.0000 19.5308 0.0000 -1.2301
# 5 1.0823 1.0082 21.8920 0.0000 27.3721 0.0000
# 6 -0.0004 -0.0009 0.0000 -1.2301 0.0000 21.2344
#
#
#
# Elastic Compliance Matrix: (Units=1/GPa)
#
#
# Indices 1 2 3 4 5 6 
#
# 1 0.021184 -0.008636 -0.011451 0.000000 0.008639 0.000000
# 2 -0.008636 0.041906 -0.002846 0.000000 0.001074 0.000002
# 3 -0.011451 -0.002846 0.014053 0.000000 -0.010682 0.000000
# 4 0.000000 0.000000 0.000000 0.051389 0.000000 0.002977
# 5 0.008639 0.001074 -0.010682 0.000000 0.044696 0.000000
# 6 0.000000 0.000002 0.000000 0.002977 0.000000 0.047266
#
#
# Mechanical properties :
#
#
# Convention : Reuss Voigt Hill
#
# Bulk Modulus (GPa) = 31.97403 70.65723 51.31563
# Shear Modulus (GPa) = 18.06453 24.21555 21.14004
#
# Velocity S-wave (km/s) = 3.13232 3.62660 3.38848
# Velocity P-wave (km/s) = 5.51797 7.47746 6.57116
#
# Compressibility (1/GPa) = 0.03127539
#
# Stress axis : x y z
#
# Youngs Moduli (GPa) = 47.20583 23.86277 71.16062
#
# Poissons Ratio (x) = 0.20609 0.81489
# Poissons Ratio (y) = 0.40769 0.20252
# Poissons Ratio (z) = 0.54057 0.06791
#
# Static dielectric constant tensor:
#      x y z
#    x 3.335300 0.000000 0.049460 
#    y 0.000000 3.162210 0.000000 
#    z 0.049460 0.000000 4.205950 
# 
# 
# High freq. dielectric constant tensor:
#      x y z
#    x 1.697580 0.000000 0.003880 
#    y 0.000000 1.691390 0.000000 
#    z 0.003880 0.000000 1.742600 
# 
# From -- ./inp_files/342356.got.cif
#   From: 2010.06.25/outbox.cif.g09.slc.cpg/sg12_172_cif.got.tgz:342356.got - 2010.06.28 00:19:55.
