data_PCOD8094300
_publ_section_title
;
Structure prediction by ZEFSAII (Michael W. Deem and Ramdas Pophale) SiO2 
 PCOD8094300
Probable space group: C 2/M
;
_chemical_formula_sum "Si O2"
_cell_formula_units_Z 56
_cell_length_a 20.080927
_cell_length_b 8.953896
_cell_length_c 26.371099
_cell_angle_alpha 90.000000
_cell_angle_beta 141.414481
_cell_angle_gamma 90.000000
_cell_volume 2957.244823
_symmetry_space_group_name_H-M "C 2/M"
_symmetry_group_IT_number 12
_symmetry_cell_setting 'monoclinic'
loop_
_space_group_symop_operation_xyz
x,y,z
-x,y,-z
-x,-y,-z
x,-y,z
1/2+x,1/2+y,z
1/2-x,1/2+y,-z
1/2-x,1/2-y,-z
1/2+x,1/2-y,z
loop_
_atom_site_type_symbol
_atom_site_label
_atom_site_fract_x
_atom_site_fract_y
_atom_site_fract_z
Si Si1 0.996505 0.676051 0.236599
Si Si2 0.667563 0.824045 0.489519
Si Si3 0.135792 0.322738 0.936687
Si Si4 0.767232 0.677202 0.640603
Si Si5 0.739255 0.823291 0.247583
Si Si6 0.564460 0.174237 0.689369
Si Si7 0.479412 0.822527 0.931329
O O1 0.003606 0.500000 0.234669
O O2 0.933063 0.741740 0.151063
O O3 0.937475 0.722077 0.252937
O O4 0.117316 0.735313 0.309118
O O5 0.750000 0.750000 0.500000
O O6 0.681258 0.760276 0.554332
O O7 0.547671 0.782915 0.402473
O O8 0.686833 0.000000 0.499528
O O9 0.147630 0.500000 0.940977
O O10 0.077567 0.272601 0.953907
O O11 0.250000 0.250000 0.000000
O O12 0.753263 0.500000 0.626146
O O13 0.751903 0.730235 0.689180
O O14 0.842463 0.768172 0.279991
O O15 0.631763 0.758380 0.157403
O O16 0.734669 0.000000 0.242788
O O17 0.589167 0.000000 0.697602
O O18 0.472716 0.000000 0.929034
O O19 0.500000 0.757526 0.000000
#
# Coordination Sequence:
#
# PCOD8094300 Si02
#       7
#     8   8   8   8   8   8   8
#     4   9  17  35  58  77 106 152 189 217 273 342
#     4  11  22  37  59  86 114 147 187 233 283 332
#     4  10  20  35  57  83 112 145 185 229 276 333
#     4  10  19  37  61  81 109 150 192 229 275 335
#     4  10  21  37  59  84 111 148 191 232 274 330
#     4  10  22  38  56  79 112 149 182 226 284 340
#     4   9  18  34  56  81 111 147 184 227 280 330
#
# _framework density 18.936546
#
# number of rings (size 3 to 8) (size 9 to 14) (size 15 to 20)
#    0.000    2.143    2.857    0.429    2.000    2.286 
#    0.000    4.286    0.000    0.857    0.000    0.000 
#    0.000    0.000    0.000    0.000    0.000    0.000 
#
# Total GULP energy -347200.050614 kJ/mol
# GULP energy per Si atom -12400.001808 kJ/mol
# Density = 1.889345 g / cm^3
# Si number density = 18.936546 Si / 1000 Ang^3
#
#
#
# Elastic Constant Matrix: (Units=GPa)
#
#
# Indices 1 2 3 4 5 6 
#
# 1 140.7339 23.4468 74.5307 0.0000 -8.1681 0.0000
# 2 23.4468 24.0853 28.5969 0.0000 -2.3117 0.0000
# 3 74.5307 28.5969 136.5689 0.0000 -17.3672 0.0000
# 4 0.0000 0.0000 0.0000 26.6782 0.0000 4.7928
# 5 -8.1681 -2.3117 -17.3672 0.0000 38.7275 0.0000
# 6 0.0000 0.0000 0.0000 4.7928 0.0000 30.9103
#
#
#
# Elastic Compliance Matrix: (Units=1/GPa)
#
#
# Indices 1 2 3 4 5 6 
#
# 1 0.010347 -0.004467 -0.004738 0.000000 -0.000209 0.000000
# 2 -0.004467 0.057333 -0.009811 0.000000 -0.001920 0.000000
# 3 -0.004738 -0.009811 0.012472 0.000000 0.004008 0.000000
# 4 0.000000 0.000000 0.000000 0.038558 0.000000 -0.005979
# 5 -0.000209 -0.001920 0.004008 0.000000 0.027460 0.000000
# 6 0.000000 0.000000 0.000000 -0.005979 0.000000 0.033279
#
#
# Mechanical properties :
#
#
# Convention : Reuss Voigt Hill
#
# Bulk Modulus (GPa) = 23.74234 61.61520 42.67877
# Shear Modulus (GPa) = 21.59629 30.91745 26.25687
#
# Velocity S-wave (km/s) = 3.38073 4.04504 3.72771
# Velocity P-wave (km/s) = 5.27296 7.37731 6.41206
#
# Compressibility (1/GPa) = 0.04211885
#
# Stress axis : x y z
#
# Youngs Moduli (GPa) = 96.64811 17.44195 80.17917
#
# Poissons Ratio (x) = 0.07792 0.37987
# Poissons Ratio (y) = 0.43176 0.78667
# Poissons Ratio (z) = 0.45790 0.17113
#
# Static dielectric constant tensor:
#      x y z
#    x 3.624550 0.000000 -0.226630 
#    y 0.000000 3.076300 0.000000 
#    z -0.226630 0.000000 3.833050 
# 
# 
# High freq. dielectric constant tensor:
#      x y z
#    x 1.747360 0.000000 -0.007690 
#    y 0.000000 1.696620 0.000000 
#    z -0.007690 0.000000 1.750870 
# 
# From -- ./inp_files/363131.got.cif
#   From: 2010.06.25/outbox.cif.g09.slc.cpg/sg12_182_cif.got.tgz:363131.got - 2010.06.28 00:19:55.
