data_PCOD8094722
_publ_section_title
;
Structure prediction by ZEFSAII (Michael W. Deem and Ramdas Pophale) SiO2 
 PCOD8094722
Probable space group: C 2/M
;
_chemical_formula_sum "Si O2"
_cell_formula_units_Z 32
_cell_length_a 13.077398
_cell_length_b 23.695154
_cell_length_c 8.627407
_cell_angle_alpha 90.000000
_cell_angle_beta 147.395478
_cell_angle_gamma 90.000000
_cell_volume 1440.518343
_symmetry_space_group_name_H-M "C 2/M"
_symmetry_group_IT_number 12
_symmetry_cell_setting 'monoclinic'
loop_
_space_group_symop_operation_xyz
x,y,z
-x,y,-z
-x,-y,-z
x,-y,z
1/2+x,1/2+y,z
1/2-x,1/2+y,-z
1/2-x,1/2-y,-z
1/2+x,1/2-y,z
loop_
_atom_site_type_symbol
_atom_site_label
_atom_site_fract_x
_atom_site_fract_y
_atom_site_fract_z
Si Si1 0.525085 0.500000 0.849455
Si Si2 0.851884 0.192202 0.673348
Si Si3 0.996857 0.619731 0.808398
Si Si4 0.399082 0.000000 0.712165
Si Si5 0.900963 0.112818 0.217485
O O1 0.317823 0.500000 0.512495
O O2 0.627846 0.557944 0.928832
O O3 0.500000 0.500000 0.000000
O O4 0.750000 0.250000 0.500000
O O5 0.675198 0.152740 0.492839
O O6 0.969225 0.162645 0.685709
O O7 0.000000 0.202438 0.000000
O O8 0.961633 0.556080 0.702280
O O9 0.000000 0.626128 0.000000
O O10 0.196446 0.640414 0.993605
O O11 0.500000 0.000000 0.000000
O O12 0.000000 0.090717 0.500000
#
# Coordination Sequence:
#
# PCOD8094722 Si02
#       5
#     4   8   8   4   8
#     4  12  24  44  73 112 154 188 235 301 359 438
#     4  12  28  50  73 103 145 188 247 312 364 429
#     4  11  22  44  72 108 145 189 241 298 361 436
#     4  10  19  38  68  98 146 185 222 286 352 427
#     4  12  24  45  79 108 145 196 242 292 372 437
#
# _framework density 22.214227000000001
#
# number of rings (size 3 to 8) (size 9 to 14) (size 15 to 20)
#    0.000    0.500    5.000    4.125    0.000    2.000 
#    0.000    1.250    0.000    0.000    0.000    0.000 
#    0.000    0.000    0.000    0.000    0.000    0.000 
#
# Total GULP energy -198312.530045 kJ/mol
# GULP energy per Si atom -12394.533128 kJ/mol
# Density = 2.216367 g / cm^3
# Si number density = 22.214227 Si / 1000 Ang^3
#
#
#
# Elastic Constant Matrix: (Units=GPa)
#
#
# Indices 1 2 3 4 5 6 
#
# 1 145.0313 61.1900 60.4230 0.0000 28.1027 0.0000
# 2 61.1900 170.4167 60.8387 0.0000 6.8198 0.0000
# 3 60.4230 60.8387 162.6923 0.0000 19.7142 0.0000
# 4 0.0000 0.0000 0.0000 37.1405 0.0000 0.4061
# 5 28.1027 6.8198 19.7142 0.0000 54.6276 0.0000
# 6 0.0000 0.0000 0.0000 0.4061 0.0000 14.5609
#
#
#
# Elastic Compliance Matrix: (Units=1/GPa)
#
#
# Indices 1 2 3 4 5 6 
#
# 1 0.009604 -0.002525 -0.002157 0.000000 -0.003847 0.000000
# 2 -0.002525 0.007436 -0.001974 0.000000 0.001083 0.000000
# 3 -0.002157 -0.001974 0.007865 0.000000 -0.001483 0.000000
# 4 0.000000 0.000000 0.000000 0.026933 0.000000 -0.000751
# 5 -0.003847 0.001083 -0.001483 0.000000 0.020685 0.000000
# 6 0.000000 0.000000 0.000000 -0.000751 0.000000 0.068698
#
#
# Mechanical properties :
#
#
# Convention : Reuss Voigt Hill
#
# Bulk Modulus (GPa) = 86.24751 93.67152 89.95951
# Shear Modulus (GPa) = 31.56616 40.97837 36.27226
#
# Velocity S-wave (km/s) = 3.77369 4.29965 4.04522
# Velocity P-wave (km/s) = 7.60903 8.17974 7.89954
#
# Compressibility (1/GPa) = 0.01159454
#
# Stress axis : x y z
#
# Youngs Moduli (GPa) = 104.12084 134.48220 127.13789
#
# Poissons Ratio (x) = 0.33951 0.27420
# Poissons Ratio (y) = 0.26286 0.25100
# Poissons Ratio (z) = 0.22456 0.26550
#
# Static dielectric constant tensor:
#      x y z
#    x 3.979570 0.000000 0.264210 
#    y 0.000000 3.817040 0.000000 
#    z 0.264210 0.000000 4.256980 
# 
# 
# High freq. dielectric constant tensor:
#      x y z
#    x 1.864360 0.000000 0.020610 
#    y 0.000000 1.873890 0.000000 
#    z 0.020610 0.000000 1.889410 
# 
# From -- ./inp_files/65681.got.cif
#   From: 2010.06.25/outbox.cif.g09.slc.cpg/sg12_33_cif.got.tgz:65681.got - 2010.06.28 00:19:55.
