data_PCOD8094283
_publ_section_title
;
Structure prediction by ZEFSAII (Michael W. Deem and Ramdas Pophale) SiO2 
 PCOD8094283
Probable space group: C 2/M
;
_chemical_formula_sum "Si O2"
_cell_formula_units_Z 56
_cell_length_a 14.871617
_cell_length_b 13.107296
_cell_length_c 23.710852
_cell_angle_alpha 90.000000
_cell_angle_beta 36.740355
_cell_angle_gamma 90.000000
_cell_volume 2764.759749
_symmetry_space_group_name_H-M "C 2/M"
_symmetry_group_IT_number 12
_symmetry_cell_setting 'monoclinic'
loop_
_space_group_symop_operation_xyz
x,y,z
-x,y,-z
-x,-y,-z
x,-y,z
1/2+x,1/2+y,z
1/2-x,1/2+y,-z
1/2-x,1/2-y,-z
1/2+x,1/2-y,z
loop_
_atom_site_type_symbol
_atom_site_label
_atom_site_fract_x
_atom_site_fract_y
_atom_site_fract_z
Si Si1 0.738843 0.611824 0.275456
Si Si2 0.684610 0.619192 0.832602
Si Si3 0.532112 0.211774 0.094202
Si Si4 0.312741 0.884492 0.549183
Si Si5 0.716378 0.245696 0.110473
Si Si6 0.483057 0.385879 0.715480
Si Si7 0.119669 0.314770 0.365975
O O1 0.742520 0.500000 0.303155
O O2 0.897133 0.630350 0.164177
O O3 0.610123 0.615827 0.294178
O O4 0.694151 0.702580 0.340710
O O5 0.647893 0.500000 0.856769
O O6 0.539687 0.674982 0.877925
O O7 0.727176 0.662039 0.872977
O O8 0.826332 0.639293 0.720588
O O9 0.629587 0.194727 0.101671
O O10 0.639028 0.192727 0.986353
O O11 0.437398 0.811816 0.457159
O O12 0.329624 0.886583 0.608529
O O13 0.147520 0.840541 0.618190
O O14 0.333086 0.000000 0.516529
O O15 0.598223 0.322965 0.195677
O O16 0.503865 0.500000 0.728813
#
# Coordination Sequence:
#
# PCOD8094283 Si02
#       7
#     8   8   8   8   8   8   8
#     4  10  21  38  57  82 115 155 196 238 290 351
#     4  11  22  39  63  91 122 158 201 253 308 363
#     4  10  23  39  60  84 122 159 193 249 304 364
#     4  10  20  35  61  92 116 149 200 248 296 357
#     4  11  22  39  59  90 118 153 203 246 304 362
#     4  10  20  35  57  83 112 148 197 244 283 345
#     4  10  19  37  60  86 119 154 191 249 305 350
#
# _framework density 20.254923999999999
#
# number of rings (size 3 to 8) (size 9 to 14) (size 15 to 20)
#    0.000    1.714    2.857    3.857    0.000    4.571 
#    0.000    5.714    0.000    0.000    0.000    0.000 
#    0.000    0.000    0.000    0.000    0.000    0.000 
#
# Total GULP energy -347053.324670 kJ/mol
# GULP energy per Si atom -12394.761595 kJ/mol
# Density = 2.020882 g / cm^3
# Si number density = 20.254924 Si / 1000 Ang^3
#
#
#
# Elastic Constant Matrix: (Units=GPa)
#
#
# Indices 1 2 3 4 5 6 
#
# 1 80.0474 5.1448 19.5631 0.0000 -6.5347 0.0000
# 2 5.1448 79.9172 18.9491 -0.0001 -4.9680 0.0000
# 3 19.5631 18.9491 116.5042 -0.0005 -21.3043 0.0000
# 4 0.0000 -0.0001 -0.0005 15.7148 0.0001 -2.3691
# 5 -6.5347 -4.9680 -21.3043 0.0001 37.7753 0.0000
# 6 0.0000 0.0000 0.0000 -2.3691 0.0000 21.0722
#
#
#
# Elastic Compliance Matrix: (Units=1/GPa)
#
#
# Indices 1 2 3 4 5 6 
#
# 1 0.013079 -0.000312 -0.001939 0.000000 0.001128 0.000000
# 2 -0.000312 0.013034 -0.001967 0.000000 0.000551 0.000000
# 3 -0.001939 -0.001967 0.010169 0.000000 0.005141 0.000000
# 4 0.000000 0.000000 0.000000 0.064732 0.000000 0.007278
# 5 0.001128 0.000551 0.005141 0.000000 0.029639 0.000000
# 6 0.000000 0.000000 0.000000 0.007278 0.000000 0.048274
#
#
# Mechanical properties :
#
#
# Convention : Reuss Voigt Hill
#
# Bulk Modulus (GPa) = 35.91262 40.42029 38.16646
# Shear Modulus (GPa) = 25.42670 30.43325 27.92997
#
# Velocity S-wave (km/s) = 3.54691 3.88043 3.71741
# Velocity P-wave (km/s) = 5.87732 6.33057 6.10815
#
# Compressibility (1/GPa) = 0.02784536
#
# Stress axis : x y z
#
# Youngs Moduli (GPa) = 76.46055 76.72463 98.33841
#
# Poissons Ratio (x) = 0.02394 0.19069
# Poissons Ratio (y) = 0.02386 0.19341
# Poissons Ratio (z) = 0.14827 0.15090
#
# Static dielectric constant tensor:
#      x y z
#    x 3.606590 0.000000 -0.192580 
#    y 0.000000 3.928090 0.000000 
#    z -0.192580 0.000000 3.979110 
# 
# 
# High freq. dielectric constant tensor:
#      x y z
#    x 1.782360 0.000000 -0.017050 
#    y 0.000000 1.772180 0.000000 
#    z -0.017050 0.000000 1.806290 
# 
# From -- ./inp_files/340279.got.cif
#   From: 2010.06.25/outbox.cif.g09.slc.cpg/sg12_171_cif.got.tgz:340279.got - 2010.06.28 00:19:55.
