data_PCOD8094080
_publ_section_title
;
Structure prediction by ZEFSAII (Michael W. Deem and Ramdas Pophale) SiO2 
 PCOD8094080
Probable space group: C 2/M
;
_chemical_formula_sum "Si O2"
_cell_formula_units_Z 56
_cell_length_a 15.821756
_cell_length_b 15.019829
_cell_length_c 16.647727
_cell_angle_alpha 90.000000
_cell_angle_beta 132.561001
_cell_angle_gamma 90.000000
_cell_volume 2913.945030
_symmetry_space_group_name_H-M "C 2/M"
_symmetry_group_IT_number 12
_symmetry_cell_setting 'monoclinic'
loop_
_space_group_symop_operation_xyz
x,y,z
-x,y,-z
-x,-y,-z
x,-y,z
1/2+x,1/2+y,z
1/2-x,1/2+y,-z
1/2-x,1/2-y,-z
1/2+x,1/2-y,z
loop_
_atom_site_type_symbol
_atom_site_label
_atom_site_fract_x
_atom_site_fract_y
_atom_site_fract_z
Si Si1 0.826407 0.642895 0.261201
Si Si2 0.897107 0.000000 0.045848
Si Si3 0.629713 0.264465 0.580261
Si Si4 0.275657 0.849404 0.041808
Si Si5 0.503407 0.102945 0.913556
Si Si6 0.917051 0.401240 0.556948
Si Si7 0.822926 0.603681 0.670294
Si Si8 0.852745 0.000000 0.830474
O O1 0.825360 0.741017 0.300846
O O2 0.818166 0.648126 0.160400
O O3 0.722373 0.587743 0.233708
O O4 0.945713 0.597189 0.363636
O O5 0.033774 0.000000 0.153742
O O6 0.836586 0.911354 0.042388
O O7 0.887723 0.000000 0.945094
O O8 0.500000 0.300121 0.500000
O O9 0.640559 0.173580 0.535527
O O10 0.704054 0.343300 0.591150
O O11 0.373026 0.886513 0.046517
O O12 0.250000 0.750000 0.000000
O O13 0.404202 0.143462 0.792986
O O14 0.474820 0.000000 0.904946
O O15 0.500000 0.148837 0.000000
O O16 0.870979 0.500000 0.503637
O O17 0.888382 0.378755 0.630030
O O18 0.794826 0.500000 0.665064
#
# Coordination Sequence:
#
# PCOD8094080 Si02
#       8
#     8   4   8   8   8   8   8   4
#     4  10  20  35  59  84 120 153 190 241 296 352
#     4   9  20  38  55  82 120 155 190 235 295 346
#     4  10  23  36  56  89 120 147 194 250 295 352
#     4  11  22  37  60  84 118 158 193 240 298 350
#     4  10  21  38  62  88 112 150 207 251 279 338
#     4  10  19  36  63  88 112 148 198 245 299 345
#     4  10  21  38  62  83 112 160 199 240 295 346
#     4   9  18  34  59  82 118 157 184 231 297 364
#
# _framework density 19.217932999999999
#
# number of rings (size 3 to 8) (size 9 to 14) (size 15 to 20)
#    0.000    2.000    2.857    0.429    3.000    2.286 
#    2.571    0.000    0.000    0.000    0.000    0.000 
#    0.000    0.000    0.000    0.000    0.000    0.000 
#
# Total GULP energy -347119.677544 kJ/mol
# GULP energy per Si atom -12397.131341 kJ/mol
# Density = 1.917419 g / cm^3
# Si number density = 19.217933 Si / 1000 Ang^3
#
#
#
# Elastic Constant Matrix: (Units=GPa)
#
#
# Indices 1 2 3 4 5 6 
#
# 1 122.5453 51.3296 54.1048 0.0000 15.6541 0.0000
# 2 51.3296 73.6159 23.8945 0.0000 12.0889 0.0000
# 3 54.1048 23.8945 66.0618 0.0000 6.0341 0.0000
# 4 0.0000 0.0000 0.0000 11.7525 0.0000 8.9227
# 5 15.6541 12.0889 6.0341 0.0000 36.7704 0.0000
# 6 0.0000 0.0000 0.0000 8.9227 0.0000 19.6645
#
#
#
# Elastic Compliance Matrix: (Units=1/GPa)
#
#
# Indices 1 2 3 4 5 6 
#
# 1 0.016203 -0.007503 -0.010307 0.000000 -0.002740 0.000000
# 2 -0.007503 0.019535 -0.000636 0.000000 -0.003124 0.000000
# 3 -0.010307 -0.000636 0.023744 0.000000 0.000700 0.000000
# 4 0.000000 0.000000 0.000000 0.129804 0.000000 -0.058898
# 5 -0.002740 -0.003124 0.000700 0.000000 0.029275 0.000000
# 6 0.000000 0.000000 0.000000 -0.058898 0.000000 0.077578
#
#
# Mechanical properties :
#
#
# Convention : Reuss Voigt Hill
#
# Bulk Modulus (GPa) = 44.26216 57.87564 51.06890
# Shear Modulus (GPa) = 14.68171 22.49708 18.58940
#
# Velocity S-wave (km/s) = 2.76698 3.42516 3.11351
# Velocity P-wave (km/s) = 5.76974 6.76928 6.28940
#
# Compressibility (1/GPa) = 0.02259266
#
# Stress axis : x y z
#
# Youngs Moduli (GPa) = 61.71606 51.19110 42.11525
#
# Poissons Ratio (x) = 0.38407 0.43406
# Poissons Ratio (y) = 0.46303 0.02677
# Poissons Ratio (z) = 0.63608 0.03254
#
# Static dielectric constant tensor:
#      x y z
#    x 3.588330 0.000000 -0.043020 
#    y 0.000000 3.370830 0.000000 
#    z -0.043020 0.000000 3.631680 
# 
# 
# High freq. dielectric constant tensor:
#      x y z
#    x 1.753350 0.000000 -0.001470 
#    y 0.000000 1.731970 0.000000 
#    z -0.001470 0.000000 1.742190 
# 
# From -- ./inp_files/270423.got.cif
#   From: 2010.06.25/outbox.cif.g09.slc.cpg/sg12_136_cif.got.tgz:270423.got - 2010.06.28 00:19:55.
