data_PCOD8094385
_publ_section_title
;
Structure prediction by ZEFSAII (Michael W. Deem and Ramdas Pophale) SiO2 
 PCOD8094385
Probable space group: C 2/M
;
_chemical_formula_sum "Si O2"
_cell_formula_units_Z 56
_cell_length_a 18.142328
_cell_length_b 16.761891
_cell_length_c 11.425710
_cell_angle_alpha 90.000000
_cell_angle_beta 127.373085
_cell_angle_gamma 90.000000
_cell_volume 2761.228549
_symmetry_space_group_name_H-M "C 2/M"
_symmetry_group_IT_number 12
_symmetry_cell_setting 'monoclinic'
loop_
_space_group_symop_operation_xyz
x,y,z
-x,y,-z
-x,-y,-z
x,-y,z
1/2+x,1/2+y,z
1/2-x,1/2+y,-z
1/2-x,1/2-y,-z
1/2+x,1/2-y,z
loop_
_atom_site_type_symbol
_atom_site_label
_atom_site_fract_x
_atom_site_fract_y
_atom_site_fract_z
Si Si1 0.939937 0.831563 0.554460
Si Si2 0.375831 0.093956 0.311912
Si Si3 0.060008 0.656941 0.386503
Si Si4 0.218566 0.798996 0.081243
Si Si5 0.232445 0.142438 0.757512
Si Si6 0.600305 0.591737 0.838945
Si Si7 0.580887 0.910553 0.156111
O O1 0.924298 0.750939 0.609842
O O2 0.840179 0.865790 0.419883
O O3 0.000000 0.806913 0.500000
O O4 0.997346 0.895202 0.686998
O O5 0.453122 0.137445 0.308374
O O6 0.379903 0.117160 0.452386
O O7 0.280299 0.123700 0.166987
O O8 0.386510 0.000000 0.307588
O O9 0.094232 0.628148 0.294646
O O10 0.227760 0.733966 0.194117
O O11 0.250000 0.750000 0.000000
O O12 0.118786 0.842633 0.960749
O O13 0.181499 0.108718 0.823069
O O14 0.321477 0.088858 0.817552
O O15 0.605783 0.500000 0.887367
O O16 0.547916 0.000000 0.147416
O O17 0.500000 0.868207 0.000000
#
# Coordination Sequence:
#
# PCOD8094385 Si02
#       7
#     8   8   8   8   8   8   8
#     4  10  19  37  62  87 114 150 198 245 291 355
#     4  11  20  34  61  89 118 152 195 252 306 349
#     4  11  20  38  58  85 118 156 198 241 299 353
#     4  10  20  35  56  85 118 152 193 243 298 349
#     4  10  21  39  58  81 117 161 194 238 295 357
#     4  10  21  34  59  92 119 149 193 251 304 344
#     4  11  26  40  56  86 122 157 197 242 296 362
#
# _framework density 20.280826999999999
#
# number of rings (size 3 to 8) (size 9 to 14) (size 15 to 20)
#    0.000    1.571    2.857    4.286    6.000    3.714 
#    0.000    0.000    0.000    0.000    0.000    1.000 
#    0.000    0.000    0.000    0.000    0.000    0.000 
#
# Total GULP energy -347032.938992 kJ/mol
# GULP energy per Si atom -12394.033535 kJ/mol
# Density = 2.023467 g / cm^3
# Si number density = 20.280827 Si / 1000 Ang^3
#
#
#
# Elastic Constant Matrix: (Units=GPa)
#
#
# Indices 1 2 3 4 5 6 
#
# 1 42.2147 -10.0437 26.0455 0.0000 6.5686 0.0000
# 2 -10.0437 83.1213 24.1944 0.0000 5.3975 0.0000
# 3 26.0455 24.1944 112.9523 0.0000 22.0825 0.0000
# 4 0.0000 0.0000 0.0000 35.9955 0.0000 2.3535
# 5 6.5686 5.3975 22.0825 0.0000 24.7231 0.0000
# 6 0.0000 0.0000 0.0000 2.3535 0.0000 20.1785
#
#
#
# Elastic Compliance Matrix: (Units=1/GPa)
#
#
# Indices 1 2 3 4 5 6 
#
# 1 0.030349 0.006104 -0.007837 0.000000 -0.002396 0.000000
# 2 0.006104 0.014062 -0.004243 0.000000 -0.000902 0.000000
# 3 -0.007837 -0.004243 0.013304 0.000000 -0.008875 0.000000
# 4 0.000000 0.000000 0.000000 0.027995 0.000000 -0.003265
# 5 -0.002396 -0.000902 -0.008875 0.000000 0.049208 0.000000
# 6 0.000000 0.000000 0.000000 -0.003265 0.000000 0.049939
#
#
# Mechanical properties :
#
#
# Convention : Reuss Voigt Hill
#
# Bulk Modulus (GPa) = 21.85226 35.40896 28.63061
# Shear Modulus (GPa) = 23.57784 29.38556 26.48170
#
# Velocity S-wave (km/s) = 3.41334 3.81061 3.61744
# Velocity P-wave (km/s) = 5.13155 6.07110 5.62099
#
# Compressibility (1/GPa) = 0.04576185
#
# Stress axis : x y z
#
# Youngs Moduli (GPa) = 32.95030 71.11469 75.16303
#
# Poissons Ratio (x) = -0.43407 0.58906
# Poissons Ratio (y) = -0.20112 0.31894
# Poissons Ratio (z) = 0.25824 0.30176
#
# Static dielectric constant tensor:
#      x y z
#    x 3.151320 0.000000 0.076350 
#    y 0.000000 4.002030 0.000000 
#    z 0.076350 0.000000 4.112240 
# 
# 
# High freq. dielectric constant tensor:
#      x y z
#    x 1.733880 0.000000 0.012010 
#    y 0.000000 1.798660 0.000000 
#    z 0.012010 0.000000 1.812160 
# 
# From -- ./inp_files/158330.got.cif
#   From: 2010.06.25/outbox.cif.g09.slc.cpg/sg12_80_cif.got.tgz:158330.got - 2010.06.28 00:19:55.
