data_PCOD8094351
_publ_section_title
;
Structure prediction by ZEFSAII (Michael W. Deem and Ramdas Pophale) SiO2 
 PCOD8094351
Probable space group: C 2/M
;
_chemical_formula_sum "Si O2"
_cell_formula_units_Z 64
_cell_length_a 15.123456
_cell_length_b 17.331909
_cell_length_c 16.504180
_cell_angle_alpha 90.000000
_cell_angle_beta 44.637935
_cell_angle_gamma 90.000000
_cell_volume 3039.587010
_symmetry_space_group_name_H-M "C 2/M"
_symmetry_group_IT_number 12
_symmetry_cell_setting 'monoclinic'
loop_
_space_group_symop_operation_xyz
x,y,z
-x,y,-z
-x,-y,-z
x,-y,z
1/2+x,1/2+y,z
1/2-x,1/2+y,-z
1/2-x,1/2-y,-z
1/2+x,1/2-y,z
loop_
_atom_site_type_symbol
_atom_site_label
_atom_site_fract_x
_atom_site_fract_y
_atom_site_fract_z
Si Si1 0.021546 0.089399 0.229092
Si Si2 0.270951 0.328940 0.367027
Si Si3 0.844250 0.661839 0.282342
Si Si4 0.422898 0.089242 0.394542
Si Si5 0.755502 0.409406 0.185284
Si Si6 0.816088 0.853803 0.017427
Si Si7 0.291199 0.087788 0.754333
Si Si8 0.607929 0.181014 0.031352
O O1 0.124138 0.114907 0.228957
O O2 0.896666 0.138378 0.327353
O O3 0.987317 0.000000 0.259015
O O4 0.071821 0.107503 0.106447
O O5 0.275764 0.236344 0.364431
O O6 0.151521 0.356128 0.495694
O O7 0.258848 0.357479 0.283274
O O8 0.881475 0.603856 0.329505
O O9 0.750561 0.617909 0.281811
O O10 0.964871 0.686800 0.151925
O O11 0.568295 0.111052 0.311268
O O12 0.397208 0.000000 0.432657
O O13 0.777376 0.500000 0.166090
O O14 0.872360 0.369833 0.062174
O O15 0.800517 0.902037 0.109450
O O16 0.686803 0.858445 0.051729
O O17 0.844746 0.766019 0.021043
O O18 0.285244 0.000000 0.727397
#
# Coordination Sequence:
#
# PCOD8094351 Si02
#       8
#     8   8   8   8   8   8   8   8
#     4  10  21  40  63  89 128 168 203 250 308 369
#     4  12  25  42  64  90 124 167 210 254 308 368
#     4  12  23  41  64  94 123 162 211 253 310 367
#     4  11  25  45  67  90 121 160 211 266 309 358
#     4  10  23  39  62  94 128 165 204 251 309 371
#     4  10  19  37  61  95 128 161 201 249 309 373
#     4  11  23  40  65  93 126 162 206 258 308 365
#     4  10  20  36  61  91 131 165 198 249 309 370
#
# _framework density 21.055491
#
# number of rings (size 3 to 8) (size 9 to 14) (size 15 to 20)
#    0.000    1.250    2.500    3.750    0.000    4.500 
#    0.000    3.125    0.000    2.250    0.000    0.000 
#    0.000    0.000    0.000    0.000    0.000    0.000 
#
# Total GULP energy -396994.812405 kJ/mol
# GULP energy per Si atom -12406.087888 kJ/mol
# Density = 2.100757 g / cm^3
# Si number density = 21.055491 Si / 1000 Ang^3
#
#
#
# Elastic Constant Matrix: (Units=GPa)
#
#
# Indices 1 2 3 4 5 6 
#
# 1 71.4670 13.4286 9.7644 0.0000 14.7263 0.0000
# 2 13.4286 71.4873 3.5610 0.0000 1.5918 0.0000
# 3 9.7644 3.5610 48.9242 0.0000 0.0849 0.0000
# 4 0.0000 0.0000 0.0000 29.9754 0.0000 5.9048
# 5 14.7263 1.5918 0.0849 0.0000 26.3999 0.0000
# 6 0.0000 0.0000 0.0000 5.9048 0.0000 31.2118
#
#
#
# Elastic Compliance Matrix: (Units=1/GPa)
#
#
# Indices 1 2 3 4 5 6 
#
# 1 0.016848 -0.002803 -0.003143 0.000000 -0.009219 0.000000
# 2 -0.002803 0.014525 -0.000499 0.000000 0.000689 0.000000
# 3 -0.003143 -0.000499 0.021100 0.000000 0.001715 0.000000
# 4 0.000000 0.000000 0.000000 0.034652 0.000000 -0.006556
# 5 -0.009219 0.000689 0.001715 0.000000 0.042974 0.000000
# 6 0.000000 0.000000 0.000000 -0.006556 0.000000 0.033279
#
#
# Mechanical properties :
#
#
# Convention : Reuss Voigt Hill
#
# Bulk Modulus (GPa) = 25.26278 27.26516 26.26397
# Shear Modulus (GPa) = 26.39042 28.52572 27.45807
#
# Velocity S-wave (km/s) = 3.54414 3.68474 3.61512
# Velocity P-wave (km/s) = 5.36397 5.57498 5.47049
#
# Compressibility (1/GPa) = 0.03958392
#
# Stress axis : x y z
#
# Youngs Moduli (GPa) = 59.35362 68.84903 47.39263
#
# Poissons Ratio (x) = 0.19299 0.14893
# Poissons Ratio (y) = 0.16637 0.02365
# Poissons Ratio (z) = 0.18652 0.03435
#
# Static dielectric constant tensor:
#      x y z
#    x 3.954040 0.000000 0.068700 
#    y 0.000000 3.755290 0.000000 
#    z 0.068700 0.000000 3.641260 
# 
# 
# High freq. dielectric constant tensor:
#      x y z
#    x 1.834750 0.000000 0.005100 
#    y 0.000000 1.828590 0.000000 
#    z 0.005100 0.000000 1.815040 
# 
# From -- ./inp_files/216801.got.cif
#   From: 2010.06.25/outbox.cif.g09.slc.cpg/sg12_109_cif.got.tgz:216801.got - 2010.06.28 00:19:55.
