data_PCOD8094792
_publ_section_title
;
Structure prediction by ZEFSAII (Michael W. Deem and Ramdas Pophale) SiO2 
 PCOD8094792
Probable space group: C 2/M
;
_chemical_formula_sum "Si O2"
_cell_formula_units_Z 48
_cell_length_a 16.746019
_cell_length_b 17.483847
_cell_length_c 14.822516
_cell_angle_alpha 90.000000
_cell_angle_beta 26.349105
_cell_angle_gamma 90.000000
_cell_volume 1926.177539
_symmetry_space_group_name_H-M "C 2/M"
_symmetry_group_IT_number 12
_symmetry_cell_setting 'monoclinic'
loop_
_space_group_symop_operation_xyz
x,y,z
-x,y,-z
-x,-y,-z
x,-y,z
1/2+x,1/2+y,z
1/2-x,1/2+y,-z
1/2-x,1/2-y,-z
1/2+x,1/2-y,z
loop_
_atom_site_type_symbol
_atom_site_label
_atom_site_fract_x
_atom_site_fract_y
_atom_site_fract_z
Si Si1 0.854073 0.327687 0.432370
Si Si2 0.654279 0.089025 0.728447
Si Si3 0.406701 0.689517 0.824058
Si Si4 0.275022 0.842845 0.166893
Si Si5 0.196994 0.409737 0.155505
Si Si6 0.302124 0.327294 0.213601
O O1 0.749074 0.371003 0.455991
O O2 0.744390 0.331841 0.634975
O O3 0.905117 0.237992 0.355357
O O4 0.034657 0.377341 0.260448
O O5 0.770918 0.102254 0.701487
O O6 0.626411 0.000000 0.739497
O O7 0.462362 0.131226 0.933032
O O8 0.384762 0.654546 0.745223
O O9 0.250000 0.750000 0.000000
O O10 0.383893 0.623276 0.922325
O O11 0.290655 0.757828 0.188171
O O12 0.200281 0.500000 0.147927
O O13 0.173778 0.380799 0.282083
O O14 0.500000 0.360850 0.000000
#
# Coordination Sequence:
#
# PCOD8094792 Si02
#       6
#     8   8   8   8   8   8
#     4  11  23  41  70 101 127 176 228 276 323 404
#     4  11  22  38  65 102 136 173 219 270 335 404
#     4  10  19  39  65  95 128 168 220 272 323 389
#     4  11  20  38  62  97 132 164 215 269 329 386
#     4  11  23  41  66  98 133 174 219 273 340 403
#     4  12  25  42  67  93 132 176 224 282 331 384
#
# _framework density 24.919820999999999
#
# number of rings (size 3 to 8) (size 9 to 14) (size 15 to 20)
#    0.000    1.000    8.333    2.000    0.000    3.667 
#    0.000    0.000    0.000    1.000    0.000    5.833 
#    0.000    0.000    0.000    0.000    0.000    0.000 
#
# Total GULP energy -297599.153706 kJ/mol
# GULP energy per Si atom -12399.964738 kJ/mol
# Density = 2.486310 g / cm^3
# Si number density = 24.919821 Si / 1000 Ang^3
#
#
#
# Elastic Constant Matrix: (Units=GPa)
#
#
# Indices 1 2 3 4 5 6 
#
# 1 146.7658 43.8663 43.9913 -0.0160 46.5356 -0.0003
# 2 43.8663 185.4387 55.1055 -0.0521 28.9602 0.0223
# 3 43.9913 55.1055 97.9843 -0.0768 38.7154 0.0518
# 4 -0.0160 -0.0521 -0.0768 22.8203 0.0596 6.4027
# 5 46.5356 28.9602 38.7154 0.0596 47.2587 -0.0277
# 6 -0.0003 0.0223 0.0518 6.4027 -0.0277 39.2890
#
#
#
# Elastic Compliance Matrix: (Units=1/GPa)
#
#
# Indices 1 2 3 4 5 6 
#
# 1 0.010062 -0.000828 -0.000499 0.000030 -0.008992 -0.000010
# 2 -0.000828 0.006611 -0.003057 0.000007 -0.000732 -0.000001
# 3 -0.000499 -0.003057 0.016583 0.000090 -0.011220 -0.000043
# 4 0.000030 0.000007 0.000090 0.045921 -0.000169 -0.007484
# 5 -0.008992 -0.000732 -0.011220 -0.000169 0.039654 0.000071
# 6 -0.000010 -0.000001 -0.000043 -0.007484 0.000071 0.026672
#
#
# Mechanical properties :
#
#
# Convention : Reuss Voigt Hill
#
# Bulk Modulus (GPa) = 40.83759 79.56834 60.20297
# Shear Modulus (GPa) = 30.78186 41.02198 35.90192
#
# Velocity S-wave (km/s) = 3.51841 4.06169 3.79977
# Velocity P-wave (km/s) = 5.73836 7.34816 6.59258
#
# Compressibility (1/GPa) = 0.02448724
#
# Stress axis : x y z
#
# Youngs Moduli (GPa) = 99.38853 151.25823 60.30450
#
# Poissons Ratio (x) = 0.12517 0.03010
# Poissons Ratio (y) = 0.08225 0.18438
# Poissons Ratio (z) = 0.04960 0.46246
#
# Static dielectric constant tensor:
#      x y z
#    x 5.583650 -0.000630 0.012780 
#    y -0.000630 4.475610 0.000400 
#    z 0.012780 0.000400 4.977560 
# 
# 
# High freq. dielectric constant tensor:
#      x y z
#    x 2.018360 -0.000010 0.013930 
#    y -0.000010 1.978250 0.000010 
#    z 0.013930 0.000010 1.991310 
# 
# From -- ./inp_files/226721.got.cif
#   From: 2010.06.25/outbox.cif.g09.slc.cpg/sg12_114_cif.got.tgz:226721.got - 2010.06.28 00:19:55.
