data_PCOD8094167
_publ_section_title
;
Structure prediction by ZEFSAII (Michael W. Deem and Ramdas Pophale) SiO2 
 PCOD8094167
Probable space group: C 2/M
;
_chemical_formula_sum "Si O2"
_cell_formula_units_Z 56
_cell_length_a 8.924031
_cell_length_b 27.090794
_cell_length_c 13.006935
_cell_angle_alpha 90.000000
_cell_angle_beta 107.123550
_cell_angle_gamma 90.000000
_cell_volume 3005.153572
_symmetry_space_group_name_H-M "C 2/M"
_symmetry_group_IT_number 12
_symmetry_cell_setting 'monoclinic'
loop_
_space_group_symop_operation_xyz
x,y,z
-x,y,-z
-x,-y,-z
x,-y,z
1/2+x,1/2+y,z
1/2-x,1/2+y,-z
1/2-x,1/2-y,-z
1/2+x,1/2-y,z
loop_
_atom_site_type_symbol
_atom_site_label
_atom_site_fract_x
_atom_site_fract_y
_atom_site_fract_z
Si Si1 0.284788 0.904142 0.180734
Si Si2 0.447119 0.611198 0.194975
Si Si3 0.178889 0.554858 0.020532
Si Si4 0.890679 0.315321 0.063077
Si Si5 0.973426 0.557315 0.610853
Si Si6 0.376051 0.443502 0.385884
Si Si7 0.922160 0.209562 0.090779
O O1 0.324218 0.851369 0.136540
O O2 0.411881 0.911365 0.294845
O O3 0.111845 0.910638 0.191269
O O4 0.295555 0.946242 0.096639
O O5 0.301248 0.592837 0.095845
O O6 0.415443 0.594782 0.304323
O O7 0.464622 0.670625 0.189887
O O8 0.207383 0.500000 0.071657
O O9 0.000000 0.571711 0.000000
O O10 0.970707 0.266087 0.131056
O O11 0.762161 0.292787 0.961510
O O12 0.000000 0.342631 0.000000
O O13 0.016317 0.500000 0.631076
O O14 0.795721 0.568272 0.606502
O O15 0.000000 0.575153 0.500000
O O16 0.500000 0.434225 0.500000
O O17 0.386517 0.500000 0.347650
O O18 0.000000 0.191481 0.000000
#
# Coordination Sequence:
#
# PCOD8094167 Si02
#       7
#     8   8   8   8   8   8   8
#     4  12  22  35  54  84 114 147 184 228 281 335
#     4  12  22  35  56  82 115 146 183 230 278 336
#     4  11  23  36  50  76 112 148 184 225 276 333
#     4  10  21  34  57  81 114 152 189 229 276 330
#     4  10  22  40  60  82 110 146 190 234 276 330
#     4  10  22  40  60  82 108 146 193 234 277 329
#     4  10  19  37  54  82 116 150 188 229 274 333
#
# _framework density 18.634656
#
# number of rings (size 3 to 8) (size 9 to 14) (size 15 to 20)
#    0.000    1.286    2.857    3.429    2.000    6.286 
#    0.000    0.000    0.000    0.857    0.000    4.000 
#    0.000    0.000    0.000    0.000    0.000    0.000 
#
# Total GULP energy -347008.953925 kJ/mol
# GULP energy per Si atom -12393.176926 kJ/mol
# Density = 1.859224 g / cm^3
# Si number density = 18.634656 Si / 1000 Ang^3
#
#
#
# Elastic Constant Matrix: (Units=GPa)
#
#
# Indices 1 2 3 4 5 6 
#
# 1 137.3893 28.2577 49.5059 0.0000 -3.6793 0.0000
# 2 28.2577 100.0445 35.2327 0.0000 -8.9768 0.0000
# 3 49.5059 35.2327 104.1845 0.0000 -6.8151 0.0000
# 4 0.0000 0.0000 0.0000 20.4917 0.0000 -6.7660
# 5 -3.6793 -8.9768 -6.8151 0.0000 37.4171 0.0000
# 6 0.0000 0.0000 0.0000 -6.7660 0.0000 26.4367
#
#
#
# Elastic Compliance Matrix: (Units=1/GPa)
#
#
# Indices 1 2 3 4 5 6 
#
# 1 0.008900 -0.001171 -0.003840 0.000000 -0.000105 0.000000
# 2 -0.001171 0.011658 -0.003249 0.000000 0.002090 0.000000
# 3 -0.003840 -0.003249 0.012596 0.000000 0.001137 0.000000
# 4 0.000000 0.000000 0.000000 0.053305 0.000000 0.013642
# 5 -0.000105 0.002090 0.001137 0.000000 0.027424 0.000000
# 6 0.000000 0.000000 0.000000 0.013642 0.000000 0.041318
#
#
# Mechanical properties :
#
#
# Convention : Reuss Voigt Hill
#
# Bulk Modulus (GPa) = 60.11818 63.06785 61.59302
# Shear Modulus (GPa) = 28.20610 32.11057 30.15833
#
# Velocity S-wave (km/s) = 3.89477 4.15560 4.02730
# Velocity P-wave (km/s) = 7.24963 7.54608 7.39934
#
# Compressibility (1/GPa) = 0.01663390
#
# Stress axis : x y z
#
# Youngs Moduli (GPa) = 112.35543 85.77689 79.38823
#
# Poissons Ratio (x) = 0.10044 0.30486
# Poissons Ratio (y) = 0.13157 0.25796
# Poissons Ratio (z) = 0.43146 0.27872
#
# Static dielectric constant tensor:
#      x y z
#    x 3.694240 0.000000 -0.010590 
#    y 0.000000 3.587950 0.000000 
#    z -0.010590 0.000000 3.158390 
# 
# 
# High freq. dielectric constant tensor:
#      x y z
#    x 1.751150 0.000000 -0.002210 
#    y 0.000000 1.722910 0.000000 
#    z -0.002210 0.000000 1.689440 
# 
# From -- ./inp_files/125337.got.cif
#   From: 2010.06.25/outbox.cif.g09.slc.cpg/sg12_63_cif.got.tgz:125337.got - 2010.06.28 00:19:55.
