data_PCOD8094430
_publ_section_title
;
Structure prediction by ZEFSAII (Michael W. Deem and Ramdas Pophale) SiO2 
 PCOD8094430
Probable space group: C 2/M
;
_chemical_formula_sum "Si O2"
_cell_formula_units_Z 64
_cell_length_a 19.468161
_cell_length_b 8.776721
_cell_length_c 30.227716
_cell_angle_alpha 90.000000
_cell_angle_beta 38.053605
_cell_angle_gamma 90.000000
_cell_volume 3183.641061
_symmetry_space_group_name_H-M "C 2/M"
_symmetry_group_IT_number 12
_symmetry_cell_setting 'monoclinic'
loop_
_space_group_symop_operation_xyz
x,y,z
-x,y,-z
-x,-y,-z
x,-y,z
1/2+x,1/2+y,z
1/2-x,1/2+y,-z
1/2-x,1/2-y,-z
1/2+x,1/2-y,z
loop_
_atom_site_type_symbol
_atom_site_label
_atom_site_fract_x
_atom_site_fract_y
_atom_site_fract_z
Si Si1 0.053391 0.317854 0.607692
Si Si2 0.471247 0.824749 0.220802
Si Si3 0.180135 0.679885 0.236716
Si Si4 0.913071 0.678637 0.508446
Si Si5 0.406369 0.321840 0.165199
Si Si6 0.781854 0.675430 0.880054
Si Si7 0.058114 0.679587 0.015134
Si Si8 0.339649 0.678965 0.365311
O O1 0.066673 0.500000 0.603800
O O2 0.066825 0.255952 0.550951
O O3 0.146115 0.239083 0.591757
O O4 0.933292 0.257164 0.684893
O O5 0.418930 0.719875 0.209838
O O6 0.604236 0.806197 0.150700
O O7 0.425935 0.769794 0.290975
O O8 0.437150 0.000000 0.231122
O O9 0.169447 0.500000 0.238254
O O10 0.282398 0.730660 0.215415
O O11 0.200678 0.747344 0.177490
O O12 0.935588 0.500000 0.494821
O O13 0.786217 0.713824 0.587150
O O14 0.000000 0.751292 0.500000
O O15 0.423423 0.500000 0.149358
O O16 0.496030 0.236348 0.090047
O O17 0.744819 0.500000 0.895572
O O18 0.685508 0.766860 0.953873
O O19 0.054268 0.500000 0.016918
O O20 0.000000 0.745361 0.000000
O O21 0.364904 0.500000 0.350368
#
# Coordination Sequence:
#
# PCOD8094430 Si02
#       8
#     8   8   8   8   8   8   8   8
#     4  10  19  37  63  87 117 160 202 245 294 346
#     4  11  24  42  62  87 121 158 195 243 303 356
#     4   9  18  34  60  89 112 149 204 247 287 346
#     4   9  20  36  59  89 121 158 202 246 289 345
#     4  11  23  39  62  90 119 154 199 249 295 351
#     4  10  20  39  63  85 112 153 204 248 288 349
#     4  11  23  38  59  89 123 157 193 243 303 354
#     4  11  22  37  60  90 120 155 200 247 293 351
#
# _framework density 20.102768999999999
#
# number of rings (size 3 to 8) (size 9 to 14) (size 15 to 20)
#    0.000    1.750    2.500    1.875    1.750    2.000 
#    0.000    1.875    0.000    1.875    0.000    0.000 
#    0.000    0.000    0.000    0.000    0.000    0.000 
#
# Total GULP energy -396889.241406 kJ/mol
# GULP energy per Si atom -12402.788794 kJ/mol
# Density = 2.005701 g / cm^3
# Si number density = 20.102769 Si / 1000 Ang^3
#
#
#
# Elastic Constant Matrix: (Units=GPa)
#
#
# Indices 1 2 3 4 5 6 
#
# 1 116.2926 23.1251 23.7292 0.0082 -4.0007 0.0287
# 2 23.1251 49.5591 22.4296 0.0060 -9.7644 0.0135
# 3 23.7292 22.4296 80.7624 0.0048 -7.4939 0.0147
# 4 0.0082 0.0060 0.0048 20.4014 -0.0023 2.2028
# 5 -4.0007 -9.7644 -7.4939 -0.0023 33.4478 -0.0026
# 6 0.0287 0.0135 0.0147 2.2028 -0.0026 29.7719
#
#
#
# Elastic Compliance Matrix: (Units=1/GPa)
#
#
# Indices 1 2 3 4 5 6 
#
# 1 0.009712 -0.003768 -0.001839 -0.000002 -0.000351 -0.000007
# 2 -0.003768 0.025542 -0.005450 -0.000004 0.005785 -0.000005
# 3 -0.001839 -0.005450 0.014571 -0.000001 0.001454 -0.000003
# 4 -0.000002 -0.000004 -0.000001 0.049411 0.000002 -0.003656
# 5 -0.000351 0.005785 0.001454 0.000002 0.031870 0.000000
# 6 -0.000007 -0.000005 -0.000003 -0.003656 0.000000 0.033859
#
#
# Mechanical properties :
#
#
# Convention : Reuss Voigt Hill
#
# Bulk Modulus (GPa) = 36.08789 42.79798 39.44294
# Shear Modulus (GPa) = 25.46905 28.54622 27.00764
#
# Velocity S-wave (km/s) = 3.56328 3.77240 3.66933
# Velocity P-wave (km/s) = 5.90931 6.34905 6.13312
#
# Compressibility (1/GPa) = 0.02771012
#
# Stress axis : x y z
#
# Youngs Moduli (GPa) = 102.96990 39.15046 68.63007
#
# Poissons Ratio (x) = 0.14752 0.12624
# Poissons Ratio (y) = 0.38801 0.37402
# Poissons Ratio (z) = 0.18941 0.21336
#
# Static dielectric constant tensor:
#      x y z
#    x 3.795160 -0.000010 -0.042210 
#    y -0.000010 3.335210 0.000000 
#    z -0.042210 0.000000 3.688790 
# 
# 
# High freq. dielectric constant tensor:
#      x y z
#    x 1.792520 0.000000 -0.004480 
#    y 0.000000 1.757900 0.000000 
#    z -0.004480 0.000000 1.793590 
# 
# From -- ./inp_files/378254.got.cif
#   From: 2010.06.25/outbox.cif.g09.slc.cpg/sg12_190_cif.got.tgz:378254.got - 2010.06.28 00:19:55.
