data_PCOD8094532
_publ_section_title
;
Structure prediction by ZEFSAII (Michael W. Deem and Ramdas Pophale) SiO2 
 PCOD8094532
Probable space group: C 2/M
;
_chemical_formula_sum "Si O2"
_cell_formula_units_Z 64
_cell_length_a 13.727521
_cell_length_b 19.020790
_cell_length_c 22.327383
_cell_angle_alpha 90.000000
_cell_angle_beta 146.367674
_cell_angle_gamma 90.000000
_cell_volume 3228.937078
_symmetry_space_group_name_H-M "C 2/M"
_symmetry_group_IT_number 12
_symmetry_cell_setting 'monoclinic'
loop_
_space_group_symop_operation_xyz
x,y,z
-x,y,-z
-x,-y,-z
x,-y,z
1/2+x,1/2+y,z
1/2-x,1/2+y,-z
1/2-x,1/2-y,-z
1/2+x,1/2-y,z
loop_
_atom_site_type_symbol
_atom_site_label
_atom_site_fract_x
_atom_site_fract_y
_atom_site_fract_z
Si Si1 0.128869 0.581069 0.343475
Si Si2 0.067972 0.186937 0.953820
Si Si3 0.405232 0.921431 0.810261
Si Si4 0.183165 0.337998 0.019475
Si Si5 0.657135 0.419324 0.793643
Si Si6 0.873272 0.797832 0.491545
Si Si7 0.711863 0.163734 0.824999
Si Si8 0.537234 0.712488 0.330254
O O1 0.157917 0.500000 0.375445
O O2 0.161902 0.597004 0.290332
O O3 0.275085 0.627466 0.452052
O O4 0.932577 0.603917 0.263075
O O5 0.129195 0.178407 0.916462
O O6 0.864562 0.163073 0.852554
O O7 0.085565 0.266581 0.987912
O O8 0.194328 0.144203 0.064073
O O9 0.244198 0.912696 0.773274
O O10 0.479889 0.000000 0.850062
O O11 0.565094 0.871843 0.907780
O O12 0.204900 0.391358 0.086003
O O13 0.602911 0.500000 0.780226
O O14 0.488878 0.367605 0.706306
O O15 0.728189 0.737304 0.405879
O O16 0.980567 0.781296 0.606816
O O17 0.000000 0.799362 0.500000
O O18 0.616054 0.239904 0.777648
#
# Coordination Sequence:
#
# PCOD8094532 Si02
#       8
#     8   8   8   8   8   8   8   8
#     4  10  21  38  59  82 114 148 187 235 283 340
#     4  10  21  32  56  81 110 153 193 230 266 333
#     4  10  20  33  50  76 111 150 185 223 277 328
#     4  11  20  33  50  80 111 151 190 230 273 320
#     4  11  22  34  53  80 115 151 184 231 284 338
#     4  10  22  38  62  86 107 142 185 237 294 339
#     4  10  19  38  55  82 112 147 192 229 279 328
#     4  10  21  38  58  83 113 140 185 236 281 345
#
# _framework density 19.820764
#
# number of rings (size 3 to 8) (size 9 to 14) (size 15 to 20)
#    0.000    1.750    2.500    2.250    1.750    2.750 
#    0.000    2.500    0.000    0.375    0.000    0.000 
#    0.000    0.000    0.000    0.000    0.000    0.000 
#
# Total GULP energy -396766.973297 kJ/mol
# GULP energy per Si atom -12398.967916 kJ/mol
# Density = 1.977565 g / cm^3
# Si number density = 19.820764 Si / 1000 Ang^3
#
#
#
# Elastic Constant Matrix: (Units=GPa)
#
#
# Indices 1 2 3 4 5 6 
#
# 1 80.1127 19.7479 16.9496 0.0004 14.1467 0.0001
# 2 19.7479 105.1094 22.1913 -0.0007 9.2601 -0.0002
# 3 16.9496 22.1913 60.8180 -0.0048 9.3040 -0.0011
# 4 0.0004 -0.0007 -0.0048 22.6721 -0.0005 -1.7822
# 5 14.1467 9.2601 9.3040 -0.0005 20.4580 0.0000
# 6 0.0001 -0.0002 -0.0011 -1.7822 0.0000 23.9445
#
#
#
# Elastic Compliance Matrix: (Units=1/GPa)
#
#
# Indices 1 2 3 4 5 6 
#
# 1 0.014853 -0.001561 -0.002264 -0.000001 -0.008535 0.000000
# 2 -0.001561 0.010668 -0.003100 0.000000 -0.002340 0.000000
# 3 -0.002264 -0.003100 0.019078 0.000004 -0.005707 0.000001
# 4 -0.000001 0.000000 0.000004 0.044367 0.000000 0.003302
# 5 -0.008535 -0.002340 -0.005707 0.000000 0.058437 0.000000
# 6 0.000000 0.000000 0.000001 0.003302 0.000000 0.042009
#
#
# Mechanical properties :
#
#
# Convention : Reuss Voigt Hill
#
# Bulk Modulus (GPa) = 32.52088 40.42418 36.47253
# Shear Modulus (GPa) = 23.41805 25.89168 24.65486
#
# Velocity S-wave (km/s) = 3.44101 3.61819 3.53071
# Velocity P-wave (km/s) = 5.67719 6.15582 5.92135
#
# Compressibility (1/GPa) = 0.03074947
#
# Stress axis : x y z
#
# Youngs Moduli (GPa) = 67.32507 93.74151 52.41728
#
# Poissons Ratio (x) = 0.14630 0.11869
# Poissons Ratio (y) = 0.10507 0.16247
# Poissons Ratio (z) = 0.15245 0.29055
#
# Static dielectric constant tensor:
#      x y z
#    x 3.542250 0.000000 -0.042540 
#    y 0.000000 3.621730 0.000000 
#    z -0.042540 0.000000 3.503310 
# 
# 
# High freq. dielectric constant tensor:
#      x y z
#    x 1.765520 0.000000 -0.002250 
#    y 0.000000 1.763730 0.000000 
#    z -0.002250 0.000000 1.766720 
# 
# From -- ./inp_files/216357.got.cif
#   From: 2010.06.25/outbox.cif.g09.slc.cpg/sg12_109_cif.got.tgz:216357.got - 2010.06.28 00:19:55.
