data_PCOD8094856
_publ_section_title
;
Structure prediction by ZEFSAII (Michael W. Deem and Ramdas Pophale) SiO2 
 PCOD8094856
Probable space group: C 2/M
;
_chemical_formula_sum "Si O2"
_cell_formula_units_Z 44
_cell_length_a 26.087326
_cell_length_b 13.503419
_cell_length_c 11.379753
_cell_angle_alpha 90.000000
_cell_angle_beta 35.396060
_cell_angle_gamma 90.000000
_cell_volume 2321.953571
_symmetry_space_group_name_H-M "C 2/M"
_symmetry_group_IT_number 12
_symmetry_cell_setting 'monoclinic'
loop_
_space_group_symop_operation_xyz
x,y,z
-x,y,-z
-x,-y,-z
x,-y,z
1/2+x,1/2+y,z
1/2-x,1/2+y,-z
1/2-x,1/2-y,-z
1/2+x,1/2-y,z
loop_
_atom_site_type_symbol
_atom_site_label
_atom_site_fract_x
_atom_site_fract_y
_atom_site_fract_z
Si Si1 0.663929 0.801140 0.802437
Si Si2 0.983620 0.283999 0.747218
Si Si3 0.301079 0.000000 0.141791
Si Si4 0.967186 0.500000 0.695270
Si Si5 0.096017 0.000000 0.460116
Si Si6 0.000000 0.162048 0.500000
Si Si7 0.859463 0.784966 0.392388
Si Si8 0.575874 0.500000 0.757768
O O1 0.672185 0.913858 0.821153
O O2 0.762416 0.755203 0.621792
O O3 0.620223 0.785978 0.755974
O O4 0.597122 0.751276 0.018848
O O5 0.072942 0.235720 0.629571
O O6 0.001628 0.401374 0.697083
O O7 0.955358 0.234271 0.677817
O O8 0.199330 0.000000 0.296411
O O9 0.359622 0.000000 0.911806
O O10 0.000000 0.500000 0.500000
O O11 0.074921 0.095920 0.421824
O O12 0.040370 0.000000 0.687579
O O13 0.864947 0.900315 0.339556
O O14 0.500000 0.500000 0.000000
#
# Coordination Sequence:
#
# PCOD8094856 Si02
#       8
#     8   8   4   4   4   4   8   4
#     4  10  21  37  62  86 113 153 191 233 301 347
#     4  11  21  39  59  85 116 153 195 239 281 343
#     4  10  19  41  60  80 119 148 192 241 282 349
#     4  10  22  38  57  81 112 156 193 231 278 331
#     4  11  22  40  60  90 112 157 192 237 301 343
#     4  11  22  37  62  84 120 149 198 235 284 358
#     4  11  22  38  59  88 119 149 191 244 293 346
#     4  12  21  35  61  85 115 150 189 247 300 336
#
# _framework density 18.949560999999999
#
# number of rings (size 3 to 8) (size 9 to 14) (size 15 to 20)
#    0.000    1.273    4.545    1.636    0.000    0.727 
#    3.273    6.364    0.000    0.000    0.000    0.000 
#    0.000    0.000    0.000    0.000    0.000    0.000 
#
# Total GULP energy -272621.477098 kJ/mol
# GULP energy per Si atom -12391.885323 kJ/mol
# Density = 1.890643 g / cm^3
# Si number density = 18.949561 Si / 1000 Ang^3
#
#
#
# Elastic Constant Matrix: (Units=GPa)
#
#
# Indices 1 2 3 4 5 6 
#
# 1 105.5073 45.3127 50.9952 0.0000 15.2143 0.0000
# 2 45.3127 90.5691 26.9767 0.0000 5.8204 0.0000
# 3 50.9952 26.9767 111.8537 0.0000 23.1765 0.0000
# 4 0.0000 0.0000 0.0000 12.2475 0.0000 7.5676
# 5 15.2143 5.8204 23.1765 0.0000 31.8547 0.0000
# 6 0.0000 0.0000 0.0000 7.5676 0.0000 32.3731
#
#
#
# Elastic Compliance Matrix: (Units=1/GPa)
#
#
# Indices 1 2 3 4 5 6 
#
# 1 0.014593 -0.005724 -0.004763 0.000000 -0.002458 0.000000
# 2 -0.005724 0.014142 -0.000980 0.000000 0.000863 0.000000
# 3 -0.004763 -0.000980 0.012764 0.000000 -0.006833 0.000000
# 4 0.000000 0.000000 0.000000 0.095434 0.000000 -0.022309
# 5 -0.002458 0.000863 -0.006833 0.000000 0.037380 0.000000
# 6 0.000000 0.000000 0.000000 -0.022309 0.000000 0.036105
#
#
# Mechanical properties :
#
#
# Convention : Reuss Voigt Hill
#
# Bulk Modulus (GPa) = 53.86707 61.61103 57.73905
# Shear Modulus (GPa) = 20.87331 27.60477 24.23904
#
# Velocity S-wave (km/s) = 3.32251 3.82088 3.58038
# Velocity P-wave (km/s) = 6.57321 7.21452 6.90132
#
# Compressibility (1/GPa) = 0.01856422
#
# Stress axis : x y z
#
# Youngs Moduli (GPa) = 68.52500 70.71336 78.34632
#
# Poissons Ratio (x) = 0.40479 0.37318
# Poissons Ratio (y) = 0.39226 0.07675
# Poissons Ratio (z) = 0.32640 0.06927
#
# Static dielectric constant tensor:
#      x y z
#    x 3.406020 0.000000 0.206120 
#    y 0.000000 3.689670 0.000000 
#    z 0.206120 0.000000 3.791680 
# 
# 
# High freq. dielectric constant tensor:
#      x y z
#    x 1.723870 0.000000 0.016010 
#    y 0.000000 1.745980 0.000000 
#    z 0.016010 0.000000 1.744320 
# 
# From -- ./inp_files/183423.got.cif
#   From: 2010.06.25/outbox.cif.g09.slc.cpg/sg12_92_cif.got.tgz:183423.got - 2010.06.28 00:19:55.
