data_PCOD8094782
_publ_section_title
;
Structure prediction by ZEFSAII (Michael W. Deem and Ramdas Pophale) SiO2 
 PCOD8094782
Probable space group: C 2/M
;
_chemical_formula_sum "Si O2"
_cell_formula_units_Z 64
_cell_length_a 15.257156
_cell_length_b 27.682667
_cell_length_c 9.604057
_cell_angle_alpha 90.000000
_cell_angle_beta 48.127109
_cell_angle_gamma 90.000000
_cell_volume 3020.475252
_symmetry_space_group_name_H-M "C 2/M"
_symmetry_group_IT_number 12
_symmetry_cell_setting 'monoclinic'
loop_
_space_group_symop_operation_xyz
x,y,z
-x,y,-z
-x,-y,-z
x,-y,z
1/2+x,1/2+y,z
1/2-x,1/2+y,-z
1/2-x,1/2-y,-z
1/2+x,1/2-y,z
loop_
_atom_site_type_symbol
_atom_site_label
_atom_site_fract_x
_atom_site_fract_y
_atom_site_fract_z
Si Si1 0.861163 0.445608 0.660739
Si Si2 0.338324 0.720003 0.000518
Si Si3 0.868695 0.374836 0.160300
Si Si4 0.241562 0.117429 0.004986
Si Si5 0.535154 0.302619 0.602854
Si Si6 0.008044 0.086517 0.337194
Si Si7 0.736144 0.443746 0.508478
Si Si8 0.289657 0.221639 0.322356
O O1 0.819854 0.500000 0.739133
O O2 0.791621 0.427582 0.596618
O O3 0.000000 0.443821 0.500000
O O4 0.837227 0.409665 0.811849
O O5 0.329811 0.739191 0.166311
O O6 0.250000 0.750000 0.000000
O O7 0.301100 0.664310 0.035640
O O8 0.475462 0.725599 0.798354
O O9 0.801646 0.366181 0.085594
O O10 0.797888 0.414558 0.320614
O O11 0.881999 0.322877 0.227561
O O12 0.000000 0.394972 0.000000
O O13 0.137027 0.077286 0.135123
O O14 0.500000 0.273750 0.500000
O O15 0.484092 0.355935 0.659173
O O16 0.671944 0.309242 0.430545
O O17 0.000000 0.062850 0.500000
O O18 0.904289 0.067376 0.346987
O O19 0.759195 0.500000 0.457498
O O20 0.250000 0.250000 0.500000
#
# Coordination Sequence:
#
# PCOD8094782 Si02
#       8
#     8   8   8   8   8   8   8   8
#     4  10  24  47  69  95 134 176 222 276 336 399
#     4  11  22  40  63  94 130 168 226 264 329 402
#     4  12  25  44  66  96 135 173 228 282 328 402
#     4  11  23  42  70  97 129 177 220 276 336 398
#     4  10  19  39  65  84 127 176 208 265 331 386
#     4  10  19  40  67  95 133 172 213 268 332 397
#     4  11  24  43  69 100 136 172 216 279 341 401
#     4  12  26  40  61  96 130 175 220 275 329 387
#
# _framework density 21.188718999999999
#
# number of rings (size 3 to 8) (size 9 to 14) (size 15 to 20)
#    0.000    1.125    5.000    1.500    3.500    2.000 
#    2.250    3.750    0.000    0.000    0.000    0.000 
#    0.000    0.000    0.000    0.000    0.000    0.000 
#
# Total GULP energy -396430.447200 kJ/mol
# GULP energy per Si atom -12388.451475 kJ/mol
# Density = 2.114049 g / cm^3
# Si number density = 21.188719 Si / 1000 Ang^3
#
#
#
# Elastic Constant Matrix: (Units=GPa)
#
#
# Indices 1 2 3 4 5 6 
#
# 1 83.5254 14.0586 17.3045 0.0000 4.5561 0.0000
# 2 14.0586 84.2342 49.9161 0.0000 11.6999 0.0000
# 3 17.3045 49.9161 116.5145 0.0000 10.8304 0.0000
# 4 0.0000 0.0000 0.0000 31.5815 0.0000 -8.9113
# 5 4.5561 11.6999 10.8304 0.0000 36.9151 0.0000
# 6 0.0000 0.0000 0.0000 -8.9113 0.0000 46.2727
#
#
#
# Elastic Compliance Matrix: (Units=1/GPa)
#
#
# Indices 1 2 3 4 5 6 
#
# 1 0.012482 -0.001232 -0.001253 0.000000 -0.000782 0.000000
# 2 -0.001232 0.016392 -0.006549 0.000000 -0.003122 0.000000
# 3 -0.001253 -0.006549 0.011686 0.000000 -0.001198 0.000000
# 4 0.000000 0.000000 0.000000 0.033484 0.000000 0.006448
# 5 -0.000782 -0.003122 -0.001198 0.000000 0.028527 0.000000
# 6 0.000000 0.000000 0.000000 0.006448 0.000000 0.022853
#
#
# Mechanical properties :
#
#
# Convention : Reuss Voigt Hill
#
# Bulk Modulus (GPa) = 44.46253 49.64804 47.05529
# Shear Modulus (GPa) = 33.11497 36.48684 34.80090
#
# Velocity S-wave (km/s) = 3.95759 4.15419 4.05708
# Velocity P-wave (km/s) = 6.47402 6.81850 6.64849
#
# Compressibility (1/GPa) = 0.02249085
#
# Stress axis : x y z
#
# Youngs Moduli (GPa) = 80.11476 61.00571 85.57293
#
# Poissons Ratio (x) = 0.07515 0.10725
# Poissons Ratio (y) = 0.09869 0.56045
# Poissons Ratio (z) = 0.10041 0.39955
#
# Static dielectric constant tensor:
#      x y z
#    x 3.590270 0.000000 -0.027150 
#    y 0.000000 3.625830 0.000000 
#    z -0.027150 0.000000 4.084770 
# 
# 
# High freq. dielectric constant tensor:
#      x y z
#    x 1.828650 0.000000 -0.012800 
#    y 0.000000 1.820670 0.000000 
#    z -0.012800 0.000000 1.845860 
# 
# From -- ./inp_files/68608.got.cif
#   From: 2010.06.25/outbox.cif.g09.slc.cpg/sg12_35_cif.got.tgz:68608.got - 2010.06.28 00:19:55.
