data_PCOD8094285
_publ_section_title
;
Structure prediction by ZEFSAII (Michael W. Deem and Ramdas Pophale) SiO2 
 PCOD8094285
Probable space group: C 2/M
;
_chemical_formula_sum "Si O2"
_cell_formula_units_Z 56
_cell_length_a 13.190542
_cell_length_b 17.719059
_cell_length_c 15.766681
_cell_angle_alpha 90.000000
_cell_angle_beta 134.659290
_cell_angle_gamma 90.000000
_cell_volume 2621.173803
_symmetry_space_group_name_H-M "C 2/M"
_symmetry_group_IT_number 12
_symmetry_cell_setting 'monoclinic'
loop_
_space_group_symop_operation_xyz
x,y,z
-x,y,-z
-x,-y,-z
x,-y,z
1/2+x,1/2+y,z
1/2-x,1/2+y,-z
1/2-x,1/2-y,-z
1/2+x,1/2-y,z
loop_
_atom_site_type_symbol
_atom_site_label
_atom_site_fract_x
_atom_site_fract_y
_atom_site_fract_z
Si Si1 0.842136 0.084547 0.881613
Si Si2 0.158045 0.362789 0.917761
Si Si3 0.937090 0.860156 0.376771
Si Si4 0.837220 0.639792 0.706257
Si Si5 0.719203 0.585317 0.468989
Si Si6 0.639459 0.301357 0.840774
Si Si7 0.834593 0.817492 0.720441
O O1 0.738926 0.079856 0.903154
O O2 0.782273 0.143423 0.776548
O O3 0.847564 0.000000 0.845951
O O4 0.000000 0.111321 0.000000
O O5 0.180205 0.283418 0.884687
O O6 0.991882 0.383525 0.832732
O O7 0.231577 0.357287 0.054299
O O8 0.789316 0.903131 0.316286
O O9 0.893874 0.800776 0.278892
O O10 0.000000 0.820831 0.500000
O O11 0.056612 0.915714 0.409136
O O12 0.830153 0.616305 0.603929
O O13 0.801048 0.728618 0.696529
O O14 0.758823 0.500000 0.466974
O O15 0.741051 0.640078 0.402156
O O16 0.504041 0.329277 0.814560
#
# Coordination Sequence:
#
# PCOD8094285 Si02
#       7
#     8   8   8   8   8   8   8
#     4  11  22  36  56  83 117 154 191 233 282 345
#     4  10  20  35  53  82 116 152 187 234 289 344
#     4   9  19  35  55  84 111 145 191 238 284 339
#     4  10  21  35  58  87 118 151 188 245 293 343
#     4  10  21  38  61  84 114 155 197 241 291 348
#     4   9  18  34  57  83 112 146 193 238 286 341
#     4  10  19  37  60  87 113 149 200 245 281 341
#
# _framework density 21.364474999999999
#
# number of rings (size 3 to 8) (size 9 to 14) (size 15 to 20)
#    0.000    2.143    1.429    1.714    0.000    4.857 
#    0.000    0.714    0.000    1.714    0.000    7.000 
#    0.000    0.000    0.000    0.000    0.000    0.000 
#
# Total GULP energy -346970.197289 kJ/mol
# GULP energy per Si atom -12391.792760 kJ/mol
# Density = 2.131585 g / cm^3
# Si number density = 21.364475 Si / 1000 Ang^3
#
#
#
# Elastic Constant Matrix: (Units=GPa)
#
#
# Indices 1 2 3 4 5 6 
#
# 1 68.5864 -7.6137 27.0356 0.0000 1.7942 0.0000
# 2 -7.6137 60.3785 10.3305 0.0000 -12.5322 0.0000
# 3 27.0356 10.3305 109.2755 0.0000 -1.0025 0.0000
# 4 0.0000 0.0000 0.0000 23.7399 0.0000 -2.7262
# 5 1.7942 -12.5322 -1.0025 0.0000 40.3759 0.0000
# 6 0.0000 0.0000 0.0000 -2.7262 0.0000 17.4376
#
#
#
# Elastic Compliance Matrix: (Units=1/GPa)
#
#
# Indices 1 2 3 4 5 6 
#
# 1 0.016623 0.002854 -0.004382 0.000000 0.000038 0.000000
# 2 0.002854 0.018485 -0.002403 0.000000 0.005551 0.000000
# 3 -0.004382 -0.002403 0.010460 0.000000 -0.000291 0.000000
# 4 0.000000 0.000000 0.000000 0.042893 0.000000 0.006706
# 5 0.000038 0.005551 -0.000291 0.000000 0.026481 0.000000
# 6 0.000000 0.000000 0.000000 0.006706 0.000000 0.058396
#
#
# Mechanical properties :
#
#
# Convention : Reuss Voigt Hill
#
# Bulk Modulus (GPa) = 26.52053 33.08277 29.80165
# Shear Modulus (GPa) = 25.80383 30.20989 28.00686
#
# Velocity S-wave (km/s) = 3.47910 3.76443 3.62457
# Velocity P-wave (km/s) = 5.34595 5.86627 5.61214
#
# Compressibility (1/GPa) = 0.03770664
#
# Stress axis : x y z
#
# Youngs Moduli (GPa) = 60.15635 54.09690 95.60379
#
# Poissons Ratio (x) = -0.15439 0.41895
# Poissons Ratio (y) = -0.17168 0.22971
# Poissons Ratio (z) = 0.26362 0.12998
#
# Static dielectric constant tensor:
#      x y z
#    x 3.774840 0.000000 -0.016190 
#    y 0.000000 3.441630 0.000000 
#    z -0.016190 0.000000 4.089480 
# 
# 
# High freq. dielectric constant tensor:
#      x y z
#    x 1.828570 0.000000 -0.001540 
#    y 0.000000 1.803640 0.000000 
#    z -0.001540 0.000000 1.847850 
# 
# From -- ./inp_files/271433.got.cif
#   From: 2010.06.25/outbox.cif.g09.slc.cpg/sg12_136_cif.got.tgz:271433.got - 2010.06.28 00:19:55.
