data_PCOD8094877
_publ_section_title
;
Structure prediction by ZEFSAII (Michael W. Deem and Ramdas Pophale) SiO2 
 PCOD8094877
Probable space group: C 2/M
;
_chemical_formula_sum "Si O2"
_cell_formula_units_Z 64
_cell_length_a 21.188579
_cell_length_b 13.636615
_cell_length_c 14.050377
_cell_angle_alpha 90.000000
_cell_angle_beta 69.303556
_cell_angle_gamma 90.000000
_cell_volume 3797.732585
_symmetry_space_group_name_H-M "C 2/M"
_symmetry_group_IT_number 12
_symmetry_cell_setting 'monoclinic'
loop_
_space_group_symop_operation_xyz
x,y,z
-x,y,-z
-x,-y,-z
x,-y,z
1/2+x,1/2+y,z
1/2-x,1/2+y,-z
1/2-x,1/2-y,-z
1/2+x,1/2-y,z
loop_
_atom_site_type_symbol
_atom_site_label
_atom_site_fract_x
_atom_site_fract_y
_atom_site_fract_z
Si Si1 0.712541 0.611768 0.323869
Si Si2 0.411851 0.389193 0.160076
Si Si3 0.706552 0.292303 0.676698
Si Si4 0.783837 0.611686 0.794413
Si Si5 0.862230 0.792142 0.803220
Si Si6 0.862139 0.112259 0.450516
Si Si7 0.500411 0.611724 0.282064
Si Si8 0.151361 0.110459 0.992001
O O1 0.737896 0.500000 0.308168
O O2 0.775059 0.677473 0.326454
O O3 0.689529 0.643295 0.231226
O O4 0.649699 0.625232 0.430594
O O5 0.382147 0.500000 0.192022
O O6 0.363759 0.308964 0.232649
O O7 0.482982 0.381246 0.177703
O O8 0.412737 0.370953 0.045543
O O9 0.765178 0.356052 0.696718
O O10 0.695434 0.324946 0.573320
O O11 0.808596 0.500000 0.782021
O O12 0.846409 0.677359 0.797536
O O13 0.719712 0.628678 0.896720
O O14 0.938179 0.815410 0.729534
O O15 0.851982 0.815433 0.919354
O O16 0.937819 0.145422 0.381655
O O17 0.853446 0.000000 0.422363
O O18 0.522066 0.500000 0.294931
O O19 0.148442 0.000000 0.034259
#
# Coordination Sequence:
#
# PCOD8094877 Si02
#       8
#     8   8   8   8   8   8   8   8
#     4  10  20  29  40  65  95 119 143 172 213 264
#     4   8  15  28  47  69  88 111 145 182 217 253
#     4   9  15  28  49  66  82 108 146 186 216 247
#     4   9  18  31  47  66  85 111 146 180 216 255
#     4  11  20  29  43  65  92 119 143 172 211 261
#     4   9  17  30  47  65  87 114 145 182 218 254
#     4   9  17  29  45  65  88 114 144 177 215 256
#     4   9  16  28  46  67  91 112 136 175 219 258
#
# _framework density 16.852160000000001
#
# number of rings (size 3 to 8) (size 9 to 14) (size 15 to 20)
#    0.000    2.750    0.000    4.500    0.000    1.000 
#    0.000    3.750    0.000    3.000    0.000    4.375 
#    0.000    0.000    0.000    0.000    0.000    0.000 
#
# Total GULP energy -396598.777389 kJ/mol
# GULP energy per Si atom -12393.711793 kJ/mol
# Density = 1.681380 g / cm^3
# Si number density = 16.852160 Si / 1000 Ang^3
#
#
#
# Elastic Constant Matrix: (Units=GPa)
#
#
# Indices 1 2 3 4 5 6 
#
# 1 42.8453 27.8910 -9.3878 0.0000 1.1736 0.0000
# 2 27.8910 95.4351 9.7144 0.0000 -1.3815 0.0000
# 3 -9.3878 9.7144 39.5032 0.0000 8.2860 0.0000
# 4 0.0000 0.0000 0.0000 17.9045 0.0000 0.3621
# 5 1.1736 -1.3815 8.2860 0.0000 19.6252 0.0000
# 6 0.0000 0.0000 0.0000 0.3621 0.0000 26.7093
#
#
#
# Elastic Compliance Matrix: (Units=1/GPa)
#
#
# Indices 1 2 3 4 5 6 
#
# 1 0.033563 -0.011189 0.012413 0.000000 -0.008036 0.000000
# 2 -0.011189 0.014553 -0.007234 0.000000 0.004748 0.000000
# 3 0.012413 -0.007234 0.033251 0.000000 -0.015290 0.000000
# 4 0.000000 0.000000 0.000000 0.055867 0.000000 -0.000757
# 5 -0.008036 0.004748 -0.015290 0.000000 0.058225 0.000000
# 6 0.000000 0.000000 0.000000 -0.000757 0.000000 0.037450
#
#
# Mechanical properties :
#
#
# Convention : Reuss Voigt Hill
#
# Bulk Modulus (GPa) = 14.41987 26.02430 20.22209
# Shear Modulus (GPa) = 18.65357 22.81885 20.73621
#
# Velocity S-wave (km/s) = 3.33061 3.68375 3.51162
# Velocity P-wave (km/s) = 4.83383 5.79393 5.33552
#
# Compressibility (1/GPa) = 0.06934874
#
# Stress axis : x y z
#
# Youngs Moduli (GPa) = 29.79439 68.71287 30.07469
#
# Poissons Ratio (x) = 0.76882 -0.37333
# Poissons Ratio (y) = 0.33336 0.21755
# Poissons Ratio (z) = -0.36985 0.49705
#
# Static dielectric constant tensor:
#      x y z
#    x 3.083450 0.000000 0.208190 
#    y 0.000000 3.041510 0.000000 
#    z 0.208190 0.000000 3.160310 
# 
# 
# High freq. dielectric constant tensor:
#      x y z
#    x 1.633410 0.000000 0.019220 
#    y 0.000000 1.624700 0.000000 
#    z 0.019220 0.000000 1.651200 
# 
# From -- ./inp_files/239635.got.cif
#   From: 2010.06.25/outbox.cif.g09.slc.cpg/sg12_120_cif.got.tgz:239635.got - 2010.06.28 00:19:55.
