data_PCOD8094019
_publ_section_title
;
Structure prediction by ZEFSAII (Michael W. Deem and Ramdas Pophale) SiO2 
 PCOD8094019
Probable space group: C 2/M
;
_chemical_formula_sum "Si O2"
_cell_formula_units_Z 56
_cell_length_a 19.636261
_cell_length_b 26.514255
_cell_length_c 10.089407
_cell_angle_alpha 90.000000
_cell_angle_beta 149.165490
_cell_angle_gamma 90.000000
_cell_volume 2692.456475
_symmetry_space_group_name_H-M "C 2/M"
_symmetry_group_IT_number 12
_symmetry_cell_setting 'monoclinic'
loop_
_space_group_symop_operation_xyz
x,y,z
-x,y,-z
-x,-y,-z
x,-y,z
1/2+x,1/2+y,z
1/2-x,1/2+y,-z
1/2-x,1/2-y,-z
1/2+x,1/2-y,z
loop_
_atom_site_type_symbol
_atom_site_label
_atom_site_fract_x
_atom_site_fract_y
_atom_site_fract_z
Si Si1 0.383643 0.442641 0.002566
Si Si2 0.805924 0.057631 0.422403
Si Si3 0.929355 0.306738 0.586293
Si Si4 0.797496 0.306320 0.092008
Si Si5 0.260498 0.626650 0.569809
Si Si6 0.609771 0.725060 0.288687
Si Si7 0.652494 0.597707 0.783579
O O1 0.353996 0.500000 0.907735
O O2 0.328653 0.404242 0.802067
O O3 0.540295 0.434017 0.282072
O O4 0.309659 0.432698 0.019491
O O5 0.718196 0.089156 0.380906
O O6 0.769628 0.075798 0.213128
O O7 0.763539 0.000000 0.363711
O O8 0.828480 0.313801 0.297462
O O9 0.872627 0.344117 0.604991
O O10 0.935663 0.247868 0.645086
O O11 0.077303 0.320860 0.790184
O O12 0.750000 0.250000 0.000000
O O13 0.680527 0.343260 0.851844
O O14 0.369521 0.665020 0.687157
O O15 0.750000 0.750000 0.500000
O O16 0.500000 0.743149 0.000000
O O17 0.500000 0.589605 0.500000
#
# Coordination Sequence:
#
# PCOD8094019 Si02
#       7
#     8   8   8   8   8   8   8
#     4  10  19  36  61  91 126 165 208 263 316 369
#     4  10  21  35  59  97 127 159 209 263 318 373
#     4  10  25  42  60  90 124 166 207 258 309 379
#     4  11  25  41  64  88 123 161 216 260 307 378
#     4  11  21  38  61  88 127 166 206 257 317 384
#     4  10  23  38  60  88 127 165 205 249 313 377
#     4  10  22  39  65  91 126 165 207 263 321 369
#
# _framework density 20.798850999999999
#
# number of rings (size 3 to 8) (size 9 to 14) (size 15 to 20)
#    0.000    1.714    1.429    2.143    8.000    5.143 
#    0.000    0.000    0.000    5.143    0.000    0.000 
#    0.000    0.000    0.000    0.000    0.000    0.000 
#
# Total GULP energy -347073.930998 kJ/mol
# GULP energy per Si atom -12395.497536 kJ/mol
# Density = 2.075151 g / cm^3
# Si number density = 20.798851 Si / 1000 Ang^3
#
#
#
# Elastic Constant Matrix: (Units=GPa)
#
#
# Indices 1 2 3 4 5 6 
#
# 1 112.5410 54.7855 25.9870 0.0000 -34.4298 0.0000
# 2 54.7855 145.3107 30.7376 0.0000 -20.7133 0.0000
# 3 25.9870 30.7376 47.6211 0.0000 -11.0771 0.0000
# 4 0.0000 0.0000 0.0000 28.1366 0.0000 -7.9209
# 5 -34.4298 -20.7133 -11.0771 0.0000 26.3131 0.0000
# 6 0.0000 0.0000 0.0000 -7.9209 0.0000 37.0988
#
#
#
# Elastic Compliance Matrix: (Units=1/GPa)
#
#
# Indices 1 2 3 4 5 6 
#
# 1 0.016561 -0.003066 -0.002859 0.000000 0.018053 0.000000
# 2 -0.003066 0.009062 -0.003825 0.000000 0.001512 0.000000
# 3 -0.002859 -0.003825 0.026004 0.000000 0.004195 0.000000
# 4 0.000000 0.000000 0.000000 0.037814 0.000000 0.008074
# 5 0.018053 0.001512 0.004195 0.000000 0.064582 0.000000
# 6 0.000000 0.000000 0.000000 0.008074 0.000000 0.028679
#
#
# Mechanical properties :
#
#
# Convention : Reuss Voigt Hill
#
# Bulk Modulus (GPa) = 31.12574 58.72146 44.92360
# Shear Modulus (GPa) = 23.48406 31.24056 27.36231
#
# Velocity S-wave (km/s) = 3.36386 3.87981 3.63101
# Velocity P-wave (km/s) = 5.48498 6.95449 6.26298
#
# Compressibility (1/GPa) = 0.03212775
#
# Stress axis : x y z
#
# Youngs Moduli (GPa) = 60.38179 110.34793 38.45585
#
# Poissons Ratio (x) = 0.33830 0.10996
# Poissons Ratio (y) = 0.18512 0.14708
# Poissons Ratio (z) = 0.17266 0.42203
#
# Static dielectric constant tensor:
#      x y z
#    x 4.105230 0.000000 -0.352050 
#    y 0.000000 4.005820 0.000000 
#    z -0.352050 0.000000 3.682330 
# 
# 
# High freq. dielectric constant tensor:
#      x y z
#    x 1.818570 0.000000 -0.023790 
#    y 0.000000 1.821690 0.000000 
#    z -0.023790 0.000000 1.789830 
# 
# From -- ./inp_files/80100.got.cif
#   From: 2010.06.25/outbox.cif.g09.slc.cpg/sg12_41_cif.got.tgz:80100.got - 2010.06.28 00:19:55.
