data_PCOD8094156
_publ_section_title
;
Structure prediction by ZEFSAII (Michael W. Deem and Ramdas Pophale) SiO2 
 PCOD8094156
Probable space group: C 2/M
;
_chemical_formula_sum "Si O2"
_cell_formula_units_Z 48
_cell_length_a 19.624254
_cell_length_b 10.170354
_cell_length_c 25.632592
_cell_angle_alpha 90.000000
_cell_angle_beta 30.919165
_cell_angle_gamma 90.000000
_cell_volume 2628.692099
_symmetry_space_group_name_H-M "C 2/M"
_symmetry_group_IT_number 12
_symmetry_cell_setting 'monoclinic'
loop_
_space_group_symop_operation_xyz
x,y,z
-x,y,-z
-x,-y,-z
x,-y,z
1/2+x,1/2+y,z
1/2-x,1/2+y,-z
1/2-x,1/2-y,-z
1/2+x,1/2-y,z
loop_
_atom_site_type_symbol
_atom_site_label
_atom_site_fract_x
_atom_site_fract_y
_atom_site_fract_z
Si Si1 0.943291 0.736292 0.232675
Si Si2 0.710466 0.754237 0.771116
Si Si3 0.057638 0.500000 0.906021
Si Si4 0.389965 0.000000 0.915571
Si Si5 0.517658 0.650662 0.430375
Si Si6 0.066834 0.000000 0.899276
Si Si7 0.075802 0.000000 0.115515
Si Si8 0.741900 0.847114 0.553689
O O1 0.830464 0.735346 0.262572
O O2 0.875077 0.705146 0.332433
O O3 0.055805 0.628359 0.148935
O O4 0.015702 0.876205 0.185548
O O5 0.648308 0.873492 0.842867
O O6 0.869498 0.761379 0.671269
O O7 0.662141 0.624038 0.831390
O O8 0.937333 0.500000 0.944107
O O9 0.000000 0.500000 0.000000
O O10 0.232666 0.000000 0.017396
O O11 0.500000 0.705552 0.500000
O O12 0.567627 0.500000 0.399403
O O13 0.381723 0.665331 0.489730
O O14 0.958564 0.000000 0.923756
O O15 0.000000 0.000000 0.000000
O O16 0.750000 0.750000 0.500000
O O17 0.715276 0.000000 0.555398
#
# Coordination Sequence:
#
# PCOD8094156 Si02
#       8
#     8   8   4   4   8   4   4   8
#     4  10  20  38  62  83 116 158 194 243 295 349
#     4  10  19  37  60  88 113 152 196 237 296 347
#     4  10  20  34  58  85 114 138 190 259 291 328
#     4  10  20  38  60  82 110 154 206 236 287 352
#     4  10  19  36  67  91 112 147 201 247 284 351
#     4  10  22  40  56  79 126 160 184 237 303 348
#     4  10  22  38  60  84 114 156 202 242 285 358
#     4  11  24  42  61  88 125 157 191 242 304 351
#
# _framework density 18.260031000000001
#
# number of rings (size 3 to 8) (size 9 to 14) (size 15 to 20)
#    0.000    1.833    3.333    1.000    1.167    0.000 
#    7.500    0.417    0.000    0.000    0.000    0.000 
#    0.000    0.000    0.000    0.000    0.000    0.000 
#
# Total GULP energy -297615.503851 kJ/mol
# GULP energy per Si atom -12400.645994 kJ/mol
# Density = 1.821847 g / cm^3
# Si number density = 18.260031 Si / 1000 Ang^3
#
#
#
# Elastic Constant Matrix: (Units=GPa)
#
#
# Indices 1 2 3 4 5 6 
#
# 1 69.7982 49.3449 67.7158 0.0008 14.1482 0.0000
# 2 49.3449 164.4649 85.8462 -0.0029 10.0893 0.0000
# 3 67.7158 85.8462 162.3256 -0.0057 6.6986 0.0005
# 4 0.0008 -0.0029 -0.0057 -35.1860 0.0001 1.8636
# 5 14.1482 10.0893 6.6986 0.0001 39.7871 0.0000
# 6 0.0000 0.0000 0.0005 1.8636 0.0000 21.1401
#
#
#
# Elastic Compliance Matrix: (Units=1/GPa)
#
#
# Indices 1 2 3 4 5 6 
#
# 1 0.026928 -0.002659 -0.009526 0.000002 -0.007297 0.000000
# 2 -0.002659 0.008739 -0.003484 0.000000 -0.000684 0.000000
# 3 -0.009526 -0.003484 0.011883 -0.000002 0.002270 0.000000
# 4 0.000002 0.000000 -0.000002 -0.028288 0.000000 0.002494
# 5 -0.007297 -0.000684 0.002270 0.000000 0.027520 0.000000
# 6 0.000000 0.000000 0.000000 0.002494 0.000000 0.047084
#
#
# Mechanical properties :
#
#
# Convention : Reuss Voigt Hill
#
# Bulk Modulus (GPa) = 61.68438 89.15584 75.42011
# Shear Modulus (GPa) = 38.28310 18.06037 28.17174
#
# Velocity S-wave (km/s) = 4.58378 3.14835 3.93212
# Velocity P-wave (km/s) = 7.86569 7.88339 7.87455
#
# Compressibility (1/GPa) = 0.01621156
#
# Stress axis : x y z
#
# Youngs Moduli (GPa) = 37.13642 114.43423 84.15449
#
# Poissons Ratio (x) = 0.30433 0.80162
# Poissons Ratio (y) = 0.09876 0.29318
# Poissons Ratio (z) = 0.35375 0.39867
#
# Static dielectric constant tensor:
#      x y z
#    x 3.142090 0.000000 -0.006610 
#    y 0.000000 3.494240 0.000000 
#    z -0.006610 0.000000 3.429600 
# 
# 
# High freq. dielectric constant tensor:
#      x y z
#    x 1.689700 0.000000 -0.000700 
#    y 0.000000 1.717920 0.000000 
#    z -0.000700 0.000000 1.720630 
# 
# From -- ./inp_files/343330.got.cif
#   From: 2010.06.25/outbox.cif.g09.slc.cpg/sg12_172_cif.got.tgz:343330.got - 2010.06.28 00:19:55.
