data_PCOD8094458
_publ_section_title
;
Structure prediction by ZEFSAII (Michael W. Deem and Ramdas Pophale) SiO2 
 PCOD8094458
Probable space group: C 2/M
;
_chemical_formula_sum "Si O2"
_cell_formula_units_Z 56
_cell_length_a 19.924481
_cell_length_b 8.954651
_cell_length_c 18.754932
_cell_angle_alpha 90.000000
_cell_angle_beta 120.190284
_cell_angle_gamma 90.000000
_cell_volume 2892.316943
_symmetry_space_group_name_H-M "C 2/M"
_symmetry_group_IT_number 12
_symmetry_cell_setting 'monoclinic'
loop_
_space_group_symop_operation_xyz
x,y,z
-x,y,-z
-x,-y,-z
x,-y,z
1/2+x,1/2+y,z
1/2-x,1/2+y,-z
1/2-x,1/2-y,-z
1/2+x,1/2-y,z
loop_
_atom_site_type_symbol
_atom_site_label
_atom_site_fract_x
_atom_site_fract_y
_atom_site_fract_z
Si Si1 0.937508 0.174067 0.521347
Si Si2 0.519001 0.677218 0.301058
Si Si3 0.627949 0.825691 0.245763
Si Si4 0.305411 0.672818 0.347939
Si Si5 0.088107 0.325950 0.063553
Si Si6 0.775716 0.175145 0.941293
Si Si7 0.639422 0.824889 0.762141
O O1 0.947578 0.241353 0.605902
O O2 0.850269 0.203386 0.446232
O O3 0.000000 0.246345 0.500000
O O4 0.955972 0.000000 0.536890
O O5 0.514359 0.500000 0.297530
O O6 0.574492 0.729284 0.267973
O O7 0.433851 0.743041 0.241894
O O8 0.716406 0.781079 0.310551
O O9 0.608869 0.779677 0.154947
O O10 0.612100 0.000000 0.250501
O O11 0.312435 0.500000 0.328410
O O12 0.347511 0.770803 0.311040
O O13 0.103911 0.500000 0.059079
O O14 0.140295 0.234531 0.036419
O O15 0.000000 0.282510 0.000000
O O16 0.714684 0.219033 0.847694
O O17 0.780511 0.000000 0.956078
O O18 0.750000 0.250000 0.000000
O O19 0.623307 0.000000 0.754160
#
# Coordination Sequence:
#
# PCOD8094458 Si02
#       7
#     8   8   8   8   8   8   8
#     4   9  17  33  58  87 117 151 199 249 291 343
#     4  11  23  38  60  87 119 160 201 243 294 354
#     4  10  22  39  59  86 122 159 196 242 296 354
#     4  10  19  37  64  86 113 159 203 238 291 357
#     4  10  22  41  64  89 121 159 194 236 297 357
#     4  11  25  42  63  91 122 154 196 246 292 348
#     4  11  23  39  60  88 121 153 194 248 296 342
#
# _framework density 19.361640000000001
#
# number of rings (size 3 to 8) (size 9 to 14) (size 15 to 20)
#    0.000    1.714    2.857    1.286    2.000    3.714 
#    0.000    2.143    0.000    0.000    0.000    0.000 
#    0.000    0.000    0.000    0.000    0.000    0.000 
#
# Total GULP energy -347308.608714 kJ/mol
# GULP energy per Si atom -12403.878883 kJ/mol
# Density = 1.931757 g / cm^3
# Si number density = 19.361640 Si / 1000 Ang^3
#
#
#
# Elastic Constant Matrix: (Units=GPa)
#
#
# Indices 1 2 3 4 5 6 
#
# 1 150.6735 54.4487 58.1487 0.0000 5.2662 0.0000
# 2 54.4487 62.2935 39.5887 0.0000 -0.1369 0.0000
# 3 58.1487 39.5887 92.4935 0.0000 5.6491 0.0000
# 4 0.0000 0.0000 0.0000 19.7581 0.0000 -6.6822
# 5 5.2662 -0.1369 5.6491 0.0000 35.8206 0.0000
# 6 0.0000 0.0000 0.0000 -6.6822 0.0000 37.5754
#
#
#
# Elastic Compliance Matrix: (Units=1/GPa)
#
#
# Indices 1 2 3 4 5 6 
#
# 1 0.010579 -0.006953 -0.003613 0.000000 -0.001012 0.000000
# 2 -0.006953 0.026711 -0.007199 0.000000 0.002260 0.000000
# 3 -0.003613 -0.007199 0.016291 0.000000 -0.002065 0.000000
# 4 0.000000 0.000000 0.000000 0.053851 0.000000 0.009577
# 5 -0.001012 0.002260 -0.002065 0.000000 0.028400 0.000000
# 6 0.000000 0.000000 0.000000 0.009577 0.000000 0.028316
#
#
# Mechanical properties :
#
#
# Convention : Reuss Voigt Hill
#
# Bulk Modulus (GPa) = 55.40298 67.75917 61.58108
# Shear Modulus (GPa) = 24.30776 28.84910 26.57843
#
# Velocity S-wave (km/s) = 3.54709 3.86426 3.70907
# Velocity P-wave (km/s) = 6.74186 7.41502 7.08644
#
# Compressibility (1/GPa) = 0.01804957
#
# Stress axis : x y z
#
# Youngs Moduli (GPa) = 94.52480 37.43812 61.38463
#
# Poissons Ratio (x) = 0.26031 0.22179
# Poissons Ratio (y) = 0.65723 0.44194
# Poissons Ratio (z) = 0.34153 0.26953
#
# Static dielectric constant tensor:
#      x y z
#    x 3.585010 0.000000 0.120300 
#    y 0.000000 3.353130 0.000000 
#    z 0.120300 0.000000 3.837250 
# 
# 
# High freq. dielectric constant tensor:
#      x y z
#    x 1.760770 0.000000 0.008200 
#    y 0.000000 1.737910 0.000000 
#    z 0.008200 0.000000 1.764910 
# 
# From -- ./inp_files/275039.got.cif
#   From: 2010.06.25/outbox.cif.g09.slc.cpg/sg12_138_cif.got.tgz:275039.got - 2010.06.28 00:19:55.
