data_PCOD8094083
_publ_section_title
;
Structure prediction by ZEFSAII (Michael W. Deem and Ramdas Pophale) SiO2 
 PCOD8094083
Probable space group: C 2/M
;
_chemical_formula_sum "Si O2"
_cell_formula_units_Z 56
_cell_length_a 30.368371
_cell_length_b 22.035627
_cell_length_c 9.466320
_cell_angle_alpha 90.000000
_cell_angle_beta 153.477315
_cell_angle_gamma 90.000000
_cell_volume 2828.786910
_symmetry_space_group_name_H-M "C 2/M"
_symmetry_group_IT_number 12
_symmetry_cell_setting 'monoclinic'
loop_
_space_group_symop_operation_xyz
x,y,z
-x,y,-z
-x,-y,-z
x,-y,z
1/2+x,1/2+y,z
1/2-x,1/2+y,-z
1/2-x,1/2-y,-z
1/2+x,1/2-y,z
loop_
_atom_site_type_symbol
_atom_site_label
_atom_site_fract_x
_atom_site_fract_y
_atom_site_fract_z
Si Si1 0.216777 0.233865 0.748462
Si Si2 0.345912 0.234482 0.862856
Si Si3 0.112404 0.065118 0.281156
Si Si4 0.269531 0.572852 0.826460
Si Si5 0.609232 0.160962 0.266042
Si Si6 0.356068 0.386352 0.352156
Si Si7 0.922901 0.134551 0.077261
O O1 0.312358 0.216342 0.925591
O O2 0.154389 0.286402 0.493963
O O3 0.146886 0.177104 0.572900
O O4 0.250000 0.250000 0.000000
O O5 0.250000 0.250000 0.500000
O O6 0.397282 0.180900 0.918884
O O7 0.417541 0.292964 0.082259
O O8 0.169328 0.067374 0.593592
O O9 0.134569 0.000000 0.272654
O O10 0.136737 0.117635 0.237963
O O11 0.000000 0.072835 0.000000
O O12 0.264288 0.500000 0.808679
O O13 0.175621 0.600678 0.474950
O O14 0.273521 0.599191 0.997928
O O15 0.370281 0.598149 0.050686
O O16 0.500000 0.144143 0.000000
O O17 0.465791 0.390354 0.602452
#
# Coordination Sequence:
#
# PCOD8094083 Si02
#       7
#     8   8   8   8   8   8   8
#     4  11  20  38  63  91 122 154 191 250 315 368
#     4  10  19  36  63  88 122 155 196 250 308 360
#     4   9  18  31  50  78 112 153 193 222 270 355
#     4  12  25  40  59  85 122 164 205 251 297 352
#     4  11  23  42  64  88 119 161 209 255 300 352
#     4  11  22  35  59  86 123 156 191 241 312 371
#     4  11  20  37  58  89 121 156 190 241 305 378
#
# _framework density 19.796472000000001
#
# number of rings (size 3 to 8) (size 9 to 14) (size 15 to 20)
#    0.000    1.286    4.286    3.857    0.000    3.714 
#    0.000    2.143    0.000    0.000    0.000    1.000 
#    0.000    0.000    0.000    0.000    0.000    0.000 
#
# Total GULP energy -346910.445488 kJ/mol
# GULP energy per Si atom -12389.658767 kJ/mol
# Density = 1.975141 g / cm^3
# Si number density = 19.796472 Si / 1000 Ang^3
#
#
#
# Elastic Constant Matrix: (Units=GPa)
#
#
# Indices 1 2 3 4 5 6 
#
# 1 121.5859 36.1076 38.2805 0.0000 -17.7048 0.0000
# 2 36.1076 104.2163 25.4734 0.0000 -6.6372 0.0000
# 3 38.2805 25.4734 51.6716 0.0000 -9.1728 0.0000
# 4 0.0000 0.0000 0.0000 12.8488 0.0000 -3.1796
# 5 -17.7048 -6.6372 -9.1728 0.0000 32.1711 0.0000
# 6 0.0000 0.0000 0.0000 -3.1796 0.0000 22.4587
#
#
#
# Elastic Compliance Matrix: (Units=1/GPa)
#
#
# Indices 1 2 3 4 5 6 
#
# 1 0.011579 -0.002085 -0.006842 0.000000 0.003991 0.000000
# 2 -0.002085 0.011303 -0.004021 0.000000 0.000038 0.000000
# 3 -0.006842 -0.004021 0.026952 0.000000 0.003090 0.000000
# 4 0.000000 0.000000 0.000000 0.080654 0.000000 0.011419
# 5 0.003991 0.000038 0.003090 0.000000 0.034169 0.000000
# 6 0.000000 0.000000 0.000000 0.011419 0.000000 0.046143
#
#
# Mechanical properties :
#
#
# Convention : Reuss Voigt Hill
#
# Bulk Modulus (GPa) = 41.77257 53.02189 47.39723
# Shear Modulus (GPa) = 20.43521 25.33654 22.88588
#
# Velocity S-wave (km/s) = 3.21637 3.58138 3.40377
# Velocity P-wave (km/s) = 5.91103 6.62898 6.28027
#
# Compressibility (1/GPa) = 0.02393916
#
# Stress axis : x y z
#
# Youngs Moduli (GPa) = 86.36153 88.47131 37.10249
#
# Poissons Ratio (x) = 0.18449 0.25385
# Poissons Ratio (y) = 0.18009 0.14918
# Poissons Ratio (z) = 0.59087 0.35571
#
# Static dielectric constant tensor:
#      x y z
#    x 0.726160 0.000000 -2.447680 
#    y 0.000000 36.299770 0.000000 
#    z -2.447680 0.000000 2.194650 
# 
# 
# High freq. dielectric constant tensor:
#      x y z
#    x 1.787310 0.000000 -0.022320 
#    y 0.000000 1.761980 0.000000 
#    z -0.022320 0.000000 1.740050 
# 
# From -- ./inp_files/113385.got.cif
#   From: 2010.06.25/outbox.cif.g09.slc.cpg/sg12_57_cif.got.tgz:113385.got - 2010.06.28 00:19:55.
