data_PCOD8094649
_publ_section_title
;
Structure prediction by ZEFSAII (Michael W. Deem and Ramdas Pophale) SiO2 
 PCOD8094649
Probable space group: C 2/M
;
_chemical_formula_sum "Si O2"
_cell_formula_units_Z 52
_cell_length_a 15.049553
_cell_length_b 29.288916
_cell_length_c 10.342438
_cell_angle_alpha 90.000000
_cell_angle_beta 142.306020
_cell_angle_gamma 90.000000
_cell_volume 2787.445885
_symmetry_space_group_name_H-M "C 2/M"
_symmetry_group_IT_number 12
_symmetry_cell_setting 'monoclinic'
loop_
_space_group_symop_operation_xyz
x,y,z
-x,y,-z
-x,-y,-z
x,-y,z
1/2+x,1/2+y,z
1/2-x,1/2+y,-z
1/2-x,1/2-y,-z
1/2+x,1/2-y,z
loop_
_atom_site_type_symbol
_atom_site_label
_atom_site_fract_x
_atom_site_fract_y
_atom_site_fract_z
Si Si1 0.764058 0.500000 0.278391
Si Si2 0.300899 0.132113 0.086100
Si Si3 0.422612 0.680881 0.544604
Si Si4 0.143727 0.698596 0.088354
Si Si5 0.467152 0.416843 0.317981
Si Si6 0.500000 0.923906 0.500000
Si Si7 0.515302 0.500000 0.205114
Si Si8 0.091081 0.200709 0.977704
O O1 0.867297 0.455215 0.399860
O O2 0.647488 0.500000 0.258407
O O3 0.654765 0.500000 0.031790
O O4 0.438783 0.108505 0.314654
O O5 0.206804 0.160534 0.082997
O O6 0.349957 0.167029 0.030989
O O7 0.203929 0.092279 0.907873
O O8 0.500000 0.694526 0.500000
O O9 0.254275 0.686314 0.329058
O O10 0.448575 0.629161 0.615830
O O11 0.482397 0.710527 0.732303
O O12 0.172930 0.751300 0.087275
O O13 0.000000 0.689714 0.000000
O O14 0.500000 0.433252 0.500000
O O15 0.538810 0.454573 0.312053
O O16 0.000000 0.186843 0.000000
#
# Coordination Sequence:
#
# PCOD8094649 Si02
#       8
#     4   8   8   8   8   4   4   8
#     4  10  24  42  59  92 127 158 182 255 311 366
#     4  11  22  39  62  91 121 170 199 254 307 371
#     4  10  20  39  63  82 125 166 200 265 300 359
#     4  11  23  39  60  90 126 163 209 258 315 357
#     4  10  19  38  63  89 113 154 208 245 291 359
#     4  11  24  42  62  88 134 152 194 252 316 371
#     4  11  21  38  69  90 115 156 209 234 303 379
#     4  10  23  38  61  93 123 160 221 257 301 364
#
# _framework density 18.655071
#
# number of rings (size 3 to 8) (size 9 to 14) (size 15 to 20)
#    0.000    1.538    6.154    0.692    0.000    8.615 
#    0.000    0.000    0.000    0.923    0.000    0.000 
#    0.000    0.000    0.000    0.000    0.000    0.000 
#
# Total GULP energy -322220.202112 kJ/mol
# GULP energy per Si atom -12393.084697 kJ/mol
# Density = 1.861261 g / cm^3
# Si number density = 18.655071 Si / 1000 Ang^3
#
#
#
# Elastic Constant Matrix: (Units=GPa)
#
#
# Indices 1 2 3 4 5 6 
#
# 1 86.2913 41.8306 36.0611 0.0000 4.2453 0.0000
# 2 41.8306 60.0778 42.2557 0.0000 -2.2255 0.0000
# 3 36.0611 42.2557 145.5832 0.0000 7.0258 0.0000
# 4 0.0000 0.0000 0.0000 25.4041 0.0000 6.4894
# 5 4.2453 -2.2255 7.0258 0.0000 33.3734 0.0000
# 6 0.0000 0.0000 0.0000 6.4894 0.0000 27.2045
#
#
#
# Elastic Compliance Matrix: (Units=1/GPa)
#
#
# Indices 1 2 3 4 5 6 
#
# 1 0.017881 -0.011989 -0.000809 0.000000 -0.002904 0.000000
# 2 -0.011989 0.029196 -0.005730 0.000000 0.004678 0.000000
# 3 -0.000809 -0.005730 0.008836 0.000000 -0.002139 0.000000
# 4 0.000000 0.000000 0.000000 0.041918 0.000000 -0.009999
# 5 -0.002904 0.004678 -0.002139 0.000000 0.031096 0.000000
# 6 0.000000 0.000000 0.000000 -0.009999 0.000000 0.039144
#
#
# Mechanical properties :
#
#
# Convention : Reuss Voigt Hill
#
# Bulk Modulus (GPa) = 53.03166 59.13856 56.08511
# Shear Modulus (GPa) = 23.65033 28.65006 26.15019
#
# Velocity S-wave (km/s) = 3.56444 3.92315 3.74809
# Velocity P-wave (km/s) = 6.74014 7.23128 6.99002
#
# Compressibility (1/GPa) = 0.01885666
#
# Stress axis : x y z
#
# Youngs Moduli (GPa) = 55.92414 34.25098 113.17441
#
# Poissons Ratio (x) = 0.41062 0.09160
# Poissons Ratio (y) = 0.67045 0.64854
# Poissons Ratio (z) = 0.04526 0.19627
#
# Static dielectric constant tensor:
#      x y z
#    x 3.295210 0.000000 -0.096890 
#    y 0.000000 3.453380 0.000000 
#    z -0.096890 0.000000 4.244150 
# 
# 
# High freq. dielectric constant tensor:
#      x y z
#    x 1.714810 0.000000 -0.003600 
#    y 0.000000 1.727240 0.000000 
#    z -0.003600 0.000000 1.738900 
# 
# From -- ./inp_files/68707.got.cif
#   From: 2010.06.25/outbox.cif.g09.slc.cpg/sg12_35_cif.got.tgz:68707.got - 2010.06.28 00:19:55.
