data_PCOD8094228
_publ_section_title
;
Structure prediction by ZEFSAII (Michael W. Deem and Ramdas Pophale) SiO2 
 PCOD8094228
Probable space group: C 2/M
;
_chemical_formula_sum "Si O2"
_cell_formula_units_Z 64
_cell_length_a 14.650270
_cell_length_b 28.957954
_cell_length_c 11.708132
_cell_angle_alpha 90.000000
_cell_angle_beta 138.842753
_cell_angle_gamma 90.000000
_cell_volume 3268.973311
_symmetry_space_group_name_H-M "C 2/M"
_symmetry_group_IT_number 12
_symmetry_cell_setting 'monoclinic'
loop_
_space_group_symop_operation_xyz
x,y,z
-x,y,-z
-x,-y,-z
x,-y,z
1/2+x,1/2+y,z
1/2-x,1/2+y,-z
1/2-x,1/2-y,-z
1/2+x,1/2-y,z
loop_
_atom_site_type_symbol
_atom_site_label
_atom_site_fract_x
_atom_site_fract_y
_atom_site_fract_z
Si Si1 0.036612 0.814819 0.345404
Si Si2 0.090383 0.446210 0.235300
Si Si3 0.805364 0.051978 0.631259
Si Si4 0.711834 0.691037 0.727688
Si Si5 0.584451 0.593822 0.848368
Si Si6 0.324279 0.902695 0.911938
Si Si7 0.366021 0.281972 0.797485
Si Si8 0.165552 0.879140 0.153518
O O1 0.138446 0.827802 0.544657
O O2 0.098375 0.780503 0.305768
O O3 0.893329 0.796570 0.267313
O O4 0.012549 0.861401 0.253458
O O5 0.048524 0.500000 0.206675
O O6 0.207432 0.431842 0.435781
O O7 0.158506 0.437007 0.177167
O O8 0.953559 0.413347 0.119092
O O9 0.763061 0.083954 0.697009
O O10 0.971320 0.053615 0.760562
O O11 0.770213 0.000000 0.633104
O O12 0.820781 0.651765 0.872447
O O13 0.777431 0.738274 0.748238
O O14 0.675523 0.583342 0.823283
O O15 0.698572 0.604978 0.055056
O O16 0.283259 0.328269 0.759122
O O17 0.500000 0.279117 0.000000
O O18 0.000000 0.882805 0.000000
#
# Coordination Sequence:
#
# PCOD8094228 Si02
#       8
#     8   8   8   8   8   8   8   8
#     4  10  19  40  55  80 119 152 185 253 296 323
#     4  10  22  40  56  80 121 157 182 235 298 346
#     4  10  20  35  61  89 112 145 194 238 285 348
#     4  10  23  34  57  87 113 148 207 239 278 351
#     4  10  19  37  59  84 110 151 186 242 286 338
#     4  10  21  37  57  81 115 152 194 230 285 339
#     4  11  20  36  58  80 115 160 188 232 302 347
#     4   9  18  36  57  78 115 147 183 234 298 334
#
# _framework density 19.578012000000001
#
# number of rings (size 3 to 8) (size 9 to 14) (size 15 to 20)
#    0.000    2.000    3.750    1.875    1.750    5.250 
#    0.000    1.875    2.750    1.500    0.000    0.000 
#    0.000    0.000    0.000    0.000    0.000    0.000 
#
# Total GULP energy -396510.594261 kJ/mol
# GULP energy per Si atom -12390.956071 kJ/mol
# Density = 1.953345 g / cm^3
# Si number density = 19.578012 Si / 1000 Ang^3
#
#
#
# Elastic Constant Matrix: (Units=GPa)
#
#
# Indices 1 2 3 4 5 6 
#
# 1 50.3343 39.9353 39.2831 0.0000 -2.6506 0.0000
# 2 39.9353 101.8188 52.4063 0.0000 1.9340 0.0000
# 3 39.2831 52.4063 102.3370 0.0000 -12.6521 0.0000
# 4 0.0000 0.0000 0.0000 -63.3393 0.0000 -96.7431
# 5 -2.6506 1.9340 -12.6521 0.0000 23.9466 0.0000
# 6 0.0000 0.0000 0.0000 -96.7431 0.0000 -72.6730
#
#
#
# Elastic Compliance Matrix: (Units=1/GPa)
#
#
# Indices 1 2 3 4 5 6 
#
# 1 0.033315 -0.008809 -0.008274 0.000000 0.000027 0.000000
# 2 -0.008809 0.016253 -0.005590 0.000000 -0.005241 0.000000
# 3 -0.008274 -0.005590 0.016854 0.000000 0.008440 0.000000
# 4 0.000000 0.000000 0.000000 0.015280 0.000000 -0.020341
# 5 0.000027 -0.005241 0.008440 0.000000 0.046645 0.000000
# 6 0.000000 0.000000 0.000000 -0.020341 0.000000 0.013317
#
#
# Mechanical properties :
#
#
# Convention : Reuss Voigt Hill
#
# Bulk Modulus (GPa) = 47.44579 57.52662 52.48621
# Shear Modulus (GPa) = 25.76877 -14.22211 5.77333
#
# Velocity S-wave (km/s) = 3.63190 -2.69817 1.71909
# Velocity P-wave (km/s) = 6.47104 4.44300 5.55044
#
# Compressibility (1/GPa) = 0.02107669
#
# Stress axis : x y z
#
# Youngs Moduli (GPa) = 30.01679 61.52780 59.33452
#
# Poissons Ratio (x) = 0.54197 0.49093
# Poissons Ratio (y) = 0.26440 0.33166
# Poissons Ratio (z) = 0.24836 0.34392
#
# Static dielectric constant tensor:
#      x y z
#    x 3.801860 0.000000 0.144040 
#    y 0.000000 3.674720 0.000000 
#    z 0.144040 0.000000 4.938580 
# 
# 
# High freq. dielectric constant tensor:
#      x y z
#    x 1.750780 0.000000 -0.020450 
#    y 0.000000 1.756620 0.000000 
#    z -0.020450 0.000000 1.762370 
# 
# From -- ./inp_files/149800.got.cif
#   From: 2010.06.25/outbox.cif.g09.slc.cpg/sg12_75_cif.got.tgz:149800.got - 2010.06.28 00:19:55.
