data_PCOD8094338
_publ_section_title
;
Structure prediction by ZEFSAII (Michael W. Deem and Ramdas Pophale) SiO2 
 PCOD8094338
Probable space group: C 2/M
;
_chemical_formula_sum "Si O2"
_cell_formula_units_Z 64
_cell_length_a 21.962656
_cell_length_b 19.391465
_cell_length_c 9.628972
_cell_angle_alpha 90.000000
_cell_angle_beta 55.045505
_cell_angle_gamma 90.000000
_cell_volume 3361.098470
_symmetry_space_group_name_H-M "C 2/M"
_symmetry_group_IT_number 12
_symmetry_cell_setting 'monoclinic'
loop_
_space_group_symop_operation_xyz
x,y,z
-x,y,-z
-x,-y,-z
x,-y,z
1/2+x,1/2+y,z
1/2-x,1/2+y,-z
1/2-x,1/2-y,-z
1/2+x,1/2-y,z
loop_
_atom_site_type_symbol
_atom_site_label
_atom_site_fract_x
_atom_site_fract_y
_atom_site_fract_z
Si Si1 0.692400 0.425419 0.921373
Si Si2 0.589224 0.305502 0.994894
Si Si3 0.326974 0.790537 0.912437
Si Si4 0.240892 0.577771 0.886649
Si Si5 0.577545 0.807845 0.476774
Si Si6 0.570780 0.689654 0.714027
Si Si7 0.801716 0.919349 0.505889
Si Si8 0.821844 0.422214 0.556259
O O1 0.661325 0.500000 0.915620
O O2 0.644205 0.369195 0.909202
O O3 0.777840 0.417981 0.759685
O O4 0.692096 0.418095 0.088531
O O5 0.587076 0.274148 0.841866
O O6 0.616472 0.246350 0.059765
O O7 0.513534 0.336919 0.157607
O O8 0.359807 0.790503 0.716367
O O9 0.250000 0.750000 0.000000
O O10 0.320302 0.866780 0.986754
O O11 0.206689 0.500000 0.928965
O O12 0.274812 0.597870 0.695306
O O13 0.500000 0.823223 0.500000
O O14 0.573388 0.744006 0.586526
O O15 0.605070 0.874220 0.529500
O O16 0.624657 0.625296 0.616542
O O17 0.734931 0.897620 0.490345
O O18 0.821783 0.000000 0.460735
O O19 0.849455 0.500000 0.489623
#
# Coordination Sequence:
#
# PCOD8094338 Si02
#       8
#     8   8   8   8   8   8   8   8
#     4  10  19  37  61  88 117 152 206 253 292 357
#     4  11  23  40  57  87 121 165 203 247 308 369
#     4  12  22  39  64  88 117 164 212 254 304 362
#     4  10  21  37  61  91 120 155 203 255 302 356
#     4  12  25  42  60  91 126 160 202 259 313 360
#     4  11  25  39  59  86 128 163 199 249 309 370
#     4  10  22  40  62  93 126 158 203 255 304 365
#     4  10  21  40  64  89 119 154 204 258 303 362
#
# _framework density 19.041392999999999
#
# number of rings (size 3 to 8) (size 9 to 14) (size 15 to 20)
#    0.000    1.250    5.000    0.750    1.750    1.250 
#    0.000    1.250    0.000    2.625    0.000    4.375 
#    0.000    0.000    0.000    0.000    0.000    0.000 
#
# Total GULP energy -396651.919778 kJ/mol
# GULP energy per Si atom -12395.372493 kJ/mol
# Density = 1.899805 g / cm^3
# Si number density = 19.041393 Si / 1000 Ang^3
#
#
#
# Elastic Constant Matrix: (Units=GPa)
#
#
# Indices 1 2 3 4 5 6 
#
# 1 104.9760 50.4803 36.5756 0.0000 3.0904 0.0000
# 2 50.4803 106.4290 37.4274 0.0000 -5.2335 0.0000
# 3 36.5756 37.4274 111.6962 0.0000 12.4826 0.0000
# 4 0.0000 0.0000 0.0000 22.1117 0.0000 6.7051
# 5 3.0904 -5.2335 12.4826 0.0000 28.8062 0.0000
# 6 0.0000 0.0000 0.0000 6.7051 0.0000 24.9943
#
#
#
# Elastic Compliance Matrix: (Units=1/GPa)
#
#
# Indices 1 2 3 4 5 6 
#
# 1 0.012965 -0.005418 -0.002275 0.000000 -0.001389 0.000000
# 2 -0.005418 0.013295 -0.003169 0.000000 0.004370 0.000000
# 3 -0.002275 -0.003169 0.011346 0.000000 -0.005248 0.000000
# 4 0.000000 0.000000 0.000000 0.049230 0.000000 -0.013207
# 5 -0.001389 0.004370 -0.005248 0.000000 0.037932 0.000000
# 6 0.000000 0.000000 0.000000 -0.013207 0.000000 0.043552
#
#
# Mechanical properties :
#
#
# Convention : Reuss Voigt Hill
#
# Bulk Modulus (GPa) = 62.96178 63.56307 63.26243
# Shear Modulus (GPa) = 25.59679 28.42363 27.01021
#
# Velocity S-wave (km/s) = 3.67041 3.86778 3.77038
# Velocity P-wave (km/s) = 7.14843 7.30755 7.22843
#
# Compressibility (1/GPa) = 0.01588265
#
# Stress axis : x y z
#
# Youngs Moduli (GPa) = 77.13277 75.21642 88.13514
#
# Poissons Ratio (x) = 0.40750 0.20048
# Poissons Ratio (y) = 0.41788 0.27932
# Poissons Ratio (z) = 0.17546 0.23838
#
# Static dielectric constant tensor:
#      x y z
#    x 3.514920 0.000000 0.180470 
#    y 0.000000 3.585390 0.000000 
#    z 0.180470 0.000000 3.587700 
# 
# 
# High freq. dielectric constant tensor:
#      x y z
#    x 1.734730 0.000000 0.022230 
#    y 0.000000 1.741170 0.000000 
#    z 0.022230 0.000000 1.748010 
# 
# From -- ./inp_files/89594.got.cif
#   From: 2010.06.25/outbox.cif.g09.slc.cpg/sg12_45_cif.got.tgz:89594.got - 2010.06.28 00:19:55.
