data_PCOD8094918
_publ_section_title
;
Structure prediction by ZEFSAII (Michael W. Deem and Ramdas Pophale) SiO2 
 PCOD8094918
Probable space group: C 2/M
;
_chemical_formula_sum "Si O2"
_cell_formula_units_Z 56
_cell_length_a 23.978588
_cell_length_b 24.330512
_cell_length_c 9.353058
_cell_angle_alpha 90.000000
_cell_angle_beta 144.836940
_cell_angle_gamma 90.000000
_cell_volume 3142.531243
_symmetry_space_group_name_H-M "C 2/M"
_symmetry_group_IT_number 12
_symmetry_cell_setting 'monoclinic'
loop_
_space_group_symop_operation_xyz
x,y,z
-x,y,-z
-x,-y,-z
x,-y,z
1/2+x,1/2+y,z
1/2-x,1/2+y,-z
1/2-x,1/2-y,-z
1/2+x,1/2-y,z
loop_
_atom_site_type_symbol
_atom_site_label
_atom_site_fract_x
_atom_site_fract_y
_atom_site_fract_z
Si Si1 0.431619 0.438083 0.987277
Si Si2 0.703941 0.659507 0.336546
Si Si3 0.546359 0.727378 0.871154
Si Si4 0.041873 0.880668 0.431933
Si Si5 0.396548 0.191578 0.242592
Si Si6 0.230265 0.840475 0.717150
Si Si7 0.350953 0.779491 0.458441
O O1 0.392295 0.500000 0.884596
O O2 0.342526 0.396217 0.824011
O O3 0.500000 0.419365 0.000000
O O4 0.499273 0.435684 0.270374
O O5 0.731147 0.642307 0.553973
O O6 0.801732 0.674918 0.456893
O O7 0.629674 0.712452 0.163978
O O8 0.492783 0.670531 0.733930
O O9 0.590180 0.750319 0.814286
O O10 0.462712 0.770421 0.746607
O O11 0.158176 0.877981 0.662185
O O12 0.000000 0.875843 0.500000
O O13 0.500000 0.164689 0.500000
O O14 0.341454 0.200924 0.275152
O O15 0.335227 0.151063 0.011216
O O16 0.208639 0.776238 0.668550
#
# Coordination Sequence:
#
# PCOD8094918 Si02
#       7
#     8   8   8   8   8   8   8
#     4  10  21  39  56  73 108 139 169 218 274 317
#     4  11  21  34  51  80 102 145 178 212 259 313
#     4   9  19  32  49  73 114 146 176 205 255 305
#     4  10  20  32  53  78 104 141 177 211 254 315
#     4  10  20  34  45  70 107 152 178 209 251 299
#     4  11  20  32  48  74 106 145 176 208 252 310
#     4  10  20  30  51  71 106 145 180 208 247 309
#
# _framework density 17.820029000000002
#
# number of rings (size 3 to 8) (size 9 to 14) (size 15 to 20)
#    0.000    1.857    2.857    3.000    4.000    0.286 
#    2.571    0.000    0.000    0.000    0.000    0.000 
#    0.000   21.143    0.000    0.000    0.000    0.000 
#
# Total GULP energy -346921.627118 kJ/mol
# GULP energy per Si atom -12390.058111 kJ/mol
# Density = 1.777947 g / cm^3
# Si number density = 17.820029 Si / 1000 Ang^3
#
#
#
# Elastic Constant Matrix: (Units=GPa)
#
#
# Indices 1 2 3 4 5 6 
#
# 1 78.9790 35.2146 16.2131 0.0000 4.7924 0.0000
# 2 35.2146 53.5167 21.6031 0.0000 5.4925 0.0000
# 3 16.2131 21.6031 103.0087 0.0000 3.4271 0.0000
# 4 0.0000 0.0000 0.0000 5.8128 0.0000 -1.7125
# 5 4.7924 5.4925 3.4271 0.0000 17.6632 0.0000
# 6 0.0000 0.0000 0.0000 -1.7125 0.0000 10.5194
#
#
#
# Elastic Compliance Matrix: (Units=1/GPa)
#
#
# Indices 1 2 3 4 5 6 
#
# 1 0.017957 -0.011544 -0.000365 0.000000 -0.001212 0.000000
# 2 -0.011544 0.028392 -0.003973 0.000000 -0.004925 0.000000
# 3 -0.000365 -0.003973 0.010623 0.000000 -0.000727 0.000000
# 4 0.000000 0.000000 0.000000 0.180702 0.000000 0.029417
# 5 -0.001212 -0.004925 -0.000727 0.000000 0.058616 0.000000
# 6 0.000000 0.000000 0.000000 0.029417 0.000000 0.099852
#
#
# Mechanical properties :
#
#
# Convention : Reuss Voigt Hill
#
# Bulk Modulus (GPa) = 39.67293 42.39622 41.03457
# Shear Modulus (GPa) = 11.45976 17.63065 14.54521
#
# Velocity S-wave (km/s) = 2.53866 3.14884 2.86007
# Velocity P-wave (km/s) = 5.55918 6.08796 5.82957
#
# Compressibility (1/GPa) = 0.02520611
#
# Stress axis : x y z
#
# Youngs Moduli (GPa) = 55.68737 35.22173 94.13676
#
# Poissons Ratio (x) = 0.40662 0.03436
# Poissons Ratio (y) = 0.64288 0.37404
# Poissons Ratio (z) = 0.02032 0.13995
#
# Static dielectric constant tensor:
#      x y z
#    x 3.418720 0.000000 0.028420 
#    y 0.000000 2.851510 0.000000 
#    z 0.028420 0.000000 3.719890 
# 
# 
# High freq. dielectric constant tensor:
#      x y z
#    x 1.696710 0.000000 -0.005200 
#    y 0.000000 1.621420 0.000000 
#    z -0.005200 0.000000 1.695530 
# 
# From -- ./inp_files/99713.got.cif
#   From: 2010.06.25/outbox.cif.g09.slc.cpg/sg12_50_cif.got.tgz:99713.got - 2010.06.28 00:19:55.
