data_PCOD8094766
_publ_section_title
;
Structure prediction by ZEFSAII (Michael W. Deem and Ramdas Pophale) SiO2 
 PCOD8094766
Probable space group: C 2/M
;
_chemical_formula_sum "Si O2"
_cell_formula_units_Z 40
_cell_length_a 14.492631
_cell_length_b 14.473938
_cell_length_c 12.471662
_cell_angle_alpha 90.000000
_cell_angle_beta 132.673643
_cell_angle_gamma 90.000000
_cell_volume 1923.443423
_symmetry_space_group_name_H-M "C 2/M"
_symmetry_group_IT_number 12
_symmetry_cell_setting 'monoclinic'
loop_
_space_group_symop_operation_xyz
x,y,z
-x,y,-z
-x,-y,-z
x,-y,z
1/2+x,1/2+y,z
1/2-x,1/2+y,-z
1/2-x,1/2-y,-z
1/2+x,1/2-y,z
loop_
_atom_site_type_symbol
_atom_site_label
_atom_site_fract_x
_atom_site_fract_y
_atom_site_fract_z
Si Si1 0.499219 0.398414 0.880081
Si Si2 0.475589 0.105063 0.226279
Si Si3 0.326367 0.751669 0.667904
Si Si4 0.271109 0.648623 0.059445
Si Si5 0.113009 0.247778 0.667181
O O1 0.435966 0.500000 0.831361
O O2 0.427627 0.330563 0.742871
O O3 0.641674 0.408529 0.952543
O O4 0.500000 0.355610 0.000000
O O5 0.598098 0.151272 0.267646
O O6 0.430111 0.164583 0.294391
O O7 0.508485 0.000000 0.287736
O O8 0.365676 0.100649 0.049015
O O9 0.250000 0.750000 0.500000
O O10 0.236100 0.727983 0.695506
O O11 0.342274 0.657899 0.229646
O O12 0.250000 0.750000 0.000000
O O13 0.000000 0.217720 0.500000
#
# Coordination Sequence:
#
# PCOD8094766 Si02
#       5
#     8   8   8   8   8
#     4  11  22  38  67 100 124 161 217 273 324 385
#     4  11  24  43  68 100 132 170 222 273 325 389
#     4  12  24  42  65  95 135 174 213 267 336 392
#     4  10  19  39  63  91 130 170 206 260 328 391
#     4  11  22  42  69  93 128 175 219 266 334 386
#
# _framework density 20.796036000000001
#
# number of rings (size 3 to 8) (size 9 to 14) (size 15 to 20)
#    0.000    1.000    6.000    3.000    0.000    3.600 
#    0.000    3.000    0.000    4.200    0.000    0.000 
#    0.000    0.000    0.000    0.000    0.000    0.000 
#
# Total GULP energy -247870.742092 kJ/mol
# GULP energy per Si atom -12393.537105 kJ/mol
# Density = 2.074870 g / cm^3
# Si number density = 20.796036 Si / 1000 Ang^3
#
#
#
# Elastic Constant Matrix: (Units=GPa)
#
#
# Indices 1 2 3 4 5 6 
#
# 1 94.2218 31.7473 22.7399 0.0000 12.2074 0.0000
# 2 31.7473 105.0932 44.0512 0.0000 0.7107 0.0000
# 3 22.7399 44.0512 150.7545 0.0000 12.6098 0.0000
# 4 0.0000 0.0000 0.0000 14.9696 0.0000 -5.8350
# 5 12.2074 0.7107 12.6098 0.0000 33.3513 0.0000
# 6 0.0000 0.0000 0.0000 -5.8350 0.0000 14.4507
#
#
#
# Elastic Compliance Matrix: (Units=1/GPa)
#
#
# Indices 1 2 3 4 5 6 
#
# 1 0.012481 -0.003536 -0.000489 0.000000 -0.004308 0.000000
# 2 -0.003536 0.011878 -0.003123 0.000000 0.002222 0.000000
# 3 -0.000489 -0.003123 0.007847 0.000000 -0.002721 0.000000
# 4 0.000000 0.000000 0.000000 0.079280 0.000000 0.032012
# 5 -0.004308 0.002222 -0.002721 0.000000 0.032542 0.000000
# 6 0.000000 0.000000 0.000000 0.032012 0.000000 0.082127
#
#
# Mechanical properties :
#
#
# Convention : Reuss Voigt Hill
#
# Bulk Modulus (GPa) = 55.83734 60.79402 58.31568
# Shear Modulus (GPa) = 20.29042 29.32305 24.80674
#
# Velocity S-wave (km/s) = 3.12699 3.75911 3.45753
# Velocity P-wave (km/s) = 6.32026 6.93817 6.63641
#
# Compressibility (1/GPa) = 0.01790916
#
# Stress axis : x y z
#
# Youngs Moduli (GPa) = 80.12223 84.19131 127.43233
#
# Poissons Ratio (x) = 0.29772 0.06231
# Poissons Ratio (y) = 0.28333 0.39799
# Poissons Ratio (z) = 0.03918 0.26294
#
# Static dielectric constant tensor:
#      x y z
#    x 3.902040 0.000000 0.235420 
#    y 0.000000 3.710670 0.000000 
#    z 0.235420 0.000000 4.229320 
# 
# 
# High freq. dielectric constant tensor:
#      x y z
#    x 1.819180 0.000000 0.013010 
#    y 0.000000 1.792960 0.000000 
#    z 0.013010 0.000000 1.818570 
# 
# From -- ./inp_files/142531.got.cif
#   From: 2010.06.25/outbox.cif.g09.slc.cpg/sg12_72_cif.got.tgz:142531.got - 2010.06.28 00:19:55.
