data_PCOD8094362
_publ_section_title
;
Structure prediction by ZEFSAII (Michael W. Deem and Ramdas Pophale) SiO2 
 PCOD8094362
Probable space group: C 2/M
;
_chemical_formula_sum "Si O2"
_cell_formula_units_Z 56
_cell_length_a 9.496139
_cell_length_b 17.404740
_cell_length_c 18.179292
_cell_angle_alpha 90.000000
_cell_angle_beta 70.855465
_cell_angle_gamma 90.000000
_cell_volume 2838.460513
_symmetry_space_group_name_H-M "C 2/M"
_symmetry_group_IT_number 12
_symmetry_cell_setting 'monoclinic'
loop_
_space_group_symop_operation_xyz
x,y,z
-x,y,-z
-x,-y,-z
x,-y,z
1/2+x,1/2+y,z
1/2-x,1/2+y,-z
1/2-x,1/2-y,-z
1/2+x,1/2-y,z
loop_
_atom_site_type_symbol
_atom_site_label
_atom_site_fract_x
_atom_site_fract_y
_atom_site_fract_z
Si Si1 0.076471 0.412749 0.180712
Si Si2 0.380755 0.414201 0.215631
Si Si3 0.083584 0.089722 0.056679
Si Si4 0.665275 0.083910 0.501082
Si Si5 0.571290 0.838883 0.657925
Si Si6 0.252445 0.813495 0.641494
Si Si7 0.642755 0.175996 0.024078
O O1 0.033106 0.500000 0.162013
O O2 0.236835 0.416262 0.189361
O O3 0.083832 0.349982 0.114183
O O4 0.956600 0.383281 0.260939
O O5 0.420808 0.500000 0.235368
O O6 0.512888 0.376467 0.143895
O O7 0.359065 0.363936 0.290983
O O8 0.051871 0.000000 0.062720
O O9 0.259554 0.105891 0.024906
O O10 0.000000 0.126413 0.000000
O O11 0.500000 0.077049 0.500000
O O12 0.658903 0.104655 0.588059
O O13 0.749963 0.149055 0.439439
O O14 0.743161 0.000000 0.479301
O O15 0.417351 0.809601 0.647942
O O16 0.685416 0.770476 0.651600
O O17 0.500000 0.192967 0.000000
O O18 0.750000 0.250000 0.000000
#
# Coordination Sequence:
#
# PCOD8094362 Si02
#       7
#     8   8   8   8   8   8   8
#     4  10  21  39  61  84 112 149 192 236 282 340
#     4   9  18  34  60  85 110 148 192 231 277 337
#     4  10  19  37  62  84 112 149 190 235 284 344
#     4   9  17  33  58  86 111 144 193 235 272 328
#     4  10  21  35  58  84 116 150 186 230 282 336
#     4  10  20  34  56  84 118 147 185 232 282 330
#     4  12  27  40  59  83 115 149 193 240 292 342
#
# _framework density 19.729005000000001
#
# number of rings (size 3 to 8) (size 9 to 14) (size 15 to 20)
#    0.000    2.000    1.429    2.143    2.000    5.714 
#    0.000    0.000    0.000    3.429    0.000    0.000 
#    0.000    0.000    0.000    0.000    0.000    0.000 
#
# Total GULP energy -347071.660718 kJ/mol
# GULP energy per Si atom -12395.416454 kJ/mol
# Density = 1.968410 g / cm^3
# Si number density = 19.729005 Si / 1000 Ang^3
#
#
#
# Elastic Constant Matrix: (Units=GPa)
#
#
# Indices 1 2 3 4 5 6 
#
# 1 57.5817 24.1013 27.7403 0.0000 -7.7844 0.0000
# 2 24.1013 100.9363 51.6737 0.0000 5.2437 0.0000
# 3 27.7403 51.6737 151.3889 0.0000 -5.2252 0.0000
# 4 0.0000 0.0000 0.0000 31.8885 0.0000 -2.0790
# 5 -7.7844 5.2437 -5.2252 0.0000 18.2182 0.0000
# 6 0.0000 0.0000 0.0000 -2.0790 0.0000 43.9563
#
#
#
# Elastic Compliance Matrix: (Units=1/GPa)
#
#
# Indices 1 2 3 4 5 6 
#
# 1 0.021644 -0.004646 -0.002035 0.000000 0.010002 0.000000
# 2 -0.004646 0.013410 -0.003967 0.000000 -0.006983 0.000000
# 3 -0.002035 -0.003967 0.008425 0.000000 0.002689 0.000000
# 4 0.000000 0.000000 0.000000 0.031456 0.000000 0.001488
# 5 0.010002 -0.006983 0.002689 0.000000 0.061945 0.000000
# 6 0.000000 0.000000 0.000000 0.001488 0.000000 0.022820
#
#
# Mechanical properties :
#
#
# Convention : Reuss Voigt Hill
#
# Bulk Modulus (GPa) = 45.07863 57.43750 51.25807
# Shear Modulus (GPa) = 26.54061 32.57203 29.55632
#
# Velocity S-wave (km/s) = 3.67176 4.06762 3.87475
# Velocity P-wave (km/s) = 6.39330 7.15801 6.78644
#
# Compressibility (1/GPa) = 0.02218346
#
# Stress axis : x y z
#
# Youngs Moduli (GPa) = 46.20293 74.57005 118.69065
#
# Poissons Ratio (x) = 0.34644 0.24153
# Poissons Ratio (y) = 0.21465 0.47085
# Poissons Ratio (z) = 0.09402 0.29582
#
# Static dielectric constant tensor:
#      x y z
#    x 3.301900 0.000000 -0.215290 
#    y 0.000000 3.741640 0.000000 
#    z -0.215290 0.000000 4.361290 
# 
# 
# High freq. dielectric constant tensor:
#      x y z
#    x 1.726930 0.000000 -0.014740 
#    y 0.000000 1.773990 0.000000 
#    z -0.014740 0.000000 1.787800 
# 
# From -- ./inp_files/257071.got.cif
#   From: 2010.06.25/outbox.cif.g09.slc.cpg/sg12_129_cif.got.tgz:257071.got - 2010.06.28 00:19:55.
