data_PCOD8094487
_publ_section_title
;
Structure prediction by ZEFSAII (Michael W. Deem and Ramdas Pophale) SiO2 
 PCOD8094487
Probable space group: C 2/M
;
_chemical_formula_sum "Si O2"
_cell_formula_units_Z 48
_cell_length_a 20.249845
_cell_length_b 17.672454
_cell_length_c 16.749077
_cell_angle_alpha 90.000000
_cell_angle_beta 158.537912
_cell_angle_gamma 90.000000
_cell_volume 2193.080838
_symmetry_space_group_name_H-M "C 2/M"
_symmetry_group_IT_number 12
_symmetry_cell_setting 'monoclinic'
loop_
_space_group_symop_operation_xyz
x,y,z
-x,y,-z
-x,-y,-z
x,-y,z
1/2+x,1/2+y,z
1/2-x,1/2+y,-z
1/2-x,1/2-y,-z
1/2+x,1/2-y,z
loop_
_atom_site_type_symbol
_atom_site_label
_atom_site_fract_x
_atom_site_fract_y
_atom_site_fract_z
Si Si1 0.290952 0.302117 0.969577
Si Si2 0.397638 0.798402 0.524882
Si Si3 0.394970 0.084791 0.657402
Si Si4 0.558709 0.628555 0.370696
Si Si5 0.231563 0.084891 0.834489
Si Si6 0.329257 0.776026 0.856861
O O1 0.391357 0.257007 0.011973
O O2 0.094206 0.327049 0.716361
O O3 0.250000 0.250000 0.000000
O O4 0.418177 0.372130 0.137532
O O5 0.329229 0.858384 0.513725
O O6 0.396848 0.715493 0.562212
O O7 0.273775 0.790647 0.307020
O O8 0.244827 0.086775 0.558890
O O9 0.401883 0.000000 0.630304
O O10 0.592937 0.106373 0.914163
O O11 0.454845 0.587757 0.326021
O O12 0.214595 0.146758 0.743998
O O13 0.252550 0.000000 0.823066
O O14 0.500000 0.803860 0.000000
#
# Coordination Sequence:
#
# PCOD8094487 Si02
#       6
#     8   8   8   8   8   8
#     4  10  19  37  65  90 120 164 227 265 305 370
#     4  11  21  38  65  91 130 168 221 267 319 379
#     4  11  23  40  65 100 132 168 218 271 323 384
#     4  11  20  40  66  94 125 172 224 266 314 380
#     4  11  23  41  62  94 136 176 213 260 323 392
#     4  12  23  38  61  97 131 173 215 268 324 380
#
# _framework density 21.887018000000001
#
# number of rings (size 3 to 8) (size 9 to 14) (size 15 to 20)
#    0.000    1.000    5.000    4.500    0.000    0.333 
#    0.000    2.500    0.000    7.500    0.000    0.000 
#    0.000    0.000    0.000    0.000    0.000    0.000 
#
# Total GULP energy -297439.112651 kJ/mol
# GULP energy per Si atom -12393.296360 kJ/mol
# Density = 2.183720 g / cm^3
# Si number density = 21.887018 Si / 1000 Ang^3
#
#
#
# Elastic Constant Matrix: (Units=GPa)
#
#
# Indices 1 2 3 4 5 6 
#
# 1 118.6779 15.5521 32.3820 -0.0001 22.4499 -0.0001
# 2 15.5521 55.9328 21.3276 0.0004 8.6328 0.0000
# 3 32.3820 21.3276 72.0881 -0.0010 6.3202 0.0000
# 4 -0.0001 0.0004 -0.0010 17.1202 -0.0006 -1.0933
# 5 22.4499 8.6328 6.3202 -0.0006 33.6925 0.0000
# 6 -0.0001 0.0000 0.0000 -1.0933 0.0000 26.5274
#
#
#
# Elastic Compliance Matrix: (Units=1/GPa)
#
#
# Indices 1 2 3 4 5 6 
#
# 1 0.010817 -0.000442 -0.004175 0.000000 -0.006311 0.000000
# 2 -0.000442 0.020747 -0.005591 -0.000001 -0.003973 0.000000
# 3 -0.004175 -0.005591 0.017317 0.000001 0.000966 0.000000
# 4 0.000000 -0.000001 0.000001 0.058565 0.000001 0.002414
# 5 -0.006311 -0.003973 0.000966 0.000001 0.034722 0.000000
# 6 0.000000 0.000000 0.000000 0.002414 0.000000 0.037796
#
#
# Mechanical properties :
#
#
# Convention : Reuss Voigt Hill
#
# Bulk Modulus (GPa) = 35.13137 42.80246 38.96692
# Shear Modulus (GPa) = 23.82450 27.29715 25.56083
#
# Velocity S-wave (km/s) = 3.30286 3.53538 3.42109
# Velocity P-wave (km/s) = 5.53455 6.02194 5.78338
#
# Compressibility (1/GPa) = 0.02846459
#
# Stress axis : x y z
#
# Youngs Moduli (GPa) = 92.44599 48.20077 57.74722
#
# Poissons Ratio (x) = 0.02129 0.24110
# Poissons Ratio (y) = 0.04082 0.32288
# Poissons Ratio (z) = 0.38597 0.26951
#
# Static dielectric constant tensor:
#      x y z
#    x 3.938210 0.000000 -0.114130 
#    y 0.000000 3.811280 0.000000 
#    z -0.114130 0.000000 4.903870 
# 
# 
# High freq. dielectric constant tensor:
#      x y z
#    x 1.854030 0.000000 0.014140 
#    y 0.000000 1.828180 0.000000 
#    z 0.014140 0.000000 1.869360 
# 
# From -- ./inp_files/285459.got.cif
#   From: 2010.06.25/outbox.cif.g09.slc.cpg/sg12_143_cif.got.tgz:285459.got - 2010.06.28 00:19:55.
