data_PCOD8094977
_publ_section_title
;
Structure prediction by ZEFSAII (Michael W. Deem and Ramdas Pophale) SiO2 
 PCOD8094977
Probable space group: C 2/M
;
_chemical_formula_sum "Si O2"
_cell_formula_units_Z 56
_cell_length_a 19.788008
_cell_length_b 7.848406
_cell_length_c 27.797539
_cell_angle_alpha 90.000000
_cell_angle_beta 134.589288
_cell_angle_gamma 90.000000
_cell_volume 3074.438584
_symmetry_space_group_name_H-M "C 2/M"
_symmetry_group_IT_number 12
_symmetry_cell_setting 'monoclinic'
loop_
_space_group_symop_operation_xyz
x,y,z
-x,y,-z
-x,-y,-z
x,-y,z
1/2+x,1/2+y,z
1/2-x,1/2+y,-z
1/2-x,1/2-y,-z
1/2+x,1/2-y,z
loop_
_atom_site_type_symbol
_atom_site_label
_atom_site_fract_x
_atom_site_fract_y
_atom_site_fract_z
Si Si1 0.238025 0.702804 0.067650
Si Si2 0.251813 0.200199 0.820199
Si Si3 0.401363 0.696092 0.079147
Si Si4 0.247649 0.808831 0.661935
Si Si5 0.612178 0.805233 0.191285
Si Si6 0.593530 0.688981 0.668418
Si Si7 0.844238 0.500000 0.427549
Si Si8 0.997853 0.500000 0.419832
O O1 0.235169 0.500000 0.064911
O O2 0.244402 0.780374 0.124486
O O3 0.329030 0.769038 0.083044
O O4 0.142200 0.773714 0.995447
O O5 0.336715 0.280640 0.829785
O O6 0.150098 0.240099 0.745223
O O7 0.266618 0.000000 0.833647
O O8 0.423677 0.500000 0.099000
O O9 0.499897 0.793192 0.133397
O O10 0.343643 0.738079 0.736162
O O11 0.166377 0.815944 0.661133
O O12 0.219870 0.671410 0.607189
O O13 0.260224 0.000000 0.645712
O O14 0.644984 0.000000 0.206136
O O15 0.547086 0.500000 0.650727
O O16 0.513013 0.830549 0.618388
O O17 0.897412 0.500000 0.505191
O O18 0.918823 0.500000 0.421517
#
# Coordination Sequence:
#
# PCOD8094977 Si02
#       8
#     8   8   8   8   8   8   4   4
#     4   9  18  34  50  62  86 122 155 189 230 277
#     4   8  15  30  50  66  82 118 162 192 226 270
#     4  10  20  31  45  67  92 119 148 187 240 280
#     4   8  15  26  40  60  85 118 153 186 229 270
#     4   9  17  30  48  66  86 118 156 192 230 274
#     4   8  14  26  41  59  86 116 151 191 227 270
#     4   9  16  24  38  58  91 125 151 183 219 280
#     4   9  16  24  36  62  89 123 155 175 229 280
#
# _framework density 18.214707000000001
#
# number of rings (size 3 to 8) (size 9 to 14) (size 15 to 20)
#    0.000    3.286    0.000    2.143    1.000    1.714 
#    2.571    5.714    0.000    0.000    0.000    0.000 
#    0.000    1.143    0.571    0.000    0.000    0.000 
#
# Total GULP energy -346976.774713 kJ/mol
# GULP energy per Si atom -12392.027668 kJ/mol
# Density = 1.817325 g / cm^3
# Si number density = 18.214707 Si / 1000 Ang^3
#
#
#
# Elastic Constant Matrix: (Units=GPa)
#
#
# Indices 1 2 3 4 5 6 
#
# 1 38.7778 16.6062 45.7664 0.0000 5.7394 0.0000
# 2 16.6062 73.1774 52.3408 0.0001 0.1046 -0.0002
# 3 45.7664 52.3408 157.3072 0.0000 3.7609 0.0000
# 4 0.0000 0.0001 0.0000 31.4510 0.0000 1.2584
# 5 5.7394 0.1046 3.7609 0.0000 3.4169 -0.0001
# 6 0.0000 -0.0002 0.0000 1.2584 -0.0001 10.9078
#
#
#
# Elastic Compliance Matrix: (Units=1/GPa)
#
#
# Indices 1 2 3 4 5 6 
#
# 1 0.053145 -0.002860 -0.012713 0.000000 -0.075189 -0.000001
# 2 -0.002860 0.018215 -0.005474 0.000000 0.010272 0.000000
# 3 -0.012713 -0.005474 0.011670 0.000000 0.008677 0.000000
# 4 0.000000 0.000000 0.000000 0.031943 0.000000 -0.003685
# 5 -0.075189 0.010272 0.008677 0.000000 0.409095 0.000003
# 6 -0.000001 0.000000 0.000000 -0.003685 0.000003 0.092102
#
#
# Mechanical properties :
#
#
# Convention : Reuss Voigt Hill
#
# Bulk Modulus (GPa) = 24.42829 55.40992 39.91910
# Shear Modulus (GPa) = 7.44148 19.45841 13.44995
#
# Velocity S-wave (km/s) = 2.02344 3.27200 2.72032
# Velocity P-wave (km/s) = 4.34735 6.69038 5.64183
#
# Compressibility (1/GPa) = 0.04093615
#
# Stress axis : x y z
#
# Youngs Moduli (GPa) = 18.81645 54.89896 85.69291
#
# Poissons Ratio (x) = 0.15701 1.08938
# Poissons Ratio (y) = 0.05381 0.46911
# Poissons Ratio (z) = 0.23921 0.30053
#
# Static dielectric constant tensor:
#      x y z
#    x 2.972760 0.000000 -0.166120 
#    y 0.000000 3.412650 0.000000 
#    z -0.166120 0.000000 3.492310 
# 
# 
# High freq. dielectric constant tensor:
#      x y z
#    x 1.642840 0.000000 -0.005630 
#    y 0.000000 1.702640 0.000000 
#    z -0.005630 0.000000 1.708710 
# 
# From -- ./inp_files/363261.got.cif
#   From: 2010.06.25/outbox.cif.g09.slc.cpg/sg12_182_cif.got.tgz:363261.got - 2010.06.28 00:19:55.
