data_PCOD8094002
_publ_section_title
;
Structure prediction by ZEFSAII (Michael W. Deem and Ramdas Pophale) SiO2 
 PCOD8094002
Probable space group: C 2/M
;
_chemical_formula_sum "Si O2"
_cell_formula_units_Z 56
_cell_length_a 22.628112
_cell_length_b 8.952118
_cell_length_c 16.384473
_cell_angle_alpha 90.000000
_cell_angle_beta 125.304352
_cell_angle_gamma 90.000000
_cell_volume 2708.610874
_symmetry_space_group_name_H-M "C 2/M"
_symmetry_group_IT_number 12
_symmetry_cell_setting 'monoclinic'
loop_
_space_group_symop_operation_xyz
x,y,z
-x,y,-z
-x,-y,-z
x,-y,z
1/2+x,1/2+y,z
1/2-x,1/2+y,-z
1/2-x,1/2-y,-z
1/2+x,1/2-y,z
loop_
_atom_site_type_symbol
_atom_site_label
_atom_site_fract_x
_atom_site_fract_y
_atom_site_fract_z
Si Si1 0.537147 0.676352 0.946051
Si Si2 0.890741 0.326780 0.253900
Si Si3 0.845811 0.828007 0.368242
Si Si4 0.084819 0.168305 0.274315
Si Si5 0.470266 0.666549 0.592203
Si Si6 0.272804 0.174525 0.600945
Si Si7 0.329361 0.323020 0.050731
O O1 0.539119 0.500000 0.956608
O O2 0.486924 0.725412 0.829615
O O3 0.620943 0.726399 0.989521
O O4 0.500000 0.743549 0.000000
O O5 0.880143 0.500000 0.223813
O O6 0.836100 0.275929 0.281303
O O7 0.878249 0.224587 0.165670
O O8 0.970118 0.294546 0.352837
O O9 0.923423 0.804453 0.473884
O O10 0.783787 0.771565 0.377612
O O11 0.835149 0.000000 0.334662
O O12 0.079402 0.174968 0.367545
O O13 0.149879 0.276549 0.302165
O O14 0.102778 0.000000 0.260176
O O15 0.505788 0.500000 0.615657
O O16 0.250000 0.250000 0.500000
O O17 0.270944 0.000000 0.584641
O O18 0.317862 0.500000 0.040400
O O19 0.250000 0.250000 0.000000
#
# Coordination Sequence:
#
# PCOD8094002 Si02
#       7
#     8   8   8   8   8   8   8
#     4   9  19  38  66  95 122 156 202 252 305 370
#     4  12  25  39  59  90 122 156 207 259 308 361
#     4  10  22  39  58  83 122 167 208 246 304 373
#     4  10  19  36  61  89 119 159 201 239 298 365
#     4  10  19  37  61  85 117 163 204 240 300 370
#     4  11  22  37  57  85 120 160 203 249 303 361
#     4  11  23  43  68  94 127 164 206 256 319 383
#
# _framework density 20.674804000000002
#
# number of rings (size 3 to 8) (size 9 to 14) (size 15 to 20)
#    0.000    1.571    2.857    2.571    0.000    5.143 
#    0.000    1.429    0.000    3.000    0.000    0.000 
#    0.000    0.000    0.000    0.000    0.000    0.000 
#
# Total GULP energy -347009.086782 kJ/mol
# GULP energy per Si atom -12393.181671 kJ/mol
# Density = 2.062775 g / cm^3
# Si number density = 20.674804 Si / 1000 Ang^3
#
#
#
# Elastic Constant Matrix: (Units=GPa)
#
#
# Indices 1 2 3 4 5 6 
#
# 1 155.0762 43.0837 32.6051 0.0000 3.3475 0.0000
# 2 43.0837 59.9900 13.8270 0.0000 -0.8741 0.0000
# 3 32.6051 13.8270 52.7142 0.0000 -4.8177 0.0000
# 4 0.0000 0.0000 0.0000 28.2678 0.0000 7.2921
# 5 3.3475 -0.8741 -4.8177 0.0000 33.5746 0.0000
# 6 0.0000 0.0000 0.0000 7.2921 0.0000 31.7608
#
#
#
# Elastic Compliance Matrix: (Units=1/GPa)
#
#
# Indices 1 2 3 4 5 6 
#
# 1 0.008878 -0.005428 -0.004217 0.000000 -0.001632 0.000000
# 2 -0.005428 0.021062 -0.002095 0.000000 0.000789 0.000000
# 3 -0.004217 -0.002095 0.022456 0.000000 0.003588 0.000000
# 4 0.000000 0.000000 0.000000 0.037603 0.000000 -0.008633
# 5 -0.001632 0.000789 0.003588 0.000000 0.030483 0.000000
# 6 0.000000 0.000000 0.000000 -0.008633 0.000000 0.033468
#
#
# Mechanical properties :
#
#
# Convention : Reuss Voigt Hill
#
# Bulk Modulus (GPa) = 34.58243 49.64577 42.11410
# Shear Modulus (GPa) = 26.72822 30.60495 28.66659
#
# Velocity S-wave (km/s) = 3.59944 3.85164 3.72768
# Velocity P-wave (km/s) = 5.83419 6.62156 6.24031
#
# Compressibility (1/GPa) = 0.02891642
#
# Stress axis : x y z
#
# Youngs Moduli (GPa) = 112.63432 47.47847 44.53176
#
# Poissons Ratio (x) = 0.25772 0.18778
# Poissons Ratio (y) = 0.61139 0.09330
# Poissons Ratio (z) = 0.47495 0.09947
#
# Static dielectric constant tensor:
#      x y z
#    x 4.192070 0.000000 -0.076140 
#    y 0.000000 3.527300 0.000000 
#    z -0.076140 0.000000 3.678120 
# 
# 
# High freq. dielectric constant tensor:
#      x y z
#    x 1.830680 0.000000 -0.003420 
#    y 0.000000 1.780980 0.000000 
#    z -0.003420 0.000000 1.798220 
# 
# From -- ./inp_files/288425.got.cif
#   From: 2010.06.25/outbox.cif.g09.slc.cpg/sg12_145_cif.got.tgz:288425.got - 2010.06.28 00:19:55.
