data_PCOD8094725
_publ_section_title
;
Structure prediction by ZEFSAII (Michael W. Deem and Ramdas Pophale) SiO2 
 PCOD8094725
Probable space group: C 2/M
;
_chemical_formula_sum "Si O2"
_cell_formula_units_Z 36
_cell_length_a 17.329279
_cell_length_b 10.134435
_cell_length_c 12.814909
_cell_angle_alpha 90.000000
_cell_angle_beta 135.484071
_cell_angle_gamma 90.000000
_cell_volume 1577.902607
_symmetry_space_group_name_H-M "C 2/M"
_symmetry_group_IT_number 12
_symmetry_cell_setting 'monoclinic'
loop_
_space_group_symop_operation_xyz
x,y,z
-x,y,-z
-x,-y,-z
x,-y,z
1/2+x,1/2+y,z
1/2-x,1/2+y,-z
1/2-x,1/2-y,-z
1/2+x,1/2-y,z
loop_
_atom_site_type_symbol
_atom_site_label
_atom_site_fract_x
_atom_site_fract_y
_atom_site_fract_z
Si Si1 0.082509 0.775295 0.664483
Si Si2 0.642400 0.500000 0.273856
Si Si3 0.354017 0.000000 0.594404
Si Si4 0.648082 0.000000 0.641035
Si Si5 0.982457 0.744689 0.791799
Si Si6 0.708133 0.852423 0.044663
O O1 0.105339 0.623263 0.663880
O O2 0.201393 0.849674 0.774944
O O3 0.000000 0.838485 0.500000
O O4 0.025868 0.792231 0.721583
O O5 0.720715 0.500000 0.453223
O O6 0.718913 0.500000 0.243546
O O7 0.568417 0.369587 0.198591
O O8 0.391059 0.869492 0.692150
O O9 0.406415 0.000000 0.527890
O O10 0.085010 0.690392 0.960325
O O11 0.701766 0.000000 0.991299
O O12 0.750000 0.750000 0.000000
#
# Coordination Sequence:
#
# PCOD8094725 Si02
#       6
#     8   4   4   4   8   8
#     4  11  21  37  65  94 130 162 215 264 315 369
#     4  10  24  39  66 101 125 169 223 250 324 382
#     4  10  19  38  69  89 128 160 223 252 321 365
#     4  10  22  40  65  97 125 170 213 258 321 380
#     4  11  21  40  66  96 129 169 214 269 310 387
#     4  10  24  38  61  95 131 168 212 263 327 375
#
# _framework density 22.815094999999999
#
# number of rings (size 3 to 8) (size 9 to 14) (size 15 to 20)
#    0.667    0.889    3.333    1.667   10.889    0.444 
#    0.000    2.222    2.444    1.333    0.000    0.000 
#    0.000    0.000    0.000    0.000    0.000    0.000 
#
# Total GULP energy -223082.048787 kJ/mol
# GULP energy per Si atom -12393.447155 kJ/mol
# Density = 2.276317 g / cm^3
# Si number density = 22.815095 Si / 1000 Ang^3
#
#
#
# Elastic Constant Matrix: (Units=GPa)
#
#
# Indices 1 2 3 4 5 6 
#
# 1 62.3424 17.1514 13.1256 0.0000 22.6626 0.0000
# 2 17.1514 130.0090 24.5005 0.0000 30.7989 0.0000
# 3 13.1256 24.5005 148.5838 0.0000 46.2407 0.0000
# 4 0.0000 0.0000 0.0000 21.5141 0.0000 22.4111
# 5 22.6626 30.7989 46.2407 0.0000 37.1189 0.0000
# 6 0.0000 0.0000 0.0000 22.4111 0.0000 21.0455
#
#
#
# Elastic Compliance Matrix: (Units=1/GPa)
#
#
# Indices 1 2 3 4 5 6 
#
# 1 0.021813 0.000843 0.003750 0.000000 -0.018689 0.000000
# 2 0.000843 0.009804 0.001634 0.000000 -0.010685 0.000000
# 3 0.003750 0.001634 0.011863 0.000000 -0.018424 0.000000
# 4 0.000000 0.000000 0.000000 -0.425327 0.000000 0.452924
# 5 -0.018689 -0.010685 -0.018424 0.000000 0.070169 0.000000
# 6 0.000000 0.000000 0.000000 0.452924 0.000000 -0.434796
#
#
# Mechanical properties :
#
#
# Convention : Reuss Voigt Hill
#
# Bulk Modulus (GPa) = 17.87795 50.05448 33.96621
# Shear Modulus (GPa) = -6.75416 35.01289 14.12936
#
# Velocity S-wave (km/s) = -1.72245 3.92169 2.49127
# Velocity P-wave (km/s) = 1.97415 6.51867 4.81614
#
# Compressibility (1/GPa) = 0.05593484
#
# Stress axis : x y z
#
# Youngs Moduli (GPa) = 45.84492 102.00029 84.29381
#
# Poissons Ratio (x) = -0.08598 -0.31612
# Poissons Ratio (y) = -0.03865 -0.13776
# Poissons Ratio (z) = -0.17193 -0.16670
#
# Static dielectric constant tensor:
#      x y z
#    x 3.677260 0.000000 0.583770 
#    y 0.000000 3.942560 0.000000 
#    z 0.583770 0.000000 5.068820 
# 
# 
# High freq. dielectric constant tensor:
#      x y z
#    x 1.864560 0.000000 0.037090 
#    y 0.000000 1.900690 0.000000 
#    z 0.037090 0.000000 1.909610 
# 
# From -- ./inp_files/231173.got.cif
#   From: 2010.06.25/outbox.cif.g09.slc.cpg/sg12_116_cif.got.tgz:231173.got - 2010.06.28 00:19:55.
