data_PCOD8094420
_publ_section_title
;
Structure prediction by ZEFSAII (Michael W. Deem and Ramdas Pophale) SiO2 
 PCOD8094420
Probable space group: C 2/M
;
_chemical_formula_sum "Si O2"
_cell_formula_units_Z 64
_cell_length_a 20.124224
_cell_length_b 8.989586
_cell_length_c 33.488117
_cell_angle_alpha 90.000000
_cell_angle_beta 144.995467
_cell_angle_gamma 90.000000
_cell_volume 3475.281035
_symmetry_space_group_name_H-M "C 2/M"
_symmetry_group_IT_number 12
_symmetry_cell_setting 'monoclinic'
loop_
_space_group_symop_operation_xyz
x,y,z
-x,y,-z
-x,-y,-z
x,-y,z
1/2+x,1/2+y,z
1/2-x,1/2+y,-z
1/2-x,1/2-y,-z
1/2+x,1/2-y,z
loop_
_atom_site_type_symbol
_atom_site_label
_atom_site_fract_x
_atom_site_fract_y
_atom_site_fract_z
Si Si1 0.467059 0.670726 0.419505
Si Si2 0.560966 0.825233 0.677014
Si Si3 0.238573 0.331565 0.182138
Si Si4 0.079450 0.174657 0.324372
Si Si5 0.130844 0.169881 0.833201
Si Si6 0.735098 0.325279 0.034812
Si Si7 0.017004 0.328773 0.962567
Si Si8 0.686466 0.329586 0.581304
O O1 0.456111 0.500000 0.400118
O O2 0.456154 0.779612 0.377013
O O3 0.365848 0.708924 0.401150
O O4 0.590969 0.698724 0.500558
O O5 0.689309 0.777790 0.754131
O O6 0.460898 0.752224 0.654675
O O7 0.548806 0.000000 0.675000
O O8 0.271015 0.500000 0.210499
O O9 0.270121 0.307712 0.151319
O O10 0.102339 0.301568 0.120282
O O11 0.207078 0.222229 0.374903
O O12 0.992759 0.218469 0.245778
O O13 0.075447 0.000000 0.330412
O O14 0.160435 0.273987 0.885032
O O15 0.127985 0.000000 0.846695
O O16 0.742354 0.500000 0.033209
O O17 0.750000 0.250000 0.000000
O O18 0.611115 0.280635 0.991020
O O19 0.058120 0.500000 0.978520
O O20 0.000000 0.286847 0.000000
O O21 0.728538 0.500000 0.600867
#
# Coordination Sequence:
#
# PCOD8094420 Si02
#       8
#     8   8   8   8   8   8   8   8
#     4   9  19  38  60  82 113 150 184 226 282 332
#     4  11  22  35  55  84 117 149 187 233 274 322
#     4   9  18  35  60  84 111 147 183 226 281 335
#     4  10  21  37  59  84 113 149 185 227 280 333
#     4   9  18  37  59  80 109 148 186 225 279 336
#     4  12  25  39  57  82 114 149 188 235 282 329
#     4  10  19  37  63  86 110 145 186 227 278 339
#     4   9  19  37  61  85 110 145 189 231 273 333
#
# _framework density 18.415776999999999
#
# number of rings (size 3 to 8) (size 9 to 14) (size 15 to 20)
#    0.000    2.125    1.250    4.125    0.000    4.750 
#    2.250    1.250    0.000    0.000    0.000    0.000 
#    0.000    0.000    0.000    0.000    0.000    0.000 
#
# Total GULP energy -396877.938771 kJ/mol
# GULP energy per Si atom -12402.435587 kJ/mol
# Density = 1.837386 g / cm^3
# Si number density = 18.415777 Si / 1000 Ang^3
#
#
#
# Elastic Constant Matrix: (Units=GPa)
#
#
# Indices 1 2 3 4 5 6 
#
# 1 91.8582 60.8333 63.7811 0.0000 -6.6935 -0.0001
# 2 60.8333 120.7758 57.6416 -0.0001 -10.1879 -0.0003
# 3 63.7811 57.6416 94.3889 -0.0001 -5.1213 0.0001
# 4 0.0000 -0.0001 -0.0001 32.5748 0.0000 2.1934
# 5 -6.6935 -10.1879 -5.1213 0.0000 28.7572 0.0001
# 6 -0.0001 -0.0003 0.0001 2.1934 0.0001 33.3338
#
#
#
# Elastic Compliance Matrix: (Units=1/GPa)
#
#
# Indices 1 2 3 4 5 6 
#
# 1 0.023207 -0.005837 -0.012053 0.000000 0.001187 0.000000
# 2 -0.005837 0.013398 -0.004093 0.000000 0.002659 0.000000
# 3 -0.012053 -0.004093 0.021213 0.000000 -0.000478 0.000000
# 4 0.000000 0.000000 0.000000 0.030835 0.000000 -0.002029
# 5 0.001187 0.002659 -0.000478 0.000000 0.035907 0.000000
# 6 0.000000 0.000000 0.000000 -0.002029 0.000000 0.030133
#
#
# Mechanical properties :
#
#
# Convention : Reuss Voigt Hill
#
# Bulk Modulus (GPa) = 72.19412 74.61499 73.40456
# Shear Modulus (GPa) = 24.59716 27.25096 25.92406
#
# Velocity S-wave (km/s) = 3.65863 3.85094 3.75602
# Velocity P-wave (km/s) = 7.55876 7.77032 7.66527
#
# Compressibility (1/GPa) = 0.01385154
#
# Stress axis : x y z
#
# Youngs Moduli (GPa) = 43.09061 74.64067 47.14137
#
# Poissons Ratio (x) = 0.43564 0.56819
# Poissons Ratio (y) = 0.25150 0.19297
# Poissons Ratio (z) = 0.51936 0.30554
#
# Static dielectric constant tensor:
#      x y z
#    x 3.156090 0.000000 0.020940 
#    y 0.000000 3.291360 0.000000 
#    z 0.020940 0.000000 3.446500 
# 
# 
# High freq. dielectric constant tensor:
#      x y z
#    x 1.704830 0.000000 0.002840 
#    y 0.000000 1.710480 0.000000 
#    z 0.002840 0.000000 1.721860 
# 
# From -- ./inp_files/378418.got.cif
#   From: 2010.06.25/outbox.cif.g09.slc.cpg/sg12_190_cif.got.tgz:378418.got - 2010.06.28 00:19:55.
