data_PCOD8094574
_publ_section_title
;
Structure prediction by ZEFSAII (Michael W. Deem and Ramdas Pophale) SiO2 
 PCOD8094574
Probable space group: C 2/M
;
_chemical_formula_sum "Si O2"
_cell_formula_units_Z 60
_cell_length_a 20.548252
_cell_length_b 26.731661
_cell_length_c 12.255797
_cell_angle_alpha 90.000000
_cell_angle_beta 28.933642
_cell_angle_gamma 90.000000
_cell_volume 3256.904066
_symmetry_space_group_name_H-M "C 2/M"
_symmetry_group_IT_number 12
_symmetry_cell_setting 'monoclinic'
loop_
_space_group_symop_operation_xyz
x,y,z
-x,y,-z
-x,-y,-z
x,-y,z
1/2+x,1/2+y,z
1/2-x,1/2+y,-z
1/2-x,1/2-y,-z
1/2+x,1/2-y,z
loop_
_atom_site_type_symbol
_atom_site_label
_atom_site_fract_x
_atom_site_fract_y
_atom_site_fract_z
Si Si1 0.878365 0.382580 0.600246
Si Si2 0.571198 0.201845 0.636587
Si Si3 0.627141 0.309978 0.483219
Si Si4 0.115163 0.838995 0.036716
Si Si5 0.000000 0.890837 0.000000
Si Si6 0.716018 0.234696 0.927832
Si Si7 0.141296 0.637421 0.732515
Si Si8 0.778472 0.558625 0.548419
O O1 0.899567 0.327715 0.517957
O O2 0.867907 0.423760 0.520371
O O3 0.000000 0.398489 0.500000
O O4 0.737928 0.378337 0.874959
O O5 0.623070 0.258601 0.557573
O O6 0.647574 0.176670 0.624702
O O7 0.410923 0.197824 0.888152
O O8 0.481564 0.336830 0.713769
O O9 0.658222 0.294482 0.312117
O O10 0.743280 0.347131 0.352562
O O11 0.025517 0.854874 0.065130
O O12 0.176981 0.784603 0.918500
O O13 0.875416 0.926598 0.206720
O O14 0.750000 0.250000 0.000000
O O15 0.168664 0.582777 0.641783
O O16 0.000000 0.637325 0.000000
O O17 0.793338 0.500000 0.513448
#
# Coordination Sequence:
#
# PCOD8094574 Si02
#       8
#     8   8   8   8   4   8   8   8
#     4  10  20  37  57  83 119 152 189 233 286 339
#     4  10  21  32  52  79 111 154 187 228 276 329
#     4  11  21  35  53  80 114 154 195 229 279 337
#     4  10  21  34  56  82 113 156 192 233 281 334
#     4  10  19  38  60  86 118 140 184 246 297 352
#     4  11  22  34  51  76 115 156 201 232 266 327
#     4  11  21  37  55  81 112 145 190 236 290 347
#     4  10  22  38  61  88 112 145 188 244 304 353
#
# _framework density 18.422402999999999
#
# number of rings (size 3 to 8) (size 9 to 14) (size 15 to 20)
#    0.000    1.600    4.000    1.400    0.000    4.267 
#    0.000    0.000    0.000    0.000    0.000    0.000 
#    0.000    2.133    0.000    0.000    0.000    0.000 
#
# Total GULP energy -371911.242985 kJ/mol
# GULP energy per Si atom -12397.041433 kJ/mol
# Density = 1.838047 g / cm^3
# Si number density = 18.422403 Si / 1000 Ang^3
#
#
#
# Elastic Constant Matrix: (Units=GPa)
#
#
# Indices 1 2 3 4 5 6 
#
# 1 91.5105 32.5107 33.8694 -0.0025 -0.5228 0.0037
# 2 32.5107 96.3526 31.4302 -0.0024 4.2213 0.0019
# 3 33.8694 31.4302 120.4696 -0.0047 6.8732 0.0044
# 4 -0.0025 -0.0024 -0.0047 21.2941 0.0006 -1.5218
# 5 -0.5228 4.2213 6.8732 0.0006 26.1017 -0.0008
# 6 0.0037 0.0019 0.0044 -1.5218 -0.0008 9.6996
#
#
#
# Elastic Compliance Matrix: (Units=1/GPa)
#
#
# Indices 1 2 3 4 5 6 
#
# 1 0.013288 -0.003613 -0.002885 0.000000 0.001610 -0.000003
# 2 -0.003613 0.012356 -0.002122 0.000001 -0.001512 0.000000
# 3 -0.002885 -0.002122 0.009796 0.000001 -0.002294 -0.000003
# 4 0.000000 0.000001 0.000001 0.047494 -0.000001 0.007451
# 5 0.001610 -0.001512 -0.002294 -0.000001 0.039193 0.000004
# 6 -0.000003 0.000000 -0.000003 0.007451 0.000004 0.104266
#
#
# Mechanical properties :
#
#
# Convention : Reuss Voigt Hill
#
# Bulk Modulus (GPa) = 54.94183 55.99480 55.46831
# Shear Modulus (GPa) = 20.02406 25.45391 22.73899
#
# Velocity S-wave (km/s) = 3.30045 3.72113 3.51709
# Velocity P-wave (km/s) = 6.66424 6.99452 6.83138
#
# Compressibility (1/GPa) = 0.01820107
#
# Stress axis : x y z
#
# Youngs Moduli (GPa) = 75.25378 80.93269 102.07812
#
# Poissons Ratio (x) = 0.29242 0.29451
# Poissons Ratio (y) = 0.27190 0.21657
# Poissons Ratio (z) = 0.21712 0.17170
#
# Static dielectric constant tensor:
#      x y z
#    x 3.256670 -0.000020 -0.097410 
#    y -0.000020 3.105250 0.000110 
#    z -0.097410 0.000110 3.997940 
# 
# 
# High freq. dielectric constant tensor:
#      x y z
#    x 1.701970 0.000000 -0.007830 
#    y 0.000000 1.676010 0.000000 
#    z -0.007830 0.000000 1.736720 
# 
# From -- ./inp_files/170768.got.cif
#   From: 2010.06.25/outbox.cif.g09.slc.cpg/sg12_86_cif.got.tgz:170768.got - 2010.06.28 00:19:55.
