data_PCOD8094760
_publ_section_title
;
Structure prediction by ZEFSAII (Michael W. Deem and Ramdas Pophale) SiO2 
 PCOD8094760
Probable space group: C 2/M
;
_chemical_formula_sum "Si O2"
_cell_formula_units_Z 64
_cell_length_a 29.271195
_cell_length_b 14.115996
_cell_length_c 9.378183
_cell_angle_alpha 90.000000
_cell_angle_beta 136.111553
_cell_angle_gamma 90.000000
_cell_volume 2686.362694
_symmetry_space_group_name_H-M "C 2/M"
_symmetry_group_IT_number 12
_symmetry_cell_setting 'monoclinic'
loop_
_space_group_symop_operation_xyz
x,y,z
-x,y,-z
-x,-y,-z
x,-y,z
1/2+x,1/2+y,z
1/2-x,1/2+y,-z
1/2-x,1/2-y,-z
1/2+x,1/2-y,z
loop_
_atom_site_type_symbol
_atom_site_label
_atom_site_fract_x
_atom_site_fract_y
_atom_site_fract_z
Si Si1 0.599799 0.711769 0.504581
Si Si2 0.390077 0.291361 0.795013
Si Si3 0.848634 0.108036 0.135204
Si Si4 0.073573 0.391529 0.611178
Si Si5 0.767390 0.199962 0.730217
Si Si6 0.646301 0.897639 0.308501
Si Si7 0.032668 0.111334 0.799089
Si Si8 0.690924 0.102551 0.094079
O O1 0.617414 0.677736 0.385395
O O2 0.656953 0.671214 0.735573
O O3 0.591607 0.824677 0.515601
O O4 0.533288 0.659514 0.403011
O O5 0.319465 0.302217 0.716582
O O6 0.412492 0.179377 0.843089
O O7 0.446836 0.351680 0.997689
O O8 0.911968 0.141682 0.188094
O O9 0.852979 0.000000 0.190619
O O10 0.785648 0.125176 0.894197
O O11 0.077645 0.500000 0.567246
O O12 0.000000 0.368096 0.500000
O O13 0.125468 0.372219 0.855838
O O14 0.697224 0.162830 0.520400
O O15 0.762066 0.304315 0.793694
O O16 0.673957 0.920220 0.217280
O O17 0.626358 0.000000 0.332310
O O18 0.022951 0.000000 0.785699
O O19 0.721495 0.000000 0.106263
#
# Coordination Sequence:
#
# PCOD8094760 Si02
#       8
#     8   8   8   8   8   8   8   8
#     4  12  22  35  56  88 124 157 188 236 292 348
#     4  10  23  37  56  89 120 153 188 236 295 347
#     4  10  20  35  59  86 115 154 198 239 279 339
#     4  10  21  35  55  83 117 160 205 241 278 333
#     4  10  19  39  62  86 111 146 197 246 290 345
#     4  10  21  39  65  85 110 150 198 245 289 344
#     4  10  22  40  60  84 119 162 199 231 276 341
#     4   9  17  32  56  85 111 144 192 242 281 326
#
# _framework density 23.824036
#
# number of rings (size 3 to 8) (size 9 to 14) (size 15 to 20)
#    0.000    1.875    1.250    3.750    3.500    3.500 
#    0.000    1.250    0.000    1.500    0.000    0.000 
#    0.000    0.000    0.000    0.000    0.000    0.000 
#
# Total GULP energy -396423.534033 kJ/mol
# GULP energy per Si atom -12388.235439 kJ/mol
# Density = 2.376981 g / cm^3
# Si number density = 23.824036 Si / 1000 Ang^3
#
#
#
# Elastic Constant Matrix: (Units=GPa)
#
#
# Indices 1 2 3 4 5 6 
#
# 1 33.1594 4.6369 18.9743 0.0000 -10.2263 0.0000
# 2 4.6369 112.9380 31.2024 0.0000 -11.6254 0.0000
# 3 18.9743 31.2024 96.7155 0.0000 -21.8579 0.0000
# 4 0.0000 0.0000 0.0000 112.1632 0.0000 -22.4852
# 5 -10.2263 -11.6254 -21.8579 0.0000 25.6217 0.0000
# 6 0.0000 0.0000 0.0000 -22.4852 0.0000 15.5490
#
#
#
# Elastic Compliance Matrix: (Units=1/GPa)
#
#
# Indices 1 2 3 4 5 6 
#
# 1 0.036160 0.000993 -0.005018 0.000000 0.010602 0.000000
# 2 0.000993 0.009845 -0.002814 0.000000 0.002462 0.000000
# 3 -0.005018 -0.002814 0.014236 0.000000 0.008864 0.000000
# 4 0.000000 0.000000 0.000000 0.012555 0.000000 0.018156
# 5 0.010602 0.002462 0.008864 0.000000 0.051940 0.000000
# 6 0.000000 0.000000 0.000000 0.018156 0.000000 0.090568
#
#
# Mechanical properties :
#
#
# Convention : Reuss Voigt Hill
#
# Bulk Modulus (GPa) = 21.47755 39.16002 30.31878
# Shear Modulus (GPa) = 20.44964 43.20007 31.82485
#
# Velocity S-wave (km/s) = 2.93296 4.26290 3.65887
# Velocity P-wave (km/s) = 4.52817 6.37986 5.53204
#
# Compressibility (1/GPa) = 0.04656024
#
# Stress axis : x y z
#
# Youngs Moduli (GPa) = 27.65519 101.57783 70.24685
#
# Poissons Ratio (x) = -0.10088 0.35253
# Poissons Ratio (y) = -0.02747 0.19771
# Poissons Ratio (z) = 0.13879 0.28589
#
# Static dielectric constant tensor:
#      x y z
#    x 3.891990 0.000000 -0.067630 
#    y 0.000000 4.758390 0.000000 
#    z -0.067630 0.000000 4.464020 
# 
# 
# High freq. dielectric constant tensor:
#      x y z
#    x 1.906660 0.000000 -0.016970 
#    y 0.000000 1.964360 0.000000 
#    z -0.016970 0.000000 1.954490 
# 
# From -- ./inp_files/112008.got.cif
#   From: 2010.06.25/outbox.cif.g09.slc.cpg/sg12_57_cif.got.tgz:112008.got - 2010.06.28 00:19:55.
