data_PCOD8094830
_publ_section_title
;
Structure prediction by ZEFSAII (Michael W. Deem and Ramdas Pophale) SiO2 
 PCOD8094830
Probable space group: C 2/M
;
_chemical_formula_sum "Si O2"
_cell_formula_units_Z 36
_cell_length_a 20.401302
_cell_length_b 9.968761
_cell_length_c 8.513666
_cell_angle_alpha 90.000000
_cell_angle_beta 71.183221
_cell_angle_gamma 90.000000
_cell_volume 1638.933980
_symmetry_space_group_name_H-M "C 2/M"
_symmetry_group_IT_number 12
_symmetry_cell_setting 'monoclinic'
loop_
_space_group_symop_operation_xyz
x,y,z
-x,y,-z
-x,-y,-z
x,-y,z
1/2+x,1/2+y,z
1/2-x,1/2+y,-z
1/2-x,1/2-y,-z
1/2+x,1/2-y,z
loop_
_atom_site_type_symbol
_atom_site_label
_atom_site_fract_x
_atom_site_fract_y
_atom_site_fract_z
Si Si1 0.481285 0.000000 0.194951
Si Si2 0.866172 0.500000 0.849269
Si Si3 0.445303 0.750312 0.401981
Si Si4 0.952288 0.000000 0.189840
Si Si5 0.192220 0.728726 0.314085
Si Si6 0.207907 0.000000 0.773740
Si Si7 0.257471 0.500000 0.882790
O O1 0.439627 0.871212 0.283019
O O2 0.553306 0.000000 0.227298
O O3 0.500000 0.000000 0.000000
O O4 0.844433 0.638615 0.787064
O O5 0.827360 0.500000 0.048873
O O6 0.500000 0.776210 0.500000
O O7 0.472175 0.624931 0.282384
O O8 0.365947 0.730255 0.515483
O O9 0.872271 0.000000 0.203728
O O10 0.000000 0.000000 0.000000
O O11 0.255699 0.634577 0.329224
O O12 0.218556 0.867450 0.223130
O O13 0.216337 0.000000 0.956637
#
# Coordination Sequence:
#
# PCOD8094830 Si02
#       7
#     4   4   8   4   8   4   4
#     4  12  25  42  69 102 134 172 224 283 341 389
#     4  10  19  40  61  95 131 172 215 273 328 400
#     4  12  25  45  71  98 135 182 229 271 334 407
#     4  12  30  45  64 100 144 182 216 283 342 397
#     4  10  21  40  70  94 127 174 226 273 324 403
#     4  10  23  43  63  96 139 170 218 279 342 385
#     4  10  21  35  68  99 123 174 223 273 330 394
#
# _framework density 21.965496000000002
#
# number of rings (size 3 to 8) (size 9 to 14) (size 15 to 20)
#    0.000    1.333    2.222    6.000    3.111    6.222 
#    0.000    2.222    0.000    0.000    0.000    0.000 
#    0.000    0.000    0.000    0.000    0.000    0.000 
#
# Total GULP energy -223052.310435 kJ/mol
# GULP energy per Si atom -12391.795024 kJ/mol
# Density = 2.191550 g / cm^3
# Si number density = 21.965496 Si / 1000 Ang^3
#
#
#
# Elastic Constant Matrix: (Units=GPa)
#
#
# Indices 1 2 3 4 5 6 
#
# 1 64.0932 -5.9294 13.6900 0.0000 -17.3548 0.0000
# 2 -5.9294 170.3827 55.1152 0.0000 -9.1427 0.0000
# 3 13.6900 55.1152 132.8155 0.0000 -28.4070 0.0000
# 4 0.0000 0.0000 0.0000 51.9624 0.0000 -10.2198
# 5 -17.3548 -9.1427 -28.4070 0.0000 36.9055 0.0000
# 6 0.0000 0.0000 0.0000 -10.2198 0.0000 23.8650
#
#
#
# Elastic Compliance Matrix: (Units=1/GPa)
#
#
# Indices 1 2 3 4 5 6 
#
# 1 0.018116 0.001276 -0.000607 0.000000 0.008368 0.000000
# 2 0.001276 0.006879 -0.002985 0.000000 0.000007 0.000000
# 3 -0.000607 -0.002985 0.010308 0.000000 0.006910 0.000000
# 4 0.000000 0.000000 0.000000 0.021015 0.000000 0.008999
# 5 0.008368 0.000007 0.006910 0.000000 0.036351 0.000000
# 6 0.000000 0.000000 0.000000 0.008999 0.000000 0.045756
#
#
# Mechanical properties :
#
#
# Convention : Reuss Voigt Hill
#
# Bulk Modulus (GPa) = 32.60374 54.78257 43.69315
# Shear Modulus (GPa) = 32.61972 42.84094 37.73033
#
# Velocity S-wave (km/s) = 3.85781 4.42110 4.14902
# Velocity P-wave (km/s) = 5.89228 7.14534 6.54885
#
# Compressibility (1/GPa) = 0.03067133
#
# Stress axis : x y z
#
# Youngs Moduli (GPa) = 55.20071 145.36066 97.00890
#
# Poissons Ratio (x) = -0.18545 0.05888
# Poissons Ratio (y) = -0.07042 0.28956
# Poissons Ratio (z) = 0.03351 0.43388
#
# Static dielectric constant tensor:
#      x y z
#    x 5.169500 0.000000 -0.629370 
#    y 0.000000 4.177120 0.000000 
#    z -0.629370 0.000000 4.140080 
# 
# 
# High freq. dielectric constant tensor:
#      x y z
#    x 1.860480 0.000000 -0.027630 
#    y 0.000000 1.883480 0.000000 
#    z -0.027630 0.000000 1.868280 
# 
# From -- ./inp_files/92692.got.cif
#   From: 2010.06.25/outbox.cif.g09.slc.cpg/sg12_47_cif.got.tgz:92692.got - 2010.06.28 00:19:55.
