data_PCOD8094600
_publ_section_title
;
Structure prediction by ZEFSAII (Michael W. Deem and Ramdas Pophale) SiO2 
 PCOD8094600
Probable space group: C 2/M
;
_chemical_formula_sum "Si O2"
_cell_formula_units_Z 44
_cell_length_a 8.898704
_cell_length_b 16.521374
_cell_length_c 20.792298
_cell_angle_alpha 90.000000
_cell_angle_beta 45.369237
_cell_angle_gamma 90.000000
_cell_volume 2175.410524
_symmetry_space_group_name_H-M "C 2/M"
_symmetry_group_IT_number 12
_symmetry_cell_setting 'monoclinic'
loop_
_space_group_symop_operation_xyz
x,y,z
-x,y,-z
-x,-y,-z
x,-y,z
1/2+x,1/2+y,z
1/2-x,1/2+y,-z
1/2-x,1/2-y,-z
1/2+x,1/2-y,z
loop_
_atom_site_type_symbol
_atom_site_label
_atom_site_fract_x
_atom_site_fract_y
_atom_site_fract_z
Si Si1 0.463748 0.657524 0.725697
Si Si2 0.855012 0.500000 0.782640
Si Si3 0.794569 0.663014 0.518903
Si Si4 0.448179 0.249136 0.179958
Si Si5 0.565813 0.000000 0.591498
Si Si6 0.592273 0.500000 0.744381
Si Si7 0.680474 0.647169 0.898408
O O1 0.591920 0.644244 0.622352
O O2 0.583415 0.720229 0.737139
O O3 0.227435 0.681923 0.779531
O O4 0.447697 0.574802 0.769266
O O5 0.636213 0.500000 0.807440
O O6 0.850976 0.578576 0.828860
O O7 0.055505 0.500000 0.673289
O O8 0.750000 0.750000 0.500000
O O9 0.821523 0.584267 0.463839
O O10 0.000000 0.673025 0.500000
O O11 0.425852 0.320068 0.134795
O O12 0.685688 0.214532 0.103312
O O13 0.677286 0.000000 0.361996
O O14 0.500000 0.613758 0.000000
#
# Coordination Sequence:
#
# PCOD8094600 Si02
#       7
#     8   4   8   8   4   4   8
#     4  11  21  38  60  89 121 165 202 249 305 364
#     4  10  21  39  64  86 121 164 200 248 312 371
#     4  12  23  37  63  91 122 164 218 251 297 364
#     4  10  23  38  63  91 126 154 201 255 309 367
#     4  10  22  42  58  91 123 170 208 254 304 362
#     4  10  19  38  62  80 116 166 206 238 308 363
#     4  11  22  41  66  92 118 158 203 254 311 375
#
# _framework density 20.226067
#
# number of rings (size 3 to 8) (size 9 to 14) (size 15 to 20)
#    0.545    0.727    3.636    2.727    5.091    0.727 
#    0.000    0.455    0.000    1.091    0.000    0.000 
#    0.000    0.000    0.000    0.000    0.000    0.000 
#
# Total GULP energy -272657.539515 kJ/mol
# GULP energy per Si atom -12393.524523 kJ/mol
# Density = 2.018003 g / cm^3
# Si number density = 20.226067 Si / 1000 Ang^3
#
#
#
# Elastic Constant Matrix: (Units=GPa)
#
#
# Indices 1 2 3 4 5 6 
#
# 1 65.6819 20.8082 13.9727 0.0014 1.6379 0.0030
# 2 20.8082 116.9752 21.1011 0.0018 0.4099 0.0009
# 3 13.9727 21.1011 103.8476 0.0007 0.5530 -0.0029
# 4 0.0014 0.0018 0.0007 14.1826 -0.0013 -24.1113
# 5 1.6379 0.4099 0.5530 -0.0013 14.0344 -0.0016
# 6 0.0030 0.0009 -0.0029 -24.1113 -0.0016 -7.1254
#
#
#
# Elastic Compliance Matrix: (Units=1/GPa)
#
#
# Indices 1 2 3 4 5 6 
#
# 1 0.016455 -0.002619 -0.001672 0.000002 -0.001778 0.000002
# 2 -0.002619 0.009291 -0.001536 0.000000 0.000095 0.000001
# 3 -0.001672 -0.001536 0.010167 -0.000001 -0.000161 -0.000001
# 4 0.000002 0.000000 -0.000001 0.010442 -0.000003 -0.035332
# 5 -0.001778 0.000095 -0.000161 -0.000003 0.071464 -0.000006
# 6 0.000002 0.000001 -0.000001 -0.035332 -0.000006 -0.020783
#
#
# Mechanical properties :
#
#
# Convention : Reuss Voigt Hill
#
# Bulk Modulus (GPa) = 41.22246 44.25207 42.73726
# Shear Modulus (GPa) = 42.81633 19.59316 31.20475
#
# Velocity S-wave (km/s) = 4.60596 3.11578 3.93211
# Velocity P-wave (km/s) = 6.97937 5.90512 6.46459
#
# Compressibility (1/GPa) = 0.02425862
#
# Stress axis : x y z
#
# Youngs Moduli (GPa) = 60.77268 107.62533 98.35281
#
# Poissons Ratio (x) = 0.28189 0.16448
# Poissons Ratio (y) = 0.15917 0.15108
# Poissons Ratio (z) = 0.10163 0.16532
#
# Static dielectric constant tensor:
#      x y z
#    x 3.460370 0.000000 0.190820 
#    y 0.000000 3.750070 0.000000 
#    z 0.190820 0.000000 3.540760 
# 
# 
# High freq. dielectric constant tensor:
#      x y z
#    x 1.775890 0.000000 0.010870 
#    y 0.000000 1.800010 0.000000 
#    z 0.010870 0.000000 1.780370 
# 
# From -- ./inp_files/256884.got.cif
#   From: 2010.06.25/outbox.cif.g09.slc.cpg/sg12_129_cif.got.tgz:256884.got - 2010.06.28 00:19:55.
