data_PCOD8094850
_publ_section_title
;
Structure prediction by ZEFSAII (Michael W. Deem and Ramdas Pophale) SiO2 
 PCOD8094850
Probable space group: C 2/M
;
_chemical_formula_sum "Si O2"
_cell_formula_units_Z 36
_cell_length_a 13.049634
_cell_length_b 17.013051
_cell_length_c 10.615551
_cell_angle_alpha 90.000000
_cell_angle_beta 49.547914
_cell_angle_gamma 90.000000
_cell_volume 1793.405576
_symmetry_space_group_name_H-M "C 2/M"
_symmetry_group_IT_number 12
_symmetry_cell_setting 'monoclinic'
loop_
_space_group_symop_operation_xyz
x,y,z
-x,y,-z
-x,-y,-z
x,-y,z
1/2+x,1/2+y,z
1/2-x,1/2+y,-z
1/2-x,1/2-y,-z
1/2+x,1/2-y,z
loop_
_atom_site_type_symbol
_atom_site_label
_atom_site_fract_x
_atom_site_fract_y
_atom_site_fract_z
Si Si1 0.152575 0.704534 0.173899
Si Si2 0.473878 0.912346 0.164308
Si Si3 0.339196 0.908832 0.635574
Si Si4 0.000000 0.806888 0.500000
Si Si5 0.196578 0.087989 0.496118
O O1 0.228943 0.635586 0.190700
O O2 0.035336 0.660103 0.191950
O O3 0.097911 0.758115 0.331337
O O4 0.250000 0.750000 0.000000
O O5 0.313719 0.911573 0.300062
O O6 0.526101 0.000000 0.167559
O O7 0.500000 0.896582 0.000000
O O8 0.500000 0.890170 0.500000
O O9 0.262326 0.878719 0.572495
O O10 0.314340 0.000000 0.674043
O O11 0.921826 0.858365 0.459964
O O12 0.139376 0.000000 0.561902
#
# Coordination Sequence:
#
# PCOD8094850 Si02
#       5
#     8   8   8   4   8
#     4  12  24  38  60  95 128 163 198 260 322 371
#     4  10  20  37  61  88 118 160 215 261 298 360
#     4  10  19  40  68  89 113 155 215 263 299 355
#     4  12  25  40  57  90 134 164 200 250 323 382
#     4  10  21  39  64  86 117 166 210 255 304 367
#
# _framework density 20.073540999999999
#
# number of rings (size 3 to 8) (size 9 to 14) (size 15 to 20)
#    0.000    1.333    3.333    2.333    0.000    5.333 
#    0.000    3.333    0.000    2.667    0.000    0.000 
#    0.000    0.000    0.000    0.000    0.000    0.000 
#
# Total GULP energy -223008.491160 kJ/mol
# GULP energy per Si atom -12389.360620 kJ/mol
# Density = 2.002785 g / cm^3
# Si number density = 20.073541 Si / 1000 Ang^3
#
#
#
# Elastic Constant Matrix: (Units=GPa)
#
#
# Indices 1 2 3 4 5 6 
#
# 1 113.7295 49.1877 20.3605 0.0000 11.7142 0.0000
# 2 49.1877 84.8910 38.0588 0.0000 8.0552 0.0000
# 3 20.3605 38.0588 107.4731 0.0000 20.6625 0.0000
# 4 0.0000 0.0000 0.0000 31.5701 0.0000 5.5149
# 5 11.7142 8.0552 20.6625 0.0000 19.4543 0.0000
# 6 0.0000 0.0000 0.0000 5.5149 0.0000 25.3288
#
#
#
# Elastic Compliance Matrix: (Units=1/GPa)
#
#
# Indices 1 2 3 4 5 6 
#
# 1 0.012241 -0.007135 0.001328 0.000000 -0.005827 0.000000
# 2 -0.007135 0.018169 -0.005607 0.000000 0.002728 0.000000
# 3 0.001328 -0.005607 0.013503 0.000000 -0.012820 0.000000
# 4 0.000000 0.000000 0.000000 0.032928 0.000000 -0.007170
# 5 -0.005827 0.002728 -0.012820 0.000000 0.067398 0.000000
# 6 0.000000 0.000000 0.000000 -0.007170 0.000000 0.041042
#
#
# Mechanical properties :
#
#
# Convention : Reuss Voigt Hill
#
# Bulk Modulus (GPa) = 47.42674 57.92308 52.67491
# Shear Modulus (GPa) = 23.24095 28.50308 25.87202
#
# Velocity S-wave (km/s) = 3.40632 3.77229 3.59397
# Velocity P-wave (km/s) = 6.25688 6.92038 6.59697
#
# Compressibility (1/GPa) = 0.02108515
#
# Stress axis : x y z
#
# Youngs Moduli (GPa) = 81.69125 55.03899 74.05572
#
# Poissons Ratio (x) = 0.39272 -0.09834
# Poissons Ratio (y) = 0.58289 0.41522
# Poissons Ratio (z) = -0.10848 0.30860
#
# Static dielectric constant tensor:
#      x y z
#    x 3.903970 0.000000 0.428000 
#    y 0.000000 4.006640 0.000000 
#    z 0.428000 0.000000 3.700560 
# 
# 
# High freq. dielectric constant tensor:
#      x y z
#    x 1.775720 0.000000 0.033360 
#    y 0.000000 1.800490 0.000000 
#    z 0.033360 0.000000 1.770170 
# 
# From -- ./inp_files/128965.got.cif
#   From: 2010.06.25/outbox.cif.g09.slc.cpg/sg12_65_cif.got.tgz:128965.got - 2010.06.28 00:19:55.
