data_PCOD8094831
_publ_section_title
;
Structure prediction by ZEFSAII (Michael W. Deem and Ramdas Pophale) SiO2 
 PCOD8094831
Probable space group: C 2/M
;
_chemical_formula_sum "Si O2"
_cell_formula_units_Z 40
_cell_length_a 9.098838
_cell_length_b 33.832098
_cell_length_c 8.150418
_cell_angle_alpha 90.000000
_cell_angle_beta 52.763919
_cell_angle_gamma 90.000000
_cell_volume 1997.510692
_symmetry_space_group_name_H-M "C 2/M"
_symmetry_group_IT_number 12
_symmetry_cell_setting 'monoclinic'
loop_
_space_group_symop_operation_xyz
x,y,z
-x,y,-z
-x,-y,-z
x,-y,z
1/2+x,1/2+y,z
1/2-x,1/2+y,-z
1/2-x,1/2-y,-z
1/2+x,1/2-y,z
loop_
_atom_site_type_symbol
_atom_site_label
_atom_site_fract_x
_atom_site_fract_y
_atom_site_fract_z
Si Si1 0.500000 0.323388 0.500000
Si Si2 0.798074 0.043676 0.565603
Si Si3 0.000000 0.574470 0.000000
Si Si4 0.761876 0.124624 0.427577
Si Si5 0.870560 0.635848 0.829030
Si Si6 0.203599 0.287917 0.925957
O O1 0.572332 0.351876 0.597294
O O2 0.343622 0.294519 0.679287
O O3 0.646576 0.046862 0.810952
O O4 0.763772 0.077657 0.456550
O O5 0.000000 0.049554 0.500000
O O6 0.778498 0.000000 0.498198
O O7 0.879046 0.601126 0.957327
O O8 0.575992 0.144018 0.624342
O O9 0.768881 0.126865 0.226239
O O10 0.785166 0.674169 0.967681
O O11 0.250000 0.250000 0.000000
O O12 0.000000 0.281328 0.000000
#
# Coordination Sequence:
#
# PCOD8094831 Si02
#       6
#     4   8   4   8   8   8
#     4  12  24  44  69  88 128 170 212 250 309 376
#     4  10  20  36  59  91 128 163 205 261 313 364
#     4  10  19  40  62  84 122 174 206 256 306 372
#     4  10  21  39  68  94 119 176 212 254 309 371
#     4  10  21  42  65  91 129 160 219 260 298 380
#     4  12  27  45  64  96 129 162 205 261 314 369
#
# _framework density 20.024926000000001
#
# number of rings (size 3 to 8) (size 9 to 14) (size 15 to 20)
#    0.000    1.400    4.000    1.500    2.800    2.400 
#    0.000    9.000    0.000    2.400    0.000    0.000 
#    0.000    0.000    0.000    0.000    0.000    0.000 
#
# Total GULP energy -247981.794313 kJ/mol
# GULP energy per Si atom -12399.089716 kJ/mol
# Density = 1.997935 g / cm^3
# Si number density = 20.024926 Si / 1000 Ang^3
#
#
#
# Elastic Constant Matrix: (Units=GPa)
#
#
# Indices 1 2 3 4 5 6 
#
# 1 130.9880 48.9081 56.6552 0.0000 11.5198 0.0000
# 2 48.9081 111.1415 59.4724 0.0000 -5.1974 0.0000
# 3 56.6552 59.4724 88.8304 0.0000 -3.8345 0.0000
# 4 0.0000 0.0000 0.0000 15.3829 0.0000 17.4408
# 5 11.5198 -5.1974 -3.8345 0.0000 35.6664 0.0000
# 6 0.0000 0.0000 0.0000 17.4408 0.0000 55.4004
#
#
#
# Elastic Compliance Matrix: (Units=1/GPa)
#
#
# Indices 1 2 3 4 5 6 
#
# 1 0.011451 -0.001934 -0.006209 0.000000 -0.004648 0.000000
# 2 -0.001934 0.014385 -0.008319 0.000000 0.001826 0.000000
# 3 -0.006209 -0.008319 0.020918 0.000000 0.003042 0.000000
# 4 0.000000 0.000000 0.000000 0.101088 0.000000 -0.031824
# 5 -0.004648 0.001826 0.003042 0.000000 0.030132 0.000000
# 6 0.000000 0.000000 0.000000 -0.031824 0.000000 0.028069
#
#
# Mechanical properties :
#
#
# Convention : Reuss Voigt Hill
#
# Bulk Modulus (GPa) = 72.30182 73.44793 72.87487
# Shear Modulus (GPa) = 20.52734 32.35156 26.43945
#
# Velocity S-wave (km/s) = 3.20518 4.02377 3.63757
# Velocity P-wave (km/s) = 7.06271 7.63842 7.35620
#
# Compressibility (1/GPa) = 0.01383091
#
# Stress axis : x y z
#
# Youngs Moduli (GPa) = 87.33164 69.51488 47.80478
#
# Poissons Ratio (x) = 0.13442 0.29682
# Poissons Ratio (y) = 0.16887 0.39769
# Poissons Ratio (z) = 0.54225 0.57829
#
# Static dielectric constant tensor:
#      x y z
#    x 4.026080 0.000000 -0.044450 
#    y 0.000000 3.721860 0.000000 
#    z -0.044450 0.000000 3.742960 
# 
# 
# High freq. dielectric constant tensor:
#      x y z
#    x 1.786180 0.000000 -0.007850 
#    y 0.000000 1.780150 0.000000 
#    z -0.007850 0.000000 1.784900 
# 
# From -- ./inp_files/41500.got.cif
#   From: 2010.06.25/outbox.cif.g09.slc.cpg/sg12_21_cif.got.tgz:41500.got - 2010.06.28 00:19:55.
