data_PCOD8094927
_publ_section_title
;
Structure prediction by ZEFSAII (Michael W. Deem and Ramdas Pophale) SiO2 
 PCOD8094927
Probable space group: C 2/M
;
_chemical_formula_sum "Si O2"
_cell_formula_units_Z 48
_cell_length_a 8.914051
_cell_length_b 28.672937
_cell_length_c 12.381242
_cell_angle_alpha 90.000000
_cell_angle_beta 133.907581
_cell_angle_gamma 90.000000
_cell_volume 2279.927278
_symmetry_space_group_name_H-M "C 2/M"
_symmetry_group_IT_number 12
_symmetry_cell_setting 'monoclinic'
loop_
_space_group_symop_operation_xyz
x,y,z
-x,y,-z
-x,-y,-z
x,-y,z
1/2+x,1/2+y,z
1/2-x,1/2+y,-z
1/2-x,1/2-y,-z
1/2+x,1/2-y,z
loop_
_atom_site_type_symbol
_atom_site_label
_atom_site_fract_x
_atom_site_fract_y
_atom_site_fract_z
Si Si1 0.928445 0.291055 0.341365
Si Si2 0.352804 0.050722 0.587782
Si Si3 0.737201 0.782128 0.095649
Si Si4 0.202859 0.147613 0.536930
Si Si5 0.697035 0.449919 0.266579
Si Si6 0.933432 0.146092 0.774016
O O1 0.865851 0.241284 0.258450
O O2 0.724439 0.323583 0.231871
O O3 0.000000 0.281843 0.500000
O O4 0.110327 0.314572 0.358528
O O5 0.264504 0.095403 0.610519
O O6 0.600582 0.056775 0.706406
O O7 0.261343 0.050296 0.422787
O O8 0.298659 0.000000 0.615574
O O9 0.839654 0.831497 0.117421
O O10 0.500000 0.793495 0.000000
O O11 0.750000 0.750000 0.000000
O O12 0.166618 0.143010 0.392894
O O13 0.000000 0.165396 0.500000
O O14 0.589298 0.500000 0.185425
O O15 0.544059 0.406250 0.166359
#
# Coordination Sequence:
#
# PCOD8094927 Si02
#       6
#     8   8   8   8   8   8
#     4  10  22  41  61  83 118 157 199 242 289 348
#     4   8  13  24  45  76 115 150 185 232 290 344
#     4  12  26  43  61  85 116 157 198 245 299 350
#     4  10  20  30  52  84 118 154 192 238 295 346
#     4   8  13  26  52  80 106 147 195 234 279 346
#     4  10  20  37  57  81 115 152 197 240 289 351
#
# _framework density 21.053303
#
# number of rings (size 3 to 8) (size 9 to 14) (size 15 to 20)
#    0.000    2.333    3.333    1.000    2.333    3.667 
#    0.000    0.000    0.000    0.500    0.000    3.500 
#    0.000    0.000    0.000    0.000    0.000    0.000 
#
# Total GULP energy -297398.379268 kJ/mol
# GULP energy per Si atom -12391.599136 kJ/mol
# Density = 2.100538 g / cm^3
# Si number density = 21.053303 Si / 1000 Ang^3
#
#
#
# Elastic Constant Matrix: (Units=GPa)
#
#
# Indices 1 2 3 4 5 6 
#
# 1 94.7143 48.3832 29.7079 0.0000 38.6902 0.0000
# 2 48.3832 156.3812 52.8008 0.0000 34.7183 0.0000
# 3 29.7079 52.8008 57.7011 0.0000 24.5157 0.0000
# 4 0.0000 0.0000 0.0000 13.9370 0.0000 11.4897
# 5 38.6902 34.7183 24.5157 0.0000 38.6505 0.0000
# 6 0.0000 0.0000 0.0000 11.4897 0.0000 28.1914
#
#
#
# Elastic Compliance Matrix: (Units=1/GPa)
#
#
# Indices 1 2 3 4 5 6 
#
# 1 0.018381 -0.001764 -0.000965 0.000000 -0.016203 0.000000
# 2 -0.001764 0.009904 -0.007016 0.000000 -0.002681 0.000000
# 3 -0.000965 -0.007016 0.028966 0.000000 -0.011104 0.000000
# 4 0.000000 0.000000 0.000000 0.108058 0.000000 -0.044040
# 5 -0.016203 -0.002681 -0.011104 0.000000 0.051544 0.000000
# 6 0.000000 0.000000 0.000000 -0.044040 0.000000 0.053421
#
#
# Mechanical properties :
#
#
# Convention : Reuss Voigt Hill
#
# Bulk Modulus (GPa) = 26.48263 63.39784 44.94023
# Shear Modulus (GPa) = 16.53709 28.01610 22.27660
#
# Velocity S-wave (km/s) = 2.80569 3.65186 3.25638
# Velocity P-wave (km/s) = 4.80646 6.92531 5.96079
#
# Compressibility (1/GPa) = 0.03776060
#
# Stress axis : x y z
#
# Youngs Moduli (GPa) = 54.40525 100.96449 34.52333
#
# Poissons Ratio (x) = 0.17807 0.03333
# Poissons Ratio (y) = 0.09595 0.24222
# Poissons Ratio (z) = 0.05252 0.70839
#
# Static dielectric constant tensor:
#      x y z
#    x 3.122340 0.000000 0.047260 
#    y 0.000000 4.251380 0.000000 
#    z 0.047260 0.000000 3.258220 
# 
# 
# High freq. dielectric constant tensor:
#      x y z
#    x 1.804080 0.000000 0.019000 
#    y 0.000000 1.846480 0.000000 
#    z 0.019000 0.000000 1.774950 
# 
# From -- ./inp_files/201063.got.cif
#   From: 2010.06.25/outbox.cif.g09.slc.cpg/sg12_101_cif.got.tgz:201063.got - 2010.06.28 00:19:55.
