data_PCOD8094922
_publ_section_title
;
Structure prediction by ZEFSAII (Michael W. Deem and Ramdas Pophale) SiO2 
 PCOD8094922
Probable space group: C 2/M
;
_chemical_formula_sum "Si O2"
_cell_formula_units_Z 56
_cell_length_a 19.616695
_cell_length_b 9.409343
_cell_length_c 29.258244
_cell_angle_alpha 90.000000
_cell_angle_beta 33.408958
_cell_angle_gamma 90.000000
_cell_volume 2973.572180
_symmetry_space_group_name_H-M "C 2/M"
_symmetry_group_IT_number 12
_symmetry_cell_setting 'monoclinic'
loop_
_space_group_symop_operation_xyz
x,y,z
-x,y,-z
-x,-y,-z
x,-y,z
1/2+x,1/2+y,z
1/2-x,1/2+y,-z
1/2-x,1/2-y,-z
1/2+x,1/2-y,z
loop_
_atom_site_type_symbol
_atom_site_label
_atom_site_fract_x
_atom_site_fract_y
_atom_site_fract_z
Si Si1 0.592008 0.168317 0.989335
Si Si2 0.747730 0.830846 0.685182
Si Si3 0.665533 0.163163 0.133287
Si Si4 0.527687 0.668331 0.377741
Si Si5 0.987712 0.331431 0.866086
Si Si6 0.517245 0.162138 0.682807
Si Si7 0.783600 0.831872 0.564142
O O1 0.724327 0.241748 0.908294
O O2 0.612030 0.000000 0.977456
O O3 0.500000 0.215186 0.000000
O O4 0.538856 0.222228 0.067723
O O5 0.857523 0.781050 0.656394
O O6 0.619068 0.767141 0.776424
O O7 0.777194 0.767486 0.618724
O O8 0.738846 0.000000 0.687744
O O9 0.621177 0.216880 0.107906
O O10 0.547244 0.179538 0.232177
O O11 0.710539 0.000000 0.106116
O O12 0.523326 0.500000 0.374364
O O13 0.548753 0.737169 0.316647
O O14 0.402287 0.728979 0.470976
O O15 0.996133 0.500000 0.860474
O O16 0.659570 0.211592 0.606960
O O17 0.508542 0.000000 0.670817
O O18 0.796179 0.000000 0.561106
#
# Coordination Sequence:
#
# PCOD8094922 Si02
#       7
#     8   8   8   8   8   8   8
#     4  10  22  36  55  83 111 133 159 209 271 316
#     4   9  16  29  52  78 104 134 174 218 253 299
#     4  10  20  36  57  76  99 140 184 211 242 302
#     4  10  20  30  51  82 107 133 171 222 266 298
#     4   9  17  33  54  76 103 139 175 205 252 311
#     4  10  20  34  52  73 104 143 176 210 255 309
#     4   9  16  31  51  76 104 135 179 219 252 299
#
# _framework density 18.832567999999998
#
# number of rings (size 3 to 8) (size 9 to 14) (size 15 to 20)
#    0.000    2.429    1.429    1.286    2.000    2.571 
#    0.000    0.000    0.000    3.429    0.000    0.000 
#    0.000    0.000    0.000    0.000    0.000    0.000 
#
# Total GULP energy -347189.988128 kJ/mol
# GULP energy per Si atom -12399.642433 kJ/mol
# Density = 1.878970 g / cm^3
# Si number density = 18.832568 Si / 1000 Ang^3
#
#
#
# Elastic Constant Matrix: (Units=GPa)
#
#
# Indices 1 2 3 4 5 6 
#
# 1 141.2618 34.6382 44.8512 0.0004 -0.7730 -0.0013
# 2 34.6382 24.5009 19.7951 0.0004 -3.6648 -0.0025
# 3 44.8512 19.7951 81.4990 -0.0004 -9.2693 -0.0001
# 4 0.0004 0.0004 -0.0004 21.3488 0.0002 0.6464
# 5 -0.7730 -3.6648 -9.2693 0.0002 35.5626 -0.0001
# 6 -0.0013 -0.0025 -0.0001 0.6464 -0.0001 20.5339
#
#
#
# Elastic Compliance Matrix: (Units=1/GPa)
#
#
# Indices 1 2 3 4 5 6 
#
# 1 0.011509 -0.014021 -0.003157 0.000000 -0.002018 -0.000001
# 2 -0.014021 0.068012 -0.008286 -0.000001 0.004544 0.000007
# 3 -0.003157 -0.008286 0.016402 0.000001 0.003352 -0.000001
# 4 0.000000 -0.000001 0.000001 0.046886 0.000000 -0.001476
# 5 -0.002018 0.004544 0.003352 0.000000 0.029418 0.000001
# 6 -0.000001 0.000007 -0.000001 -0.001476 0.000001 0.048746
#
#
# Mechanical properties :
#
#
# Convention : Reuss Voigt Hill
#
# Bulk Modulus (GPa) = 22.22592 49.53673 35.88133
# Shear Modulus (GPa) = 17.42776 25.35420 21.39098
#
# Velocity S-wave (km/s) = 3.04535 3.67317 3.37389
# Velocity P-wave (km/s) = 4.91864 6.65961 5.85421
#
# Compressibility (1/GPa) = 0.04499251
#
# Stress axis : x y z
#
# Youngs Moduli (GPa) = 86.89176 14.70336 60.96968
#
# Poissons Ratio (x) = 0.20616 0.19251
# Poissons Ratio (y) = 1.21832 0.50520
# Poissons Ratio (z) = 0.27435 0.12183
#
# Static dielectric constant tensor:
#      x y z
#    x 3.555640 0.000000 0.032340 
#    y 0.000000 2.898170 0.000000 
#    z 0.032340 0.000000 3.616500 
# 
# 
# High freq. dielectric constant tensor:
#      x y z
#    x 1.746070 0.000000 0.000910 
#    y 0.000000 1.672720 0.000000 
#    z 0.000910 0.000000 1.742930 
# 
# From -- ./inp_files/223364.got.cif
#   From: 2010.06.25/outbox.cif.g09.slc.cpg/sg12_112_cif.got.tgz:223364.got - 2010.06.28 00:19:55.
