data_PCOD8094206
_publ_section_title
;
Structure prediction by ZEFSAII (Michael W. Deem and Ramdas Pophale) SiO2 
 PCOD8094206
Probable space group: C 2/M
;
_chemical_formula_sum "Si O2"
_cell_formula_units_Z 64
_cell_length_a 16.329694
_cell_length_b 15.591297
_cell_length_c 14.201139
_cell_angle_alpha 90.000000
_cell_angle_beta 58.984660
_cell_angle_gamma 90.000000
_cell_volume 3098.697475
_symmetry_space_group_name_H-M "C 2/M"
_symmetry_group_IT_number 12
_symmetry_cell_setting 'monoclinic'
loop_
_space_group_symop_operation_xyz
x,y,z
-x,y,-z
-x,-y,-z
x,-y,z
1/2+x,1/2+y,z
1/2-x,1/2+y,-z
1/2-x,1/2-y,-z
1/2+x,1/2-y,z
loop_
_atom_site_type_symbol
_atom_site_label
_atom_site_fract_x
_atom_site_fract_y
_atom_site_fract_z
Si Si1 0.428163 0.773021 0.867821
Si Si2 0.102728 0.155077 0.953012
Si Si3 0.102713 0.260904 0.642999
Si Si4 0.509379 0.595248 0.601757
Si Si5 0.771145 0.406916 0.978451
Si Si6 0.394575 0.899994 0.521465
Si Si7 0.172277 0.849309 0.209000
Si Si8 0.259394 0.294174 0.288988
O O1 0.532810 0.796548 0.767261
O O2 0.352235 0.846376 0.889735
O O3 0.394212 0.692837 0.829273
O O4 0.424144 0.746203 0.980316
O O5 0.173494 0.101867 0.977379
O O6 0.151641 0.167883 0.822584
O O7 0.000000 0.106974 0.000000
O O8 0.067997 0.171150 0.617562
O O9 0.115354 0.338496 0.562829
O O10 0.203856 0.241879 0.632655
O O11 0.500000 0.622865 0.500000
O O12 0.557179 0.500000 0.586921
O O13 0.399267 0.584512 0.699708
O O14 0.813454 0.500000 0.937032
O O15 0.756429 0.394292 0.099709
O O16 0.500000 0.889092 0.500000
O O17 0.318734 0.868444 0.645243
O O18 0.374334 0.000000 0.507725
O O19 0.212142 0.783065 0.260750
#
# Coordination Sequence:
#
# PCOD8094206 Si02
#       8
#     8   8   8   8   8   8   8   8
#     4  10  19  38  64  86 121 170 216 256 303 391
#     4  11  21  39  63  95 128 166 215 263 322 392
#     4  11  23  40  68  95 128 171 212 270 335 385
#     4  10  21  38  62  91 121 159 212 265 319 388
#     4  11  22  36  59  91 127 167 214 264 318 382
#     4  11  26  46  67  95 128 170 225 274 319 391
#     4  10  19  37  58  83 119 165 212 256 313 377
#     4  12  22  40  68  92 127 172 216 266 335 390
#
# _framework density 20.653839000000001
#
# number of rings (size 3 to 8) (size 9 to 14) (size 15 to 20)
#    0.000    1.250    3.750    4.125    0.000    1.750 
#    0.000    2.500    0.000    1.125    0.000    0.000 
#    0.000    0.000    0.000    0.000    0.000    0.000 
#
# Total GULP energy -396549.462831 kJ/mol
# GULP energy per Si atom -12392.170713 kJ/mol
# Density = 2.060683 g / cm^3
# Si number density = 20.653839 Si / 1000 Ang^3
#
#
#
# Elastic Constant Matrix: (Units=GPa)
#
#
# Indices 1 2 3 4 5 6 
#
# 1 86.1081 34.4529 33.4149 0.0000 -0.4145 0.0000
# 2 34.4529 101.4860 42.5601 0.0000 2.3862 0.0000
# 3 33.4149 42.5601 112.8140 0.0000 0.8616 0.0000
# 4 0.0000 0.0000 0.0000 -19.0879 0.0000 11.0672
# 5 -0.4145 2.3862 0.8616 0.0000 31.6103 0.0000
# 6 0.0000 0.0000 0.0000 11.0672 0.0000 9.0234
#
#
#
# Elastic Compliance Matrix: (Units=1/GPa)
#
#
# Indices 1 2 3 4 5 6 
#
# 1 0.014169 -0.003636 -0.002829 0.000000 0.000537 0.000000
# 2 -0.003636 0.012657 -0.003691 0.000000 -0.000903 0.000000
# 3 -0.002829 -0.003691 0.011095 0.000000 -0.000061 0.000000
# 4 0.000000 0.000000 0.000000 -0.030617 0.000000 0.037551
# 5 0.000537 -0.000903 -0.000061 0.000000 0.031712 0.000000
# 6 0.000000 0.000000 0.000000 0.037551 0.000000 0.064766
#
#
# Mechanical properties :
#
#
# Convention : Reuss Voigt Hill
#
# Bulk Modulus (GPa) = 56.79181 57.91821 57.35501
# Shear Modulus (GPa) = 38.47207 16.97450 27.72329
#
# Velocity S-wave (km/s) = 4.32059 2.86991 3.66769
# Velocity P-wave (km/s) = 7.24201 6.25181 6.76505
#
# Compressibility (1/GPa) = 0.01760817
#
# Stress axis : x y z
#
# Youngs Moduli (GPa) = 70.57855 79.00651 90.13042
#
# Poissons Ratio (x) = 0.28729 0.25498
# Poissons Ratio (y) = 0.25664 0.33268
# Poissons Ratio (z) = 0.19966 0.29162
#
# Static dielectric constant tensor:
#      x y z
#    x 3.648500 0.000000 -0.049520 
#    y 0.000000 3.547360 0.000000 
#    z -0.049520 0.000000 4.368750 
# 
# 
# High freq. dielectric constant tensor:
#      x y z
#    x 1.799190 0.000000 -0.003110 
#    y 0.000000 1.786900 0.000000 
#    z -0.003110 0.000000 1.829930 
# 
# From -- ./inp_files/225274.got.cif
#   From: 2010.06.25/outbox.cif.g09.slc.cpg/sg12_113_cif.got.tgz:225274.got - 2010.06.28 00:19:55.
