data_PCOD8094339
_publ_section_title
;
Structure prediction by ZEFSAII (Michael W. Deem and Ramdas Pophale) SiO2 
 PCOD8094339
Probable space group: C 2/M
;
_chemical_formula_sum "Si O2"
_cell_formula_units_Z 56
_cell_length_a 24.429095
_cell_length_b 13.361439
_cell_length_c 9.366000
_cell_angle_alpha 90.000000
_cell_angle_beta 68.471534
_cell_angle_gamma 90.000000
_cell_volume 2843.856065
_symmetry_space_group_name_H-M "C 2/M"
_symmetry_group_IT_number 12
_symmetry_cell_setting 'monoclinic'
loop_
_space_group_symop_operation_xyz
x,y,z
-x,y,-z
-x,-y,-z
x,-y,z
1/2+x,1/2+y,z
1/2-x,1/2+y,-z
1/2-x,1/2-y,-z
1/2+x,1/2-y,z
loop_
_atom_site_type_symbol
_atom_site_label
_atom_site_fract_x
_atom_site_fract_y
_atom_site_fract_z
Si Si1 0.750249 0.293277 0.268524
Si Si2 0.625025 0.756755 0.954035
Si Si3 0.978337 0.388212 0.859485
Si Si4 0.656468 0.389346 0.159220
Si Si5 0.090529 0.722473 0.675570
Si Si6 0.711195 0.116316 0.489302
Si Si7 0.437448 0.388594 0.513804
O O1 0.812990 0.310044 0.134165
O O2 0.703420 0.320563 0.193925
O O3 0.738320 0.179044 0.331213
O O4 0.747670 0.364696 0.410834
O O5 0.594348 0.733568 0.832079
O O6 0.583121 0.827914 0.090166
O O7 0.637784 0.654369 0.024492
O O8 0.967275 0.500000 0.810167
O O9 0.028865 0.336005 0.715502
O O10 0.000000 0.394661 0.000000
O O11 0.682920 0.500000 0.109397
O O12 0.598500 0.394546 0.307560
O O13 0.144304 0.648787 0.587487
O O14 0.094252 0.817033 0.568425
O O15 0.712684 0.000000 0.446323
O O16 0.500000 0.343898 0.500000
O O17 0.443865 0.500000 0.440167
#
# Coordination Sequence:
#
# PCOD8094339 Si02
#       7
#     8   8   8   8   8   8   8
#     4  10  21  38  56  85 118 154 193 240 292 347
#     4  10  22  36  57  85 117 151 191 241 286 343
#     4   9  18  34  58  85 113 149 188 232 291 350
#     4  11  22  38  57  80 114 156 195 234 291 351
#     4  10  19  37  61  88 118 147 194 247 290 344
#     4  10  20  36  61  89 116 150 196 246 293 344
#     4  10  21  37  59  82 112 155 195 239 291 347
#
# _framework density 19.691573000000002
#
# number of rings (size 3 to 8) (size 9 to 14) (size 15 to 20)
#    0.000    2.000    1.429    2.143    0.000    5.143 
#    0.000    0.714    0.000    6.857    0.000    0.000 
#    0.000    0.000    0.000    0.000    0.000    0.000 
#
# Total GULP energy -347192.285832 kJ/mol
# GULP energy per Si atom -12399.724494 kJ/mol
# Density = 1.964675 g / cm^3
# Si number density = 19.691573 Si / 1000 Ang^3
#
#
#
# Elastic Constant Matrix: (Units=GPa)
#
#
# Indices 1 2 3 4 5 6 
#
# 1 88.5853 38.7754 26.0219 0.0000 -9.5499 0.0000
# 2 38.7754 123.2905 32.1129 0.0000 15.7468 0.0000
# 3 26.0219 32.1129 49.5217 0.0000 0.4088 0.0000
# 4 0.0000 0.0000 0.0000 21.0592 0.0000 -0.7858
# 5 -9.5499 15.7468 0.4088 0.0000 32.7063 0.0000
# 6 0.0000 0.0000 0.0000 -0.7858 0.0000 24.7802
#
#
#
# Elastic Compliance Matrix: (Units=1/GPa)
#
#
# Indices 1 2 3 4 5 6 
#
# 1 0.015480 -0.004316 -0.005390 0.000000 0.006665 0.000000
# 2 -0.004316 0.011714 -0.005272 0.000000 -0.006834 0.000000
# 3 -0.005390 -0.005272 0.026439 0.000000 0.000634 0.000000
# 4 0.000000 0.000000 0.000000 0.047542 0.000000 0.001508
# 5 0.006665 -0.006834 0.000634 0.000000 0.035804 0.000000
# 6 0.000000 0.000000 0.000000 0.001508 0.000000 0.040403
#
#
# Mechanical properties :
#
#
# Convention : Reuss Voigt Hill
#
# Bulk Modulus (GPa) = 42.23579 50.57977 46.40778
# Shear Modulus (GPa) = 23.23100 26.67495 24.95297
#
# Velocity S-wave (km/s) = 3.43847 3.68453 3.56362
# Velocity P-wave (km/s) = 6.10404 6.62139 6.36797
#
# Compressibility (1/GPa) = 0.02367660
#
# Stress axis : x y z
#
# Youngs Moduli (GPa) = 64.60127 85.36584 37.82261
#
# Poissons Ratio (x) = 0.36841 0.20388
# Poissons Ratio (y) = 0.27880 0.19941
# Poissons Ratio (z) = 0.34823 0.45006
#
# Static dielectric constant tensor:
#      x y z
#    x 3.633940 0.000000 -0.184910 
#    y 0.000000 3.580780 0.000000 
#    z -0.184910 0.000000 3.504440 
# 
# 
# High freq. dielectric constant tensor:
#      x y z
#    x 1.772370 0.000000 -0.015960 
#    y 0.000000 1.758980 0.000000 
#    z -0.015960 0.000000 1.757090 
# 
# From -- ./inp_files/103147.got.cif
#   From: 2010.06.25/outbox.cif.g09.slc.cpg/sg12_52_cif.got.tgz:103147.got - 2010.06.28 00:19:55.
