data_PCOD8094554
_publ_section_title
;
Structure prediction by ZEFSAII (Michael W. Deem and Ramdas Pophale) SiO2 
 PCOD8094554
Probable space group: C 2/M
;
_chemical_formula_sum "Si O2"
_cell_formula_units_Z 48
_cell_length_a 23.042087
_cell_length_b 13.747912
_cell_length_c 18.853098
_cell_angle_alpha 90.000000
_cell_angle_beta 157.413241
_cell_angle_gamma 90.000000
_cell_volume 2293.850920
_symmetry_space_group_name_H-M "C 2/M"
_symmetry_group_IT_number 12
_symmetry_cell_setting 'monoclinic'
loop_
_space_group_symop_operation_xyz
x,y,z
-x,y,-z
-x,-y,-z
x,-y,z
1/2+x,1/2+y,z
1/2-x,1/2+y,-z
1/2-x,1/2-y,-z
1/2+x,1/2-y,z
loop_
_atom_site_type_symbol
_atom_site_label
_atom_site_fract_x
_atom_site_fract_y
_atom_site_fract_z
Si Si1 0.412203 0.387197 0.682940
Si Si2 0.703718 0.395144 0.828725
Si Si3 0.739739 0.243000 0.590032
Si Si4 0.502150 0.108849 0.086054
Si Si5 0.257353 0.354383 0.973829
Si Si6 0.512258 0.207186 0.594712
O O1 0.373874 0.500000 0.619918
O O2 0.386362 0.306778 0.592731
O O3 0.302825 0.354437 0.623627
O O4 0.591493 0.378117 0.901045
O O5 0.649730 0.500000 0.737356
O O6 0.572081 0.317668 0.667908
O O7 0.748981 0.418627 0.962017
O O8 0.845218 0.356514 0.942986
O O9 0.877242 0.315189 0.752458
O O10 0.660086 0.206161 0.571602
O O11 0.542025 0.000000 0.158141
O O12 0.500000 0.110938 0.000000
O O13 0.117560 0.365631 0.760711
O O14 0.250000 0.250000 0.000000
O O15 0.500000 0.170860 0.500000
#
# Coordination Sequence:
#
# PCOD8094554 Si02
#       6
#     8   8   8   8   8   8
#     4  11  23  39  63  92 121 161 209 263 311 366
#     4  10  20  35  59  87 120 162 203 250 310 376
#     4  11  22  37  62  91 126 157 204 262 311 380
#     4  10  21  36  57  90 130 167 201 250 324 391
#     4  10  19  38  59  84 120 159 208 245 305 371
#     4  11  23  38  61  90 122 160 204 256 316 372
#
# _framework density 20.925511
#
# number of rings (size 3 to 8) (size 9 to 14) (size 15 to 20)
#    0.000    1.500    3.333    4.000    2.333    1.000 
#    0.000    0.833    0.000    8.000    0.000    0.000 
#    0.000    0.000    0.000    0.000    0.000    0.000 
#
# Total GULP energy -297330.911778 kJ/mol
# GULP energy per Si atom -12388.787991 kJ/mol
# Density = 2.087788 g / cm^3
# Si number density = 20.925511 Si / 1000 Ang^3
#
#
#
# Elastic Constant Matrix: (Units=GPa)
#
#
# Indices 1 2 3 4 5 6 
#
# 1 138.6630 12.5126 37.6899 -0.0005 21.7444 -0.0005
# 2 12.5126 64.3331 18.6151 -0.0022 13.5233 -0.0037
# 3 37.6899 18.6151 53.3102 -0.0020 15.3425 -0.0026
# 4 -0.0005 -0.0022 -0.0020 26.5350 -0.0016 24.0487
# 5 21.7444 13.5233 15.3425 -0.0016 44.6084 -0.0022
# 6 -0.0005 -0.0037 -0.0026 24.0487 -0.0022 53.7568
#
#
#
# Elastic Compliance Matrix: (Units=1/GPa)
#
#
# Indices 1 2 3 4 5 6 
#
# 1 0.009181 0.000468 -0.005911 0.000000 -0.002584 0.000000
# 2 0.000468 0.017826 -0.005476 0.000000 -0.003748 0.000001
# 3 -0.005911 -0.005476 0.026129 0.000001 -0.004445 0.000000
# 4 0.000000 0.000000 0.000001 0.063385 0.000001 -0.028356
# 5 -0.002584 -0.003748 -0.004445 0.000001 0.026342 0.000000
# 6 0.000000 0.000001 0.000000 -0.028356 0.000000 0.031288
#
#
# Mechanical properties :
#
#
# Convention : Reuss Voigt Hill
#
# Bulk Modulus (GPa) = 31.95195 43.77127 37.86161
# Shear Modulus (GPa) = 24.22225 37.47928 30.85077
#
# Velocity S-wave (km/s) = 3.40596 4.23671 3.84384
# Velocity P-wave (km/s) = 5.54707 6.70045 6.15085
#
# Compressibility (1/GPa) = 0.03129699
#
# Stress axis : x y z
#
# Youngs Moduli (GPa) = 108.91616 56.09873 38.27226
#
# Poissons Ratio (x) = -0.02624 0.22622
# Poissons Ratio (y) = -0.05095 0.20959
# Poissons Ratio (z) = 0.64377 0.30722
#
# Static dielectric constant tensor:
#      x y z
#    x 4.271140 -0.000020 -0.038880 
#    y -0.000020 4.172410 0.000010 
#    z -0.038880 0.000010 3.781630 
# 
# 
# High freq. dielectric constant tensor:
#      x y z
#    x 1.821760 0.000000 0.023900 
#    y 0.000000 1.809540 0.000000 
#    z 0.023900 0.000000 1.807890 
# 
# From -- ./inp_files/325699.got.cif
#   From: 2010.06.25/outbox.cif.g09.slc.cpg/sg12_163_cif.got.tgz:325699.got - 2010.06.28 00:19:55.
