data_PCOD8095917
_publ_section_title
;
Structure prediction by ZEFSAII (Michael W. Deem and Ramdas Pophale) SiO2 
 PCOD8095917
Probable space group: C 2/M
;
_chemical_formula_sum "Si O2"
_cell_formula_units_Z 56
_cell_length_a 27.324598
_cell_length_b 14.067822
_cell_length_c 9.272507
_cell_angle_alpha 90.000000
_cell_angle_beta 55.696544
_cell_angle_gamma 90.000000
_cell_volume 2944.365162
_symmetry_space_group_name_H-M "C 2/M"
_symmetry_group_IT_number 12
_symmetry_cell_setting 'monoclinic'
loop_
_space_group_symop_operation_xyz
x,y,z
-x,y,-z
-x,-y,-z
x,-y,z
1/2+x,1/2+y,z
1/2-x,1/2+y,-z
1/2-x,1/2-y,-z
1/2+x,1/2-y,z
loop_
_atom_site_type_symbol
_atom_site_label
_atom_site_fract_x
_atom_site_fract_y
_atom_site_fract_z
Si Si1 0.704278 0.714425 0.836238
Si Si2 0.007025 0.108494 0.152746
Si Si3 0.680014 0.396382 0.597070
Si Si4 0.381226 0.607442 0.848958
Si Si5 0.444888 0.718816 0.503501
Si Si6 0.660836 0.214999 0.463434
Si Si7 0.815265 0.604174 0.296967
O O1 0.680672 0.639789 0.758624
O O2 0.775835 0.711211 0.723247
O O3 0.677366 0.818770 0.843301
O O4 0.675732 0.677179 0.033227
O O5 0.966869 0.175729 0.317051
O O6 0.075500 0.117376 0.085442
O O7 0.985287 0.000000 0.205492
O O8 0.000000 0.143579 0.000000
O O9 0.648264 0.500000 0.642775
O O10 0.648610 0.321019 0.545499
O O11 0.746388 0.406242 0.434319
O O12 0.358215 0.500000 0.867857
O O13 0.416247 0.635357 0.646850
O O14 0.500000 0.765426 0.500000
O O15 0.394353 0.799303 0.554970
O O16 0.656021 0.139359 0.600557
O O17 0.842226 0.500000 0.211156
#
# Coordination Sequence:
#
# PCOD8095917 Si02
#       7
#     8   8   8   8   8   8   8
#     4   9  17  29  48  78 107 135 174 216 264 321
#     4   9  19  33  51  76 103 138 181 214 248 310
#     4   8  14  25  44  73 105 133 162 206 263 319
#     4  10  20  33  50  76 115 150 170 205 258 316
#     4  10  21  36  50  70 106 149 183 212 254 308
#     4   9  18  30  50  75 102 138 180 219 263 315
#     4   8  15  29  48  73 103 130 165 221 274 307
#
# _framework density 19.019379000000001
#
# number of rings (size 3 to 8) (size 9 to 14) (size 15 to 20)
#    0.000    3.000    0.000    2.571    4.000    4.000 
#    0.000    0.000    0.000    1.286    0.000    7.000 
#    0.000    0.000    0.000    0.000    0.000    0.000 
#
# Total GULP energy -346932.626851 kJ/mol
# GULP energy per Si atom -12390.450959 kJ/mol
# Density = 1.897609 g / cm^3
# Si number density = 19.019379 Si / 1000 Ang^3
#
#
#
# Elastic Constant Matrix: (Units=GPa)
#
#
# Indices 1 2 3 4 5 6 
#
# 1 104.4172 21.3645 33.4769 0.0000 -7.3495 0.0000
# 2 21.3645 98.5413 20.7144 0.0000 -6.1011 0.0000
# 3 33.4769 20.7144 73.2105 0.0000 -1.2974 0.0000
# 4 0.0000 0.0000 0.0000 18.6643 0.0000 -0.9634
# 5 -7.3495 -6.1011 -1.2974 0.0000 21.8222 0.0000
# 6 0.0000 0.0000 0.0000 -0.9634 0.0000 17.3060
#
#
#
# Elastic Compliance Matrix: (Units=1/GPa)
#
#
# Indices 1 2 3 4 5 6 
#
# 1 0.011642 -0.001292 -0.004900 0.000000 0.003269 0.000000
# 2 -0.001292 0.011112 -0.002509 0.000000 0.002522 0.000000
# 3 -0.004900 -0.002509 0.016586 0.000000 -0.001366 0.000000
# 4 0.000000 0.000000 0.000000 0.053732 0.000000 0.002991
# 5 0.003269 0.002522 -0.001366 0.000000 0.047550 0.000000
# 6 0.000000 0.000000 0.000000 0.002991 0.000000 0.057950
#
#
# Mechanical properties :
#
#
# Convention : Reuss Voigt Hill
#
# Bulk Modulus (GPa) = 45.58221 47.47561 46.52891
# Shear Modulus (GPa) = 22.39283 24.93272 23.66277
#
# Velocity S-wave (km/s) = 3.43500 3.62458 3.53106
# Velocity P-wave (km/s) = 6.30480 6.52171 6.41417
#
# Compressibility (1/GPa) = 0.02193838
#
# Stress axis : x y z
#
# Youngs Moduli (GPa) = 85.89307 89.99613 60.29332
#
# Poissons Ratio (x) = 0.11625 0.29546
# Poissons Ratio (y) = 0.11095 0.15125
# Poissons Ratio (z) = 0.42090 0.22576
#
# Static dielectric constant tensor:
#      x y z
#    x 3.475340 0.000000 -0.006270 
#    y 0.000000 4.010750 0.000000 
#    z -0.006270 0.000000 3.260950 
# 
# 
# High freq. dielectric constant tensor:
#      x y z
#    x 1.731300 0.000000 -0.001250 
#    y 0.000000 1.708810 0.000000 
#    z -0.001250 0.000000 1.725640 
# 
# From -- ./inp_files/104720.got.cif
#   From: 2010.06.25/outbox.cif.g09.slc.cpg/sg12_53_cif.got.tgz:104720.got - 2010.06.28 00:19:55.
