data_PCOD8095537
_publ_section_title
;
Structure prediction by ZEFSAII (Michael W. Deem and Ramdas Pophale) SiO2 
 PCOD8095537
Probable space group: C 2/M
;
_chemical_formula_sum "Si O2"
_cell_formula_units_Z 48
_cell_length_a 19.337235
_cell_length_b 18.661770
_cell_length_c 15.024141
_cell_angle_alpha 90.000000
_cell_angle_beta 152.346097
_cell_angle_gamma 90.000000
_cell_volume 2516.379188
_symmetry_space_group_name_H-M "C 2/M"
_symmetry_group_IT_number 12
_symmetry_cell_setting 'monoclinic'
loop_
_space_group_symop_operation_xyz
x,y,z
-x,y,-z
-x,-y,-z
x,-y,z
1/2+x,1/2+y,z
1/2-x,1/2+y,-z
1/2-x,1/2-y,-z
1/2+x,1/2-y,z
loop_
_atom_site_type_symbol
_atom_site_label
_atom_site_fract_x
_atom_site_fract_y
_atom_site_fract_z
Si Si1 0.701486 0.726626 0.041244
Si Si2 0.650511 0.081658 0.225078
Si Si3 0.331156 0.918844 0.549542
Si Si4 0.863805 0.792370 0.692638
Si Si5 0.015700 0.654037 0.612370
Si Si6 0.719608 0.721892 0.683519
O O1 0.739460 0.780834 0.165410
O O2 0.805771 0.658167 0.176094
O O3 0.750000 0.750000 0.000000
O O4 0.527920 0.710508 0.840599
O O5 0.611545 0.091755 0.284600
O O6 0.782417 0.137879 0.348978
O O7 0.705283 0.000000 0.268597
O O8 0.500000 0.099173 0.000000
O O9 0.180391 0.875653 0.357954
O O10 0.460890 0.891517 0.632778
O O11 0.292620 0.000000 0.483542
O O12 0.750000 0.750000 0.500000
O O13 0.852858 0.760475 0.779776
O O14 0.932402 0.733151 0.511262
O O15 0.000000 0.613348 0.500000
#
# Coordination Sequence:
#
# PCOD8095537 Si02
#       6
#     8   8   8   8   8   8
#     4  11  22  33  56  88 112 145 186 240 290 330
#     4  10  20  32  54  85 113 148 195 235 273 329
#     4  10  21  37  60  84 114 153 192 234 281 340
#     4  11  20  36  59  83 111 149 196 235 277 331
#     4   9  21  38  56  85 115 145 189 236 294 337
#     4  10  20  36  59  82 113 149 192 239 278 337
#
# _framework density 19.075026999999999
#
# number of rings (size 3 to 8) (size 9 to 14) (size 15 to 20)
#    0.000    1.833    1.667    3.500    2.333    0.333 
#    0.000    0.833    0.000   18.500    0.000    0.000 
#    0.000    0.000    0.000    0.000    0.000    0.000 
#
# Total GULP energy -297318.894097 kJ/mol
# GULP energy per Si atom -12388.287254 kJ/mol
# Density = 1.903161 g / cm^3
# Si number density = 19.075027 Si / 1000 Ang^3
#
#
#
# Elastic Constant Matrix: (Units=GPa)
#
#
# Indices 1 2 3 4 5 6 
#
# 1 152.1608 47.9509 59.2307 0.0000 -6.4958 0.0000
# 2 47.9509 118.4946 33.6268 0.0000 -3.9909 0.0000
# 3 59.2307 33.6268 92.3164 0.0000 5.5591 0.0000
# 4 0.0000 0.0000 0.0000 14.1263 0.0000 -4.4196
# 5 -6.4958 -3.9909 5.5591 0.0000 47.1705 0.0000
# 6 0.0000 0.0000 0.0000 -4.4196 0.0000 26.4944
#
#
#
# Elastic Compliance Matrix: (Units=1/GPa)
#
#
# Indices 1 2 3 4 5 6 
#
# 1 0.009431 -0.002243 -0.005339 0.000000 0.001738 0.000000
# 2 -0.002243 0.010014 -0.002257 0.000000 0.000804 0.000000
# 3 -0.005339 -0.002257 0.015244 0.000000 -0.002723 0.000000
# 4 0.000000 0.000000 0.000000 0.074688 0.000000 0.012459
# 5 0.001738 0.000804 -0.002723 0.000000 0.021828 0.000000
# 6 0.000000 0.000000 0.000000 0.012459 0.000000 0.039822
#
#
# Mechanical properties :
#
#
# Convention : Reuss Voigt Hill
#
# Bulk Modulus (GPa) = 66.61455 71.62096 69.11775
# Shear Modulus (GPa) = 25.54809 32.36914 28.95861
#
# Velocity S-wave (km/s) = 3.66368 4.12386 3.90056
# Velocity P-wave (km/s) = 7.27289 7.76553 7.52324
#
# Compressibility (1/GPa) = 0.01501174
#
# Stress axis : x y z
#
# Youngs Moduli (GPa) = 106.03088 99.85532 65.60007
#
# Poissons Ratio (x) = 0.22397 0.35023
# Poissons Ratio (y) = 0.23782 0.14807
# Poissons Ratio (z) = 0.56608 0.22540
#
# Static dielectric constant tensor:
#      x y z
#    x 3.923860 0.000000 -0.139620 
#    y 0.000000 3.491390 0.000000 
#    z -0.139620 0.000000 3.102580 
# 
# 
# High freq. dielectric constant tensor:
#      x y z
#    x 1.762970 0.000000 -0.020520 
#    y 0.000000 1.713380 0.000000 
#    z -0.020520 0.000000 1.735270 
# 
# From -- ./inp_files/234347.got.cif
#   From: 2010.06.25/outbox.cif.g09.slc.cpg/sg12_118_cif.got.tgz:234347.got - 2010.06.28 00:19:55.
