data_PCOD8095032
_publ_section_title
;
Structure prediction by ZEFSAII (Michael W. Deem and Ramdas Pophale) SiO2 
 PCOD8095032
Probable space group: C 2/M
;
_chemical_formula_sum "Si O2"
_cell_formula_units_Z 64
_cell_length_a 15.957000
_cell_length_b 14.528163
_cell_length_c 19.025270
_cell_angle_alpha 90.000000
_cell_angle_beta 51.773294
_cell_angle_gamma 90.000000
_cell_volume 3464.789648
_symmetry_space_group_name_H-M "C 2/M"
_symmetry_group_IT_number 12
_symmetry_cell_setting 'monoclinic'
loop_
_space_group_symop_operation_xyz
x,y,z
-x,y,-z
-x,-y,-z
x,-y,z
1/2+x,1/2+y,z
1/2-x,1/2+y,-z
1/2-x,1/2-y,-z
1/2+x,1/2-y,z
loop_
_atom_site_type_symbol
_atom_site_label
_atom_site_fract_x
_atom_site_fract_y
_atom_site_fract_z
Si Si1 0.887633 0.222269 0.163158
Si Si2 0.158661 0.715434 0.236203
Si Si3 0.184291 0.605770 0.089846
Si Si4 0.499377 0.896934 0.082097
Si Si5 0.898672 0.394190 0.594207
Si Si6 0.548152 0.602808 0.255611
Si Si7 0.418633 0.604922 0.927741
Si Si8 0.170435 0.897315 0.679136
O O1 0.787098 0.216724 0.163507
O O2 0.917100 0.328354 0.161932
O O3 0.851188 0.182380 0.255348
O O4 0.990536 0.166053 0.080685
O O5 0.125253 0.663873 0.181739
O O6 0.117213 0.661677 0.325812
O O7 0.111270 0.818864 0.265208
O O8 0.188027 0.500000 0.112728
O O9 0.117016 0.616338 0.053173
O O10 0.302908 0.641948 0.010938
O O11 0.456978 0.000000 0.116650
O O12 0.500000 0.871794 0.000000
O O13 0.919441 0.500000 0.604651
O O14 0.795764 0.386740 0.594608
O O15 0.000000 0.353559 0.500000
O O16 0.584943 0.500000 0.261009
O O17 0.570729 0.615251 0.161429
O O18 0.418809 0.613504 0.336065
O O19 0.434762 0.500000 0.943130
O O20 0.153795 0.000000 0.721451
#
# Coordination Sequence:
#
# PCOD8095032 Si02
#       8
#     8   8   8   8   8   8   8   8
#     4  10  20  31  49  72 100 134 169 211 260 300
#     4  11  22  32  52  82 105 130 171 221 262 305
#     4  10  21  35  51  73 102 134 172 224 264 297
#     4  10  23  38  49  64  96 142 187 220 250 296
#     4   9  18  35  58  81 107 135 162 201 264 334
#     4   9  18  32  50  72 101 139 178 212 245 292
#     4   9  19  34  52  72 100 138 176 211 258 312
#     4   8  15  32  55  77 102 130 165 207 254 311
#
# _framework density 18.471540000000001
#
# number of rings (size 3 to 8) (size 9 to 14) (size 15 to 20)
#    0.000    2.500    0.000    3.000    3.500    3.000 
#    0.000    1.875    0.000    0.375    0.000    0.000 
#    0.000    0.000    0.000    0.000    0.000    0.000 
#
# Total GULP energy -396509.034274 kJ/mol
# GULP energy per Si atom -12390.907321 kJ/mol
# Density = 1.842950 g / cm^3
# Si number density = 18.471540 Si / 1000 Ang^3
#
#
#
# Elastic Constant Matrix: (Units=GPa)
#
#
# Indices 1 2 3 4 5 6 
#
# 1 103.6555 55.7257 46.1855 0.0000 -12.2185 0.0000
# 2 55.7257 111.8702 37.5616 0.0000 -10.7208 0.0000
# 3 46.1855 37.5616 70.0123 0.0000 -19.4043 0.0000
# 4 0.0000 0.0000 0.0000 13.4078 0.0000 -4.2151
# 5 -12.2185 -10.7208 -19.4043 0.0000 19.7067 0.0000
# 6 0.0000 0.0000 0.0000 -4.2151 0.0000 26.9693
#
#
#
# Elastic Compliance Matrix: (Units=1/GPa)
#
#
# Indices 1 2 3 4 5 6 
#
# 1 0.015946 -0.005383 -0.007843 0.000000 -0.000764 0.000000
# 2 -0.005383 0.012721 -0.003137 0.000000 0.000494 0.000000
# 3 -0.007843 -0.003137 0.026570 0.000000 0.019593 0.000000
# 4 0.000000 0.000000 0.000000 0.078438 0.000000 0.012259
# 5 -0.000764 0.000494 0.019593 0.000000 0.069832 0.000000
# 6 0.000000 0.000000 0.000000 0.012259 0.000000 0.038995
#
#
# Mechanical properties :
#
#
# Convention : Reuss Voigt Hill
#
# Bulk Modulus (GPa) = 44.42143 62.72039 53.57091
# Shear Modulus (GPa) = 17.68466 21.75443 19.71955
#
# Velocity S-wave (km/s) = 3.09755 3.43553 3.27090
# Velocity P-wave (km/s) = 6.07403 7.05450 6.58255
#
# Compressibility (1/GPa) = 0.02251166
#
# Stress axis : x y z
#
# Youngs Moduli (GPa) = 62.71303 78.61093 37.63603
#
# Poissons Ratio (x) = 0.42315 0.29518
# Poissons Ratio (y) = 0.33758 0.11806
# Poissons Ratio (z) = 0.49185 0.24659
#
# Static dielectric constant tensor:
#      x y z
#    x 3.696930 0.000000 -0.347770 
#    y 0.000000 3.556910 0.000000 
#    z -0.347770 0.000000 2.993760 
# 
# 
# High freq. dielectric constant tensor:
#      x y z
#    x 1.722500 0.000000 -0.023230 
#    y 0.000000 1.726360 0.000000 
#    z -0.023230 0.000000 1.661580 
# 
# From -- ./inp_files/270252.got.cif
#   From: 2010.06.25/outbox.cif.g09.slc.cpg/sg12_136_cif.got.tgz:270252.got - 2010.06.28 00:19:55.
