data_PCOD8095500
_publ_section_title
;
Structure prediction by ZEFSAII (Michael W. Deem and Ramdas Pophale) SiO2 
 PCOD8095500
Probable space group: C 2/M
;
_chemical_formula_sum "Si O2"
_cell_formula_units_Z 56
_cell_length_a 28.683077
_cell_length_b 13.307491
_cell_length_c 15.979893
_cell_angle_alpha 90.000000
_cell_angle_beta 150.813984
_cell_angle_gamma 90.000000
_cell_volume 2974.411020
_symmetry_space_group_name_H-M "C 2/M"
_symmetry_group_IT_number 12
_symmetry_cell_setting 'monoclinic'
loop_
_space_group_symop_operation_xyz
x,y,z
-x,y,-z
-x,-y,-z
x,-y,z
1/2+x,1/2+y,z
1/2-x,1/2+y,-z
1/2-x,1/2-y,-z
1/2+x,1/2-y,z
loop_
_atom_site_type_symbol
_atom_site_label
_atom_site_fract_x
_atom_site_fract_y
_atom_site_fract_z
Si Si1 0.759252 0.256859 0.723586
Si Si2 0.133668 0.614838 0.638790
Si Si3 0.612356 0.614364 0.175847
Si Si4 0.233502 0.117263 0.527142
Si Si5 0.588011 0.113411 0.745016
Si Si6 0.450040 0.118406 0.838226
Si Si7 0.606337 0.880169 0.955955
O O1 0.684819 0.188858 0.655793
O O2 0.843717 0.184672 0.825686
O O3 0.707073 0.315509 0.566170
O O4 0.802177 0.341186 0.851143
O O5 0.173133 0.500000 0.693531
O O6 0.141986 0.658048 0.747571
O O7 0.024374 0.615430 0.442485
O O8 0.638664 0.500000 0.194486
O O9 0.655867 0.641746 0.334672
O O10 0.500000 0.632023 0.000000
O O11 0.338972 0.150626 0.659389
O O12 0.232689 0.000000 0.550895
O O13 0.624280 0.000000 0.808282
O O14 0.611658 0.167148 0.870541
O O15 0.457318 0.000000 0.855645
O O16 0.500000 0.164938 0.000000
O O17 0.507798 0.155454 0.846817
O O18 0.610115 0.000000 0.959881
#
# Coordination Sequence:
#
# PCOD8095500 Si02
#       7
#     8   8   8   8   8   8   8
#     4  12  22  31  55  82 107 139 178 222 265 321
#     4   9  19  36  55  79 105 136 178 222 268 319
#     4  10  24  41  51  68 108 155 190 216 250 316
#     4  10  21  37  55  77 108 145 181 225 271 312
#     4   8  17  36  58  76 104 135 170 228 283 316
#     4   9  16  29  50  77 109 134 166 216 270 317
#     4  10  20  32  52  82 109 137 170 219 279 320
#
# _framework density 18.827256999999999
#
# number of rings (size 3 to 8) (size 9 to 14) (size 15 to 20)
#    0.000    2.286    1.429    2.143    4.000    1.714 
#    0.000    0.000    0.000    0.000    0.000    8.000 
#    0.000    0.000    0.000    0.000    0.000    0.000 
#
# Total GULP energy -347015.395890 kJ/mol
# GULP energy per Si atom -12393.406996 kJ/mol
# Density = 1.878440 g / cm^3
# Si number density = 18.827257 Si / 1000 Ang^3
#
#
#
# Elastic Constant Matrix: (Units=GPa)
#
#
# Indices 1 2 3 4 5 6 
#
# 1 99.5458 43.4332 33.1250 0.0000 -9.6197 0.0000
# 2 43.4332 59.8390 12.1718 0.0000 -2.4341 0.0000
# 3 33.1250 12.1718 101.6370 0.0000 -11.8347 0.0000
# 4 0.0000 0.0000 0.0000 -3.3644 0.0000 -4.8161
# 5 -9.6197 -2.4341 -11.8347 0.0000 26.1448 0.0000
# 6 0.0000 0.0000 0.0000 -4.8161 0.0000 25.3255
#
#
#
# Elastic Compliance Matrix: (Units=1/GPa)
#
#
# Indices 1 2 3 4 5 6 
#
# 1 0.016385 -0.011018 -0.003629 0.000000 0.003360 0.000000
# 2 -0.011018 0.024550 0.000470 0.000000 -0.001556 0.000000
# 3 -0.003629 0.000470 0.011417 0.000000 0.003876 0.000000
# 4 0.000000 0.000000 0.000000 -0.233630 0.000000 -0.044429
# 5 0.003360 -0.001556 0.003876 0.000000 0.041095 0.000000
# 6 0.000000 0.000000 0.000000 -0.044429 0.000000 0.031037
#
#
# Mechanical properties :
#
#
# Convention : Reuss Voigt Hill
#
# Bulk Modulus (GPa) = 41.67244 48.72018 45.19631
# Shear Modulus (GPa) = -68.68953 21.10731 -23.79111
#
# Velocity S-wave (km/s) = -6.04676 3.35192 -3.55865
# Velocity P-wave (km/s) = 5.15450 6.39642 2.67817
#
# Compressibility (1/GPa) = 0.02399667
#
# Stress axis : x y z
#
# Youngs Moduli (GPa) = 61.02970 40.73316 87.58908
#
# Poissons Ratio (x) = 0.44880 0.31790
# Poissons Ratio (y) = 0.67244 -0.04115
# Poissons Ratio (z) = 0.22151 -0.01914
#
# Static dielectric constant tensor:
#      x y z
#    x 3.843790 0.000000 -0.252070 
#    y 0.000000 3.462350 0.000000 
#    z -0.252070 0.000000 3.386190 
# 
# 
# High freq. dielectric constant tensor:
#      x y z
#    x 1.728210 0.000000 -0.016580 
#    y 0.000000 1.722050 0.000000 
#    z -0.016580 0.000000 1.722760 
# 
# From -- ./inp_files/246552.got.cif
#   From: 2010.06.25/outbox.cif.g09.slc.cpg/sg12_124_cif.got.tgz:246552.got - 2010.06.28 00:19:55.
