data_PCOD8095003
_publ_section_title
;
Structure prediction by ZEFSAII (Michael W. Deem and Ramdas Pophale) SiO2 
 PCOD8095003
Probable space group: C 2/M
;
_chemical_formula_sum "Si O2"
_cell_formula_units_Z 40
_cell_length_a 19.235201
_cell_length_b 9.514456
_cell_length_c 27.103801
_cell_angle_alpha 90.000000
_cell_angle_beta 27.775966
_cell_angle_gamma 90.000000
_cell_volume 2311.592581
_symmetry_space_group_name_H-M "C 2/M"
_symmetry_group_IT_number 12
_symmetry_cell_setting 'monoclinic'
loop_
_space_group_symop_operation_xyz
x,y,z
-x,y,-z
-x,-y,-z
x,-y,z
1/2+x,1/2+y,z
1/2-x,1/2+y,-z
1/2-x,1/2-y,-z
1/2+x,1/2-y,z
loop_
_atom_site_type_symbol
_atom_site_label
_atom_site_fract_x
_atom_site_fract_y
_atom_site_fract_z
Si Si1 0.838251 0.167032 0.590745
Si Si2 0.402824 0.833998 0.013452
Si Si3 0.803452 0.339022 0.421057
Si Si4 0.613710 0.162556 0.177057
Si Si5 0.957188 0.333166 0.176494
O O1 0.792946 0.213363 0.564629
O O2 0.711550 0.223592 0.708340
O O3 0.000000 0.234654 0.500000
O O4 0.845345 0.000000 0.590439
O O5 0.245722 0.756467 0.115739
O O6 0.373901 0.000000 0.029294
O O7 0.500000 0.793026 0.000000
O O8 0.486752 0.778791 0.911584
O O9 0.768736 0.500000 0.454773
O O10 0.750000 0.250000 0.500000
O O11 0.977681 0.317636 0.300330
O O12 0.566784 0.217187 0.151825
O O13 0.663605 0.000000 0.143414
O O14 0.952816 0.500000 0.181223
#
# Coordination Sequence:
#
# PCOD8095003 Si02
#       5
#     8   8   8   8   8
#     4   8  14  26  46  69  91 120 156 188 223 271
#     4  10  20  31  46  72  99 119 148 196 243 273
#     4   9  18  31  48  71  95 121 155 193 231 272
#     4   9  18  33  50  66  90 127 163 188 220 277
#     4   8  15  29  46  65  92 123 155 189 223 269
#
# _framework density 17.304086999999999
#
# number of rings (size 3 to 8) (size 9 to 14) (size 15 to 20)
#    0.000    3.200    0.000    3.000    0.000    2.800 
#    0.000    4.000    0.000    1.800    0.000    0.000 
#    0.000    0.000    0.000    0.000    0.000    0.000 
#
# Total GULP energy -247902.360130 kJ/mol
# GULP energy per Si atom -12395.118007 kJ/mol
# Density = 1.726470 g / cm^3
# Si number density = 17.304087 Si / 1000 Ang^3
#
#
#
# Elastic Constant Matrix: (Units=GPa)
#
#
# Indices 1 2 3 4 5 6 
#
# 1 114.2548 34.5873 78.4418 -0.0001 -2.6577 0.0000
# 2 34.5873 29.0849 37.9584 0.0005 0.4195 -0.0002
# 3 78.4418 37.9584 115.4328 0.0025 -5.7467 -0.0001
# 4 -0.0001 0.0005 0.0025 27.1343 -0.0003 0.7639
# 5 -2.6577 0.4195 -5.7467 -0.0003 39.0072 -0.0001
# 6 0.0000 -0.0002 -0.0001 0.7639 -0.0001 18.3018
#
#
#
# Elastic Compliance Matrix: (Units=1/GPa)
#
#
# Indices 1 2 3 4 5 6 
#
# 1 0.017764 -0.009406 -0.008979 0.000001 -0.000011 0.000000
# 2 -0.009406 0.065715 -0.015397 0.000000 -0.003616 0.000001
# 3 -0.008979 -0.015397 0.019952 -0.000002 0.002493 0.000000
# 4 0.000001 0.000000 -0.000002 0.036897 0.000000 -0.001540
# 5 -0.000011 -0.003616 0.002493 0.000000 0.026042 0.000000
# 6 0.000000 0.000001 0.000000 -0.001540 0.000000 0.054704
#
#
# Mechanical properties :
#
#
# Convention : Reuss Voigt Hill
#
# Bulk Modulus (GPa) = 27.88174 62.30530 45.09352
# Shear Modulus (GPa) = 16.63371 24.07432 20.35402
#
# Velocity S-wave (km/s) = 3.10378 3.73399 3.43338
# Velocity P-wave (km/s) = 5.38446 7.39422 6.46788
#
# Compressibility (1/GPa) = 0.03586577
#
# Stress axis : x y z
#
# Youngs Moduli (GPa) = 56.29331 15.21720 50.12022
#
# Poissons Ratio (x) = 0.14314 0.45003
# Poissons Ratio (y) = 0.52951 0.77172
# Poissons Ratio (z) = 0.50546 0.23431
#
# Static dielectric constant tensor:
#      x y z
#    x 3.298970 0.000000 -0.049260 
#    y 0.000000 2.773790 0.000000 
#    z -0.049260 0.000000 3.591310 
# 
# 
# High freq. dielectric constant tensor:
#      x y z
#    x 1.668350 0.000000 0.000090 
#    y 0.000000 1.622200 0.000000 
#    z 0.000090 0.000000 1.680550 
# 
# From -- ./inp_files/152684.got.cif
#   From: 2010.06.25/outbox.cif.g09.slc.cpg/sg12_77_cif.got.tgz:152684.got - 2010.06.28 00:19:55.
