data_PCOD8095287
_publ_section_title
;
Structure prediction by ZEFSAII (Michael W. Deem and Ramdas Pophale) SiO2 
 PCOD8095287
Probable space group: C 2/M
;
_chemical_formula_sum "Si O2"
_cell_formula_units_Z 48
_cell_length_a 15.339412
_cell_length_b 8.907258
_cell_length_c 20.346921
_cell_angle_alpha 90.000000
_cell_angle_beta 111.839032
_cell_angle_gamma 90.000000
_cell_volume 2580.526185
_symmetry_space_group_name_H-M "C 2/M"
_symmetry_group_IT_number 12
_symmetry_cell_setting 'monoclinic'
loop_
_space_group_symop_operation_xyz
x,y,z
-x,y,-z
-x,-y,-z
x,-y,z
1/2+x,1/2+y,z
1/2-x,1/2+y,-z
1/2-x,1/2-y,-z
1/2+x,1/2-y,z
loop_
_atom_site_type_symbol
_atom_site_label
_atom_site_fract_x
_atom_site_fract_y
_atom_site_fract_z
Si Si1 0.503443 0.822173 0.830232
Si Si2 0.792495 0.322505 0.076176
Si Si3 0.691299 0.173748 0.167040
Si Si4 0.729866 0.326578 0.667658
Si Si5 0.571774 0.178346 0.326410
Si Si6 0.961802 0.321932 0.420443
O O1 0.601302 0.759730 0.885918
O O2 0.417249 0.777245 0.853506
O O3 0.486003 0.756079 0.752135
O O4 0.507234 0.000000 0.825574
O O5 0.791667 0.500000 0.067875
O O6 0.732156 0.278905 0.122418
O O7 0.750000 0.250000 0.000000
O O8 0.749001 0.201560 0.249866
O O9 0.697899 0.000000 0.147423
O O10 0.705576 0.500000 0.648449
O O11 0.819232 0.275322 0.649182
O O12 0.644703 0.225496 0.620213
O O13 0.527424 0.244585 0.380722
O O14 0.564525 0.000000 0.323137
O O15 0.966396 0.500000 0.421650
O O16 0.000000 0.256866 0.500000
#
# Coordination Sequence:
#
# PCOD8095287 Si02
#       6
#     8   8   8   8   8   8
#     4   8  16  32  54  73  93 130 172 203 243 306
#     4  11  22  35  52  76 105 137 168 201 246 297
#     4   9  18  35  56  76  96 124 168 214 251 294
#     4   9  18  33  54  75  96 127 167 211 254 297
#     4   8  15  31  52  72  96 129 168 206 249 302
#     4  10  20  32  48  73 105 138 170 206 248 296
#
# _framework density 18.600856
#
# number of rings (size 3 to 8) (size 9 to 14) (size 15 to 20)
#    0.000    2.833    0.000    3.500    0.000    3.667 
#    0.000    5.833    0.000    3.000    0.000    0.000 
#    0.000    0.000    0.000    0.000    0.000    0.000 
#
# Total GULP energy -297541.914802 kJ/mol
# GULP energy per Si atom -12397.579783 kJ/mol
# Density = 1.855852 g / cm^3
# Si number density = 18.600856 Si / 1000 Ang^3
#
#
#
# Elastic Constant Matrix: (Units=GPa)
#
#
# Indices 1 2 3 4 5 6 
#
# 1 148.8706 24.4070 83.5731 0.0000 6.8407 0.0000
# 2 24.4070 26.6219 25.8741 0.0000 -1.4999 0.0000
# 3 83.5731 25.8741 111.2057 0.0000 5.8036 0.0000
# 4 0.0000 0.0000 0.0000 24.0705 0.0000 2.7177
# 5 6.8407 -1.4999 5.8036 0.0000 13.3183 0.0000
# 6 0.0000 0.0000 0.0000 2.7177 0.0000 28.6221
#
#
#
# Elastic Compliance Matrix: (Units=1/GPa)
#
#
# Indices 1 2 3 4 5 6 
#
# 1 0.011894 -0.003278 -0.008020 0.000000 -0.002983 0.000000
# 2 -0.003278 0.050959 -0.010008 0.000000 0.011784 0.000000
# 3 -0.008020 -0.010008 0.017592 0.000000 -0.004674 0.000000
# 4 0.000000 0.000000 0.000000 0.041995 0.000000 -0.003987
# 5 -0.002983 0.011784 -0.004674 0.000000 0.079981 0.000000
# 6 0.000000 0.000000 0.000000 -0.003987 0.000000 0.035317
#
#
# Mechanical properties :
#
#
# Convention : Reuss Voigt Hill
#
# Bulk Modulus (GPa) = 26.43203 61.60077 44.01640
# Shear Modulus (GPa) = 17.06708 23.39177 20.22942
#
# Velocity S-wave (km/s) = 3.03238 3.55006 3.30139
# Velocity P-wave (km/s) = 5.14795 7.07057 6.18443
#
# Compressibility (1/GPa) = 0.03783289
#
# Stress axis : x y z
#
# Youngs Moduli (GPa) = 84.07464 19.62355 56.84272
#
# Poissons Ratio (x) = 0.06432 0.45590
# Poissons Ratio (y) = 0.27556 0.56891
# Poissons Ratio (z) = 0.67431 0.19640
#
# Static dielectric constant tensor:
#      x y z
#    x 3.775170 0.000000 -0.239350 
#    y 0.000000 2.994890 0.000000 
#    z -0.239350 0.000000 4.199270 
# 
# 
# High freq. dielectric constant tensor:
#      x y z
#    x 1.736820 0.000000 -0.000250 
#    y 0.000000 1.682560 0.000000 
#    z -0.000250 0.000000 1.722720 
# 
# From -- ./inp_files/308281.got.cif
#   From: 2010.06.25/outbox.cif.g09.slc.cpg/sg12_155_cif.got.tgz:308281.got - 2010.06.28 00:19:55.
