data_PCOD8095950
_publ_section_title
;
Structure prediction by ZEFSAII (Michael W. Deem and Ramdas Pophale) SiO2 
 PCOD8095950
Probable space group: C 2/M
;
_chemical_formula_sum "Si O2"
_cell_formula_units_Z 56
_cell_length_a 14.457860
_cell_length_b 8.817703
_cell_length_c 29.746086
_cell_angle_alpha 90.000000
_cell_angle_beta 127.012539
_cell_angle_gamma 90.000000
_cell_volume 3028.072648
_symmetry_space_group_name_H-M "C 2/M"
_symmetry_group_IT_number 12
_symmetry_cell_setting 'monoclinic'
loop_
_space_group_symop_operation_xyz
x,y,z
-x,y,-z
-x,-y,-z
x,-y,z
1/2+x,1/2+y,z
1/2-x,1/2+y,-z
1/2-x,1/2-y,-z
1/2+x,1/2-y,z
loop_
_atom_site_type_symbol
_atom_site_label
_atom_site_fract_x
_atom_site_fract_y
_atom_site_fract_z
Si Si1 0.972242 0.819677 0.857517
Si Si2 0.441220 0.820468 0.356911
Si Si3 0.804642 0.327816 0.558609
Si Si4 0.213108 0.321135 0.768102
Si Si5 0.581866 0.175607 0.066318
Si Si6 0.597987 0.326821 0.562622
Si Si7 0.675021 0.819821 0.857453
O O1 0.070005 0.750413 0.854460
O O2 0.846501 0.769208 0.801622
O O3 0.982995 0.755187 0.910974
O O4 0.985843 0.000000 0.863252
O O5 0.571944 0.755398 0.391763
O O6 0.364140 0.747634 0.294311
O O7 0.390716 0.773737 0.390020
O O8 0.438996 0.000000 0.351789
O O9 0.823970 0.500000 0.549722
O O10 0.750000 0.250000 0.500000
O O11 0.723234 0.312797 0.577505
O O12 0.207900 0.500000 0.763048
O O13 0.161548 0.271113 0.801240
O O14 0.703131 0.255175 0.089332
O O15 0.604141 0.000000 0.084340
O O16 0.500000 0.195983 0.000000
O O17 0.500000 0.262644 0.500000
O O18 0.566384 0.500000 0.565917
O O19 0.675346 0.000000 0.863549
#
# Coordination Sequence:
#
# PCOD8095950 Si02
#       7
#     8   8   8   8   8   8   8
#     4  10  20  36  58  81 111 149 186 230 279 327
#     4  10  20  35  55  77 101 134 177 219 263 321
#     4  10  20  33  51  72  98 132 166 206 257 314
#     4   8  18  36  54  76 106 137 175 226 275 320
#     4  10  21  37  57  84 117 151 189 230 272 323
#     4  10  20  34  50  72 104 134 164 211 266 319
#     4  10  20  36  59  83 111 148 186 230 278 326
#
# _framework density 18.49361
#
# number of rings (size 3 to 8) (size 9 to 14) (size 15 to 20)
#    0.000    2.286    1.429    2.143    0.000    3.714 
#    0.000    5.714    0.000    0.000    0.000    0.000 
#    0.000    0.000    0.000    0.000    0.000    0.000 
#
# Total GULP energy -347169.738294 kJ/mol
# GULP energy per Si atom -12398.919225 kJ/mol
# Density = 1.845152 g / cm^3
# Si number density = 18.493610 Si / 1000 Ang^3
#
#
#
# Elastic Constant Matrix: (Units=GPa)
#
#
# Indices 1 2 3 4 5 6 
#
# 1 153.6482 47.9806 72.0965 0.0000 2.5279 0.0000
# 2 47.9806 64.2327 46.2751 0.0000 1.2225 0.0000
# 3 72.0965 46.2751 151.1104 0.0000 0.4854 0.0000
# 4 0.0000 0.0000 0.0000 23.3719 0.0000 -2.5416
# 5 2.5279 1.2225 0.4854 0.0000 17.7203 0.0000
# 6 0.0000 0.0000 0.0000 -2.5416 0.0000 31.7656
#
#
#
# Elastic Compliance Matrix: (Units=1/GPa)
#
#
# Indices 1 2 3 4 5 6 
#
# 1 0.009463 -0.004876 -0.003019 0.000000 -0.000931 0.000000
# 2 -0.004876 0.022514 -0.004566 0.000000 -0.000733 0.000000
# 3 -0.003019 -0.004566 0.009454 0.000000 0.000487 0.000000
# 4 0.000000 0.000000 0.000000 0.043162 0.000000 0.003453
# 5 -0.000931 -0.000733 0.000487 0.000000 0.056602 0.000000
# 6 0.000000 0.000000 0.000000 0.003453 0.000000 0.031757
#
#
# Mechanical properties :
#
#
# Convention : Reuss Voigt Hill
#
# Bulk Modulus (GPa) = 60.56793 77.96619 69.26706
# Shear Modulus (GPa) = 24.58490 28.08084 26.33287
#
# Velocity S-wave (km/s) = 3.65001 3.90090 3.77754
# Velocity P-wave (km/s) = 7.11233 7.90818 7.52079
#
# Compressibility (1/GPa) = 0.01651039
#
# Stress axis : x y z
#
# Youngs Moduli (GPa) = 105.67692 44.41683 105.76978
#
# Poissons Ratio (x) = 0.21658 0.31928
# Poissons Ratio (y) = 0.51530 0.48292
# Poissons Ratio (z) = 0.31899 0.20279
#
# Static dielectric constant tensor:
#      x y z
#    x 3.286720 0.000000 0.075330 
#    y 0.000000 3.357980 0.000000 
#    z 0.075330 0.000000 3.632510 
# 
# 
# High freq. dielectric constant tensor:
#      x y z
#    x 1.725370 0.000000 0.003830 
#    y 0.000000 1.706900 0.000000 
#    z 0.003830 0.000000 1.720240 
# 
# From -- ./inp_files/375144.got.cif
#   From: 2010.06.25/outbox.cif.g09.slc.cpg/sg12_188_cif.got.tgz:375144.got - 2010.06.28 00:19:55.
