data_PCOD8095444
_publ_section_title
;
Structure prediction by ZEFSAII (Michael W. Deem and Ramdas Pophale) SiO2 
 PCOD8095444
Probable space group: C 2/M
;
_chemical_formula_sum "Si O2"
_cell_formula_units_Z 40
_cell_length_a 14.078951
_cell_length_b 7.668751
_cell_length_c 19.907491
_cell_angle_alpha 90.000000
_cell_angle_beta 68.322639
_cell_angle_gamma 90.000000
_cell_volume 1997.364819
_symmetry_space_group_name_H-M "C 2/M"
_symmetry_group_IT_number 12
_symmetry_cell_setting 'monoclinic'
loop_
_space_group_symop_operation_xyz
x,y,z
-x,y,-z
-x,-y,-z
x,-y,z
1/2+x,1/2+y,z
1/2-x,1/2+y,-z
1/2-x,1/2-y,-z
1/2+x,1/2-y,z
loop_
_atom_site_type_symbol
_atom_site_label
_atom_site_fract_x
_atom_site_fract_y
_atom_site_fract_z
Si Si1 0.702196 0.699983 0.911188
Si Si2 0.099142 0.695851 0.811856
Si Si3 0.440757 0.000000 0.411945
Si Si4 0.901521 0.707515 0.933883
Si Si5 0.344139 0.000000 0.583055
Si Si6 0.812123 0.695714 0.347763
O O1 0.716414 0.500000 0.888717
O O2 0.686810 0.801551 0.845567
O O3 0.803429 0.777665 0.919057
O O4 0.606766 0.726780 0.987071
O O5 0.068863 0.500000 0.800498
O O6 0.137702 0.781802 0.732430
O O7 0.000007 0.790063 0.870522
O O8 0.400203 0.827233 0.382243
O O9 0.392186 0.000000 0.497526
O O10 0.564497 0.000000 0.385237
O O11 0.908182 0.500000 0.933709
O O12 0.277132 0.174919 0.606267
O O13 0.766064 0.500000 0.344971
#
# Coordination Sequence:
#
# PCOD8095444 Si02
#       6
#     8   8   4   8   4   8
#     4  10  20  32  51  78 102 141 193 237 281 342
#     4  10  20  36  53  74 109 148 184 232 294 347
#     4   9  22  42  65  99 126 159 212 246 299 383
#     4   9  19  35  52  70 105 148 185 234 290 336
#     4  11  20  42  71  91 126 171 196 252 315 357
#     4   9  22  40  59  94 130 157 205 257 299 370
#
# _framework density 20.026388000000001
#
# number of rings (size 3 to 8) (size 9 to 14) (size 15 to 20)
#    0.600    1.800    0.000    1.800    1.400    5.600 
#    1.800    1.000    0.000    0.000    0.000    0.000 
#    0.000    0.000    0.000    0.000    0.000    0.000 
#
# Total GULP energy -247844.224073 kJ/mol
# GULP energy per Si atom -12392.211204 kJ/mol
# Density = 1.998081 g / cm^3
# Si number density = 20.026388 Si / 1000 Ang^3
#
#
#
# Elastic Constant Matrix: (Units=GPa)
#
#
# Indices 1 2 3 4 5 6 
#
# 1 107.6340 25.7861 47.0236 0.0000 14.0428 0.0000
# 2 25.7861 55.6141 16.7295 0.0000 -5.9562 0.0000
# 3 47.0236 16.7295 116.4131 0.0000 17.6870 0.0000
# 4 0.0000 0.0000 0.0000 17.1221 0.0000 3.3185
# 5 14.0428 -5.9562 17.6870 0.0000 24.2382 0.0000
# 6 0.0000 0.0000 0.0000 3.3185 0.0000 27.6245
#
#
#
# Elastic Compliance Matrix: (Units=1/GPa)
#
#
# Indices 1 2 3 4 5 6 
#
# 1 0.012996 -0.005669 -0.003463 0.000000 -0.006395 0.000000
# 2 -0.005669 0.022529 -0.002573 0.000000 0.010698 0.000000
# 3 -0.003463 -0.002573 0.011416 0.000000 -0.006956 0.000000
# 4 0.000000 0.000000 0.000000 0.059796 0.000000 -0.007183
# 5 -0.006395 0.010698 -0.006956 0.000000 0.052667 0.000000
# 6 0.000000 0.000000 0.000000 -0.007183 0.000000 0.037063
#
#
# Mechanical properties :
#
#
# Convention : Reuss Voigt Hill
#
# Bulk Modulus (GPa) = 42.49827 50.97108 46.73467
# Shear Modulus (GPa) = 21.95657 26.47176 24.21416
#
# Velocity S-wave (km/s) = 3.31476 3.63966 3.48100
# Velocity P-wave (km/s) = 5.99311 6.57039 6.28838
#
# Compressibility (1/GPa) = 0.02353037
#
# Stress axis : x y z
#
# Youngs Moduli (GPa) = 76.94450 44.38651 87.59864
#
# Poissons Ratio (x) = 0.25163 0.30339
# Poissons Ratio (y) = 0.43620 0.22540
# Poissons Ratio (z) = 0.26649 0.11421
#
# Static dielectric constant tensor:
#      x y z
#    x 3.743820 0.000000 -0.043590 
#    y 0.000000 3.288550 0.000000 
#    z -0.043590 0.000000 3.738610 
# 
# 
# High freq. dielectric constant tensor:
#      x y z
#    x 1.775660 0.000000 0.005690 
#    y 0.000000 1.758600 0.000000 
#    z 0.005690 0.000000 1.784620 
# 
# From -- ./inp_files/307935.got.cif
#   From: 2010.06.25/outbox.cif.g09.slc.cpg/sg12_154_cif.got.tgz:307935.got - 2010.06.28 00:19:55.
