data_PCOD8095250
_publ_section_title
;
Structure prediction by ZEFSAII (Michael W. Deem and Ramdas Pophale) SiO2 
 PCOD8095250
Probable space group: C 2/M
;
_chemical_formula_sum "Si O2"
_cell_formula_units_Z 56
_cell_length_a 23.347472
_cell_length_b 8.994506
_cell_length_c 15.072599
_cell_angle_alpha 90.000000
_cell_angle_beta 89.350235
_cell_angle_gamma 90.000000
_cell_volume 3165.026836
_symmetry_space_group_name_H-M "C 2/M"
_symmetry_group_IT_number 12
_symmetry_cell_setting 'monoclinic'
loop_
_space_group_symop_operation_xyz
x,y,z
-x,y,-z
-x,-y,-z
x,-y,z
1/2+x,1/2+y,z
1/2-x,1/2+y,-z
1/2-x,1/2-y,-z
1/2+x,1/2-y,z
loop_
_atom_site_type_symbol
_atom_site_label
_atom_site_fract_x
_atom_site_fract_y
_atom_site_fract_z
Si Si1 0.615267 0.325417 0.479066
Si Si2 0.853440 0.668077 0.778213
Si Si3 0.782017 0.171059 0.639988
Si Si4 0.086989 0.324668 0.663613
Si Si5 0.761898 0.331007 0.909316
Si Si6 0.188982 0.825189 0.740602
Si Si7 0.042410 0.329919 0.330689
O O1 0.604961 0.500000 0.493993
O O2 0.681567 0.294068 0.449701
O O3 0.604315 0.236391 0.568014
O O4 0.570450 0.270392 0.406047
O O5 0.833912 0.500000 0.748556
O O6 0.825123 0.793756 0.719023
O O7 0.828914 0.691454 0.878574
O O8 0.921993 0.683467 0.763300
O O9 0.725406 0.271593 0.653410
O O10 0.763176 0.000000 0.644637
O O11 0.095399 0.500000 0.664939
O O12 0.126918 0.251834 0.738432
O O13 0.021996 0.277303 0.687276
O O14 0.747446 0.500000 0.929191
O O15 0.720744 0.274366 0.830335
O O16 0.750000 0.250000 0.000000
O O17 0.181069 0.000000 0.734309
O O18 0.042840 0.500000 0.365007
#
# Coordination Sequence:
#
# PCOD8095250 Si02
#       7
#     8   8   8   8   8   8   8
#     4  10  20  32  48  71  98 130 168 208 247 284
#     4   8  15  30  50  72  98 127 157 193 239 283
#     4   9  17  30  48  70  95 125 163 203 241 284
#     4  11  22  33  48  70  96 131 170 207 244 280
#     4   9  18  32  54  80 100 120 148 188 239 293
#     4  10  21  36  51  70  98 130 160 194 244 296
#     4   9  18  33  51  70  96 130 170 209 239 275
#
# _framework density 17.693372
#
# number of rings (size 3 to 8) (size 9 to 14) (size 15 to 20)
#    0.000    2.571    0.000    3.000    0.000    8.000 
#    0.000    0.000    0.000    0.857    0.000    6.000 
#    0.000    0.000    0.000    0.000    0.000    0.000 
#
# Total GULP energy -346950.478822 kJ/mol
# GULP energy per Si atom -12391.088529 kJ/mol
# Density = 1.765310 g / cm^3
# Si number density = 17.693372 Si / 1000 Ang^3
#
#
#
# Elastic Constant Matrix: (Units=GPa)
#
#
# Indices 1 2 3 4 5 6 
#
# 1 99.7175 28.0465 54.1357 0.0000 -2.0427 0.0000
# 2 28.0465 57.2228 33.4224 0.0000 0.4536 0.0000
# 3 54.1357 33.4224 93.9550 0.0000 -15.4912 0.0000
# 4 0.0000 0.0000 0.0000 28.5637 0.0000 -0.2992
# 5 -2.0427 0.4536 -15.4912 0.0000 18.4560 0.0000
# 6 0.0000 0.0000 0.0000 -0.2992 0.0000 27.6464
#
#
#
# Elastic Compliance Matrix: (Units=1/GPa)
#
#
# Indices 1 2 3 4 5 6 
#
# 1 0.015468 -0.002228 -0.009086 0.000000 -0.005860 0.000000
# 2 -0.002228 0.023525 -0.008381 0.000000 -0.007859 0.000000
# 3 -0.009086 -0.008381 0.021736 0.000000 0.017445 0.000000
# 4 0.000000 0.000000 0.000000 0.035013 0.000000 0.000379
# 5 -0.005860 -0.007859 0.017445 0.000000 0.068370 0.000000
# 6 0.000000 0.000000 0.000000 0.000379 0.000000 0.036175
#
#
# Mechanical properties :
#
#
# Convention : Reuss Voigt Hill
#
# Bulk Modulus (GPa) = 46.86076 53.56715 50.21395
# Shear Modulus (GPa) = 20.26029 23.95260 22.10644
#
# Velocity S-wave (km/s) = 3.38757 3.68334 3.53855
# Velocity P-wave (km/s) = 6.46864 6.95919 6.71839
#
# Compressibility (1/GPa) = 0.02133982
#
# Stress axis : x y z
#
# Youngs Moduli (GPa) = 64.65160 42.50868 46.00663
#
# Poissons Ratio (x) = 0.09470 0.41801
# Poissons Ratio (y) = 0.14403 0.38556
# Poissons Ratio (z) = 0.58741 0.35624
#
# Static dielectric constant tensor:
#      x y z
#    x 3.595690 0.000000 -0.264350 
#    y 0.000000 3.343640 0.000000 
#    z -0.264350 0.000000 3.051320 
# 
# 
# High freq. dielectric constant tensor:
#      x y z
#    x 1.687220 0.000000 -0.022740 
#    y 0.000000 1.692380 0.000000 
#    z -0.022740 0.000000 1.645180 
# 
# From -- ./inp_files/231026.got.cif
#   From: 2010.06.25/outbox.cif.g09.slc.cpg/sg12_116_cif.got.tgz:231026.got - 2010.06.28 00:19:55.
