data_PCOD8095868
_publ_section_title
;
Structure prediction by ZEFSAII (Michael W. Deem and Ramdas Pophale) SiO2 
 PCOD8095868
Probable space group: C 2/M
;
_chemical_formula_sum "Si O2"
_cell_formula_units_Z 56
_cell_length_a 18.751890
_cell_length_b 9.039419
_cell_length_c 22.713600
_cell_angle_alpha 90.000000
_cell_angle_beta 52.172140
_cell_angle_gamma 90.000000
_cell_volume 3041.024720
_symmetry_space_group_name_H-M "C 2/M"
_symmetry_group_IT_number 12
_symmetry_cell_setting 'monoclinic'
loop_
_space_group_symop_operation_xyz
x,y,z
-x,y,-z
-x,-y,-z
x,-y,z
1/2+x,1/2+y,z
1/2-x,1/2+y,-z
1/2-x,1/2-y,-z
1/2+x,1/2-y,z
loop_
_atom_site_type_symbol
_atom_site_label
_atom_site_fract_x
_atom_site_fract_y
_atom_site_fract_z
Si Si1 0.341771 0.826974 0.435490
Si Si2 0.203339 0.674258 0.297203
Si Si3 0.523240 0.674465 0.857850
Si Si4 0.173997 0.174943 0.000562
Si Si5 0.493478 0.824186 0.569674
Si Si6 0.326195 0.326824 0.130287
Si Si7 0.855597 0.673159 0.292577
O O1 0.250000 0.750000 0.500000
O O2 0.423431 0.762268 0.433916
O O3 0.365135 0.792085 0.356414
O O4 0.329567 0.000000 0.452868
O O5 0.212007 0.500000 0.305214
O O6 0.238147 0.713271 0.213834
O O7 0.263569 0.754740 0.315556
O O8 0.100703 0.730402 0.354288
O O9 0.535901 0.500000 0.841818
O O10 0.421228 0.719022 0.922817
O O11 0.584535 0.730461 0.881389
O O12 0.555981 0.757077 0.782559
O O13 0.188420 0.000000 0.993498
O O14 0.250000 0.250000 0.000000
O O15 0.180392 0.243171 0.931342
O O16 0.500000 0.762074 0.500000
O O17 0.496497 0.000000 0.568089
O O18 0.336112 0.500000 0.116212
O O19 0.852503 0.500000 0.280839
#
# Coordination Sequence:
#
# PCOD8095868 Si02
#       7
#     8   8   8   8   8   8   8
#     4  10  21  35  52  76 103 132 167 206 250 297
#     4   9  17  32  55  76  95 128 171 208 245 293
#     4   9  18  34  55  74  94 130 176 209 241 296
#     4  10  20  33  50  74 103 132 166 211 258 300
#     4   9  17  30  50  74  97 125 165 206 237 279
#     4   8  15  30  53  75  93 123 170 213 242 282
#     4  10  20  33  51  77 106 130 157 203 258 303
#
# _framework density 18.414845
#
# number of rings (size 3 to 8) (size 9 to 14) (size 15 to 20)
#    0.000    2.714    0.000    2.571    0.000    5.714 
#    0.000    6.429    0.000    6.857    0.000    0.000 
#    0.000    0.000    0.000    0.000    0.000    0.000 
#
# Total GULP energy -347167.035056 kJ/mol
# GULP energy per Si atom -12398.822681 kJ/mol
# Density = 1.837293 g / cm^3
# Si number density = 18.414845 Si / 1000 Ang^3
#
#
#
# Elastic Constant Matrix: (Units=GPa)
#
#
# Indices 1 2 3 4 5 6 
#
# 1 160.4962 41.1973 113.0318 0.0000 -3.9283 0.0000
# 2 41.1973 35.8037 48.8152 0.0000 1.3996 -0.0001
# 3 113.0318 48.8152 169.5789 0.0000 -9.6955 0.0000
# 4 0.0000 0.0000 0.0000 24.7031 0.0000 -0.6482
# 5 -3.9283 1.3996 -9.6955 0.0000 35.8838 0.0000
# 6 0.0000 -0.0001 0.0000 -0.6482 0.0000 26.8351
#
#
#
# Elastic Compliance Matrix: (Units=1/GPa)
#
#
# Indices 1 2 3 4 5 6 
#
# 1 0.012242 -0.004815 -0.006791 0.000000 -0.000307 0.000000
# 2 -0.004815 0.048942 -0.011191 0.000000 -0.005460 0.000000
# 3 -0.006791 -0.011191 0.013842 0.000000 0.003433 0.000000
# 4 0.000000 0.000000 0.000000 0.040506 0.000000 0.000979
# 5 -0.000307 -0.005460 0.003433 0.000000 0.028975 0.000000
# 6 0.000000 0.000000 0.000000 0.000979 0.000000 0.037288
#
#
# Mechanical properties :
#
#
# Convention : Reuss Voigt Hill
#
# Bulk Modulus (GPa) = 33.97839 85.77417 59.87628
# Shear Modulus (GPa) = 21.07925 28.34004 24.70964
#
# Velocity S-wave (km/s) = 3.38699 3.92724 3.66708
# Velocity P-wave (km/s) = 5.81269 8.20026 7.10744
#
# Compressibility (1/GPa) = 0.02943047
#
# Stress axis : x y z
#
# Youngs Moduli (GPa) = 81.68616 20.43235 72.24593
#
# Poissons Ratio (x) = 0.09837 0.49065
# Poissons Ratio (y) = 0.39329 0.80854
# Poissons Ratio (z) = 0.55477 0.22867
#
# Static dielectric constant tensor:
#      x y z
#    x 3.536940 0.000000 -0.015120 
#    y 0.000000 3.067950 0.000000 
#    z -0.015120 0.000000 3.814990 
# 
# 
# High freq. dielectric constant tensor:
#      x y z
#    x 1.715650 0.000000 0.000210 
#    y 0.000000 1.676990 0.000000 
#    z 0.000210 0.000000 1.731170 
# 
# From -- ./inp_files/342283.got.cif
#   From: 2010.06.25/outbox.cif.g09.slc.cpg/sg12_172_cif.got.tgz:342283.got - 2010.06.28 00:19:55.
