data_PCOD8095302
_publ_section_title
;
Structure prediction by ZEFSAII (Michael W. Deem and Ramdas Pophale) SiO2 
 PCOD8095302
Probable space group: C 2/M
;
_chemical_formula_sum "Si O2"
_cell_formula_units_Z 64
_cell_length_a 19.495944
_cell_length_b 14.639978
_cell_length_c 13.321092
_cell_angle_alpha 90.000000
_cell_angle_beta 79.880848
_cell_angle_gamma 90.000000
_cell_volume 3742.964948
_symmetry_space_group_name_H-M "C 2/M"
_symmetry_group_IT_number 12
_symmetry_cell_setting 'monoclinic'
loop_
_space_group_symop_operation_xyz
x,y,z
-x,y,-z
-x,-y,-z
x,-y,z
1/2+x,1/2+y,z
1/2-x,1/2+y,-z
1/2-x,1/2-y,-z
1/2+x,1/2-y,z
loop_
_atom_site_type_symbol
_atom_site_label
_atom_site_fract_x
_atom_site_fract_y
_atom_site_fract_z
Si Si1 0.872574 0.101428 0.266846
Si Si2 0.412666 0.103937 0.409668
Si Si3 0.202634 0.251483 0.610250
Si Si4 0.725534 0.600952 0.898747
Si Si5 0.496312 0.396541 0.110140
Si Si6 0.311219 0.767665 0.760735
Si Si7 0.347678 0.398115 0.878969
Si Si8 0.071427 0.394789 0.358724
O O1 0.844275 0.160100 0.368055
O O2 0.818307 0.096853 0.190987
O O3 0.941941 0.149038 0.201935
O O4 0.887260 0.000000 0.306247
O O5 0.351825 0.164544 0.375336
O O6 0.412711 0.116259 0.528497
O O7 0.490990 0.128585 0.351810
O O8 0.395199 0.000000 0.384633
O O9 0.250000 0.250000 0.500000
O O10 0.253730 0.251267 0.691497
O O11 0.757005 0.500000 0.911573
O O12 0.785683 0.674142 0.863349
O O13 0.680043 0.633801 0.005115
O O14 0.467969 0.500000 0.098742
O O15 0.569763 0.395761 0.143653
O O16 0.500000 0.346947 0.000000
O O17 0.325712 0.666577 0.794927
O O18 0.379699 0.820757 0.706671
O O19 0.320623 0.500000 0.861450
O O20 0.088437 0.500000 0.322330
#
# Coordination Sequence:
#
# PCOD8095302 Si02
#       8
#     8   8   8   8   8   8   8   8
#     4   9  18  31  51  77 103 132 169 216 258 303
#     4   9  19  36  56  73  97 132 173 220 266 306
#     4  11  22  35  50  77 107 138 178 217 264 317
#     4   9  17  32  51  73 102 132 170 215 258 304
#     4   9  15  29  52  75 100 132 171 212 257 306
#     4  11  21  32  52  78 107 136 175 218 264 314
#     4  10  20  32  48  74 109 143 167 200 260 325
#     4   9  18  35  57  77  94 125 175 229 269 295
#
# _framework density 17.098745000000001
#
# number of rings (size 3 to 8) (size 9 to 14) (size 15 to 20)
#    0.000    2.375    2.500    1.500    1.750    1.500 
#    0.000    0.000    0.000    0.000    0.000    4.375 
#    0.000   10.000    0.000    0.000    0.000    0.000 
#
# Total GULP energy -396511.635166 kJ/mol
# GULP energy per Si atom -12390.988599 kJ/mol
# Density = 1.705983 g / cm^3
# Si number density = 17.098745 Si / 1000 Ang^3
#
#
#
# Elastic Constant Matrix: (Units=GPa)
#
#
# Indices 1 2 3 4 5 6 
#
# 1 96.5632 58.9237 38.6161 0.0000 -19.9069 0.0000
# 2 58.9237 102.6652 50.0568 0.0000 -11.3909 0.0000
# 3 38.6161 50.0568 68.3414 0.0000 -20.0883 0.0000
# 4 0.0000 0.0000 0.0000 23.9319 0.0000 -1.5185
# 5 -19.9069 -11.3909 -20.0883 0.0000 28.0511 0.0000
# 6 0.0000 0.0000 0.0000 -1.5185 0.0000 31.9220
#
#
#
# Elastic Compliance Matrix: (Units=1/GPa)
#
#
# Indices 1 2 3 4 5 6 
#
# 1 0.017896 -0.008721 -0.001307 0.000000 0.008222 0.000000
# 2 -0.008721 0.019517 -0.011218 0.000000 -0.006298 0.000000
# 3 -0.001307 -0.011218 0.027836 0.000000 0.014451 0.000000
# 4 0.000000 0.000000 0.000000 0.041912 0.000000 0.001994
# 5 0.008222 -0.006298 0.014451 0.000000 0.049276 0.000000
# 6 0.000000 0.000000 0.000000 0.001994 0.000000 0.031421
#
#
# Mechanical properties :
#
#
# Convention : Reuss Voigt Hill
#
# Bulk Modulus (GPa) = 43.94727 62.52922 53.23825
# Shear Modulus (GPa) = 21.01411 24.77920 22.89665
#
# Velocity S-wave (km/s) = 3.50949 3.81094 3.66332
# Velocity P-wave (km/s) = 6.49460 7.48420 7.00689
#
# Compressibility (1/GPa) = 0.02275454
#
# Stress axis : x y z
#
# Youngs Moduli (GPa) = 55.87992 51.23715 35.92527
#
# Poissons Ratio (x) = 0.44686 0.04695
# Poissons Ratio (y) = 0.48736 0.40303
# Poissons Ratio (z) = 0.07303 0.57480
#
# Static dielectric constant tensor:
#      x y z
#    x 3.416730 0.000000 -0.276420 
#    y 0.000000 3.334110 0.000000 
#    z -0.276420 0.000000 3.038190 
# 
# 
# High freq. dielectric constant tensor:
#      x y z
#    x 1.664240 0.000000 -0.021980 
#    y 0.000000 1.648280 0.000000 
#    z -0.021980 0.000000 1.641690 
# 
# From -- ./inp_files/156632.got.cif
#   From: 2010.06.25/outbox.cif.g09.slc.cpg/sg12_79_cif.got.tgz:156632.got - 2010.06.28 00:19:55.
