data_PCOD8095066
_publ_section_title
;
Structure prediction by ZEFSAII (Michael W. Deem and Ramdas Pophale) SiO2 
 PCOD8095066
Probable space group: C 2/M
;
_chemical_formula_sum "Si O2"
_cell_formula_units_Z 56
_cell_length_a 9.589433
_cell_length_b 18.028832
_cell_length_c 28.770140
_cell_angle_alpha 90.000000
_cell_angle_beta 35.087389
_cell_angle_gamma 90.000000
_cell_volume 2859.158723
_symmetry_space_group_name_H-M "C 2/M"
_symmetry_group_IT_number 12
_symmetry_cell_setting 'monoclinic'
loop_
_space_group_symop_operation_xyz
x,y,z
-x,y,-z
-x,-y,-z
x,-y,z
1/2+x,1/2+y,z
1/2-x,1/2+y,-z
1/2-x,1/2-y,-z
1/2+x,1/2-y,z
loop_
_atom_site_type_symbol
_atom_site_label
_atom_site_fract_x
_atom_site_fract_y
_atom_site_fract_z
Si Si1 0.022065 0.672057 0.443360
Si Si2 0.417398 0.330621 0.266889
Si Si3 0.013328 0.839849 0.446208
Si Si4 0.404635 0.914337 0.276402
Si Si5 0.735077 0.286330 0.054021
Si Si6 0.070252 0.914236 0.827907
Si Si7 0.642892 0.797245 0.785052
O O1 0.221361 0.633074 0.355774
O O2 0.000000 0.634208 0.500000
O O3 0.120502 0.756680 0.421038
O O4 0.760534 0.665323 0.494152
O O5 0.490841 0.392672 0.208894
O O6 0.291711 0.261765 0.273579
O O7 0.650224 0.302374 0.232145
O O8 0.000000 0.878921 0.500000
O O9 0.172996 0.889007 0.368752
O O10 0.647834 0.896919 0.238959
O O11 0.403972 0.875958 0.226193
O O12 0.379439 0.000000 0.272125
O O13 0.587429 0.364014 0.093814
O O14 0.606810 0.228140 0.123274
O O15 0.750000 0.250000 0.000000
O O16 0.000000 0.304720 0.000000
O O17 0.004719 0.000000 0.854214
#
# Coordination Sequence:
#
# PCOD8095066 Si02
#       7
#     8   8   8   8   8   8   8
#     4  10  20  31  52  83 113 149 192 250 301 336
#     4  11  21  36  63  84 119 158 198 254 287 352
#     4  10  20  32  52  79 114 150 196 244 293 344
#     4  11  22  39  60  83 120 161 202 248 291 351
#     4  11  22  39  64  92 118 150 188 246 298 354
#     4  10  23  41  62  89 120 161 200 238 295 359
#     4  11  22  38  61  90 117 152 202 241 300 354
#
# _framework density 19.586181
#
# number of rings (size 3 to 8) (size 9 to 14) (size 15 to 20)
#    0.000    1.429    1.429    6.000    4.000    1.143 
#    0.000    1.429    0.000    4.286    0.000    0.000 
#    0.000    0.000    0.000    0.000    0.000    0.000 
#
# Total GULP energy -347190.269784 kJ/mol
# GULP energy per Si atom -12399.652492 kJ/mol
# Density = 1.954160 g / cm^3
# Si number density = 19.586181 Si / 1000 Ang^3
#
#
#
# Elastic Constant Matrix: (Units=GPa)
#
#
# Indices 1 2 3 4 5 6 
#
# 1 98.1640 43.3040 27.4192 -0.0475 8.4346 0.0234
# 2 43.3040 110.5992 52.4690 0.0611 4.6979 -0.0158
# 3 27.4192 52.4690 126.0573 -0.0060 8.0907 0.0047
# 4 -0.0475 0.0611 -0.0060 26.3810 0.0338 -2.0587
# 5 8.4346 4.6979 8.0907 0.0338 39.6400 -0.0207
# 6 0.0234 -0.0158 0.0047 -2.0587 -0.0207 24.5491
#
#
#
# Elastic Compliance Matrix: (Units=1/GPa)
#
#
# Indices 1 2 3 4 5 6 
#
# 1 0.012538 -0.004475 -0.000737 0.000034 -0.001987 -0.000013
# 2 -0.004475 0.012869 -0.004404 -0.000038 0.000326 0.000010
# 3 -0.000737 -0.004404 0.010014 0.000013 -0.001365 -0.000004
# 4 0.000034 -0.000038 0.000013 0.038156 -0.000036 0.003200
# 5 -0.001987 0.000326 -0.001365 -0.000036 0.025890 0.000021
# 6 -0.000013 0.000010 -0.000004 0.003200 0.000021 0.041003
#
#
# Mechanical properties :
#
#
# Convention : Reuss Voigt Hill
#
# Bulk Modulus (GPa) = 61.77123 64.57833 63.17478
# Shear Modulus (GPa) = 30.28494 32.22257 31.25376
#
# Velocity S-wave (km/s) = 3.93649 4.06047 3.99896
# Velocity P-wave (km/s) = 7.22966 7.41796 7.32441
#
# Compressibility (1/GPa) = 0.01618877
#
# Stress axis : x y z
#
# Youngs Moduli (GPa) = 79.75922 77.70400 99.86055
#
# Poissons Ratio (x) = 0.34773 0.07359
# Poissons Ratio (y) = 0.35692 0.43980
# Poissons Ratio (z) = 0.05878 0.34222
#
# Static dielectric constant tensor:
#      x y z
#    x 3.726630 0.000010 0.159370 
#    y 0.000010 3.409380 0.000000 
#    z 0.159370 0.000000 3.691270 
# 
# 
# High freq. dielectric constant tensor:
#      x y z
#    x 1.776520 0.000000 0.002620 
#    y 0.000000 1.731960 0.000000 
#    z 0.002620 0.000000 1.771960 
# 
# From -- ./inp_files/257178.got.cif
#   From: 2010.06.25/outbox.cif.g09.slc.cpg/sg12_129_cif.got.tgz:257178.got - 2010.06.28 00:19:55.
