data_PCOD8095342
_publ_section_title
;
Structure prediction by ZEFSAII (Michael W. Deem and Ramdas Pophale) SiO2 
 PCOD8095342
Probable space group: C 2/M
;
_chemical_formula_sum "Si O2"
_cell_formula_units_Z 56
_cell_length_a 18.147605
_cell_length_b 8.945959
_cell_length_c 17.276757
_cell_angle_alpha 90.000000
_cell_angle_beta 91.945998
_cell_angle_gamma 90.000000
_cell_volume 2803.224667
_symmetry_space_group_name_H-M "C 2/M"
_symmetry_group_IT_number 12
_symmetry_cell_setting 'monoclinic'
loop_
_space_group_symop_operation_xyz
x,y,z
-x,y,-z
-x,-y,-z
x,-y,z
1/2+x,1/2+y,z
1/2-x,1/2+y,-z
1/2-x,1/2-y,-z
1/2+x,1/2-y,z
loop_
_atom_site_type_symbol
_atom_site_label
_atom_site_fract_x
_atom_site_fract_y
_atom_site_fract_z
Si Si1 0.403174 0.827383 0.039054
Si Si2 0.448652 0.327633 0.904749
Si Si3 0.486973 0.672489 0.740172
Si Si4 0.135640 0.326240 0.797203
Si Si5 0.730688 0.671053 0.683630
Si Si6 0.387013 0.824749 0.616641
Si Si7 0.675230 0.327799 0.520613
O O1 0.482992 0.777919 0.072422
O O2 0.349114 0.797807 0.110377
O O3 0.403352 0.000000 0.015452
O O4 0.383196 0.730672 0.960456
O O5 0.466888 0.500000 0.923400
O O6 0.432408 0.307116 0.812853
O O7 0.491929 0.500000 0.715941
O O8 0.568348 0.727636 0.763601
O O9 0.455760 0.766138 0.667893
O O10 0.118146 0.500000 0.781846
O O11 0.209024 0.276615 0.754425
O O12 0.733424 0.500000 0.711981
O O13 0.811000 0.721032 0.656373
O O14 0.668709 0.689535 0.613414
O O15 0.390045 0.750907 0.530732
O O16 0.393830 0.000000 0.605985
O O17 0.678747 0.500000 0.496641
O O18 0.750000 0.250000 0.500000
#
# Coordination Sequence:
#
# PCOD8095342 Si02
#       7
#     8   8   8   8   8   8   8
#     4   9  16  26  42  66  94 124 158 197 239 280
#     4   9  16  26  43  67  92 123 161 197 236 283
#     4  10  20  33  50  73 102 132 162 201 247 292
#     4  10  20  32  49  74 102 131 163 201 244 290
#     4   9  19  34  52  74  99 128 161 199 243 289
#     4  10  20  34  53  76 100 128 164 203 245 292
#     4   9  17  31  51  74  98 126 163 203 242 286
#
# _framework density 19.976991999999999
#
# number of rings (size 3 to 8) (size 9 to 14) (size 15 to 20)
#    0.000    2.571    0.000    4.286    0.000    6.857 
#    0.000    0.714    0.000    5.143    0.000    0.000 
#    0.000    0.000    0.000    0.000    0.000    0.000 
#
# Total GULP energy -346941.397063 kJ/mol
# GULP energy per Si atom -12390.764181 kJ/mol
# Density = 1.993152 g / cm^3
# Si number density = 19.976992 Si / 1000 Ang^3
#
#
#
# Elastic Constant Matrix: (Units=GPa)
#
#
# Indices 1 2 3 4 5 6 
#
# 1 14.7225 2.3162 -11.1115 0.0000 -2.9805 0.0000
# 2 2.3162 80.9572 11.3841 0.0000 -8.2893 0.0000
# 3 -11.1115 11.3841 23.8319 0.0000 -10.8947 0.0000
# 4 0.0000 0.0000 0.0000 36.1840 0.0000 -1.4733
# 5 -2.9805 -8.2893 -10.8947 0.0000 24.9292 0.0000
# 6 0.0000 0.0000 0.0000 -1.4733 0.0000 23.3548
#
#
#
# Elastic Compliance Matrix: (Units=1/GPa)
#
#
# Indices 1 2 3 4 5 6 
#
# 1 0.174117 -0.014797 0.119363 0.000000 0.068062 0.000000
# 2 -0.014797 0.014583 -0.015567 0.000000 -0.003723 0.000000
# 3 0.119363 -0.015567 0.136471 0.000000 0.068736 0.000000
# 4 0.000000 0.000000 0.000000 0.027708 0.000000 0.001748
# 5 0.068062 -0.003723 0.068736 0.000000 0.077052 0.000000
# 6 0.000000 0.000000 0.000000 0.001748 0.000000 0.042928
#
#
# Mechanical properties :
#
#
# Convention : Reuss Voigt Hill
#
# Bulk Modulus (GPa) = 1.98740 13.85436 7.92088
# Shear Modulus (GPa) = 10.80880 24.68845 17.74863
#
# Velocity S-wave (km/s) = 2.32860 3.51927 2.98393
# Velocity P-wave (km/s) = 2.86825 4.84396 3.98062
#
# Compressibility (1/GPa) = 0.50316912
#
# Stress axis : x y z
#
# Youngs Moduli (GPa) = 5.74326 68.57109 7.32754
#
# Poissons Ratio (x) = 1.01467 -0.87464
# Poissons Ratio (y) = 0.08499 0.11407
# Poissons Ratio (z) = -0.68553 1.06748
#
# Static dielectric constant tensor:
#      x y z
#    x 3.045800 0.000000 -0.180720 
#    y 0.000000 3.686690 0.000000 
#    z -0.180720 0.000000 4.445330 
# 
# 
# High freq. dielectric constant tensor:
#      x y z
#    x 1.714000 0.000000 -0.011000 
#    y 0.000000 1.792330 0.000000 
#    z -0.011000 0.000000 1.794860 
# 
# From -- ./inp_files/280321.got.cif
#   From: 2010.06.25/outbox.cif.g09.slc.cpg/sg12_141_cif.got.tgz:280321.got - 2010.06.28 00:19:55.
