data_PCOD8095821
_publ_section_title
;
Structure prediction by ZEFSAII (Michael W. Deem and Ramdas Pophale) SiO2 
 PCOD8095821
Probable space group: C 2/M
;
_chemical_formula_sum "Si O2"
_cell_formula_units_Z 56
_cell_length_a 18.877427
_cell_length_b 9.226465
_cell_length_c 23.259402
_cell_angle_alpha 90.000000
_cell_angle_beta 128.656745
_cell_angle_gamma 90.000000
_cell_volume 3163.540022
_symmetry_space_group_name_H-M "C 2/M"
_symmetry_group_IT_number 12
_symmetry_cell_setting 'monoclinic'
loop_
_space_group_symop_operation_xyz
x,y,z
-x,y,-z
-x,-y,-z
x,-y,z
1/2+x,1/2+y,z
1/2-x,1/2+y,-z
1/2-x,1/2-y,-z
1/2+x,1/2-y,z
loop_
_atom_site_type_symbol
_atom_site_label
_atom_site_fract_x
_atom_site_fract_y
_atom_site_fract_z
Si Si1 0.082125 0.328245 0.001785
Si Si2 0.842468 0.830347 0.558778
Si Si3 0.101540 0.337890 0.718022
Si Si4 0.511687 0.166066 0.441834
Si Si5 0.259996 0.163931 0.123089
Si Si6 0.935985 0.330612 0.137087
Si Si7 0.534395 0.666873 0.277640
O O1 0.088522 0.500000 0.006324
O O2 0.067821 0.270695 0.929762
O O3 0.176296 0.269691 0.073730
O O4 0.000000 0.271873 0.000000
O O5 0.750000 0.750000 0.500000
O O6 0.916058 0.765128 0.553139
O O7 0.871124 0.805227 0.640348
O O8 0.832499 0.000000 0.540560
O O9 0.068351 0.500000 0.721276
O O10 0.205067 0.320479 0.792705
O O11 0.085777 0.324363 0.641260
O O12 0.044021 0.213127 0.718522
O O13 0.500000 0.226620 0.500000
O O14 0.546795 0.000000 0.461039
O O15 0.341736 0.208113 0.121338
O O16 0.228593 0.000000 0.094109
O O17 0.954735 0.500000 0.146989
O O18 0.022427 0.256725 0.212562
O O19 0.522364 0.500000 0.255681
#
# Coordination Sequence:
#
# PCOD8095821 Si02
#       7
#     8   8   8   8   8   8   8
#     4  10  21  35  49  68  97 129 157 189 234 287
#     4  10  20  33  50  73 101 132 167 207 248 291
#     4   8  15  29  48  71  98 126 158 197 241 286
#     4   9  17  31  52  75 101 134 166 199 245 297
#     4   9  17  30  50  73  93 119 158 199 236 276
#     4   9  18  33  52  72  94 122 157 196 238 285
#     4   9  17  29  48  74  97 120 158 204 242 279
#
# _framework density 17.701688000000001
#
# number of rings (size 3 to 8) (size 9 to 14) (size 15 to 20)
#    0.000    2.857    0.000    2.143    0.000    5.143 
#    0.000    1.429    0.000    5.143    0.000    0.000 
#    0.000    0.000    0.000    0.000    0.000    0.000 
#
# Total GULP energy -346945.918851 kJ/mol
# GULP energy per Si atom -12390.925673 kJ/mol
# Density = 1.766140 g / cm^3
# Si number density = 17.701688 Si / 1000 Ang^3
#
#
#
# Elastic Constant Matrix: (Units=GPa)
#
#
# Indices 1 2 3 4 5 6 
#
# 1 69.4755 31.3709 66.0260 0.0000 -6.0291 0.0000
# 2 31.3709 60.0791 55.6552 0.0000 6.2777 0.0000
# 3 66.0260 55.6552 169.7244 0.0000 -8.8154 0.0000
# 4 0.0000 0.0000 0.0000 32.5615 0.0000 3.8999
# 5 -6.0291 6.2777 -8.8154 0.0000 24.4123 0.0000
# 6 0.0000 0.0000 0.0000 3.8999 0.0000 17.4908
#
#
#
# Elastic Compliance Matrix: (Units=1/GPa)
#
#
# Indices 1 2 3 4 5 6 
#
# 1 0.024684 -0.006902 -0.007063 0.000000 0.005321 0.000000
# 2 -0.006902 0.028026 -0.007101 0.000000 -0.011476 0.000000
# 3 -0.007063 -0.007101 0.011182 0.000000 0.004120 0.000000
# 4 0.000000 0.000000 0.000000 0.031554 0.000000 -0.007036
# 5 0.005321 -0.011476 0.004120 0.000000 0.046716 0.000000
# 6 0.000000 0.000000 0.000000 -0.007036 0.000000 0.058742
#
#
# Mechanical properties :
#
#
# Convention : Reuss Voigt Hill
#
# Bulk Modulus (GPa) = 45.95626 67.26482 56.61054
# Shear Modulus (GPa) = 19.97686 24.64136 22.30911
#
# Velocity S-wave (km/s) = 3.36300 3.73505 3.55390
# Velocity P-wave (km/s) = 6.41074 7.52877 6.99214
#
# Compressibility (1/GPa) = 0.02175982
#
# Stress axis : x y z
#
# Youngs Moduli (GPa) = 40.51187 35.68084 89.42887
#
# Poissons Ratio (x) = 0.24628 0.63163
# Poissons Ratio (y) = 0.27962 0.63505
# Poissons Ratio (z) = 0.28613 0.25338
#
# Static dielectric constant tensor:
#      x y z
#    x 2.948650 0.000000 -0.185760 
#    y 0.000000 3.250070 0.000000 
#    z -0.185760 0.000000 3.830250 
# 
# 
# High freq. dielectric constant tensor:
#      x y z
#    x 1.632600 0.000000 -0.009340 
#    y 0.000000 1.685110 0.000000 
#    z -0.009340 0.000000 1.709170 
# 
# From -- ./inp_files/342217.got.cif
#   From: 2010.06.25/outbox.cif.g09.slc.cpg/sg12_172_cif.got.tgz:342217.got - 2010.06.28 00:19:55.
