data_PCOD8095785
_publ_section_title
;
Structure prediction by ZEFSAII (Michael W. Deem and Ramdas Pophale) SiO2 
 PCOD8095785
Probable space group: C 2/M
;
_chemical_formula_sum "Si O2"
_cell_formula_units_Z 64
_cell_length_a 22.225159
_cell_length_b 9.526750
_cell_length_c 17.159265
_cell_angle_alpha 90.000000
_cell_angle_beta 101.182869
_cell_angle_gamma 90.000000
_cell_volume 3564.209074
_symmetry_space_group_name_H-M "C 2/M"
_symmetry_group_IT_number 12
_symmetry_cell_setting 'monoclinic'
loop_
_space_group_symop_operation_xyz
x,y,z
-x,y,-z
-x,-y,-z
x,-y,z
1/2+x,1/2+y,z
1/2-x,1/2+y,-z
1/2-x,1/2-y,-z
1/2+x,1/2-y,z
loop_
_atom_site_type_symbol
_atom_site_label
_atom_site_fract_x
_atom_site_fract_y
_atom_site_fract_z
Si Si1 0.812223 0.664286 0.014449
Si Si2 0.642706 0.164706 0.668319
Si Si3 0.150339 0.339045 0.148156
Si Si4 0.535764 0.835710 0.220016
Si Si5 0.104744 0.837993 0.359572
Si Si6 0.398623 0.834089 0.172821
Si Si7 0.218809 0.161868 0.285513
Si Si8 0.428774 0.662168 0.476587
O O1 0.797227 0.500000 0.022170
O O2 0.848073 0.691251 0.942994
O O3 0.750000 0.750000 0.000000
O O4 0.855708 0.725767 0.093429
O O5 0.626087 0.219295 0.750389
O O6 0.713438 0.202163 0.668845
O O7 0.600607 0.243948 0.596980
O O8 0.629591 0.000000 0.656632
O O9 0.165406 0.500000 0.171065
O O10 0.082532 0.299122 0.161895
O O11 0.201893 0.248144 0.204181
O O12 0.554417 0.755073 0.303108
O O13 0.468526 0.783415 0.177326
O O14 0.535559 0.000000 0.240260
O O15 0.172573 0.803480 0.344454
O O16 0.104145 0.800672 0.450342
O O17 0.087072 0.000000 0.341392
O O18 0.395527 0.000000 0.167845
O O19 0.215979 0.000000 0.259821
O O20 0.500000 0.699872 0.500000
O O21 0.419256 0.500000 0.451998
#
# Coordination Sequence:
#
# PCOD8095785 Si02
#       8
#     8   8   8   8   8   8   8   8
#     4  10  20  34  51  72  99 130 163 199 239 283
#     4  10  20  33  50  72  95 124 164 201 235 283
#     4   9  18  31  50  76 100 124 160 201 237 279
#     4   9  17  31  51  74  98 125 159 198 239 282
#     4   9  18  33  51  71  97 129 161 193 237 291
#     4   9  18  32  50  71  97 128 160 197 241 287
#     4   9  18  33  52  72  98 131 161 192 236 289
#     4  10  21  35  50  70  97 127 159 199 246 289
#
# _framework density 17.956296999999999
#
# number of rings (size 3 to 8) (size 9 to 14) (size 15 to 20)
#    0.000    2.625    0.000    1.500    0.000    3.750 
#    0.000    3.750    0.000    0.000    0.000    4.375 
#    0.000    0.000    0.000    0.000    0.000    0.000 
#
# Total GULP energy -396847.904711 kJ/mol
# GULP energy per Si atom -12401.497022 kJ/mol
# Density = 1.791543 g / cm^3
# Si number density = 17.956297 Si / 1000 Ang^3
#
#
#
# Elastic Constant Matrix: (Units=GPa)
#
#
# Indices 1 2 3 4 5 6 
#
# 1 121.8188 45.3869 78.6437 0.0000 12.0735 0.0000
# 2 45.3869 49.4151 56.8599 0.0000 7.0344 0.0000
# 3 78.6437 56.8599 156.0195 0.0000 7.0992 0.0000
# 4 0.0000 0.0000 0.0000 29.5356 0.0000 3.5902
# 5 12.0735 7.0344 7.0992 0.0000 29.3786 0.0000
# 6 0.0000 0.0000 0.0000 3.5902 0.0000 23.1832
#
#
#
# Elastic Compliance Matrix: (Units=1/GPa)
#
#
# Indices 1 2 3 4 5 6 
#
# 1 0.014045 -0.007734 -0.004128 0.000000 -0.002923 0.000000
# 2 -0.007734 0.039958 -0.010488 0.000000 -0.003855 0.000000
# 3 -0.004128 -0.010488 0.012256 0.000000 0.001246 0.000000
# 4 0.000000 0.000000 0.000000 0.034507 0.000000 -0.005344
# 5 -0.002923 -0.003855 0.001246 0.000000 0.035861 0.000000
# 6 0.000000 0.000000 0.000000 -0.005344 0.000000 0.043962
#
#
# Mechanical properties :
#
#
# Convention : Reuss Voigt Hill
#
# Bulk Modulus (GPa) = 46.38730 76.55937 61.47333
# Shear Modulus (GPa) = 21.50762 26.17702 23.84232
#
# Velocity S-wave (km/s) = 3.46464 3.82228 3.64785
# Velocity P-wave (km/s) = 6.47260 7.88726 7.21469
#
# Compressibility (1/GPa) = 0.02155763
#
# Stress axis : x y z
#
# Youngs Moduli (GPa) = 71.19923 25.02654 81.59369
#
# Poissons Ratio (x) = 0.19356 0.33681
# Poissons Ratio (y) = 0.55067 0.85578
# Poissons Ratio (z) = 0.29391 0.26248
#
# Static dielectric constant tensor:
#      x y z
#    x 3.553400 0.000000 -0.097650 
#    y 0.000000 3.195700 0.000000 
#    z -0.097650 0.000000 3.362240 
# 
# 
# High freq. dielectric constant tensor:
#      x y z
#    x 1.708630 0.000000 -0.006870 
#    y 0.000000 1.677450 0.000000 
#    z -0.006870 0.000000 1.693540 
# 
# From -- ./inp_files/232521.got.cif
#   From: 2010.06.25/outbox.cif.g09.slc.cpg/sg12_117_cif.got.tgz:232521.got - 2010.06.28 00:19:55.
