data_PCOD8095769
_publ_section_title
;
Structure prediction by ZEFSAII (Michael W. Deem and Ramdas Pophale) SiO2 
 PCOD8095769
Probable space group: C 2/M
;
_chemical_formula_sum "Si O2"
_cell_formula_units_Z 56
_cell_length_a 18.113587
_cell_length_b 9.357284
_cell_length_c 18.894830
_cell_angle_alpha 90.000000
_cell_angle_beta 104.607527
_cell_angle_gamma 90.000000
_cell_volume 3099.040503
_symmetry_space_group_name_H-M "C 2/M"
_symmetry_group_IT_number 12
_symmetry_cell_setting 'monoclinic'
loop_
_space_group_symop_operation_xyz
x,y,z
-x,y,-z
-x,-y,-z
x,-y,z
1/2+x,1/2+y,z
1/2-x,1/2+y,-z
1/2-x,1/2-y,-z
1/2+x,1/2-y,z
loop_
_atom_site_type_symbol
_atom_site_label
_atom_site_fract_x
_atom_site_fract_y
_atom_site_fract_z
Si Si1 0.738355 0.832643 0.288380
Si Si2 0.371957 0.668798 0.840643
Si Si3 0.582503 0.669288 0.000728
Si Si4 0.589830 0.331250 0.703136
Si Si5 0.805307 0.666854 0.565025
Si Si6 0.456625 0.330710 0.155968
Si Si7 0.021457 0.334392 0.425531
O O1 0.691865 0.750239 0.217875
O O2 0.826310 0.788843 0.302245
O O3 0.709933 0.783982 0.358471
O O4 0.725838 0.000000 0.273046
O O5 0.360639 0.500000 0.827840
O O6 0.360942 0.714862 0.921490
O O7 0.455554 0.716902 0.833521
O O8 0.578802 0.500000 0.999566
O O9 0.500000 0.731164 0.000000
O O10 0.597582 0.722920 0.923337
O O11 0.576619 0.500000 0.697057
O O12 0.576658 0.268760 0.779047
O O13 0.529196 0.259943 0.637636
O O14 0.788534 0.500000 0.551561
O O15 0.750000 0.750000 0.500000
O O16 0.891146 0.707033 0.565887
O O17 0.453527 0.500000 0.157975
O O18 0.006143 0.500000 0.405084
O O19 0.000000 0.295205 0.500000
#
# Coordination Sequence:
#
# PCOD8095769 Si02
#       7
#     8   8   8   8   8   8   8
#     4  10  21  34  46  67 101 131 152 185 237 286
#     4   9  16  28  50  74  91 118 162 201 232 271
#     4   7  11  22  43  70  94 115 149 199 240 267
#     4  10  20  33  50  71  95 127 162 191 227 279
#     4  10  21  36  53  73  97 125 155 189 233 281
#     4   8  14  27  48  72  94 118 156 202 237 268
#     4  10  21  36  53  73  96 122 154 195 239 275
#
# _framework density 18.070107
#
# number of rings (size 3 to 8) (size 9 to 14) (size 15 to 20)
#    0.000    2.857    0.000    3.429    0.000    2.000 
#    0.000    0.714    0.000    4.714    0.000    0.000 
#    0.000    0.000    0.000    0.000    0.000    0.000 
#
# Total GULP energy -346966.607757 kJ/mol
# GULP energy per Si atom -12391.664563 kJ/mol
# Density = 1.802898 g / cm^3
# Si number density = 18.070107 Si / 1000 Ang^3
#
#
#
# Elastic Constant Matrix: (Units=GPa)
#
#
# Indices 1 2 3 4 5 6 
#
# 1 112.5636 34.1389 88.7668 0.0000 -7.2497 0.0000
# 2 34.1389 32.3497 51.7709 0.0000 7.6555 0.0000
# 3 88.7668 51.7709 189.1650 0.0000 2.5219 0.0000
# 4 0.0000 0.0000 0.0000 21.2768 0.0000 5.7100
# 5 -7.2497 7.6555 2.5219 0.0000 29.7393 0.0000
# 6 0.0000 0.0000 0.0000 5.7100 0.0000 11.2858
#
#
#
# Elastic Compliance Matrix: (Units=1/GPa)
#
#
# Indices 1 2 3 4 5 6 
#
# 1 0.016648 -0.011894 -0.004657 0.000000 0.007515 0.000000
# 2 -0.011894 0.068928 -0.013023 0.000000 -0.019539 0.000000
# 3 -0.004657 -0.013023 0.011019 0.000000 0.001283 0.000000
# 4 0.000000 0.000000 0.000000 0.054384 0.000000 -0.027515
# 5 0.007515 -0.019539 0.001283 0.000000 0.040378 0.000000
# 6 0.000000 0.000000 0.000000 -0.027515 0.000000 0.102528
#
#
# Mechanical properties :
#
#
# Convention : Reuss Voigt Hill
#
# Bulk Modulus (GPa) = 26.70391 75.93683 51.32037
# Shear Modulus (GPa) = 13.67935 23.08717 18.38326
#
# Velocity S-wave (km/s) = 2.75438 3.57829 3.19302
# Velocity P-wave (km/s) = 4.99254 7.69330 6.48508
#
# Compressibility (1/GPa) = 0.03744769
#
# Stress axis : x y z
#
# Youngs Moduli (GPa) = 60.06876 14.50780 90.75463
#
# Poissons Ratio (x) = 0.17255 0.42265
# Poissons Ratio (y) = 0.71444 1.18187
# Poissons Ratio (z) = 0.27974 0.18893
#
# Static dielectric constant tensor:
#      x y z
#    x 3.473700 0.000000 -0.397110 
#    y 0.000000 2.969530 0.000000 
#    z -0.397110 0.000000 3.906380 
# 
# 
# High freq. dielectric constant tensor:
#      x y z
#    x 1.687900 0.000000 -0.007280 
#    y 0.000000 1.662190 0.000000 
#    z -0.007280 0.000000 1.726130 
# 
# From -- ./inp_files/275526.got.cif
#   From: 2010.06.25/outbox.cif.g09.slc.cpg/sg12_138_cif.got.tgz:275526.got - 2010.06.28 00:19:55.
