data_PCOD8095364
_publ_section_title
;
Structure prediction by ZEFSAII (Michael W. Deem and Ramdas Pophale) SiO2 
 PCOD8095364
Probable space group: C 2/M
;
_chemical_formula_sum "Si O2"
_cell_formula_units_Z 56
_cell_length_a 15.017520
_cell_length_b 9.273300
_cell_length_c 24.987106
_cell_angle_alpha 90.000000
_cell_angle_beta 52.533655
_cell_angle_gamma 90.000000
_cell_volume 2761.917928
_symmetry_space_group_name_H-M "C 2/M"
_symmetry_group_IT_number 12
_symmetry_cell_setting 'monoclinic'
loop_
_space_group_symop_operation_xyz
x,y,z
-x,y,-z
-x,-y,-z
x,-y,z
1/2+x,1/2+y,z
1/2-x,1/2+y,-z
1/2-x,1/2-y,-z
1/2+x,1/2-y,z
loop_
_atom_site_type_symbol
_atom_site_label
_atom_site_fract_x
_atom_site_fract_y
_atom_site_fract_z
Si Si1 0.322601 0.169499 0.845362
Si Si2 0.316593 0.335379 0.567018
Si Si3 0.485173 0.336546 0.421642
Si Si4 0.051395 0.667841 0.821532
Si Si5 0.845260 0.841956 0.304653
Si Si6 0.102261 0.331929 0.924132
Si Si7 0.570247 0.659719 0.281428
O O1 0.424903 0.206176 0.848360
O O2 0.208107 0.242188 0.907965
O O3 0.340714 0.235332 0.779157
O O4 0.305170 0.000000 0.846140
O O5 0.274454 0.500000 0.574991
O O6 0.372385 0.273268 0.491286
O O7 0.411898 0.329466 0.576339
O O8 0.216490 0.235121 0.623186
O O9 0.455323 0.500000 0.417318
O O10 0.523329 0.261016 0.352423
O O11 0.073791 0.500000 0.804443
O O12 0.149469 0.747839 0.751526
O O13 0.065346 0.714344 0.877871
O O14 0.971829 0.862834 0.275668
O O15 0.790988 0.000000 0.313471
O O16 0.133784 0.500000 0.914963
O O17 0.000000 0.293977 0.000000
O O18 0.623678 0.500000 0.274007
#
# Coordination Sequence:
#
# PCOD8095364 Si02
#       7
#     8   8   8   8   8   8   8
#     4  10  21  37  57  85 117 146 181 227 275 321
#     4   9  17  31  50  71  97 133 178 223 266 319
#     4   8  16  31  50  70  94 133 182 221 260 318
#     4   9  20  39  59  80 112 151 185 220 269 330
#     4  10  20  32  49  76 106 135 174 224 272 315
#     4  10  22  40  62  87 112 145 187 221 262 328
#     4   9  18  34  53  73 101 140 182 220 263 320
#
# _framework density 20.275765
#
# number of rings (size 3 to 8) (size 9 to 14) (size 15 to 20)
#    0.000    2.714    0.000    1.714    2.000    3.143 
#    0.000    2.143    0.000    0.000    0.000    0.000 
#    0.000    0.000    0.000    0.000    0.000    0.000 
#
# Total GULP energy -346979.332836 kJ/mol
# GULP energy per Si atom -12392.119030 kJ/mol
# Density = 2.022962 g / cm^3
# Si number density = 20.275765 Si / 1000 Ang^3
#
#
#
# Elastic Constant Matrix: (Units=GPa)
#
#
# Indices 1 2 3 4 5 6 
#
# 1 32.0851 14.2162 11.4985 0.0000 -2.5188 0.0000
# 2 14.2162 75.6982 36.0836 0.0000 -12.4227 0.0001
# 3 11.4985 36.0836 107.2936 0.0000 -4.5551 0.0000
# 4 0.0000 0.0000 0.0000 23.5714 0.0000 -4.9100
# 5 -2.5188 -12.4227 -4.5551 0.0000 30.2991 0.0000
# 6 0.0000 0.0001 0.0000 -4.9100 0.0000 14.3046
#
#
#
# Elastic Compliance Matrix: (Units=1/GPa)
#
#
# Indices 1 2 3 4 5 6 
#
# 1 0.034287 -0.005529 -0.001802 0.000000 0.000313 0.000000
# 2 -0.005529 0.017664 -0.005092 0.000000 0.006017 0.000000
# 3 -0.001802 -0.005092 0.011202 0.000000 -0.000554 0.000000
# 4 0.000000 0.000000 0.000000 0.045691 0.000000 0.015683
# 5 0.000313 0.006017 -0.000554 0.000000 0.035414 0.000000
# 6 0.000000 0.000000 0.000000 0.015683 0.000000 0.075291
#
#
# Mechanical properties :
#
#
# Convention : Reuss Voigt Hill
#
# Bulk Modulus (GPa) = 26.10507 37.63038 31.86772
# Shear Modulus (GPa) = 19.44283 23.85358 21.64821
#
# Velocity S-wave (km/s) = 3.10000 3.43367 3.27110
# Velocity P-wave (km/s) = 5.07113 5.85830 5.47887
#
# Compressibility (1/GPa) = 0.03830674
#
# Stress axis : x y z
#
# Youngs Moduli (GPa) = 29.16549 56.61381 89.26635
#
# Poissons Ratio (x) = 0.31302 0.16084
# Poissons Ratio (y) = 0.16125 0.45458
# Poissons Ratio (z) = 0.05255 0.28830
#
# Static dielectric constant tensor:
#      x y z
#    x 3.766980 0.000000 -1.081800 
#    y 0.000000 3.709280 0.000000 
#    z -1.081800 0.000000 8.656740 
# 
# 
# High freq. dielectric constant tensor:
#      x y z
#    x 1.778220 0.000000 0.002420 
#    y 0.000000 1.768770 0.000000 
#    z 0.002420 0.000000 1.800310 
# 
# From -- ./inp_files/377633.got.cif
#   From: 2010.06.25/outbox.cif.g09.slc.cpg/sg12_189_cif.got.tgz:377633.got - 2010.06.28 00:19:55.
