data_PCOD8095771
_publ_section_title
;
Structure prediction by ZEFSAII (Michael W. Deem and Ramdas Pophale) SiO2 
 PCOD8095771
Probable space group: C 2/M
;
_chemical_formula_sum "Si O2"
_cell_formula_units_Z 64
_cell_length_a 28.882393
_cell_length_b 9.439094
_cell_length_c 13.684122
_cell_angle_alpha 90.000000
_cell_angle_beta 76.901332
_cell_angle_gamma 90.000000
_cell_volume 3633.548922
_symmetry_space_group_name_H-M "C 2/M"
_symmetry_group_IT_number 12
_symmetry_cell_setting 'monoclinic'
loop_
_space_group_symop_operation_xyz
x,y,z
-x,y,-z
-x,-y,-z
x,-y,z
1/2+x,1/2+y,z
1/2-x,1/2+y,-z
1/2-x,1/2-y,-z
1/2+x,1/2-y,z
loop_
_atom_site_type_symbol
_atom_site_label
_atom_site_fract_x
_atom_site_fract_y
_atom_site_fract_z
Si Si1 0.107149 0.164012 0.262826
Si Si2 0.023308 0.335363 0.387553
Si Si3 0.295939 0.659498 0.479713
Si Si4 0.397427 0.334688 0.142624
Si Si5 0.798721 0.162860 0.266286
Si Si6 0.797548 0.164201 0.690932
Si Si7 0.525356 0.833748 0.791203
Si Si8 0.940914 0.836815 0.914494
O O1 0.071877 0.250725 0.349038
O O2 0.161544 0.214101 0.253746
O O3 0.096242 0.191391 0.154629
O O4 0.101240 0.000000 0.294465
O O5 0.036657 0.500000 0.385875
O O6 0.000000 0.283938 0.500000
O O7 0.986923 0.304397 0.316254
O O8 0.277942 0.500000 0.489978
O O9 0.250000 0.750000 0.500000
O O10 0.322210 0.689543 0.363982
O O11 0.321416 0.692173 0.571240
O O12 0.405600 0.500000 0.163626
O O13 0.341296 0.296826 0.172502
O O14 0.424509 0.239620 0.209644
O O15 0.414936 0.295348 0.026438
O O16 0.751478 0.252753 0.267276
O O17 0.783522 0.000000 0.260793
O O18 0.785026 0.000000 0.712250
O O19 0.486482 0.762698 0.880760
O O20 0.527670 0.000000 0.813081
O O21 0.958264 0.000000 0.906792
#
# Coordination Sequence:
#
# PCOD8095771 Si02
#       8
#     8   8   8   8   8   8   8   8
#     4   9  18  32  51  73  95 125 165 201 234 279
#     4   9  19  35  51  71 102 132 156 189 236 287
#     4   8  14  26  43  62  86 115 147 185 227 270
#     4  10  20  33  50  71  96 127 160 197 242 287
#     4   9  18  31  46  67  94 123 157 194 232 281
#     4   9  17  30  48  69  93 122 156 195 237 278
#     4  10  20  33  51  74  97 123 158 197 236 283
#     4   9  18  34  52  69  94 127 160 195 239 289
#
# _framework density 17.613634000000001
#
# number of rings (size 3 to 8) (size 9 to 14) (size 15 to 20)
#    0.000    2.875    0.000    0.750    0.000    4.750 
#    0.000    1.875    0.000    4.500    0.000    0.000 
#    0.000    0.000    0.000    0.000    0.000    0.000 
#
# Total GULP energy -396533.256830 kJ/mol
# GULP energy per Si atom -12391.664276 kJ/mol
# Density = 1.757354 g / cm^3
# Si number density = 17.613634 Si / 1000 Ang^3
#
#
#
# Elastic Constant Matrix: (Units=GPa)
#
#
# Indices 1 2 3 4 5 6 
#
# 1 121.1999 52.8499 48.1014 0.0000 -3.7159 0.0000
# 2 52.8499 64.2796 40.8251 0.0000 -4.0695 0.0000
# 3 48.1014 40.8251 96.0683 0.0000 -9.5564 0.0000
# 4 0.0000 0.0000 0.0000 21.8223 0.0000 -1.3874
# 5 -3.7159 -4.0695 -9.5564 0.0000 19.2062 0.0000
# 6 0.0000 0.0000 0.0000 -1.3874 0.0000 28.6297
#
#
#
# Elastic Compliance Matrix: (Units=1/GPa)
#
#
# Indices 1 2 3 4 5 6 
#
# 1 0.013392 -0.009248 -0.002854 0.000000 -0.000788 0.000000
# 2 -0.009248 0.027695 -0.007083 0.000000 0.000554 0.000000
# 3 -0.002854 -0.007083 0.015407 0.000000 0.005613 0.000000
# 4 0.000000 0.000000 0.000000 0.045966 0.000000 0.002227
# 5 -0.000788 0.000554 0.005613 0.000000 0.054824 0.000000
# 6 0.000000 0.000000 0.000000 0.002227 0.000000 0.035037
#
#
# Mechanical properties :
#
#
# Convention : Reuss Voigt Hill
#
# Bulk Modulus (GPa) = 55.17950 62.78897 58.98423
# Shear Modulus (GPa) = 21.12095 23.24972 22.18534
#
# Velocity S-wave (km/s) = 3.46659 3.63710 3.55287
# Velocity P-wave (km/s) = 6.88613 7.30502 7.09867
#
# Compressibility (1/GPa) = 0.01812267
#
# Stress axis : x y z
#
# Youngs Moduli (GPa) = 74.67183 36.10807 64.90725
#
# Poissons Ratio (x) = 0.33393 0.18522
# Poissons Ratio (y) = 0.69058 0.45976
# Poissons Ratio (z) = 0.21309 0.25577
#
# Static dielectric constant tensor:
#      x y z
#    x 3.113110 0.000000 0.061220 
#    y 0.000000 3.277470 0.000000 
#    z 0.061220 0.000000 2.912270 
# 
# 
# High freq. dielectric constant tensor:
#      x y z
#    x 1.667620 0.000000 0.008870 
#    y 0.000000 1.679770 0.000000 
#    z 0.008870 0.000000 1.679820 
# 
# From -- ./inp_files/243793.got.cif
#   From: 2010.06.25/outbox.cif.g09.slc.cpg/sg12_122_cif.got.tgz:243793.got - 2010.06.28 00:19:55.
