data_PCOD8095876
_publ_section_title
;
Structure prediction by ZEFSAII (Michael W. Deem and Ramdas Pophale) SiO2 
 PCOD8095876
Probable space group: C 2/M
;
_chemical_formula_sum "Si O2"
_cell_formula_units_Z 64
_cell_length_a 20.483883
_cell_length_b 8.929042
_cell_length_c 24.320674
_cell_angle_alpha 90.000000
_cell_angle_beta 126.748388
_cell_angle_gamma 90.000000
_cell_volume 3564.281461
_symmetry_space_group_name_H-M "C 2/M"
_symmetry_group_IT_number 12
_symmetry_cell_setting 'monoclinic'
loop_
_space_group_symop_operation_xyz
x,y,z
-x,y,-z
-x,-y,-z
x,-y,z
1/2+x,1/2+y,z
1/2-x,1/2+y,-z
1/2-x,1/2-y,-z
1/2+x,1/2-y,z
loop_
_atom_site_type_symbol
_atom_site_label
_atom_site_fract_x
_atom_site_fract_y
_atom_site_fract_z
Si Si1 0.607556 0.174662 0.797545
Si Si2 0.326593 0.824198 0.770202
Si Si3 0.927276 0.335284 0.506697
Si Si4 0.074182 0.176813 0.998875
Si Si5 0.986897 0.325722 0.139104
Si Si6 0.722558 0.177231 0.133454
Si Si7 0.813144 0.678636 0.359307
Si Si8 0.952192 0.322120 0.348495
O O1 0.554271 0.209558 0.823718
O O2 0.689620 0.269153 0.842198
O O3 0.553735 0.226867 0.717914
O O4 0.630459 0.000000 0.804053
O O5 0.419679 0.774773 0.809988
O O6 0.295026 0.767411 0.813486
O O7 0.275903 0.746045 0.695916
O O8 0.315729 0.000000 0.758352
O O9 0.897334 0.500000 0.509139
O O10 0.850565 0.258018 0.436386
O O11 0.000000 0.349293 0.500000
O O12 0.965587 0.253698 0.580481
O O13 0.058391 0.227347 0.928902
O O14 0.085025 0.000000 0.006791
O O15 0.156885 0.252773 0.059761
O O16 0.000000 0.231383 0.000000
O O17 0.980117 0.500000 0.119528
O O18 0.716543 0.000000 0.126036
O O19 0.808111 0.500000 0.358573
O O20 0.871018 0.734380 0.338640
O O21 0.957845 0.500000 0.357927
#
# Coordination Sequence:
#
# PCOD8095876 Si02
#       8
#     8   8   8   8   8   8   8   8
#     4  10  20  35  56  80 105 135 175 218 254 299
#     4  10  20  33  50  74 104 138 171 204 252 312
#     4   7  11  20  38  69 102 128 160 208 260 296
#     4  11  23  38  59  83 104 130 171 219 257 296
#     4  10  22  39  56  76 105 140 172 206 258 317
#     4  11  22  36  57  79 105 139 169 207 260 312
#     4   9  15  25  47  75 100 129 169 218 258 290
#     4   8  13  24  45  73 102 129 164 213 257 294
#
# _framework density 17.955933999999999
#
# number of rings (size 3 to 8) (size 9 to 14) (size 15 to 20)
#    0.000    2.500    2.500    2.250    0.000    2.500 
#    0.000    0.000    0.000    4.875    0.000    0.000 
#    0.000    0.000    0.000    0.000    0.000    0.000 
#
# Total GULP energy -396606.261843 kJ/mol
# GULP energy per Si atom -12393.945683 kJ/mol
# Density = 1.791507 g / cm^3
# Si number density = 17.955934 Si / 1000 Ang^3
#
#
#
# Elastic Constant Matrix: (Units=GPa)
#
#
# Indices 1 2 3 4 5 6 
#
# 1 79.6969 25.6802 58.8094 0.0000 2.9112 0.0000
# 2 25.6802 36.3560 41.2230 0.0000 2.9358 0.0000
# 3 58.8094 41.2230 184.9924 0.0000 12.1775 0.0000
# 4 0.0000 0.0000 0.0000 9.2438 0.0000 1.9980
# 5 2.9112 2.9358 12.1775 0.0000 25.5271 0.0000
# 6 0.0000 0.0000 0.0000 1.9980 0.0000 18.3835
#
#
#
# Elastic Compliance Matrix: (Units=1/GPa)
#
#
# Indices 1 2 3 4 5 6 
#
# 1 0.018137 -0.008401 -0.003945 0.000000 0.000780 0.000000
# 2 -0.008401 0.040699 -0.006353 0.000000 -0.000692 0.000000
# 3 -0.003945 -0.006353 0.008257 0.000000 -0.002758 0.000000
# 4 0.000000 0.000000 0.000000 0.110783 0.000000 -0.012040
# 5 0.000780 -0.000692 -0.002758 0.000000 0.040481 0.000000
# 6 0.000000 0.000000 0.000000 -0.012040 0.000000 0.055705
#
#
# Mechanical properties :
#
#
# Convention : Reuss Voigt Hill
#
# Bulk Modulus (GPa) = 33.67549 61.38560 47.53055
# Shear Modulus (GPa) = 15.55893 22.31973 18.93933
#
# Velocity S-wave (km/s) = 2.94684 3.52949 3.25124
# Velocity P-wave (km/s) = 5.51124 7.13237 6.37356
#
# Compressibility (1/GPa) = 0.02969518
#
# Stress axis : x y z
#
# Youngs Moduli (GPa) = 55.13528 24.57053 121.10868
#
# Poissons Ratio (x) = 0.20642 0.47779
# Poissons Ratio (y) = 0.46319 0.76940
# Poissons Ratio (z) = 0.21752 0.15610
#
# Static dielectric constant tensor:
#      x y z
#    x 3.070620 0.000000 0.053920 
#    y 0.000000 2.992750 0.000000 
#    z 0.053920 0.000000 3.820450 
# 
# 
# High freq. dielectric constant tensor:
#      x y z
#    x 1.661500 0.000000 0.007280 
#    y 0.000000 1.663450 0.000000 
#    z 0.007280 0.000000 1.721420 
# 
# From -- ./inp_files/346261.got.cif
#   From: 2010.06.25/outbox.cif.g09.slc.cpg/sg12_174_cif.got.tgz:346261.got - 2010.06.28 00:19:55.
