data_PCOD8095217
_publ_section_title
;
Structure prediction by ZEFSAII (Michael W. Deem and Ramdas Pophale) SiO2 
 PCOD8095217
Probable space group: C 2/M
;
_chemical_formula_sum "Si O2"
_cell_formula_units_Z 64
_cell_length_a 19.879367
_cell_length_b 9.400636
_cell_length_c 21.595392
_cell_angle_alpha 90.000000
_cell_angle_beta 60.375228
_cell_angle_gamma 90.000000
_cell_volume 3508.174704
_symmetry_space_group_name_H-M "C 2/M"
_symmetry_group_IT_number 12
_symmetry_cell_setting 'monoclinic'
loop_
_space_group_symop_operation_xyz
x,y,z
-x,y,-z
-x,-y,-z
x,-y,z
1/2+x,1/2+y,z
1/2-x,1/2+y,-z
1/2-x,1/2-y,-z
1/2+x,1/2-y,z
loop_
_atom_site_type_symbol
_atom_site_label
_atom_site_fract_x
_atom_site_fract_y
_atom_site_fract_z
Si Si1 0.883745 0.339407 0.218663
Si Si2 0.352401 0.337665 0.976041
Si Si3 0.881896 0.668050 0.726274
Si Si4 0.945569 0.333692 0.323112
Si Si5 0.989951 0.347249 0.934152
Si Si6 0.205832 0.831003 0.573746
Si Si7 0.295381 0.164565 0.886736
Si Si8 0.260639 0.165350 0.683811
O O1 0.852572 0.500000 0.235293
O O2 0.939810 0.310931 0.251965
O O3 0.930507 0.305400 0.135429
O O4 0.809622 0.239962 0.249631
O O5 0.350410 0.500000 0.955805
O O6 0.437073 0.290811 0.955949
O O7 0.334774 0.243375 0.925083
O O8 0.296584 0.311611 0.060975
O O9 0.886352 0.500000 0.729069
O O10 0.827147 0.726303 0.807070
O O11 0.842028 0.714454 0.678868
O O12 0.970374 0.724030 0.691940
O O13 0.932974 0.500000 0.346794
O O14 0.879757 0.236411 0.384418
O O15 0.959962 0.500000 0.918434
O O16 0.000000 0.382041 0.000000
O O17 0.250000 0.750000 0.500000
O O18 0.256438 0.800053 0.612659
O O19 0.199384 0.000000 0.563941
O O20 0.317591 0.000000 0.881571
O O21 0.248792 0.000000 0.701473
#
# Coordination Sequence:
#
# PCOD8095217 Si02
#       8
#     8   8   8   8   8   8   8   8
#     4   9  18  33  51  72  99 137 179 215 261 318
#     4  10  20  32  47  71  97 128 175 224 269 314
#     4   9  17  32  55  79 103 135 174 214 261 310
#     4   9  17  32  56  80 102 134 174 211 250 305
#     4  10  21  34  48  67  97 137 178 221 270 321
#     4  10  20  36  58  83 110 140 171 205 247 302
#     4   9  18  33  52  70  96 135 171 210 263 322
#     4   9  19  34  55  82 108 134 171 218 262 305
#
# _framework density 18.243105
#
# number of rings (size 3 to 8) (size 9 to 14) (size 15 to 20)
#    0.000    2.625    0.000    1.500    1.750    3.750 
#    0.000    5.000    0.000    3.750    0.000    0.000 
#    0.000    0.000    0.000    0.000    0.000    0.000 
#
# Total GULP energy -396491.189221 kJ/mol
# GULP energy per Si atom -12390.349663 kJ/mol
# Density = 1.820158 g / cm^3
# Si number density = 18.243105 Si / 1000 Ang^3
#
#
#
# Elastic Constant Matrix: (Units=GPa)
#
#
# Indices 1 2 3 4 5 6 
#
# 1 110.1576 32.8519 54.1220 0.0000 -5.7827 0.0001
# 2 32.8519 53.0432 47.8549 0.0000 -3.2117 0.0002
# 3 54.1220 47.8549 132.1848 0.0000 -0.3269 0.0000
# 4 0.0000 0.0000 0.0000 29.0945 0.0000 -5.4699
# 5 -5.7827 -3.2117 -0.3269 0.0000 16.1522 0.0000
# 6 0.0001 0.0002 0.0000 -5.4699 0.0000 23.5451
#
#
#
# Elastic Compliance Matrix: (Units=1/GPa)
#
#
# Indices 1 2 3 4 5 6 
#
# 1 0.012225 -0.004238 -0.003463 0.000000 0.003464 0.000000
# 2 -0.004238 0.029938 -0.009093 0.000000 0.004252 0.000000
# 3 -0.003463 -0.009093 0.012268 0.000000 -0.002799 0.000000
# 4 0.000000 0.000000 0.000000 0.035940 0.000000 0.008350
# 5 0.003464 0.004252 -0.002799 0.000000 0.063940 0.000000
# 6 0.000000 0.000000 0.000000 0.008350 0.000000 0.044411
#
#
# Mechanical properties :
#
#
# Convention : Reuss Voigt Hill
#
# Bulk Modulus (GPa) = 47.97458 62.78259 55.37858
# Shear Modulus (GPa) = 20.89804 24.46216 22.68010
#
# Velocity S-wave (km/s) = 3.38824 3.66580 3.52975
# Velocity P-wave (km/s) = 6.45456 7.23924 6.85813
#
# Compressibility (1/GPa) = 0.02084437
#
# Stress axis : x y z
#
# Youngs Moduli (GPa) = 81.80129 33.40235 81.51367
#
# Poissons Ratio (x) = 0.14155 0.28225
# Poissons Ratio (y) = 0.34664 0.74119
# Poissons Ratio (z) = 0.28325 0.30372
#
# Static dielectric constant tensor:
#      x y z
#    x 3.614000 0.000000 -0.004870 
#    y 0.000000 3.490710 0.000000 
#    z -0.004870 0.000000 3.353980 
# 
# 
# High freq. dielectric constant tensor:
#      x y z
#    x 1.699600 0.000000 -0.001340 
#    y 0.000000 1.697100 0.000000 
#    z -0.001340 0.000000 1.699650 
# 
# From -- ./inp_files/346099.got.cif
#   From: 2010.06.25/outbox.cif.g09.slc.cpg/sg12_174_cif.got.tgz:346099.got - 2010.06.28 00:19:55.
