data_PCOD8095414
_publ_section_title
;
Structure prediction by ZEFSAII (Michael W. Deem and Ramdas Pophale) SiO2 
 PCOD8095414
Probable space group: C 2/M
;
_chemical_formula_sum "Si O2"
_cell_formula_units_Z 64
_cell_length_a 21.647890
_cell_length_b 9.191672
_cell_length_c 27.859097
_cell_angle_alpha 90.000000
_cell_angle_beta 144.136951
_cell_angle_gamma 90.000000
_cell_volume 3247.606719
_symmetry_space_group_name_H-M "C 2/M"
_symmetry_group_IT_number 12
_symmetry_cell_setting 'monoclinic'
loop_
_space_group_symop_operation_xyz
x,y,z
-x,y,-z
-x,-y,-z
x,-y,z
1/2+x,1/2+y,z
1/2-x,1/2+y,-z
1/2-x,1/2-y,-z
1/2+x,1/2-y,z
loop_
_atom_site_type_symbol
_atom_site_label
_atom_site_fract_x
_atom_site_fract_y
_atom_site_fract_z
Si Si1 0.346428 0.171113 0.457748
Si Si2 0.480043 0.337690 0.797206
Si Si3 0.253584 0.339954 0.701978
Si Si4 0.517366 0.328012 0.386485
Si Si5 0.369178 0.672354 0.635412
Si Si6 0.218852 0.828707 0.772976
Si Si7 0.150415 0.327166 0.961560
Si Si8 0.890989 0.327066 0.955309
O O1 0.332927 0.205517 0.392696
O O2 0.450100 0.251755 0.543162
O O3 0.244821 0.236324 0.422208
O O4 0.359346 0.000000 0.474363
O O5 0.532723 0.500000 0.831937
O O6 0.366201 0.347438 0.748680
O O7 0.461800 0.283099 0.731125
O O8 0.549398 0.218004 0.867277
O O9 0.224461 0.500000 0.704109
O O10 0.260343 0.223435 0.747969
O O11 0.520649 0.500000 0.395973
O O12 0.597774 0.272449 0.396241
O O13 0.401451 0.276857 0.296799
O O14 0.360762 0.500000 0.632102
O O15 0.292895 0.766503 0.862043
O O16 0.228187 0.000000 0.779225
O O17 0.166366 0.500000 0.969817
O O18 0.250000 0.250000 0.000000
O O19 0.128849 0.272784 0.002657
O O20 0.895149 0.500000 0.957735
O O21 0.000000 0.266924 0.000000
#
# Coordination Sequence:
#
# PCOD8095414 Si02
#       8
#     8   8   8   8   8   8   8   8
#     4   9  18  34  54  76 103 139 180 217 267 329
#     4   9  18  35  59  81 105 140 181 224 271 327
#     4   9  19  36  56  79 106 141 181 220 273 332
#     4  10  20  32  50  77 106 138 179 223 270 318
#     4   8  16  32  55  77 102 140 179 217 265 327
#     4  10  21  35  54  79 105 139 182 226 271 321
#     4  11  23  37  58  87 118 149 185 232 285 340
#     4   9  19  37  60  83 108 145 192 234 275 331
#
# _framework density 19.70682
#
# number of rings (size 3 to 8) (size 9 to 14) (size 15 to 20)
#    0.000    2.625    0.000    3.000    1.750    3.000 
#    0.000    6.250    0.000    3.375    0.000    0.000 
#    0.000    0.000    0.000    0.000    0.000    0.000 
#
# Total GULP energy -396646.753781 kJ/mol
# GULP energy per Si atom -12395.211056 kJ/mol
# Density = 1.966197 g / cm^3
# Si number density = 19.706820 Si / 1000 Ang^3
#
#
#
# Elastic Constant Matrix: (Units=GPa)
#
#
# Indices 1 2 3 4 5 6 
#
# 1 77.8853 20.0616 35.8642 0.0000 -9.8348 0.0002
# 2 20.0616 29.3199 35.7580 0.0000 -0.7883 0.0005
# 3 35.8642 35.7580 145.3983 0.0000 -14.1882 0.0000
# 4 0.0000 0.0000 0.0000 32.0042 0.0000 -0.3727
# 5 -9.8348 -0.7883 -14.1882 0.0000 23.5081 0.0000
# 6 0.0002 0.0005 0.0000 -0.3727 0.0000 23.7728
#
#
#
# Elastic Compliance Matrix: (Units=1/GPa)
#
#
# Indices 1 2 3 4 5 6 
#
# 1 0.016645 -0.009902 -0.001087 0.000000 0.005975 0.000000
# 2 -0.009902 0.055406 -0.012120 0.000000 -0.009600 -0.000001
# 3 -0.001087 -0.012120 0.010671 0.000000 0.005579 0.000000
# 4 0.000000 0.000000 0.000000 0.031252 0.000000 0.000490
# 5 0.005975 -0.009600 0.005579 0.000000 0.048084 0.000000
# 6 0.000000 -0.000001 0.000000 0.000490 0.000000 0.042073
#
#
# Mechanical properties :
#
#
# Convention : Reuss Voigt Hill
#
# Bulk Modulus (GPa) = 27.39588 48.44124 37.91856
# Shear Modulus (GPa) = 19.04639 26.58500 22.81569
#
# Velocity S-wave (km/s) = 3.11221 3.67689 3.40627
# Velocity P-wave (km/s) = 5.18135 6.53149 5.89520
#
# Compressibility (1/GPa) = 0.03650184
#
# Stress axis : x y z
#
# Youngs Moduli (GPa) = 60.07704 18.04874 93.71181
#
# Poissons Ratio (x) = 0.17873 0.10190
# Poissons Ratio (y) = 0.59491 1.13580
# Poissons Ratio (z) = 0.06532 0.21875
#
# Static dielectric constant tensor:
#      x y z
#    x 3.752680 0.000000 -0.120680 
#    y 0.000000 3.645110 0.000000 
#    z -0.120680 0.000000 3.957790 
# 
# 
# High freq. dielectric constant tensor:
#      x y z
#    x 1.768070 0.000000 -0.004680 
#    y 0.000000 1.729920 0.000000 
#    z -0.004680 0.000000 1.782650 
# 
# From -- ./inp_files/382443.got.cif
#   From: 2010.06.25/outbox.cif.g09.slc.cpg/sg12_192_cif.got.tgz:382443.got - 2010.06.28 00:19:55.
