data_PCOD8095573
_publ_section_title
;
Structure prediction by ZEFSAII (Michael W. Deem and Ramdas Pophale) SiO2 
 PCOD8095573
Probable space group: C 2/M
;
_chemical_formula_sum "Si O2"
_cell_formula_units_Z 40
_cell_length_a 14.242673
_cell_length_b 12.568796
_cell_length_c 10.621104
_cell_angle_alpha 90.000000
_cell_angle_beta 83.512992
_cell_angle_gamma 90.000000
_cell_volume 1889.145169
_symmetry_space_group_name_H-M "C 2/M"
_symmetry_group_IT_number 12
_symmetry_cell_setting 'monoclinic'
loop_
_space_group_symop_operation_xyz
x,y,z
-x,y,-z
-x,-y,-z
x,-y,z
1/2+x,1/2+y,z
1/2-x,1/2+y,-z
1/2-x,1/2-y,-z
1/2+x,1/2-y,z
loop_
_atom_site_type_symbol
_atom_site_label
_atom_site_fract_x
_atom_site_fract_y
_atom_site_fract_z
Si Si1 0.943252 0.269759 0.881931
Si Si2 0.064240 0.500000 0.611416
Si Si3 0.942837 0.500000 0.880967
Si Si4 0.893134 0.120955 0.499094
Si Si5 0.702549 0.376933 0.217607
Si Si6 0.124820 0.709903 0.691950
O O1 0.888461 0.385855 0.889511
O O2 0.866201 0.177977 0.873230
O O3 0.020091 0.268135 0.759066
O O4 0.000000 0.245382 0.000000
O O5 0.128291 0.605710 0.600472
O O6 0.000000 0.500000 0.500000
O O7 0.010119 0.500000 0.751198
O O8 0.000000 0.500000 0.000000
O O9 0.839286 0.134117 0.637333
O O10 0.842879 0.190694 0.398290
O O11 0.000000 0.162172 0.500000
O O12 0.892536 0.000000 0.451073
O O13 0.716957 0.500000 0.175845
O O14 0.802174 0.313131 0.204255
#
# Coordination Sequence:
#
# PCOD8095573 Si02
#       6
#     8   4   4   8   8   8
#     4  10  22  40  65  87 116 160 207 249 298 361
#     4  10  20  32  60  92 117 153 204 251 295 354
#     4   8  18  38  58  82 115 157 196 245 301 352
#     4  10  20  37  59  85 121 161 192 239 301 364
#     4  11  23  40  61  89 124 158 196 249 309 357
#     4  11  21  39  60  89 125 158 197 247 304 366
#
# _framework density 21.173597999999998
#
# number of rings (size 3 to 8) (size 9 to 14) (size 15 to 20)
#    0.000    1.800    3.000    1.200    2.800    1.200 
#    1.800    0.000    0.000    0.000    0.000    0.000 
#    0.000    0.000    0.000    0.000    0.000    0.000 
#
# Total GULP energy -247882.703470 kJ/mol
# GULP energy per Si atom -12394.135174 kJ/mol
# Density = 2.112541 g / cm^3
# Si number density = 21.173598 Si / 1000 Ang^3
#
#
#
# Elastic Constant Matrix: (Units=GPa)
#
#
# Indices 1 2 3 4 5 6 
#
# 1 49.5997 21.7233 6.1457 0.0000 31.2015 0.0000
# 2 21.7233 138.1373 52.0085 0.0000 30.6381 0.0000
# 3 6.1457 52.0085 89.3096 0.0000 22.6523 0.0000
# 4 0.0000 0.0000 0.0000 34.8667 0.0000 12.5679
# 5 31.2015 30.6381 22.6523 0.0000 31.1208 0.0000
# 6 0.0000 0.0000 0.0000 12.5679 0.0000 30.0627
#
#
#
# Elastic Compliance Matrix: (Units=1/GPa)
#
#
# Indices 1 2 3 4 5 6 
#
# 1 0.068980 0.001609 0.015035 0.000000 -0.081687 0.000000
# 2 0.001609 0.010470 -0.003905 0.000000 -0.009079 0.000000
# 3 0.015035 -0.003905 0.018746 0.000000 -0.024874 0.000000
# 4 0.000000 0.000000 0.000000 0.033769 0.000000 -0.014117
# 5 -0.081687 -0.009079 -0.024874 0.000000 0.141075 0.000000
# 6 0.000000 0.000000 0.000000 -0.014117 0.000000 0.039166
#
#
# Mechanical properties :
#
#
# Convention : Reuss Voigt Hill
#
# Bulk Modulus (GPa) = 8.08574 48.53351 28.30962
# Shear Modulus (GPa) = 15.24611 32.35464 23.80037
#
# Velocity S-wave (km/s) = 2.68629 3.91329 3.35634
# Velocity P-wave (km/s) = 3.66724 6.58710 5.33097
#
# Compressibility (1/GPa) = 0.12367451
#
# Stress axis : x y z
#
# Youngs Moduli (GPa) = 14.49687 95.51142 53.34604
#
# Poissons Ratio (x) = -0.15371 -0.80206
# Poissons Ratio (y) = -0.02333 0.20832
# Poissons Ratio (z) = -0.21796 0.37299
#
# Static dielectric constant tensor:
#      x y z
#    x 3.727210 0.000000 -0.009400 
#    y 0.000000 4.325730 0.000000 
#    z -0.009400 0.000000 3.623570 
# 
# 
# High freq. dielectric constant tensor:
#      x y z
#    x 1.806340 0.000000 -0.001590 
#    y 0.000000 1.845320 0.000000 
#    z -0.001590 0.000000 1.818520 
# 
# From -- ./inp_files/140519.got.cif
#   From: 2010.06.25/outbox.cif.g09.slc.cpg/sg12_71_cif.got.tgz:140519.got - 2010.06.28 00:19:55.
