data_PCOD8095525
_publ_section_title
;
Structure prediction by ZEFSAII (Michael W. Deem and Ramdas Pophale) SiO2 
 PCOD8095525
Probable space group: C 2/M
;
_chemical_formula_sum "Si O2"
_cell_formula_units_Z 64
_cell_length_a 20.426444
_cell_length_b 9.095508
_cell_length_c 21.534169
_cell_angle_alpha 90.000000
_cell_angle_beta 61.946484
_cell_angle_gamma 90.000000
_cell_volume 3530.748993
_symmetry_space_group_name_H-M "C 2/M"
_symmetry_group_IT_number 12
_symmetry_cell_setting 'monoclinic'
loop_
_space_group_symop_operation_xyz
x,y,z
-x,y,-z
-x,-y,-z
x,-y,z
1/2+x,1/2+y,z
1/2-x,1/2+y,-z
1/2-x,1/2-y,-z
1/2+x,1/2-y,z
loop_
_atom_site_type_symbol
_atom_site_label
_atom_site_fract_x
_atom_site_fract_y
_atom_site_fract_z
Si Si1 0.585952 0.829726 0.467369
Si Si2 0.790309 0.826449 0.038862
Si Si3 0.827765 0.170186 0.465005
Si Si4 0.962734 0.171324 0.953747
Si Si5 0.203026 0.331241 0.315218
Si Si6 0.646216 0.666420 0.685577
Si Si7 0.923996 0.671622 0.176608
Si Si8 0.773815 0.326518 0.173999
O O1 0.500000 0.791572 0.500000
O O2 0.617107 0.732233 0.508615
O O3 0.626430 0.791178 0.384211
O O4 0.599870 0.000000 0.477603
O O5 0.759624 0.756569 0.115940
O O6 0.774542 0.000000 0.046202
O O7 0.750000 0.750000 0.000000
O O8 0.876665 0.790474 0.993302
O O9 0.750000 0.250000 0.500000
O O10 0.866504 0.194590 0.381245
O O11 0.812813 0.000000 0.484931
O O12 0.000351 0.254355 0.879758
O O13 0.978277 0.000000 0.938416
O O14 0.000000 0.230830 0.000000
O O15 0.203752 0.500000 0.292328
O O16 0.268246 0.300733 0.335676
O O17 0.212420 0.228171 0.250778
O O18 0.625963 0.500000 0.713289
O O19 0.591721 0.774201 0.746794
O O20 0.936713 0.500000 0.172313
O O21 0.855399 0.716244 0.162739
O O22 0.764929 0.500000 0.168099
#
# Coordination Sequence:
#
# PCOD8095525 Si02
#       8
#     8   8   8   8   8   8   8   8
#     4  10  21  38  58  83 116 152 191 235 285 340
#     4  11  23  39  59  83 113 149 186 228 277 332
#     4  11  21  35  57  84 113 146 188 234 283 336
#     4  10  20  36  58  82 109 144 183 220 272 333
#     4   9  17  33  55  79 108 146 189 228 278 335
#     4   9  18  33  53  78 110 147 187 230 280 338
#     4  10  20  32  53  85 115 143 182 234 280 321
#     4  10  20  34  54  83 113 144 186 231 276 327
#
# _framework density 18.126465
#
# number of rings (size 3 to 8) (size 9 to 14) (size 15 to 20)
#    0.000    2.000    2.500    1.500    0.000    4.000 
#    0.000    1.250    0.000    3.000    0.000    0.000 
#    0.000    0.000    0.000    0.000    0.000    0.000 
#
# Total GULP energy -396911.968120 kJ/mol
# GULP energy per Si atom -12403.499004 kJ/mol
# Density = 1.808521 g / cm^3
# Si number density = 18.126465 Si / 1000 Ang^3
#
#
#
# Elastic Constant Matrix: (Units=GPa)
#
#
# Indices 1 2 3 4 5 6 
#
# 1 89.6180 58.0954 65.3335 0.0001 4.3682 -0.0005
# 2 58.0954 91.6542 70.1175 0.0003 4.9452 -0.0015
# 3 65.3335 70.1175 140.1551 0.0000 -1.3785 -0.0001
# 4 0.0001 0.0003 0.0000 32.6628 0.0000 5.0231
# 5 4.3682 4.9452 -1.3785 0.0000 28.8914 0.0000
# 6 -0.0005 -0.0015 -0.0001 5.0231 0.0000 26.8331
#
#
#
# Elastic Compliance Matrix: (Units=1/GPa)
#
#
# Indices 1 2 3 4 5 6 
#
# 1 0.021038 -0.009265 -0.005190 0.000000 -0.001843 0.000000
# 2 -0.009265 0.022106 -0.006767 0.000000 -0.002706 0.000001
# 3 -0.005190 -0.006767 0.012965 0.000000 0.002562 0.000000
# 4 0.000000 0.000000 0.000000 0.031523 0.000000 -0.005901
# 5 -0.001843 -0.002706 0.002562 0.000000 0.035476 0.000000
# 6 0.000000 0.000001 0.000000 -0.005901 0.000000 0.038372
#
#
# Mechanical properties :
#
#
# Convention : Reuss Voigt Hill
#
# Bulk Modulus (GPa) = 73.17987 78.72446 75.95216
# Shear Modulus (GPa) = 23.98309 26.20286 25.09297
#
# Velocity S-wave (km/s) = 3.64139 3.80617 3.72469
# Velocity P-wave (km/s) = 7.62490 7.92723 7.77753
#
# Compressibility (1/GPa) = 0.01366496
#
# Stress axis : x y z
#
# Youngs Moduli (GPa) = 47.53301 45.23580 77.13199
#
# Poissons Ratio (x) = 0.41913 0.40029
# Poissons Ratio (y) = 0.44041 0.52196
# Poissons Ratio (z) = 0.24668 0.30611
#
# Static dielectric constant tensor:
#      x y z
#    x 3.390170 0.000000 0.139140 
#    y 0.000000 3.367430 0.000000 
#    z 0.139140 0.000000 3.530680 
# 
# 
# High freq. dielectric constant tensor:
#      x y z
#    x 1.673140 0.000000 -0.000720 
#    y 0.000000 1.708100 0.000000 
#    z -0.000720 0.000000 1.714790 
# 
# From -- ./inp_files/319940.got.cif
#   From: 2010.06.25/outbox.cif.g09.slc.cpg/sg12_160_cif.got.tgz:319940.got - 2010.06.28 00:19:55.
