data_PCOD8095251
_publ_section_title
;
Structure prediction by ZEFSAII (Michael W. Deem and Ramdas Pophale) SiO2 
 PCOD8095251
Probable space group: C 2/M
;
_chemical_formula_sum "Si O2"
_cell_formula_units_Z 48
_cell_length_a 31.006775
_cell_length_b 7.795763
_cell_length_c 11.237419
_cell_angle_alpha 90.000000
_cell_angle_beta 99.170427
_cell_angle_gamma 90.000000
_cell_volume 2681.607141
_symmetry_space_group_name_H-M "C 2/M"
_symmetry_group_IT_number 12
_symmetry_cell_setting 'monoclinic'
loop_
_space_group_symop_operation_xyz
x,y,z
-x,y,-z
-x,-y,-z
x,-y,z
1/2+x,1/2+y,z
1/2-x,1/2+y,-z
1/2-x,1/2-y,-z
1/2+x,1/2-y,z
loop_
_atom_site_type_symbol
_atom_site_label
_atom_site_fract_x
_atom_site_fract_y
_atom_site_fract_z
Si Si1 0.382708 0.305573 0.032117
Si Si2 0.775191 0.695380 0.353080
Si Si3 0.400025 0.697712 0.763371
Si Si4 0.442816 0.000000 0.089765
Si Si5 0.815491 0.804622 0.597955
Si Si6 0.461309 0.000000 0.820071
Si Si7 0.290029 0.302134 0.099117
O O1 0.394850 0.500000 0.077164
O O2 0.415846 0.172549 0.109089
O O3 0.334118 0.254644 0.050059
O O4 0.383884 0.288767 0.891283
O O5 0.773727 0.500000 0.395073
O O6 0.811118 0.787211 0.452975
O O7 0.727183 0.778882 0.356342
O O8 0.788836 0.702387 0.222551
O O9 0.413378 0.500000 0.738529
O O10 0.360903 0.774532 0.664540
O O11 0.440692 0.825025 0.757391
O O12 0.487096 0.000000 0.187103
O O13 0.454393 0.000000 0.957176
O O14 0.818411 0.000000 0.640119
O O15 0.287246 0.500000 0.129537
O O16 0.250000 0.250000 0.000000
#
# Coordination Sequence:
#
# PCOD8095251 Si02
#       7
#     8   8   8   4   8   4   8
#     4   9  19  33  49  72 101 136 168 200 250 300
#     4  10  20  32  48  71  98 132 172 205 245 293
#     4   9  17  31  50  72 102 131 162 207 253 299
#     4   9  18  32  50  71 105 133 163 212 247 307
#     4   9  18  33  48  68 100 133 166 206 250 296
#     4   9  18  30  48  79  99 127 173 202 255 310
#     4  11  22  34  49  71 100 133 171 207 241 292
#
# _framework density 17.899715
#
# number of rings (size 3 to 8) (size 9 to 14) (size 15 to 20)
#    0.000    2.500    0.000    2.000    3.500    4.000 
#    3.000    3.333    0.000    0.000    0.000    2.333 
#    0.000    5.333    0.000    0.000    0.000    0.000 
#
# Total GULP energy -297513.249077 kJ/mol
# GULP energy per Si atom -12396.385378 kJ/mol
# Density = 1.785897 g / cm^3
# Si number density = 17.899715 Si / 1000 Ang^3
#
#
#
# Elastic Constant Matrix: (Units=GPa)
#
#
# Indices 1 2 3 4 5 6 
#
# 1 129.6713 61.6876 44.8711 0.0000 32.1131 0.0000
# 2 61.6876 90.4812 24.9800 0.0000 18.1450 0.0000
# 3 44.8711 24.9800 71.2158 0.0000 15.4184 0.0000
# 4 0.0000 0.0000 0.0000 21.8550 0.0000 4.0873
# 5 32.1131 18.1450 15.4184 0.0000 29.8803 0.0000
# 6 0.0000 0.0000 0.0000 4.0873 0.0000 26.7949
#
#
#
# Elastic Compliance Matrix: (Units=1/GPa)
#
#
# Indices 1 2 3 4 5 6 
#
# 1 0.015126 -0.007042 -0.005029 0.000000 -0.009385 0.000000
# 2 -0.007042 0.016505 -0.000924 0.000000 -0.001977 0.000000
# 3 -0.005029 -0.000924 0.018286 0.000000 -0.003470 0.000000
# 4 0.000000 0.000000 0.000000 0.047100 0.000000 -0.007185
# 5 -0.009385 -0.001977 -0.003470 0.000000 0.046545 0.000000
# 6 0.000000 0.000000 0.000000 -0.007185 0.000000 0.038417
#
#
# Mechanical properties :
#
#
# Convention : Reuss Voigt Hill
#
# Bulk Modulus (GPa) = 41.79381 61.60507 51.69944
# Shear Modulus (GPa) = 23.15419 26.36133 24.75776
#
# Velocity S-wave (km/s) = 3.60050 3.84177 3.72309
# Velocity P-wave (km/s) = 6.37843 7.36006 6.88676
#
# Compressibility (1/GPa) = 0.02392699
#
# Stress axis : x y z
#
# Youngs Moduli (GPa) = 66.10977 60.58802 54.68789
#
# Poissons Ratio (x) = 0.42668 0.27500
# Poissons Ratio (y) = 0.46557 0.05054
# Poissons Ratio (z) = 0.33244 0.05599
#
# Static dielectric constant tensor:
#      x y z
#    x 3.353240 0.000000 0.223290 
#    y 0.000000 3.482740 0.000000 
#    z 0.223290 0.000000 3.051140 
# 
# 
# High freq. dielectric constant tensor:
#      x y z
#    x 1.673670 0.000000 0.017950 
#    y 0.000000 1.703290 0.000000 
#    z 0.017950 0.000000 1.665350 
# 
# From -- ./inp_files/179350.got.cif
#   From: 2010.06.25/outbox.cif.g09.slc.cpg/sg12_90_cif.got.tgz:179350.got - 2010.06.28 00:19:55.
