data_PCOD8095791
_publ_section_title
;
Structure prediction by ZEFSAII (Michael W. Deem and Ramdas Pophale) SiO2 
 PCOD8095791
Probable space group: C 2/M
;
_chemical_formula_sum "Si O2"
_cell_formula_units_Z 56
_cell_length_a 9.784678
_cell_length_b 17.897313
_cell_length_c 20.559725
_cell_angle_alpha 90.000000
_cell_angle_beta 118.418827
_cell_angle_gamma 90.000000
_cell_volume 3166.530563
_symmetry_space_group_name_H-M "C 2/M"
_symmetry_group_IT_number 12
_symmetry_cell_setting 'monoclinic'
loop_
_space_group_symop_operation_xyz
x,y,z
-x,y,-z
-x,-y,-z
x,-y,z
1/2+x,1/2+y,z
1/2-x,1/2+y,-z
1/2-x,1/2-y,-z
1/2+x,1/2-y,z
loop_
_atom_site_type_symbol
_atom_site_label
_atom_site_fract_x
_atom_site_fract_y
_atom_site_fract_z
Si Si1 0.368083 0.913534 0.211285
Si Si2 0.928202 0.411208 0.081739
Si Si3 0.054488 0.086466 0.211285
Si Si4 0.801788 0.823544 0.641456
Si Si5 0.481123 0.823544 0.641456
Si Si6 0.735278 0.911208 0.081739
Si Si7 0.661646 0.916731 0.500000
O O1 0.389140 0.879082 0.143998
O O2 0.188584 0.903319 0.188583
O O3 0.478268 0.869539 0.285092
O O4 0.417944 0.000000 0.225913
O O5 0.920039 0.500000 0.081585
O O6 0.100518 0.384650 0.100516
O O7 0.803801 0.381710 0.000000
O O8 0.091917 0.130461 0.285091
O O9 0.898858 0.120918 0.143997
O O10 0.033884 0.000000 0.225913
O O11 0.635272 0.803312 0.635272
O O12 0.783330 0.872964 0.572562
O O13 0.892432 0.750000 0.642432
O O14 0.361795 0.872964 0.572562
O O15 0.743134 0.000000 0.081585
O O16 0.500000 0.923723 0.500000
O O17 0.726127 0.000000 0.500000
#
# Coordination Sequence:
#
# PCOD8095791 Si02
#       7
#     8   8   8   8   8   8   8
#     4   9  17  29  46  69  95 123 159 200 237 276
#     4   8  14  25  42  66  95 124 154 191 238 288
#     4   9  17  29  46  69  95 123 159 200 237 276
#     4  10  20  33  50  72  98 128 160 194 234 281
#     4  10  20  33  50  72  98 128 160 194 234 281
#     4   8  14  25  42  66  95 124 154 191 238 288
#     4   9  17  32  55  77  96 123 160 198 234 275
#
# _framework density 17.684971999999998
#
# number of rings (size 3 to 8) (size 9 to 14) (size 15 to 20)
#    0.000    3.000    0.000    2.143    0.000    5.143 
#    0.000    2.857    0.000    4.286    0.000    0.000 
#    0.000    0.000    0.000    0.000    0.000    0.000 
#
# Total GULP energy -347119.573684 kJ/mol
# GULP energy per Si atom -12397.127632 kJ/mol
# Density = 1.764472 g / cm^3
# Si number density = 17.684972 Si / 1000 Ang^3
#
#
#
# Elastic Constant Matrix: (Units=GPa)
#
#
# Indices 1 2 3 4 5 6 
#
# 1 75.8439 52.0501 85.8864 0.0000 5.0325 0.0000
# 2 52.0501 85.7024 66.9806 0.0000 1.2742 0.0000
# 3 85.8864 66.9806 188.7278 0.0000 4.6048 0.0000
# 4 0.0000 0.0000 0.0000 -1.6513 0.0000 -2.2562
# 5 5.0325 1.2742 4.6048 0.0000 24.4148 0.0000
# 6 0.0000 0.0000 0.0000 -2.2562 0.0000 24.7773
#
#
#
# Elastic Compliance Matrix: (Units=1/GPa)
#
#
# Indices 1 2 3 4 5 6 
#
# 1 0.034649 -0.012092 -0.011370 0.000000 -0.004367 0.000000
# 2 -0.012092 0.020369 -0.001769 0.000000 0.001763 0.000000
# 3 -0.011370 -0.001769 0.011092 0.000000 0.000344 0.000000
# 4 0.000000 0.000000 0.000000 -0.538589 0.000000 -0.049044
# 5 -0.004367 0.001763 0.000344 0.000000 0.041702 0.000000
# 6 0.000000 0.000000 0.000000 -0.049044 0.000000 0.035894
#
#
# Mechanical properties :
#
#
# Convention : Reuss Voigt Hill
#
# Bulk Modulus (GPa) = 63.90855 84.45648 74.18252
# Shear Modulus (GPa) = -14.74034 19.19863 2.22915
#
# Velocity S-wave (km/s) = -2.89016 3.29840 1.12393
# Velocity P-wave (km/s) = 5.00782 7.89720 6.61226
#
# Compressibility (1/GPa) = 0.01564736
#
# Stress axis : x y z
#
# Youngs Moduli (GPa) = 28.86110 49.09464 90.15341
#
# Poissons Ratio (x) = 0.59368 1.02502
# Poissons Ratio (y) = 0.34900 0.15948
# Poissons Ratio (z) = 0.32814 0.08685
#
# Static dielectric constant tensor:
#      x y z
#    x 3.221090 0.000000 0.038070 
#    y 0.000000 3.033760 0.000000 
#    z 0.038070 0.000000 3.666930 
# 
# 
# High freq. dielectric constant tensor:
#      x y z
#    x 1.666480 0.000000 0.003060 
#    y 0.000000 1.654050 0.000000 
#    z 0.003060 0.000000 1.702320 
# 
# From -- ./inp_files/257185.got.cif
#   From: 2010.06.25/outbox.cif.g09.slc.cpg/sg12_129_cif.got.tgz:257185.got - 2010.06.28 00:19:55.
