data_PCOD8095693
_publ_section_title
;
Structure prediction by ZEFSAII (Michael W. Deem and Ramdas Pophale) SiO2 
 PCOD8095693
Probable space group: C 2/M
;
_chemical_formula_sum "Si O2"
_cell_formula_units_Z 56
_cell_length_a 10.275614
_cell_length_b 29.306963
_cell_length_c 15.934370
_cell_angle_alpha 90.000000
_cell_angle_beta 40.594045
_cell_angle_gamma 90.000000
_cell_volume 3122.418882
_symmetry_space_group_name_H-M "C 2/M"
_symmetry_group_IT_number 12
_symmetry_cell_setting 'monoclinic'
loop_
_space_group_symop_operation_xyz
x,y,z
-x,y,-z
-x,-y,-z
x,-y,z
1/2+x,1/2+y,z
1/2-x,1/2+y,-z
1/2-x,1/2-y,-z
1/2+x,1/2-y,z
loop_
_atom_site_type_symbol
_atom_site_label
_atom_site_fract_x
_atom_site_fract_y
_atom_site_fract_z
Si Si1 0.317434 0.387789 0.879984
Si Si2 0.275846 0.553032 0.599342
Si Si3 0.420711 0.553989 0.129569
Si Si4 0.935598 0.283903 0.160602
Si Si5 0.491459 0.052936 0.596233
Si Si6 0.165575 0.214817 0.144323
Si Si7 0.407240 0.113598 0.175769
O O1 0.472088 0.423380 0.842823
O O2 0.411340 0.336972 0.829381
O O3 0.255340 0.399893 0.815403
O O4 0.127107 0.391569 0.032642
O O5 0.500000 0.572175 0.500000
O O6 0.265673 0.500000 0.628748
O O7 0.122964 0.579261 0.733637
O O8 0.201447 0.561723 0.540708
O O9 0.456190 0.500000 0.117683
O O10 0.190300 0.569342 0.254761
O O11 0.500000 0.572132 0.000000
O O12 0.977809 0.247666 0.214181
O O13 0.740179 0.271190 0.201072
O O14 0.889404 0.334453 0.218001
O O15 0.137510 0.281613 0.008423
O O16 0.500000 0.077046 0.500000
O O17 0.452955 0.000000 0.599958
#
# Coordination Sequence:
#
# PCOD8095693 Si02
#       7
#     8   8   8   8   8   8   8
#     4   9  18  31  48  74 104 135 166 203 252 315
#     4  10  21  35  53  74  97 131 179 217 247 299
#     4  10  20  33  49  71 105 140 170 207 259 309
#     4   8  14  27  45  65  98 129 156 199 251 298
#     4   9  19  35  52  70  98 133 170 216 257 292
#     4   8  14  27  43  68  97 127 162 197 242 301
#     4   9  18  32  49  72 106 133 162 212 261 299
#
# _framework density 17.934812000000001
#
# number of rings (size 3 to 8) (size 9 to 14) (size 15 to 20)
#    0.000    3.000    0.000    2.571    2.000    2.286 
#   10.286    1.429    0.000    0.000    0.000    5.000 
#    0.000    0.000    0.000    0.000    0.000    0.000 
#
# Total GULP energy -346904.125331 kJ/mol
# GULP energy per Si atom -12389.433048 kJ/mol
# Density = 1.789399 g / cm^3
# Si number density = 17.934812 Si / 1000 Ang^3
#
#
#
# Elastic Constant Matrix: (Units=GPa)
#
#
# Indices 1 2 3 4 5 6 
#
# 1 112.8470 46.3197 33.0607 0.0000 -1.7749 0.0000
# 2 46.3197 58.3887 15.4159 0.0000 2.2967 0.0000
# 3 33.0607 15.4159 64.0151 0.0000 6.3627 0.0000
# 4 0.0000 0.0000 0.0000 9.3005 0.0000 -3.3566
# 5 -1.7749 2.2967 6.3627 0.0000 20.0362 0.0000
# 6 0.0000 0.0000 0.0000 -3.3566 0.0000 31.6921
#
#
#
# Elastic Compliance Matrix: (Units=1/GPa)
#
#
# Indices 1 2 3 4 5 6 
#
# 1 0.014871 -0.010492 -0.005580 0.000000 0.004292 0.000000
# 2 -0.010492 0.025703 -0.000398 0.000000 -0.003749 0.000000
# 3 -0.005580 -0.000398 0.019251 0.000000 -0.006562 0.000000
# 4 0.000000 0.000000 0.000000 0.111795 0.000000 0.011841
# 5 0.004292 -0.003749 -0.006562 0.000000 0.052803 0.000000
# 6 0.000000 0.000000 0.000000 0.011841 0.000000 0.032808
#
#
# Mechanical properties :
#
#
# Convention : Reuss Voigt Hill
#
# Bulk Modulus (GPa) = 37.19717 47.20482 42.20099
# Shear Modulus (GPa) = 16.71502 21.56939 19.14221
#
# Velocity S-wave (km/s) = 3.05616 3.47169 3.27053
# Velocity P-wave (km/s) = 5.76530 6.51518 6.15168
#
# Compressibility (1/GPa) = 0.02688377
#
# Stress axis : x y z
#
# Youngs Moduli (GPa) = 67.24709 38.90618 51.94511
#
# Poissons Ratio (x) = 0.40822 0.28984
# Poissons Ratio (y) = 0.70559 0.02068
# Poissons Ratio (z) = 0.37522 0.01549
#
# Static dielectric constant tensor:
#      x y z
#    x 3.635700 0.000000 0.045380 
#    y 0.000000 3.266590 0.000000 
#    z 0.045380 0.000000 3.046150 
# 
# 
# High freq. dielectric constant tensor:
#      x y z
#    x 1.708210 0.000000 0.002670 
#    y 0.000000 1.672590 0.000000 
#    z 0.002670 0.000000 1.652890 
# 
# From -- ./inp_files/200836.got.cif
#   From: 2010.06.25/outbox.cif.g09.slc.cpg/sg12_101_cif.got.tgz:200836.got - 2010.06.28 00:19:55.
