data_PCOD8095171
_publ_section_title
;
Structure prediction by ZEFSAII (Michael W. Deem and Ramdas Pophale) SiO2 
 PCOD8095171
Probable space group: C 2/M
;
_chemical_formula_sum "Si O2"
_cell_formula_units_Z 48
_cell_length_a 15.155841
_cell_length_b 8.849214
_cell_length_c 20.161663
_cell_angle_alpha 90.000000
_cell_angle_beta 110.416503
_cell_angle_gamma 90.000000
_cell_volume 2534.164601
_symmetry_space_group_name_H-M "C 2/M"
_symmetry_group_IT_number 12
_symmetry_cell_setting 'monoclinic'
loop_
_space_group_symop_operation_xyz
x,y,z
-x,y,-z
-x,-y,-z
x,-y,z
1/2+x,1/2+y,z
1/2-x,1/2+y,-z
1/2-x,1/2-y,-z
1/2+x,1/2-y,z
loop_
_atom_site_type_symbol
_atom_site_label
_atom_site_fract_x
_atom_site_fract_y
_atom_site_fract_z
Si Si1 0.507615 0.821329 0.839308
Si Si2 0.801926 0.179376 0.075564
Si Si3 0.698704 0.178722 0.179086
Si Si4 0.745515 0.320867 0.663102
Si Si5 0.549878 0.178890 0.319732
Si Si6 0.944733 0.320565 0.420973
O O1 0.590217 0.731491 0.897206
O O2 0.410808 0.772579 0.850131
O O3 0.502657 0.768942 0.761138
O O4 0.525318 0.000000 0.850084
O O5 0.751556 0.244069 0.128671
O O6 0.795734 0.000000 0.070015
O O7 0.750000 0.250000 0.000000
O O8 0.750295 0.236589 0.259382
O O9 0.703076 0.000000 0.180692
O O10 0.732743 0.500000 0.656296
O O11 0.841471 0.268062 0.651987
O O12 0.660670 0.241366 0.602770
O O13 0.496853 0.247134 0.369635
O O14 0.548758 0.000000 0.321869
O O15 0.941548 0.500000 0.417752
O O16 0.000000 0.262654 0.500000
#
# Coordination Sequence:
#
# PCOD8095171 Si02
#       6
#     8   8   8   8   8   8
#     4   9  17  34  57  75  92 124 168 205 240 284
#     4  11  22  35  50  73 103 131 159 195 242 291
#     4   8  17  34  55  74  95 126 162 201 245 290
#     4   9  17  33  55  74  92 123 169 209 238 278
#     4   8  16  32  53  73  96 128 163 200 244 291
#     4  10  20  32  46  70 105 137 160 192 245 297
#
# _framework density 18.941154000000001
#
# number of rings (size 3 to 8) (size 9 to 14) (size 15 to 20)
#    0.000    2.833    0.000    3.500    0.000    1.667 
#    0.000   10.000    0.000    0.000    0.000    0.000 
#    0.000    0.000    0.000    0.000    0.000    0.000 
#
# Total GULP energy -297553.895205 kJ/mol
# GULP energy per Si atom -12398.078967 kJ/mol
# Density = 1.889804 g / cm^3
# Si number density = 18.941154 Si / 1000 Ang^3
#
#
#
# Elastic Constant Matrix: (Units=GPa)
#
#
# Indices 1 2 3 4 5 6 
#
# 1 94.2524 19.7043 48.2527 0.0000 25.1144 0.0000
# 2 19.7043 29.6165 24.0447 0.0000 7.9495 0.0000
# 3 48.2527 24.0447 100.7001 0.0000 29.5113 0.0000
# 4 0.0000 0.0000 0.0000 22.8946 0.0000 7.7976
# 5 25.1144 7.9495 29.5113 0.0000 34.4798 0.0000
# 6 0.0000 0.0000 0.0000 7.7976 0.0000 28.6581
#
#
#
# Elastic Compliance Matrix: (Units=1/GPa)
#
#
# Indices 1 2 3 4 5 6 
#
# 1 0.015645 -0.005117 -0.004379 0.000000 -0.006467 0.000000
# 2 -0.005117 0.043614 -0.008152 0.000000 0.000649 0.000000
# 3 -0.004379 -0.008152 0.016672 0.000000 -0.009200 0.000000
# 4 0.000000 0.000000 0.000000 0.048140 0.000000 -0.013098
# 5 -0.006467 0.000649 -0.009200 0.000000 0.041438 0.000000
# 6 0.000000 0.000000 0.000000 -0.013098 0.000000 0.038458
#
#
# Mechanical properties :
#
#
# Convention : Reuss Voigt Hill
#
# Bulk Modulus (GPa) = 24.61083 45.39692 35.00387
# Shear Modulus (GPa) = 19.77788 26.04433 22.91110
#
# Velocity S-wave (km/s) = 3.23488 3.71214 3.48169
# Velocity P-wave (km/s) = 5.19366 6.51097 5.88926
#
# Compressibility (1/GPa) = 0.04063252
#
# Stress axis : x y z
#
# Youngs Moduli (GPa) = 63.91836 22.92851 59.98224
#
# Poissons Ratio (x) = 0.11734 0.26269
# Poissons Ratio (y) = 0.32710 0.48898
# Poissons Ratio (z) = 0.27992 0.18692
#
# Static dielectric constant tensor:
#      x y z
#    x 3.799610 0.000000 -0.239640 
#    y 0.000000 3.011180 0.000000 
#    z -0.239640 0.000000 3.649040 
# 
# 
# High freq. dielectric constant tensor:
#      x y z
#    x 1.748930 0.000000 0.003240 
#    y 0.000000 1.696540 0.000000 
#    z 0.003240 0.000000 1.735840 
# 
# From -- ./inp_files/308293.got.cif
#   From: 2010.06.25/outbox.cif.g09.slc.cpg/sg12_155_cif.got.tgz:308293.got - 2010.06.28 00:19:55.
