data_PCOD8095252
_publ_section_title
;
Structure prediction by ZEFSAII (Michael W. Deem and Ramdas Pophale) SiO2 
 PCOD8095252
Probable space group: C 2/M
;
_chemical_formula_sum "Si O2"
_cell_formula_units_Z 56
_cell_length_a 19.074951
_cell_length_b 9.130517
_cell_length_c 16.964071
_cell_angle_alpha 90.000000
_cell_angle_beta 85.028541
_cell_angle_gamma 90.000000
_cell_volume 2943.418266
_symmetry_space_group_name_H-M "C 2/M"
_symmetry_group_IT_number 12
_symmetry_cell_setting 'monoclinic'
loop_
_space_group_symop_operation_xyz
x,y,z
-x,y,-z
-x,-y,-z
x,-y,z
1/2+x,1/2+y,z
1/2-x,1/2+y,-z
1/2-x,1/2-y,-z
1/2+x,1/2-y,z
loop_
_atom_site_type_symbol
_atom_site_label
_atom_site_fract_x
_atom_site_fract_y
_atom_site_fract_z
Si Si1 0.819708 0.666181 0.009724
Si Si2 0.962843 0.671862 0.924308
Si Si3 0.227067 0.674935 0.582119
Si Si4 0.682397 0.667870 0.279268
Si Si5 0.177703 0.666845 0.813740
Si Si6 0.034523 0.829052 0.236163
Si Si7 0.389261 0.330566 0.317828
O O1 0.797674 0.500000 0.003479
O O2 0.847565 0.696285 0.095300
O O3 0.750000 0.750000 0.000000
O O4 0.880106 0.706999 0.941898
O O5 0.978830 0.500000 0.913742
O O6 0.988763 0.750694 0.842685
O O7 0.000000 0.731895 0.000000
O O8 0.225012 0.500000 0.574100
O O9 0.250000 0.750000 0.500000
O O10 0.282084 0.729614 0.643907
O O11 0.148662 0.731800 0.612095
O O12 0.665462 0.500000 0.297264
O O13 0.737770 0.689897 0.202500
O O14 0.607300 0.741072 0.263659
O O15 0.159613 0.500000 0.788058
O O16 0.138091 0.785099 0.765327
O O17 0.973706 0.805001 0.307939
O O18 0.043787 0.000000 0.215415
O O19 0.371181 0.500000 0.335511
#
# Coordination Sequence:
#
# PCOD8095252 Si02
#       7
#     8   8   8   8   8   8   8
#     4  10  20  32  48  71  98 132 174 221 270 314
#     4  10  21  35  50  71 102 140 180 221 266 312
#     4  10  20  37  61  84 108 137 168 204 248 302
#     4   8  16  32  54  77 100 133 173 210 252 301
#     4   9  17  32  52  70  95 135 178 216 258 311
#     4  10  20  35  54  76 103 136 177 219 258 306
#     4  10  20  33  53  80 105 131 167 210 254 304
#
# _framework density 19.025497999999999
#
# number of rings (size 3 to 8) (size 9 to 14) (size 15 to 20)
#    0.000    2.429    0.000    3.429    0.000    4.857 
#    0.000    5.714    0.000    4.286    0.000    0.000 
#    0.000    0.000    0.000    0.000    0.000    0.000 
#
# Total GULP energy -347070.683217 kJ/mol
# GULP energy per Si atom -12395.381543 kJ/mol
# Density = 1.898220 g / cm^3
# Si number density = 19.025498 Si / 1000 Ang^3
#
#
#
# Elastic Constant Matrix: (Units=GPa)
#
#
# Indices 1 2 3 4 5 6 
#
# 1 62.9376 22.7628 31.4250 0.0000 -3.7209 0.0000
# 2 22.7628 59.0998 34.8913 0.0000 -7.7933 0.0000
# 3 31.4250 34.8913 87.8145 0.0000 -19.3308 0.0000
# 4 0.0000 0.0000 0.0000 31.7518 0.0000 -1.9777
# 5 -3.7209 -7.7933 -19.3308 0.0000 23.3090 0.0000
# 6 0.0000 0.0000 0.0000 -1.9777 0.0000 26.4685
#
#
#
# Elastic Compliance Matrix: (Units=1/GPa)
#
#
# Indices 1 2 3 4 5 6 
#
# 1 0.020487 -0.004663 -0.006241 0.000000 -0.003465 0.000000
# 2 -0.004663 0.023168 -0.007334 0.000000 0.000919 0.000000
# 3 -0.006241 -0.007334 0.019299 0.000000 0.012557 0.000000
# 4 0.000000 0.000000 0.000000 0.031642 0.000000 0.002364
# 5 -0.003465 0.000919 0.012557 0.000000 0.053070 0.000000
# 6 0.000000 0.000000 0.000000 0.002364 0.000000 0.037957
#
#
# Mechanical properties :
#
#
# Convention : Reuss Voigt Hill
#
# Bulk Modulus (GPa) = 37.76847 43.11221 40.44034
# Shear Modulus (GPa) = 21.65204 24.35737 23.00470
#
# Velocity S-wave (km/s) = 3.37716 3.58194 3.48106
# Velocity P-wave (km/s) = 5.92466 6.31003 6.12038
#
# Compressibility (1/GPa) = 0.02647711
#
# Stress axis : x y z
#
# Youngs Moduli (GPa) = 48.81234 43.16376 51.81488
#
# Poissons Ratio (x) = 0.20126 0.32339
# Poissons Ratio (y) = 0.22760 0.38002
# Poissons Ratio (z) = 0.30465 0.31657
#
# Static dielectric constant tensor:
#      x y z
#    x 3.668670 0.000000 -0.156140 
#    y 0.000000 2.981930 0.000000 
#    z -0.156140 0.000000 3.391280 
# 
# 
# High freq. dielectric constant tensor:
#      x y z
#    x 1.745970 0.000000 -0.016920 
#    y 0.000000 1.721320 0.000000 
#    z -0.016920 0.000000 1.726970 
# 
# From -- ./inp_files/313277.got.cif
#   From: 2010.06.25/outbox.cif.g09.slc.cpg/sg12_157_cif.got.tgz:313277.got - 2010.06.28 00:19:55.
