data_PCOD8095955
_publ_section_title
;
Structure prediction by ZEFSAII (Michael W. Deem and Ramdas Pophale) SiO2 
 PCOD8095955
Probable space group: C 2/M
;
_chemical_formula_sum "Si O2"
_cell_formula_units_Z 56
_cell_length_a 10.957131
_cell_length_b 23.501942
_cell_length_c 17.997579
_cell_angle_alpha 90.000000
_cell_angle_beta 138.920876
_cell_angle_gamma 90.000000
_cell_volume 3045.415693
_symmetry_space_group_name_H-M "C 2/M"
_symmetry_group_IT_number 12
_symmetry_cell_setting 'monoclinic'
loop_
_space_group_symop_operation_xyz
x,y,z
-x,y,-z
-x,-y,-z
x,-y,z
1/2+x,1/2+y,z
1/2-x,1/2+y,-z
1/2-x,1/2-y,-z
1/2+x,1/2-y,z
loop_
_atom_site_type_symbol
_atom_site_label
_atom_site_fract_x
_atom_site_fract_y
_atom_site_fract_z
Si Si1 0.743130 0.743599 0.171563
Si Si2 0.686913 0.435048 0.131258
Si Si3 0.799833 0.181635 0.437454
Si Si4 0.862096 0.340640 0.989401
Si Si5 0.039978 0.645013 0.805051
Si Si6 0.558675 0.345959 0.183539
Si Si7 0.879228 0.799499 0.634097
O O1 0.654887 0.782262 0.066516
O O2 0.820655 0.688842 0.167077
O O3 0.593513 0.716628 0.161555
O O4 0.912006 0.776958 0.289781
O O5 0.715018 0.500000 0.168459
O O6 0.861177 0.416411 0.159634
O O7 0.675640 0.396504 0.200210
O O8 0.500000 0.425656 0.000000
O O9 0.656191 0.142193 0.326956
O O10 0.794065 0.168910 0.523334
O O11 0.752686 0.247584 0.402374
O O12 0.000000 0.165613 0.500000
O O13 0.659764 0.363532 0.918403
O O14 0.984731 0.335178 0.120783
O O15 0.000000 0.379421 0.000000
O O16 0.619454 0.343383 0.297221
#
# Coordination Sequence:
#
# PCOD8095955 Si02
#       7
#     8   8   8   8   8   8   8
#     4   9  20  30  50  73 110 152 177 219 261 315
#     4  10  20  39  65  82 102 137 180 237 291 333
#     4  10  20  33  51  73 112 160 188 209 252 322
#     4  11  23  28  47  78 116 146 172 216 267 338
#     4  10  21  36  50  81 108 137 187 227 266 320
#     4  10  20  35  52  80 112 142 184 227 273 322
#     4   9  19  33  49  76 110 151 193 220 248 311
#
# _framework density 18.388293999999998
#
# number of rings (size 3 to 8) (size 9 to 14) (size 15 to 20)
#    0.000    2.143    1.429    1.286   12.000    1.143 
#    0.000    0.000    0.000    3.857    0.000    0.000 
#    0.000    0.000    0.000    0.000    0.000    0.000 
#
# Total GULP energy -346927.337339 kJ/mol
# GULP energy per Si atom -12390.262048 kJ/mol
# Density = 1.834644 g / cm^3
# Si number density = 18.388294 Si / 1000 Ang^3
#
#
#
# Elastic Constant Matrix: (Units=GPa)
#
#
# Indices 1 2 3 4 5 6 
#
# 1 92.4520 22.9844 57.4452 0.0002 4.4934 0.0000
# 2 22.9844 59.8104 42.7070 0.0001 -3.9640 -0.0001
# 3 57.4452 42.7070 135.3399 0.0004 -16.0326 0.0002
# 4 0.0002 0.0001 0.0004 11.9226 0.0002 -0.1494
# 5 4.4934 -3.9640 -16.0326 0.0002 31.2070 0.0001
# 6 0.0000 -0.0001 0.0002 -0.1494 0.0001 13.1326
#
#
#
# Elastic Compliance Matrix: (Units=1/GPa)
#
#
# Indices 1 2 3 4 5 6 
#
# 1 0.015801 -0.001514 -0.006944 0.000000 -0.006035 0.000000
# 2 -0.001514 0.021747 -0.006247 0.000000 -0.000229 0.000000
# 3 -0.006944 -0.006247 0.013131 0.000000 0.006952 0.000000
# 4 0.000000 0.000000 0.000000 0.083886 -0.000001 0.000954
# 5 -0.006035 -0.000229 0.006952 -0.000001 0.036456 0.000000
# 6 0.000000 0.000000 0.000000 0.000954 0.000000 0.076157
#
#
# Mechanical properties :
#
#
# Convention : Reuss Voigt Hill
#
# Bulk Modulus (GPa) = 47.01624 59.31952 53.16788
# Shear Modulus (GPa) = 17.62577 22.21683 19.92130
#
# Velocity S-wave (km/s) = 3.09938 3.47970 3.29503
# Velocity P-wave (km/s) = 6.19938 6.96231 6.59189
#
# Compressibility (1/GPa) = 0.02126925
#
# Stress axis : x y z
#
# Youngs Moduli (GPa) = 63.28870 45.98437 76.15629
#
# Poissons Ratio (x) = 0.06961 0.52881
# Poissons Ratio (y) = 0.09581 0.47573
# Poissons Ratio (z) = 0.43946 0.28725
#
# Static dielectric constant tensor:
#      x y z
#    x 3.791880 0.000000 0.078440 
#    y 0.000000 2.908280 0.000000 
#    z 0.078440 0.000000 3.624850 
# 
# 
# High freq. dielectric constant tensor:
#      x y z
#    x 1.732190 0.000000 -0.000440 
#    y 0.000000 1.638310 0.000000 
#    z -0.000440 0.000000 1.723740 
# 
# From -- ./inp_files/265579.got.cif
#   From: 2010.06.25/outbox.cif.g09.slc.cpg/sg12_133_cif.got.tgz:265579.got - 2010.06.28 00:19:55.
