data_PCOD8095996
_publ_section_title
;
Structure prediction by ZEFSAII (Michael W. Deem and Ramdas Pophale) SiO2 
 PCOD8095996
Probable space group: C 2/M
;
_chemical_formula_sum "Si O2"
_cell_formula_units_Z 48
_cell_length_a 19.713261
_cell_length_b 9.309044
_cell_length_c 15.893856
_cell_angle_alpha 90.000000
_cell_angle_beta 108.834886
_cell_angle_gamma 90.000000
_cell_volume 2760.525855
_symmetry_space_group_name_H-M "C 2/M"
_symmetry_group_IT_number 12
_symmetry_cell_setting 'monoclinic'
loop_
_space_group_symop_operation_xyz
x,y,z
-x,y,-z
-x,-y,-z
x,-y,z
1/2+x,1/2+y,z
1/2-x,1/2+y,-z
1/2-x,1/2-y,-z
1/2+x,1/2-y,z
loop_
_atom_site_type_symbol
_atom_site_label
_atom_site_fract_x
_atom_site_fract_y
_atom_site_fract_z
Si Si1 0.529187 0.666221 0.921778
Si Si2 0.991592 0.330478 0.743769
Si Si3 0.651594 0.833601 0.411112
Si Si4 0.186934 0.163581 0.933040
Si Si5 0.307327 0.667606 0.415460
Si Si6 0.624714 0.330791 0.732688
O O1 0.510679 0.500000 0.895199
O O2 0.491748 0.764450 0.836961
O O3 0.614365 0.690365 0.956033
O O4 0.500000 0.715889 0.000000
O O5 0.006028 0.500000 0.754485
O O6 0.914595 0.293685 0.674273
O O7 0.050989 0.257164 0.708314
O O8 0.645403 0.747648 0.495751
O O9 0.723861 0.789998 0.390355
O O10 0.651928 0.000000 0.435254
O O11 0.174971 0.211197 0.831598
O O12 0.211117 0.000000 0.946413
O O13 0.250000 0.250000 0.000000
O O14 0.319583 0.500000 0.433974
O O15 0.333780 0.716000 0.334381
O O16 0.606296 0.500000 0.728041
#
# Coordination Sequence:
#
# PCOD8095996 Si02
#       6
#     8   8   8   8   8   8
#     4   9  19  36  54  72  98 131 166 203 241 285
#     4  10  20  33  51  75 102 130 160 200 248 293
#     4   9  19  34  50  73 103 129 159 204 251 289
#     4   9  18  32  50  72  98 127 159 199 243 286
#     4   9  18  34  54  72  94 130 170 202 239 291
#     4   9  19  35  52  71  98 131 166 203 241 287
#
# _framework density 17.387992000000001
#
# number of rings (size 3 to 8) (size 9 to 14) (size 15 to 20)
#    0.000    2.833    0.000    1.500    0.000    7.000 
#    0.000    5.000    0.000    0.000    0.000    0.000 
#    0.000    0.000    0.000    0.000    0.000    0.000 
#
# Total GULP energy -297627.171017 kJ/mol
# GULP energy per Si atom -12401.132126 kJ/mol
# Density = 1.734842 g / cm^3
# Si number density = 17.387992 Si / 1000 Ang^3
#
#
#
# Elastic Constant Matrix: (Units=GPa)
#
#
# Indices 1 2 3 4 5 6 
#
# 1 102.4617 50.5674 89.1493 0.0000 -7.8752 0.0000
# 2 50.5674 61.2590 57.2238 0.0000 4.3178 0.0000
# 3 89.1493 57.2238 128.2714 0.0000 -10.2750 0.0000
# 4 0.0000 0.0000 0.0000 34.1827 0.0000 4.3829
# 5 -7.8752 4.3178 -10.2750 0.0000 40.4343 0.0000
# 6 0.0000 0.0000 0.0000 4.3829 0.0000 26.1534
#
#
#
# Elastic Compliance Matrix: (Units=1/GPa)
#
#
# Indices 1 2 3 4 5 6 
#
# 1 0.027081 -0.008801 -0.014697 0.000000 0.002480 0.000000
# 2 -0.008801 0.032507 -0.008984 0.000000 -0.007468 0.000000
# 3 -0.014697 -0.008984 0.022320 0.000000 0.003769 0.000000
# 4 0.000000 0.000000 0.000000 0.029897 0.000000 -0.005010
# 5 0.002480 -0.007468 0.003769 0.000000 0.026970 0.000000
# 6 0.000000 0.000000 0.000000 -0.005010 0.000000 0.039076
#
#
# Mechanical properties :
#
#
# Convention : Reuss Voigt Hill
#
# Bulk Modulus (GPa) = 59.01115 76.20811 67.60963
# Shear Modulus (GPa) = 20.12398 26.49087 23.30743
#
# Velocity S-wave (km/s) = 3.40567 3.90746 3.66516
# Velocity P-wave (km/s) = 7.03394 8.01753 7.54179
#
# Compressibility (1/GPa) = 0.01694595
#
# Stress axis : x y z
#
# Youngs Moduli (GPa) = 36.92667 30.76259 44.80328
#
# Poissons Ratio (x) = 0.27073 0.65845
# Poissons Ratio (y) = 0.32498 0.40250
# Poissons Ratio (z) = 0.54269 0.27636
#
# Static dielectric constant tensor:
#      x y z
#    x 3.349920 0.000000 -0.165980 
#    y 0.000000 3.208380 0.000000 
#    z -0.165980 0.000000 3.314500 
# 
# 
# High freq. dielectric constant tensor:
#      x y z
#    x 1.671850 0.000000 -0.003530 
#    y 0.000000 1.670410 0.000000 
#    z -0.003530 0.000000 1.673740 
# 
# From -- ./inp_files/230436.got.cif
#   From: 2010.06.25/outbox.cif.g09.slc.cpg/sg12_116_cif.got.tgz:230436.got - 2010.06.28 00:19:55.
