data_PCOD8095184
_publ_section_title
;
Structure prediction by ZEFSAII (Michael W. Deem and Ramdas Pophale) SiO2 
 PCOD8095184
Probable space group: C 2/M
;
_chemical_formula_sum "Si O2"
_cell_formula_units_Z 56
_cell_length_a 13.086256
_cell_length_b 13.128492
_cell_length_c 22.161622
_cell_angle_alpha 90.000000
_cell_angle_beta 121.748694
_cell_angle_gamma 90.000000
_cell_volume 3237.701280
_symmetry_space_group_name_H-M "C 2/M"
_symmetry_group_IT_number 12
_symmetry_cell_setting 'monoclinic'
loop_
_space_group_symop_operation_xyz
x,y,z
-x,y,-z
-x,-y,-z
x,-y,z
1/2+x,1/2+y,z
1/2-x,1/2+y,-z
1/2-x,1/2-y,-z
1/2+x,1/2-y,z
loop_
_atom_site_type_symbol
_atom_site_label
_atom_site_fract_x
_atom_site_fract_y
_atom_site_fract_z
Si Si1 0.905896 0.219724 0.420688
Si Si2 0.280816 0.382189 0.679933
Si Si3 0.361507 0.268422 0.950579
Si Si4 0.603113 0.316141 0.398012
Si Si5 0.101127 0.881157 0.158408
Si Si6 0.773699 0.614660 0.552446
Si Si7 0.170947 0.881921 0.938821
O O1 0.834233 0.316650 0.374112
O O2 0.821157 0.134746 0.423611
O O3 0.000000 0.260365 0.500000
O O4 0.973803 0.161417 0.387165
O O5 0.244607 0.500000 0.666978
O O6 0.390470 0.359504 0.667580
O O7 0.324945 0.349638 0.759593
O O8 0.342684 0.318225 0.879327
O O9 0.271900 0.173357 0.929873
O O10 0.500000 0.232424 0.000000
O O11 0.325172 0.351031 0.989708
O O12 0.711815 0.368995 0.468299
O O13 0.616854 0.193100 0.405259
O O14 0.961476 0.854737 0.127256
O O15 0.113800 0.000000 0.146777
O O16 0.823179 0.500000 0.572836
O O17 0.200445 0.000000 0.942914
#
# Coordination Sequence:
#
# PCOD8095184 Si02
#       7
#     8   8   8   8   8   8   8
#     4   9  19  32  46  68  92 117 153 196 242 285
#     4  10  20  32  47  68  92 121 158 195 232 276
#     4   9  17  30  50  74  99 126 152 186 228 267
#     4   9  18  30  45  66  89 114 148 190 233 277
#     4   9  18  32  48  67  94 127 159 190 226 272
#     4   9  17  30  47  66  88 114 146 187 236 287
#     4   9  17  30  50  75  98 123 157 190 224 267
#
# _framework density 17.296223000000001
#
# number of rings (size 3 to 8) (size 9 to 14) (size 15 to 20)
#    0.000    2.857    0.000    1.714    0.000    7.143 
#    0.000    0.000    0.000    3.429    0.000    0.000 
#    0.000    0.000    0.000    0.000    0.000    0.000 
#
# Total GULP energy -347136.772454 kJ/mol
# GULP energy per Si atom -12397.741873 kJ/mol
# Density = 1.725686 g / cm^3
# Si number density = 17.296223 Si / 1000 Ang^3
#
#
#
# Elastic Constant Matrix: (Units=GPa)
#
#
# Indices 1 2 3 4 5 6 
#
# 1 78.0063 16.4869 30.2289 0.0000 -14.8881 0.0000
# 2 16.4869 80.7075 31.2832 0.0000 -0.2792 0.0000
# 3 30.2289 31.2832 92.5229 0.0000 -12.5923 0.0000
# 4 0.0000 0.0000 0.0000 20.2953 0.0000 -1.3254
# 5 -14.8881 -0.2792 -12.5923 0.0000 22.4822 0.0000
# 6 0.0000 0.0000 0.0000 -1.3254 0.0000 22.2009
#
#
#
# Elastic Compliance Matrix: (Units=1/GPa)
#
#
# Indices 1 2 3 4 5 6 
#
# 1 0.016249 -0.001951 -0.003451 0.000000 0.008804 0.000000
# 2 -0.001951 0.014650 -0.004836 0.000000 -0.003819 0.000000
# 3 -0.003451 -0.004836 0.014345 0.000000 0.005689 0.000000
# 4 0.000000 0.000000 0.000000 0.049465 0.000000 0.002953
# 5 0.008804 -0.003819 0.005689 0.000000 0.053449 0.000000
# 6 0.000000 0.000000 0.000000 0.002953 0.000000 0.045220
#
#
# Mechanical properties :
#
#
# Convention : Reuss Voigt Hill
#
# Bulk Modulus (GPa) = 40.37369 45.24829 42.81099
# Shear Modulus (GPa) = 22.51134 24.54485 23.52810
#
# Velocity S-wave (km/s) = 3.61157 3.77116 3.69223
# Velocity P-wave (km/s) = 6.38627 6.72159 6.55607
#
# Compressibility (1/GPa) = 0.02476861
#
# Stress axis : x y z
#
# Youngs Moduli (GPa) = 61.54047 68.25861 69.71095
#
# Poissons Ratio (x) = 0.13319 0.24058
# Poissons Ratio (y) = 0.12008 0.33710
# Poissons Ratio (z) = 0.21238 0.33007
#
# Static dielectric constant tensor:
#      x y z
#    x 3.317020 0.000000 -0.164550 
#    y 0.000000 3.068300 0.000000 
#    z -0.164550 0.000000 3.133060 
# 
# 
# High freq. dielectric constant tensor:
#      x y z
#    x 1.669550 0.000000 -0.017970 
#    y 0.000000 1.657940 0.000000 
#    z -0.017970 0.000000 1.650850 
# 
# From -- ./inp_files/309505.got.cif
#   From: 2010.06.25/outbox.cif.g09.slc.cpg/sg12_155_cif.got.tgz:309505.got - 2010.06.28 00:19:55.
