data_PCOD8095941
_publ_section_title
;
Structure prediction by ZEFSAII (Michael W. Deem and Ramdas Pophale) SiO2 
 PCOD8095941
Probable space group: C 2/M
;
_chemical_formula_sum "Si O2"
_cell_formula_units_Z 64
_cell_length_a 22.315933
_cell_length_b 21.034442
_cell_length_c 13.074254
_cell_angle_alpha 90.000000
_cell_angle_beta 33.148711
_cell_angle_gamma 90.000000
_cell_volume 3355.850147
_symmetry_space_group_name_H-M "C 2/M"
_symmetry_group_IT_number 12
_symmetry_cell_setting 'monoclinic'
loop_
_space_group_symop_operation_xyz
x,y,z
-x,y,-z
-x,-y,-z
x,-y,z
1/2+x,1/2+y,z
1/2-x,1/2+y,-z
1/2-x,1/2-y,-z
1/2+x,1/2-y,z
loop_
_atom_site_type_symbol
_atom_site_label
_atom_site_fract_x
_atom_site_fract_y
_atom_site_fract_z
Si Si1 0.574350 0.803565 0.988076
Si Si2 0.157134 0.071639 0.053900
Si Si3 0.094219 0.600213 0.290536
Si Si4 0.076468 0.568454 0.088009
Si Si5 0.527679 0.693221 0.213516
Si Si6 0.173796 0.188459 0.383691
Si Si7 0.332269 0.431507 0.723271
Si Si8 0.358156 0.755801 0.777961
O O1 0.698066 0.813911 0.771454
O O2 0.500000 0.782297 0.000000
O O3 0.525617 0.869780 0.104136
O O4 0.571813 0.747037 0.074283
O O5 0.080974 0.124677 0.105705
O O6 0.143529 0.082949 0.193698
O O7 0.120314 0.000000 0.074815
O O8 0.285432 0.079402 0.841811
O O9 0.059428 0.570387 0.233158
O O10 0.090152 0.675462 0.285617
O O11 0.000000 0.575172 0.500000
O O12 0.027341 0.500000 0.119021
O O13 0.204343 0.569111 0.884382
O O14 0.394433 0.697301 0.412535
O O15 0.558885 0.707169 0.287182
O O16 0.120459 0.123241 0.415760
O O17 0.160495 0.241732 0.314699
O O18 0.383199 0.500000 0.619424
O O19 0.250000 0.750000 0.000000
#
# Coordination Sequence:
#
# PCOD8095941 Si02
#       8
#     8   8   8   8   8   8   8   8
#     4  11  24  42  60  80 108 147 197 246 285 328
#     4  10  20  33  50  80 120 153 184 222 273 341
#     4  11  19  30  54  84 120 158 185 219 274 344
#     4   9  18  34  54  80 113 145 179 226 279 331
#     4  12  22  36  58  83 114 150 187 232 287 341
#     4  11  21  34  57  84 113 149 182 232 285 342
#     4   8  15  29  49  78 116 147 172 214 273 338
#     4  12  18  33  55  85 120 149 183 223 283 344
#
# _framework density 19.071175
#
# number of rings (size 3 to 8) (size 9 to 14) (size 15 to 20)
#    0.000    1.500    5.000    3.000    0.000    2.250 
#    0.000    1.250    0.000    0.375    0.000    0.000 
#    0.000    0.000    0.000    0.000    0.000    0.000 
#
# Total GULP energy -396477.145335 kJ/mol
# GULP energy per Si atom -12389.910792 kJ/mol
# Density = 1.902777 g / cm^3
# Si number density = 19.071175 Si / 1000 Ang^3
#
#
#
# Elastic Constant Matrix: (Units=GPa)
#
#
# Indices 1 2 3 4 5 6 
#
# 1 53.3421 22.3263 18.7350 0.0000 -5.9607 0.0000
# 2 22.3263 138.5928 20.2876 0.0001 -3.1012 0.0000
# 3 18.7350 20.2876 101.6786 0.0002 -11.8294 -0.0001
# 4 0.0000 0.0001 0.0002 7.9930 0.0000 -1.3813
# 5 -5.9607 -3.1012 -11.8294 0.0000 12.6968 0.0000
# 6 0.0000 0.0000 -0.0001 -1.3813 0.0000 10.9149
#
#
#
# Elastic Compliance Matrix: (Units=1/GPa)
#
#
# Indices 1 2 3 4 5 6 
#
# 1 0.021680 -0.002956 -0.002585 0.000000 0.007048 0.000000
# 2 -0.002956 0.007838 -0.001074 0.000000 -0.000474 0.000000
# 3 -0.002585 -0.001074 0.011613 0.000000 0.009343 0.000000
# 4 0.000000 0.000000 0.000000 0.127907 0.000000 0.016187
# 5 0.007048 -0.000474 0.009343 0.000000 0.090658 0.000000
# 6 0.000000 0.000000 0.000000 0.016187 0.000000 0.093667
#
#
# Mechanical properties :
#
#
# Convention : Reuss Voigt Hill
#
# Bulk Modulus (GPa) = 35.84320 46.25682 41.05001
# Shear Modulus (GPa) = 13.30167 21.80523 17.55345
#
# Velocity S-wave (km/s) = 2.64384 3.38503 3.03713
# Velocity P-wave (km/s) = 5.30614 6.29169 5.81981
#
# Compressibility (1/GPa) = 0.02789930
#
# Stress axis : x y z
#
# Youngs Moduli (GPa) = 46.12612 127.57879 86.11355
#
# Poissons Ratio (x) = 0.37717 0.22259
# Poissons Ratio (y) = 0.13637 0.09252
# Poissons Ratio (z) = 0.11923 0.13707
#
# Static dielectric constant tensor:
#      x y z
#    x 2.894110 0.000000 -0.155130 
#    y 0.000000 4.181270 0.000000 
#    z -0.155130 0.000000 3.588600 
# 
# 
# High freq. dielectric constant tensor:
#      x y z
#    x 1.674890 0.000000 -0.014620 
#    y 0.000000 1.764310 0.000000 
#    z -0.014620 0.000000 1.740760 
# 
# From -- ./inp_files/169671.got.cif
#   From: 2010.06.25/outbox.cif.g09.slc.cpg/sg12_85_cif.got.tgz:169671.got - 2010.06.28 00:19:55.
