data_PCOD8095486
_publ_section_title
;
Structure prediction by ZEFSAII (Michael W. Deem and Ramdas Pophale) SiO2 
 PCOD8095486
Probable space group: C 2/M
;
_chemical_formula_sum "Si O2"
_cell_formula_units_Z 64
_cell_length_a 20.458088
_cell_length_b 22.263662
_cell_length_c 12.038601
_cell_angle_alpha 90.000000
_cell_angle_beta 140.155369
_cell_angle_gamma 90.000000
_cell_volume 3513.158846
_symmetry_space_group_name_H-M "C 2/M"
_symmetry_group_IT_number 12
_symmetry_cell_setting 'monoclinic'
loop_
_space_group_symop_operation_xyz
x,y,z
-x,y,-z
-x,-y,-z
x,-y,z
1/2+x,1/2+y,z
1/2-x,1/2+y,-z
1/2-x,1/2-y,-z
1/2+x,1/2-y,z
loop_
_atom_site_type_symbol
_atom_site_label
_atom_site_fract_x
_atom_site_fract_y
_atom_site_fract_z
Si Si1 0.616063 0.066284 0.631080
Si Si2 0.862495 0.253875 0.025493
Si Si3 0.565946 0.905422 0.335715
Si Si4 0.189443 0.432836 0.286056
Si Si5 0.907421 0.269778 0.670952
Si Si6 0.743632 0.800970 0.335415
Si Si7 0.840808 0.565974 0.001059
Si Si8 0.724794 0.843981 0.928210
O O1 0.500000 0.083553 0.500000
O O2 0.634151 0.065479 0.521621
O O3 0.683169 0.117879 0.771805
O O4 0.644099 0.000000 0.714954
O O5 0.852763 0.293743 0.124879
O O6 0.980785 0.245922 0.148213
O O7 0.794383 0.285063 0.838938
O O8 0.824929 0.187316 0.009124
O O9 0.602757 0.931323 0.266196
O O10 0.579819 0.834836 0.364429
O O11 0.447918 0.922563 0.203084
O O12 0.243616 0.500000 0.361927
O O13 0.259915 0.372785 0.383652
O O14 0.135204 0.424444 0.096797
O O15 0.853282 0.228417 0.506563
O O16 0.841400 0.271577 0.696541
O O17 0.798973 0.500000 0.970474
O O18 0.755584 0.610551 0.942028
#
# Coordination Sequence:
#
# PCOD8095486 Si02
#       8
#     8   8   8   8   8   8   8   8
#     4  11  20  31  48  72 108 145 180 225 279 338
#     4  11  21  37  54  77 112 146 189 231 272 325
#     4  11  19  32  50  80 110 141 178 223 286 343
#     4  10  20  32  52  78 107 140 181 232 280 331
#     4  10  20  35  58  84 112 144 184 233 279 335
#     4  10  20  36  58  83 111 144 184 231 287 331
#     4  11  19  32  52  77 110 145 181 222 279 339
#     4  11  22  33  50  74 108 149 184 215 267 327
#
# _framework density 18.217223000000001
#
# number of rings (size 3 to 8) (size 9 to 14) (size 15 to 20)
#    0.000    1.375    3.750    3.000    0.000    3.000 
#    0.000    1.875    0.000    1.500    0.000    1.750 
#    0.000   11.000    0.000    0.000    0.000    0.000 
#
# Total GULP energy -396460.608676 kJ/mol
# GULP energy per Si atom -12389.394021 kJ/mol
# Density = 1.817576 g / cm^3
# Si number density = 18.217223 Si / 1000 Ang^3
#
#
#
# Elastic Constant Matrix: (Units=GPa)
#
#
# Indices 1 2 3 4 5 6 
#
# 1 64.2419 41.0025 29.0288 0.0000 -10.3810 0.0000
# 2 41.0025 146.3198 45.7778 0.0000 6.5257 0.0000
# 3 29.0288 45.7778 80.1824 0.0000 -9.3923 0.0000
# 4 0.0000 0.0000 0.0000 28.8834 0.0000 -1.0881
# 5 -10.3810 6.5257 -9.3923 0.0000 26.2483 0.0000
# 6 0.0000 0.0000 0.0000 -1.0881 0.0000 26.1001
#
#
#
# Elastic Compliance Matrix: (Units=1/GPa)
#
#
# Indices 1 2 3 4 5 6 
#
# 1 0.022181 -0.005369 -0.003947 0.000000 0.008695 0.000000
# 2 -0.005369 0.010028 -0.004511 0.000000 -0.006231 0.000000
# 3 -0.003947 -0.004511 0.017143 0.000000 0.005695 0.000000
# 4 0.000000 0.000000 0.000000 0.034676 0.000000 0.001446
# 5 0.008695 -0.006231 0.005695 0.000000 0.045123 0.000000
# 6 0.000000 0.000000 0.000000 0.001446 0.000000 0.038374
#
#
# Mechanical properties :
#
#
# Convention : Reuss Voigt Hill
#
# Bulk Modulus (GPa) = 46.08578 58.04026 52.06302
# Shear Modulus (GPa) = 24.70194 27.90870 26.30532
#
# Velocity S-wave (km/s) = 3.68634 3.91832 3.80410
# Velocity P-wave (km/s) = 6.59330 7.23880 6.92358
#
# Compressibility (1/GPa) = 0.02169867
#
# Stress axis : x y z
#
# Youngs Moduli (GPa) = 45.08319 99.71945 58.33223
#
# Poissons Ratio (x) = 0.53537 0.23022
# Poissons Ratio (y) = 0.24204 0.26316
# Poissons Ratio (z) = 0.17793 0.44988
#
# Static dielectric constant tensor:
#      x y z
#    x 3.372270 0.000000 -0.331370 
#    y 0.000000 3.701910 0.000000 
#    z -0.331370 0.000000 3.203240 
# 
# 
# High freq. dielectric constant tensor:
#      x y z
#    x 1.695360 0.000000 -0.043820 
#    y 0.000000 1.723520 0.000000 
#    z -0.043820 0.000000 1.671470 
# 
# From -- ./inp_files/169696.got.cif
#   From: 2010.06.25/outbox.cif.g09.slc.cpg/sg12_85_cif.got.tgz:169696.got - 2010.06.28 00:19:55.
