data_PCOD8095151
_publ_section_title
;
Structure prediction by ZEFSAII (Michael W. Deem and Ramdas Pophale) SiO2 
 PCOD8095151
Probable space group: C 2/M
;
_chemical_formula_sum "Si O2"
_cell_formula_units_Z 56
_cell_length_a 18.731221
_cell_length_b 9.237118
_cell_length_c 29.589419
_cell_angle_alpha 90.000000
_cell_angle_beta 142.787654
_cell_angle_gamma 90.000000
_cell_volume 3096.205552
_symmetry_space_group_name_H-M "C 2/M"
_symmetry_group_IT_number 12
_symmetry_cell_setting 'monoclinic'
loop_
_space_group_symop_operation_xyz
x,y,z
-x,y,-z
-x,-y,-z
x,-y,z
1/2+x,1/2+y,z
1/2-x,1/2+y,-z
1/2-x,1/2-y,-z
1/2+x,1/2-y,z
loop_
_atom_site_type_symbol
_atom_site_label
_atom_site_fract_x
_atom_site_fract_y
_atom_site_fract_z
Si Si1 0.454750 0.671011 0.702360
Si Si2 0.588076 0.329742 0.004552
Si Si3 0.626797 0.670741 0.435354
Si Si4 0.048006 0.829961 0.572840
Si Si5 0.169639 0.828943 0.868890
Si Si6 0.791416 0.828119 0.699797
Si Si7 0.006340 0.171016 0.867198
O O1 0.454451 0.500000 0.705258
O O2 0.437894 0.725733 0.642811
O O3 0.581277 0.724200 0.784624
O O4 0.347689 0.724884 0.680507
O O5 0.610971 0.500000 0.012140
O O6 0.709686 0.253633 0.077510
O O7 0.500000 0.289954 0.000000
O O8 0.532360 0.266330 0.930075
O O9 0.649702 0.500000 0.445448
O O10 0.750000 0.750000 0.500000
O O11 0.548119 0.715400 0.438395
O O12 0.167712 0.748736 0.645199
O O13 0.000000 0.779647 0.500000
O O14 0.073566 0.000000 0.586642
O O15 0.112468 0.781214 0.887741
O O16 0.192396 0.000000 0.878515
O O17 0.879808 0.775804 0.784372
O O18 0.772200 0.000000 0.690883
O O19 0.001045 0.000000 0.865893
#
# Coordination Sequence:
#
# PCOD8095151 Si02
#       7
#     8   8   8   8   8   8   8
#     4   8  16  32  52  72  93 120 156 198 238 270
#     4  10  20  32  46  68 100 130 153 187 237 284
#     4  10  20  34  51  70  95 126 158 193 233 277
#     4  10  21  34  47  69 102 130 149 184 241 287
#     4   9  17  32  53  71  90 121 161 199 231 271
#     4   9  17  32  54  73  90 120 162 198 227 272
#     4   8  16  32  51  70  94 124 156 193 236 275
#
# _framework density 18.086653999999999
#
# number of rings (size 3 to 8) (size 9 to 14) (size 15 to 20)
#    0.000    2.857    0.000    3.000    0.000    2.286 
#    0.000    4.286    0.000    0.000    0.000    0.000 
#    0.000    0.000    0.000    0.000    0.000    0.000 
#
# Total GULP energy -347133.151992 kJ/mol
# GULP energy per Si atom -12397.612571 kJ/mol
# Density = 1.804549 g / cm^3
# Si number density = 18.086654 Si / 1000 Ang^3
#
#
#
# Elastic Constant Matrix: (Units=GPa)
#
#
# Indices 1 2 3 4 5 6 
#
# 1 152.8033 44.3573 107.3551 0.0000 1.5708 0.0000
# 2 44.3573 28.4285 41.3965 0.0000 9.1873 0.0001
# 3 107.3551 41.3965 160.7024 0.0000 1.0177 0.0000
# 4 0.0000 0.0000 0.0000 28.8517 0.0000 8.6011
# 5 1.5708 9.1873 1.0177 0.0000 40.4759 0.0000
# 6 0.0000 0.0001 0.0000 8.6011 0.0000 12.4054
#
#
#
# Elastic Compliance Matrix: (Units=1/GPa)
#
#
# Indices 1 2 3 4 5 6 
#
# 1 0.015669 -0.016374 -0.006271 0.000000 0.003266 0.000000
# 2 -0.016374 0.080414 -0.009666 0.000000 -0.017374 -0.000001
# 3 -0.006271 -0.009666 0.012888 0.000000 0.002113 0.000000
# 4 0.000000 0.000000 0.000000 0.043690 0.000000 -0.030292
# 5 0.003266 -0.017374 0.002113 0.000000 0.028470 0.000000
# 6 0.000000 -0.000001 0.000000 -0.030292 0.000000 0.101612
#
#
# Mechanical properties :
#
#
# Convention : Reuss Voigt Hill
#
# Bulk Modulus (GPa) = 22.54741 80.90576 51.72658
# Shear Modulus (GPa) = 13.80646 26.26829 20.03737
#
# Velocity S-wave (km/s) = 2.76588 3.81512 3.33206
# Velocity P-wave (km/s) = 4.76377 8.01475 6.59279
#
# Compressibility (1/GPa) = 0.04435100
#
# Stress axis : x y z
#
# Youngs Moduli (GPa) = 63.81835 12.43559 77.58951
#
# Poissons Ratio (x) = 0.20362 0.48654
# Poissons Ratio (y) = 1.04494 0.75000
# Poissons Ratio (z) = 0.40018 0.12021
#
# Static dielectric constant tensor:
#      x y z
#    x 3.498740 0.000000 -0.368560 
#    y 0.000000 2.956550 0.000000 
#    z -0.368560 0.000000 3.835270 
# 
# 
# High freq. dielectric constant tensor:
#      x y z
#    x 1.703510 0.000000 -0.003470 
#    y 0.000000 1.664160 0.000000 
#    z -0.003470 0.000000 1.716260 
# 
# From -- ./inp_files/363252.got.cif
#   From: 2010.06.25/outbox.cif.g09.slc.cpg/sg12_182_cif.got.tgz:363252.got - 2010.06.28 00:19:55.
