data_PCOD8095566
_publ_section_title
;
Structure prediction by ZEFSAII (Michael W. Deem and Ramdas Pophale) SiO2 
 PCOD8095566
Probable space group: C 2/M
;
_chemical_formula_sum "Si O2"
_cell_formula_units_Z 40
_cell_length_a 24.778799
_cell_length_b 21.101139
_cell_length_c 8.433442
_cell_angle_alpha 90.000000
_cell_angle_beta 150.733829
_cell_angle_gamma 90.000000
_cell_volume 2155.669394
_symmetry_space_group_name_H-M "C 2/M"
_symmetry_group_IT_number 12
_symmetry_cell_setting 'monoclinic'
loop_
_space_group_symop_operation_xyz
x,y,z
-x,y,-z
-x,-y,-z
x,-y,z
1/2+x,1/2+y,z
1/2-x,1/2+y,-z
1/2-x,1/2-y,-z
1/2+x,1/2-y,z
loop_
_atom_site_type_symbol
_atom_site_label
_atom_site_fract_x
_atom_site_fract_y
_atom_site_fract_z
Si Si1 0.993960 0.280092 0.305908
Si Si2 0.423542 0.336384 0.934448
Si Si3 0.759398 0.290340 0.764500
Si Si4 0.272489 0.833591 0.142762
Si Si5 0.115200 0.926252 0.883046
O O1 0.000000 0.253709 0.500000
O O2 0.093469 0.328549 0.517050
O O3 0.998248 0.218813 0.204587
O O4 0.876452 0.316350 0.996190
O O5 0.322047 0.302431 0.587890
O O6 0.500000 0.370416 0.000000
O O7 0.383654 0.391620 0.946057
O O8 0.773054 0.215260 0.840104
O O9 0.724273 0.320716 0.842981
O O10 0.222224 0.901778 0.058807
O O11 0.000000 0.911978 0.500000
O O12 0.132909 0.000000 0.957404
#
# Coordination Sequence:
#
# PCOD8095566 Si02
#       5
#     8   8   8   8   8
#     4  10  20  33  54  88 122 146 179 237 301 348
#     4  12  21  33  57  90 119 147 191 243 297 338
#     4  10  20  32  57  92 119 145 182 253 299 341
#     4  10  20  37  59  84 117 153 192 233 296 348
#     4  11  25  42  59  79 117 165 200 231 278 355
#
# _framework density 18.555720999999998
#
# number of rings (size 3 to 8) (size 9 to 14) (size 15 to 20)
#    0.000    1.400    4.000    2.400    2.800    0.400 
#    0.000    1.000    0.000    7.800    0.000    0.000 
#    0.000    0.000    0.000    0.000    0.000    0.000 
#
# Total GULP energy -247860.223619 kJ/mol
# GULP energy per Si atom -12393.011181 kJ/mol
# Density = 1.851349 g / cm^3
# Si number density = 18.555721 Si / 1000 Ang^3
#
#
#
# Elastic Constant Matrix: (Units=GPa)
#
#
# Indices 1 2 3 4 5 6 
#
# 1 97.8931 58.4072 54.3930 0.0000 7.4098 0.0000
# 2 58.4072 97.4468 42.0690 0.0000 1.2333 0.0000
# 3 54.3930 42.0690 106.5603 0.0000 9.5041 0.0000
# 4 0.0000 0.0000 0.0000 19.6614 0.0000 6.5993
# 5 7.4098 1.2333 9.5041 0.0000 33.5630 0.0000
# 6 0.0000 0.0000 0.0000 6.5993 0.0000 22.8410
#
#
#
# Elastic Compliance Matrix: (Units=1/GPa)
#
#
# Indices 1 2 3 4 5 6 
#
# 1 0.018928 -0.008715 -0.006029 0.000000 -0.002151 0.000000
# 2 -0.008715 0.016413 -0.002205 0.000000 0.001945 0.000000
# 3 -0.006029 -0.002205 0.013549 0.000000 -0.002424 0.000000
# 4 0.000000 0.000000 0.000000 0.056323 0.000000 -0.016273
# 5 -0.002151 0.001945 -0.002424 0.000000 0.030885 0.000000
# 6 0.000000 0.000000 0.000000 -0.016273 0.000000 0.048483
#
#
# Mechanical properties :
#
#
# Convention : Reuss Voigt Hill
#
# Bulk Modulus (GPa) = 66.70348 67.95984 67.33166
# Shear Modulus (GPa) = 22.37406 25.01515 23.69460
#
# Velocity S-wave (km/s) = 3.47620 3.67564 3.57731
# Velocity P-wave (km/s) = 7.22064 7.39717 7.30944
#
# Compressibility (1/GPa) = 0.01499172
#
# Stress axis : x y z
#
# Youngs Moduli (GPa) = 52.83292 60.92915 73.80890
#
# Poissons Ratio (x) = 0.53098 0.44500
# Poissons Ratio (y) = 0.46042 0.16272
# Poissons Ratio (z) = 0.31854 0.13433
#
# Static dielectric constant tensor:
#      x y z
#    x 3.715930 0.000000 0.121530 
#    y 0.000000 2.914060 0.000000 
#    z 0.121530 0.000000 3.696710 
# 
# 
# High freq. dielectric constant tensor:
#      x y z
#    x 1.747040 0.000000 0.003960 
#    y 0.000000 1.653620 0.000000 
#    z 0.003960 0.000000 1.736940 
# 
# From -- ./inp_files/63796.got.cif
#   From: 2010.06.25/outbox.cif.g09.slc.cpg/sg12_32_cif.got.tgz:63796.got - 2010.06.28 00:19:55.
