data_PCOD8095048
_publ_section_title
;
Structure prediction by ZEFSAII (Michael W. Deem and Ramdas Pophale) SiO2 
 PCOD8095048
Probable space group: C 2/M
;
_chemical_formula_sum "Si O2"
_cell_formula_units_Z 64
_cell_length_a 28.015664
_cell_length_b 9.171531
_cell_length_c 13.936389
_cell_angle_alpha 90.000000
_cell_angle_beta 106.299737
_cell_angle_gamma 90.000000
_cell_volume 3436.977916
_symmetry_space_group_name_H-M "C 2/M"
_symmetry_group_IT_number 12
_symmetry_cell_setting 'monoclinic'
loop_
_space_group_symop_operation_xyz
x,y,z
-x,y,-z
-x,-y,-z
x,-y,z
1/2+x,1/2+y,z
1/2-x,1/2+y,-z
1/2-x,1/2-y,-z
1/2+x,1/2-y,z
loop_
_atom_site_type_symbol
_atom_site_label
_atom_site_fract_x
_atom_site_fract_y
_atom_site_fract_z
Si Si1 0.833955 0.326848 0.135079
Si Si2 0.282950 0.829054 0.440997
Si Si3 0.742488 0.670888 0.209069
Si Si4 0.954440 0.326543 0.911082
Si Si5 0.848155 0.673145 0.927338
Si Si6 0.895228 0.326458 0.503061
Si Si7 0.470054 0.826068 0.705536
Si Si8 0.924951 0.326008 0.311920
O O1 0.836766 0.500000 0.139662
O O2 0.782425 0.273508 0.152985
O O3 0.880345 0.263551 0.221363
O O4 0.837289 0.269263 0.028398
O O5 0.250000 0.750000 0.500000
O O6 0.263505 0.790103 0.324846
O O7 0.339068 0.769740 0.482831
O O8 0.280546 0.000000 0.459275
O O9 0.732276 0.500000 0.192043
O O10 0.691331 0.756840 0.167009
O O11 0.956659 0.500000 0.911450
O O12 0.902797 0.272748 0.927661
O O13 0.958990 0.265526 0.805545
O O14 0.000000 0.264242 0.000000
O O15 0.843794 0.500000 0.917742
O O16 0.895687 0.500000 0.501352
O O17 0.927790 0.266008 0.609796
O O18 0.918305 0.267821 0.416490
O O19 0.523295 0.766133 0.700748
O O20 0.470135 0.000000 0.705267
O O21 0.924307 0.500000 0.310165
#
# Coordination Sequence:
#
# PCOD8095048 Si02
#       8
#     8   8   8   8   8   8   8   8
#     4   9  16  29  47  68  96 131 166 200 243 290
#     4  10  21  35  52  72 100 134 165 202 249 296
#     4  10  20  35  51  70  99 134 168 202 245 293
#     4   9  17  29  42  65 100 130 155 192 249 301
#     4  10  20  31  50  76 100 129 166 206 244 287
#     4   9  16  27  42  65  94 125 160 199 244 290
#     4   9  16  23  38  63  93 126 158 196 240 290
#     4   9  14  24  42  64  93 128 161 194 240 297
#
# _framework density 18.621009999999998
#
# number of rings (size 3 to 8) (size 9 to 14) (size 15 to 20)
#    0.000    2.625    1.250    1.500    1.750    5.000 
#    0.000    0.000    0.000    0.375    0.000    0.000 
#    0.000    4.000    0.000    0.000    0.000    0.125 
#
# Total GULP energy -396786.407489 kJ/mol
# GULP energy per Si atom -12399.575234 kJ/mol
# Density = 1.857863 g / cm^3
# Si number density = 18.621010 Si / 1000 Ang^3
#
#
#
# Elastic Constant Matrix: (Units=GPa)
#
#
# Indices 1 2 3 4 5 6 
#
# 1 180.6941 23.2109 86.9917 0.0000 1.1314 0.0000
# 2 23.2109 9.6087 21.1078 0.0000 0.6470 0.0000
# 3 86.9917 21.1078 136.9044 0.0000 1.3001 0.0000
# 4 0.0000 0.0000 0.0000 16.0547 0.0000 1.4710
# 5 1.1314 0.6470 1.3001 0.0000 45.7251 0.0000
# 6 0.0000 0.0000 0.0000 1.4710 0.0000 17.3168
#
#
#
# Elastic Compliance Matrix: (Units=1/GPa)
#
#
# Indices 1 2 3 4 5 6 
#
# 1 0.009066 -0.013985 -0.003605 0.000000 0.000076 0.000000
# 2 -0.013985 0.179054 -0.018704 0.000000 -0.001656 0.000000
# 3 -0.003605 -0.018704 0.012479 0.000000 -0.000001 0.000000
# 4 0.000000 0.000000 0.000000 0.062776 0.000000 -0.005332
# 5 0.000076 -0.001656 -0.000001 0.000000 0.021891 0.000000
# 6 0.000000 0.000000 0.000000 -0.005332 0.000000 0.058200
#
#
# Mechanical properties :
#
#
# Convention : Reuss Voigt Hill
#
# Bulk Modulus (GPa) = 7.81189 65.53643 36.67416
# Shear Modulus (GPa) = 10.89977 28.87910 19.88943
#
# Velocity S-wave (km/s) = 2.42202 3.94240 3.27175
# Velocity P-wave (km/s) = 3.46784 7.48296 5.83183
#
# Compressibility (1/GPa) = 0.12801002
#
# Stress axis : x y z
#
# Youngs Moduli (GPa) = 110.30509 5.58490 80.13496
#
# Poissons Ratio (x) = 0.07810 0.28889
# Poissons Ratio (y) = 1.54261 1.49888
# Poissons Ratio (z) = 0.39766 0.10446
#
# Static dielectric constant tensor:
#      x y z
#    x 3.633930 0.000000 -0.007120 
#    y 0.000000 2.653170 0.000000 
#    z -0.007120 0.000000 3.703850 
# 
# 
# High freq. dielectric constant tensor:
#      x y z
#    x 1.741560 0.000000 0.000890 
#    y 0.000000 1.638780 0.000000 
#    z 0.000890 0.000000 1.741220 
# 
# From -- ./inp_files/182143.got.cif
#   From: 2010.06.25/outbox.cif.g09.slc.cpg/sg12_92_cif.got.tgz:182143.got - 2010.06.28 00:19:55.
