data_PCOD8095386
_publ_section_title
;
Structure prediction by ZEFSAII (Michael W. Deem and Ramdas Pophale) SiO2 
 PCOD8095386
Probable space group: C 2/M
;
_chemical_formula_sum "Si O2"
_cell_formula_units_Z 64
_cell_length_a 19.166717
_cell_length_b 9.314185
_cell_length_c 21.815003
_cell_angle_alpha 90.000000
_cell_angle_beta 122.635083
_cell_angle_gamma 90.000000
_cell_volume 3279.616457
_symmetry_space_group_name_H-M "C 2/M"
_symmetry_group_IT_number 12
_symmetry_cell_setting 'monoclinic'
loop_
_space_group_symop_operation_xyz
x,y,z
-x,y,-z
-x,-y,-z
x,-y,z
1/2+x,1/2+y,z
1/2-x,1/2+y,-z
1/2-x,1/2-y,-z
1/2+x,1/2-y,z
loop_
_atom_site_type_symbol
_atom_site_label
_atom_site_fract_x
_atom_site_fract_y
_atom_site_fract_z
Si Si1 0.398233 0.340286 0.291339
Si Si2 0.725671 0.832061 0.927664
Si Si3 0.145063 0.657780 0.458735
Si Si4 0.468659 0.160027 0.422237
Si Si5 0.045386 0.334397 0.792872
Si Si6 0.214829 0.339347 0.155627
Si Si7 0.281762 0.334462 0.613167
Si Si8 0.367941 0.168254 0.760612
O O1 0.434342 0.500000 0.315570
O O2 0.400639 0.258949 0.357649
O O3 0.454331 0.259904 0.267966
O O4 0.303645 0.343054 0.228591
O O5 0.628147 0.802988 0.871156
O O6 0.783130 0.770840 0.899994
O O7 0.745091 0.000000 0.943378
O O8 0.750000 0.750000 0.000000
O O9 0.177503 0.500000 0.452063
O O10 0.185920 0.688522 0.545796
O O11 0.165359 0.779666 0.419533
O O12 0.046991 0.652826 0.414824
O O13 0.500000 0.230757 0.500000
O O14 0.431605 0.000000 0.416260
O O15 0.043031 0.500000 0.771459
O O16 0.963885 0.292383 0.793065
O O17 0.191634 0.500000 0.121053
O O18 0.150205 0.287286 0.177307
O O19 0.302714 0.500000 0.635699
O O20 0.304544 0.248590 0.685310
O O21 0.351268 0.000000 0.743895
#
# Coordination Sequence:
#
# PCOD8095386 Si02
#       8
#     8   8   8   8   8   8   8   8
#     4  10  20  34  52  76 105 136 174 223 274 319
#     4  10  20  37  62  88 113 144 178 212 252 304
#     4   9  19  35  48  65  94 131 176 219 267 324
#     4  10  21  34  49  67  93 133 178 222 267 317
#     4   9  19  36  58  82 106 140 181 213 250 309
#     4   9  20  37  56  81 112 144 177 215 264 318
#     4  10  20  32  50  73  97 130 171 220 271 319
#     4  10  20  35  55  78 107 140 176 218 263 311
#
# _framework density 19.514478
#
# number of rings (size 3 to 8) (size 9 to 14) (size 15 to 20)
#    0.000    2.375    0.000    1.875    1.750    6.250 
#    0.000    0.625    0.000    3.750    0.000    0.000 
#    0.000    0.000    0.000    0.000    0.000    0.000 
#
# Total GULP energy -396697.587523 kJ/mol
# GULP energy per Si atom -12396.799610 kJ/mol
# Density = 1.947006 g / cm^3
# Si number density = 19.514478 Si / 1000 Ang^3
#
#
#
# Elastic Constant Matrix: (Units=GPa)
#
#
# Indices 1 2 3 4 5 6 
#
# 1 68.8883 26.4424 20.4304 0.0000 -15.0434 0.0000
# 2 26.4424 99.6063 60.3125 0.0000 -14.8731 0.0000
# 3 20.4304 60.3125 105.9836 0.0000 -21.8329 0.0000
# 4 0.0000 0.0000 0.0000 34.4458 0.0000 -6.2752
# 5 -15.0434 -14.8731 -21.8329 0.0000 23.3544 0.0000
# 6 0.0000 0.0000 0.0000 -6.2752 0.0000 19.7218
#
#
#
# Elastic Compliance Matrix: (Units=1/GPa)
#
#
# Indices 1 2 3 4 5 6 
#
# 1 0.017871 -0.003689 0.000671 0.000000 0.009789 0.000000
# 2 -0.003689 0.016154 -0.008486 0.000000 -0.000022 0.000000
# 3 0.000671 -0.008486 0.016238 0.000000 0.010208 0.000000
# 4 0.000000 0.000000 0.000000 0.030817 0.000000 0.009806
# 5 0.009789 -0.000022 0.010208 0.000000 0.058653 0.000000
# 6 0.000000 0.000000 0.000000 0.009806 0.000000 0.053825
#
#
# Mechanical properties :
#
#
# Convention : Reuss Voigt Hill
#
# Bulk Modulus (GPa) = 36.69057 54.31654 45.50355
# Shear Modulus (GPa) = 22.15799 26.65726 24.40763
#
# Velocity S-wave (km/s) = 3.37332 3.69999 3.54042
# Velocity P-wave (km/s) = 5.83223 6.79320 6.33098
#
# Compressibility (1/GPa) = 0.02725496
#
# Stress axis : x y z
#
# Youngs Moduli (GPa) = 55.95694 61.90426 61.58279
#
# Poissons Ratio (x) = 0.22834 -0.04130
# Poissons Ratio (y) = 0.20640 0.52261
# Poissons Ratio (z) = -0.03753 0.52533
#
# Static dielectric constant tensor:
#      x y z
#    x 3.637710 0.000000 -0.057910 
#    y 0.000000 3.773260 0.000000 
#    z -0.057910 0.000000 3.481970 
# 
# 
# High freq. dielectric constant tensor:
#      x y z
#    x 1.753050 0.000000 -0.004030 
#    y 0.000000 1.760000 0.000000 
#    z -0.004030 0.000000 1.748730 
# 
# From -- ./inp_files/320065.got.cif
#   From: 2010.06.25/outbox.cif.g09.slc.cpg/sg12_161_cif.got.tgz:320065.got - 2010.06.28 00:19:55.
