data_PCOD8095447
_publ_section_title
;
Structure prediction by ZEFSAII (Michael W. Deem and Ramdas Pophale) SiO2 
 PCOD8095447
Probable space group: C 2/M
;
_chemical_formula_sum "Si O2"
_cell_formula_units_Z 56
_cell_length_a 25.420200
_cell_length_b 9.301510
_cell_length_c 13.704542
_cell_angle_alpha 90.000000
_cell_angle_beta 112.588110
_cell_angle_gamma 90.000000
_cell_volume 2991.817190
_symmetry_space_group_name_H-M "C 2/M"
_symmetry_group_IT_number 12
_symmetry_cell_setting 'monoclinic'
loop_
_space_group_symop_operation_xyz
x,y,z
-x,y,-z
-x,-y,-z
x,-y,z
1/2+x,1/2+y,z
1/2-x,1/2+y,-z
1/2-x,1/2-y,-z
1/2+x,1/2-y,z
loop_
_atom_site_type_symbol
_atom_site_label
_atom_site_fract_x
_atom_site_fract_y
_atom_site_fract_z
Si Si1 0.138806 0.671014 0.275578
Si Si2 0.060894 0.671721 0.576714
Si Si3 0.340610 0.170337 0.490705
Si Si4 0.014104 0.671136 0.117722
Si Si5 0.709503 0.832679 0.899236
Si Si6 0.243146 0.168250 0.277892
Si Si7 0.418179 0.170500 0.194121
O O1 0.144064 0.500000 0.271186
O O2 0.152993 0.728016 0.394633
O O3 0.075995 0.723570 0.198679
O O4 0.184535 0.742727 0.235891
O O5 0.063976 0.500000 0.579871
O O6 0.107833 0.734873 0.536392
O O7 0.071014 0.734859 0.691280
O O8 0.000000 0.728658 0.500000
O O9 0.281212 0.217190 0.398170
O O10 0.345540 0.000000 0.494615
O O11 0.012518 0.500000 0.117177
O O12 0.965007 0.734421 0.153329
O O13 0.000000 0.730627 0.000000
O O14 0.722275 0.794682 0.795717
O O15 0.645511 0.785634 0.882345
O O16 0.718737 0.000000 0.923957
O O17 0.750000 0.750000 0.000000
O O18 0.228792 0.000000 0.273156
O O19 0.424290 0.000000 0.202068
#
# Coordination Sequence:
#
# PCOD8095447 Si02
#       7
#     8   8   8   8   8   8   8
#     4  10  20  32  51  78 104 133 171 211 248 293
#     4   9  14  22  42  69  98 129 160 201 251 300
#     4   9  16  29  46  71 104 132 165 207 250 298
#     4   9  18  30  45  70 103 132 162 208 259 299
#     4  10  21  35  54  77 101 133 171 209 252 301
#     4  10  20  35  52  73 105 139 168 203 251 305
#     4   9  16  29  47  70  99 131 164 202 256 306
#
# _framework density 18.71772
#
# number of rings (size 3 to 8) (size 9 to 14) (size 15 to 20)
#    0.000    2.571    1.429    1.286    2.000    4.000 
#    0.000    0.000    0.000    1.286    0.000    0.000 
#    0.000    2.857    0.000    0.000    0.000    0.000 
#
# Total GULP energy -347134.205489 kJ/mol
# GULP energy per Si atom -12397.650196 kJ/mol
# Density = 1.867512 g / cm^3
# Si number density = 18.717720 Si / 1000 Ang^3
#
#
#
# Elastic Constant Matrix: (Units=GPa)
#
#
# Indices 1 2 3 4 5 6 
#
# 1 164.5451 29.4623 56.7519 0.0000 11.1359 0.0000
# 2 29.4623 16.1044 24.7612 0.0000 3.3787 0.0000
# 3 56.7519 24.7612 124.7822 0.0000 16.2835 0.0000
# 4 0.0000 0.0000 0.0000 17.4876 0.0000 1.6727
# 5 11.1359 3.3787 16.2835 0.0000 33.7238 0.0000
# 6 0.0000 0.0000 0.0000 1.6727 0.0000 20.5107
#
#
#
# Elastic Compliance Matrix: (Units=1/GPa)
#
#
# Indices 1 2 3 4 5 6 
#
# 1 0.009196 -0.014942 -0.001085 0.000000 -0.001016 0.000000
# 2 -0.014942 0.113644 -0.015916 0.000000 0.001234 0.000000
# 3 -0.001085 -0.015916 0.012178 0.000000 -0.003927 0.000000
# 4 0.000000 0.000000 0.000000 0.057633 0.000000 -0.004700
# 5 -0.001016 0.001234 -0.003927 0.000000 0.031761 0.000000
# 6 0.000000 0.000000 0.000000 -0.004700 0.000000 0.049138
#
#
# Mechanical properties :
#
#
# Convention : Reuss Voigt Hill
#
# Bulk Modulus (GPa) = 14.05842 58.59808 36.32825
# Shear Modulus (GPa) = 13.84479 27.30817 20.57648
#
# Velocity S-wave (km/s) = 2.72262 3.82376 3.31917
# Velocity P-wave (km/s) = 4.17261 7.13225 5.84293
#
# Compressibility (1/GPa) = 0.07113173
#
# Stress axis : x y z
#
# Youngs Moduli (GPa) = 108.74689 8.79940 82.11465
#
# Poissons Ratio (x) = 0.13148 0.08906
# Poissons Ratio (y) = 1.62493 1.30695
# Poissons Ratio (z) = 0.11795 0.14005
#
# Static dielectric constant tensor:
#      x y z
#    x 3.678330 0.000000 -0.045320 
#    y 0.000000 2.723920 0.000000 
#    z -0.045320 0.000000 3.661670 
# 
# 
# High freq. dielectric constant tensor:
#      x y z
#    x 1.745960 0.000000 0.001360 
#    y 0.000000 1.648420 0.000000 
#    z 0.001360 0.000000 1.739960 
# 
# From -- ./inp_files/174456.got.cif
#   From: 2010.06.25/outbox.cif.g09.slc.cpg/sg12_88_cif.got.tgz:174456.got - 2010.06.28 00:19:55.
