data_PCOD8095024
_publ_section_title
;
Structure prediction by ZEFSAII (Michael W. Deem and Ramdas Pophale) SiO2 
 PCOD8095024
Probable space group: C 2/M
;
_chemical_formula_sum "Si O2"
_cell_formula_units_Z 56
_cell_length_a 19.336262
_cell_length_b 9.157515
_cell_length_c 28.832450
_cell_angle_alpha 90.000000
_cell_angle_beta 39.009461
_cell_angle_gamma 90.000000
_cell_volume 3213.601752
_symmetry_space_group_name_H-M "C 2/M"
_symmetry_group_IT_number 12
_symmetry_cell_setting 'monoclinic'
loop_
_space_group_symop_operation_xyz
x,y,z
-x,y,-z
-x,-y,-z
x,-y,z
1/2+x,1/2+y,z
1/2-x,1/2+y,-z
1/2-x,1/2-y,-z
1/2+x,1/2-y,z
loop_
_atom_site_type_symbol
_atom_site_label
_atom_site_fract_x
_atom_site_fract_y
_atom_site_fract_z
Si Si1 0.859956 0.666115 0.692968
Si Si2 0.360218 0.172357 0.198955
Si Si3 0.400710 0.673876 0.084562
Si Si4 0.163968 0.334186 0.187873
Si Si5 0.706554 0.171612 0.591055
Si Si6 0.398671 0.829630 0.451064
Si Si7 0.044200 0.326902 0.753544
O O1 0.825860 0.500000 0.698461
O O2 0.763769 0.774047 0.727169
O O3 0.881909 0.678446 0.736311
O O4 0.973080 0.711008 0.608681
O O5 0.416799 0.251978 0.126079
O O6 0.433200 0.215894 0.205316
O O7 0.358231 0.000000 0.191489
O O8 0.395790 0.500000 0.094804
O O9 0.286851 0.734427 0.121244
O O10 0.500000 0.721884 0.000000
O O11 0.176940 0.500000 0.165185
O O12 0.074276 0.259018 0.200437
O O13 0.638108 0.217437 0.581276
O O14 0.826879 0.245341 0.526835
O O15 0.641261 0.232924 0.669823
O O16 0.724756 0.000000 0.584749
O O17 0.379700 0.000000 0.468304
O O18 0.039711 0.500000 0.748575
#
# Coordination Sequence:
#
# PCOD8095024 Si02
#       7
#     8   8   8   8   8   8   8
#     4   9  16  30  50  68  90 126 167 201 234 280
#     4  10  20  31  48  73  99 124 153 194 240 281
#     4   9  18  34  56  77  95 122 158 190 225 278
#     4   8  13  26  50  71  88 119 163 195 217 268
#     4   9  16  27  45  67  92 122 159 201 239 279
#     4   9  16  27  45  69  92 119 161 206 244 275
#     4   9  16  29  47  69  95 127 162 191 232 288
#
# _framework density 17.425930000000001
#
# number of rings (size 3 to 8) (size 9 to 14) (size 15 to 20)
#    0.000    3.000    1.429    1.286    0.000    0.857 
#    0.000    2.857    0.000   11.143    0.000    0.000 
#    0.000    0.000    0.000    0.000    0.000    0.000 
#
# Total GULP energy -347032.718067 kJ/mol
# GULP energy per Si atom -12394.025645 kJ/mol
# Density = 1.738627 g / cm^3
# Si number density = 17.425930 Si / 1000 Ang^3
#
#
#
# Elastic Constant Matrix: (Units=GPa)
#
#
# Indices 1 2 3 4 5 6 
#
# 1 108.8483 29.5333 64.8449 -0.0002 -4.3853 0.0004
# 2 29.5333 32.5744 31.5052 -0.0005 0.6099 0.0008
# 3 64.8449 31.5052 148.8553 0.0000 -8.5143 0.0002
# 4 -0.0002 -0.0005 0.0000 24.4264 0.0000 0.5220
# 5 -4.3853 0.6099 -8.5143 0.0000 18.6096 -0.0001
# 6 0.0004 0.0008 0.0002 0.5220 -0.0001 18.4093
#
#
#
# Elastic Compliance Matrix: (Units=1/GPa)
#
#
# Indices 1 2 3 4 5 6 
#
# 1 0.014145 -0.008790 -0.004204 0.000000 0.001698 0.000000
# 2 -0.008790 0.044547 -0.005957 0.000001 -0.006257 -0.000002
# 3 -0.004204 -0.005957 0.010027 0.000000 0.003792 0.000000
# 4 0.000000 0.000001 0.000000 0.040964 0.000000 -0.001161
# 5 0.001698 -0.006257 0.003792 0.000000 0.056076 0.000000
# 6 0.000000 -0.000002 0.000000 -0.001161 0.000000 0.054353
#
#
# Mechanical properties :
#
#
# Convention : Reuss Voigt Hill
#
# Bulk Modulus (GPa) = 32.45029 60.22721 46.33875
# Shear Modulus (GPa) = 18.63668 23.24869 20.94268
#
# Velocity S-wave (km/s) = 3.27384 3.65656 3.47048
# Velocity P-wave (km/s) = 5.74047 7.24321 6.53517
#
# Compressibility (1/GPa) = 0.03081636
#
# Stress axis : x y z
#
# Youngs Moduli (GPa) = 70.69535 22.44816 99.72819
#
# Poissons Ratio (x) = 0.19732 0.41931
# Poissons Ratio (y) = 0.62141 0.59410
# Poissons Ratio (z) = 0.29724 0.13373
#
# Static dielectric constant tensor:
#      x y z
#    x 3.215410 0.000000 -0.210130 
#    y 0.000000 2.937370 0.000000 
#    z -0.210130 0.000000 3.335360 
# 
# 
# High freq. dielectric constant tensor:
#      x y z
#    x 1.658300 0.000000 -0.014720 
#    y 0.000000 1.639250 0.000000 
#    z -0.014720 0.000000 1.672640 
# 
# From -- ./inp_files/377649.got.cif
#   From: 2010.06.25/outbox.cif.g09.slc.cpg/sg12_189_cif.got.tgz:377649.got - 2010.06.28 00:19:55.
