data_PCOD8095015
_publ_section_title
;
Structure prediction by ZEFSAII (Michael W. Deem and Ramdas Pophale) SiO2 
 PCOD8095015
Probable space group: C 2/M
;
_chemical_formula_sum "Si O2"
_cell_formula_units_Z 64
_cell_length_a 31.278820
_cell_length_b 9.578495
_cell_length_c 22.935236
_cell_angle_alpha 90.000000
_cell_angle_beta 30.569599
_cell_angle_gamma 90.000000
_cell_volume 3494.733699
_symmetry_space_group_name_H-M "C 2/M"
_symmetry_group_IT_number 12
_symmetry_cell_setting 'monoclinic'
loop_
_space_group_symop_operation_xyz
x,y,z
-x,y,-z
-x,-y,-z
x,-y,z
1/2+x,1/2+y,z
1/2-x,1/2+y,-z
1/2-x,1/2-y,-z
1/2+x,1/2-y,z
loop_
_atom_site_type_symbol
_atom_site_label
_atom_site_fract_x
_atom_site_fract_y
_atom_site_fract_z
Si Si1 0.594643 0.834978 0.953026
Si Si2 0.161085 0.340509 0.174594
Si Si3 0.007164 0.661112 0.557822
Si Si4 0.170146 0.159810 0.960977
Si Si5 0.922338 0.841230 0.817664
Si Si6 0.089394 0.837264 0.557408
Si Si7 0.255114 0.834325 0.434214
Si Si8 0.905887 0.335254 0.177111
O O1 0.614813 0.783137 0.863896
O O2 0.606501 0.000000 0.945678
O O3 0.660063 0.756961 0.917095
O O4 0.500312 0.789002 0.082616
O O5 0.169151 0.500000 0.145057
O O6 0.084579 0.317127 0.308282
O O7 0.147271 0.250404 0.133141
O O8 0.245230 0.289913 0.107118
O O9 0.036253 0.500000 0.525727
O O10 0.000000 0.715373 0.500000
O O11 0.075464 0.750455 0.514190
O O12 0.091027 0.179380 0.097595
O O13 0.177849 0.000000 0.931129
O O14 0.016926 0.797874 0.689335
O O15 0.904492 0.000000 0.820335
O O16 0.176926 0.795834 0.484535
O O17 0.087618 0.000000 0.542919
O O18 0.250000 0.750000 0.500000
O O19 0.338644 0.779385 0.302887
O O20 0.257431 0.000000 0.444718
O O21 0.900937 0.500000 0.181440
#
# Coordination Sequence:
#
# PCOD8095015 Si02
#       8
#     8   8   8   8   8   8   8   8
#     4   9  18  34  55  74  95 132 173 207 248 298
#     4   9  18  32  47  68  97 129 163 200 242 291
#     4   9  18  33  52  72  98 132 167 205 249 299
#     4  10  20  31  47  73 103 128 158 205 255 296
#     4   9  18  32  48  67  98 133 160 197 247 295
#     4   9  19  34  50  72 101 132 166 205 253 304
#     4  10  21  36  55  79 106 136 172 215 260 307
#     4   8  17  36  55  72 100 132 167 211 252 294
#
# _framework density 18.313268999999998
#
# number of rings (size 3 to 8) (size 9 to 14) (size 15 to 20)
#    0.000    2.875    0.000    1.125    1.750    2.750 
#    0.000    1.875    0.000    0.000    0.000    0.000 
#    0.000    0.000    0.000    0.000    0.000    0.000 
#
# Total GULP energy -396744.740627 kJ/mol
# GULP energy per Si atom -12398.273145 kJ/mol
# Density = 1.827159 g / cm^3
# Si number density = 18.313269 Si / 1000 Ang^3
#
#
#
# Elastic Constant Matrix: (Units=GPa)
#
#
# Indices 1 2 3 4 5 6 
#
# 1 106.0894 48.0517 40.6681 -0.0052 3.5603 -0.0015
# 2 48.0517 49.5286 24.1887 -0.0061 0.3060 -0.0064
# 3 40.6681 24.1887 83.1147 0.0032 2.6877 0.0032
# 4 -0.0052 -0.0061 0.0032 20.1900 -0.0025 0.9892
# 5 3.5603 0.3060 2.6877 -0.0025 24.0217 -0.0015
# 6 -0.0015 -0.0064 0.0032 0.9892 -0.0015 34.7355
#
#
#
# Elastic Compliance Matrix: (Units=1/GPa)
#
#
# Indices 1 2 3 4 5 6 
#
# 1 0.018173 -0.015512 -0.004312 0.000001 -0.002013 -0.000002
# 2 -0.015512 0.036782 -0.003185 0.000008 0.002187 0.000006
# 3 -0.004312 -0.003185 0.015101 -0.000005 -0.001010 -0.000002
# 4 0.000001 0.000008 -0.000005 0.049599 0.000005 -0.001413
# 5 -0.002013 0.002187 -0.001010 0.000005 0.042013 0.000002
# 6 -0.000002 0.000006 -0.000002 -0.001413 0.000002 0.028829
#
#
# Mechanical properties :
#
#
# Convention : Reuss Voigt Hill
#
# Bulk Modulus (GPa) = 41.60339 51.61664 46.61002
# Shear Modulus (GPa) = 20.44750 24.17771 22.31261
#
# Velocity S-wave (km/s) = 3.34509 3.63744 3.49432
# Velocity P-wave (km/s) = 6.13893 6.77406 6.46430
#
# Compressibility (1/GPa) = 0.02403650
#
# Stress axis : x y z
#
# Youngs Moduli (GPa) = 55.02737 27.18703 66.21984
#
# Poissons Ratio (x) = 0.42174 0.28556
# Poissons Ratio (y) = 0.85361 0.21092
# Poissons Ratio (z) = 0.23729 0.08659
#
# Static dielectric constant tensor:
#      x y z
#    x 3.308240 -0.000010 0.041070 
#    y -0.000010 3.210030 0.000030 
#    z 0.041070 0.000030 3.687350 
# 
# 
# High freq. dielectric constant tensor:
#      x y z
#    x 1.706690 0.000000 0.001040 
#    y 0.000000 1.690910 0.000000 
#    z 0.001040 0.000000 1.715100 
# 
# From -- ./inp_files/244222.got.cif
#   From: 2010.06.25/outbox.cif.g09.slc.cpg/sg12_123_cif.got.tgz:244222.got - 2010.06.28 00:19:55.
