data_PCOD8095559
_publ_section_title
;
Structure prediction by ZEFSAII (Michael W. Deem and Ramdas Pophale) SiO2 
 PCOD8095559
Probable space group: C 2/M
;
_chemical_formula_sum "Si O2"
_cell_formula_units_Z 44
_cell_length_a 30.732777
_cell_length_b 9.791447
_cell_length_c 10.215596
_cell_angle_alpha 90.000000
_cell_angle_beta 131.994766
_cell_angle_gamma 90.000000
_cell_volume 2284.659948
_symmetry_space_group_name_H-M "C 2/M"
_symmetry_group_IT_number 12
_symmetry_cell_setting 'monoclinic'
loop_
_space_group_symop_operation_xyz
x,y,z
-x,y,-z
-x,-y,-z
x,-y,z
1/2+x,1/2+y,z
1/2-x,1/2+y,-z
1/2-x,1/2-y,-z
1/2+x,1/2-y,z
loop_
_atom_site_type_symbol
_atom_site_label
_atom_site_fract_x
_atom_site_fract_y
_atom_site_fract_z
Si Si1 0.000000 0.747890 0.500000
Si Si2 0.594839 0.781151 0.886077
Si Si3 0.054296 0.500000 0.284654
Si Si4 0.575723 0.500000 0.273660
Si Si5 0.308786 0.163874 0.123654
Si Si6 0.061828 0.000000 0.947932
Si Si7 0.905630 0.232738 0.501507
Si Si8 0.422093 0.000000 0.946800
O O1 0.041746 0.662389 0.685191
O O2 0.048427 0.833881 0.512543
O O3 0.656139 0.799304 0.936612
O O4 0.581643 0.626603 0.900148
O O5 0.602264 0.865184 0.033572
O O6 0.062406 0.368641 0.388761
O O7 0.991100 0.500000 0.096393
O O8 0.097649 0.500000 0.245074
O O9 0.506989 0.500000 0.164080
O O10 0.605199 0.632031 0.399408
O O11 0.591614 0.500000 0.151917
O O12 0.343563 0.224087 0.317737
O O13 0.298281 0.000000 0.115613
O O14 0.250000 0.250000 0.000000
#
# Coordination Sequence:
#
# PCOD8095559 Si02
#       8
#     4   8   4   4   8   4   8   4
#     4  10  20  32  56  86 124 154 200 234 312 352
#     4  11  22  37  60  88 126 160 201 253 301 367
#     4  11  20  34  58  91 125 163 199 239 300 369
#     4  11  22  38  58  93 135 169 203 241 292 365
#     4  11  26  44  66  91 118 157 206 264 316 364
#     4  11  22  38  58  93 135 169 203 241 292 365
#     4  11  22  37  60  88 126 160 201 253 301 367
#     4  11  20  34  58  91 125 163 199 239 300 369
#
# _framework density 19.258883000000001
#
# number of rings (size 3 to 8) (size 9 to 14) (size 15 to 20)
#    0.000    1.091    5.455    1.091    2.545    6.545 
#    0.000    0.000    0.000    6.545    0.000    0.000 
#    0.000    0.000    0.000    0.000    0.000    0.000 
#
# Total GULP energy -272600.212500 kJ/mol
# GULP energy per Si atom -12390.918750 kJ/mol
# Density = 1.921505 g / cm^3
# Si number density = 19.258883 Si / 1000 Ang^3
#
#
#
# Elastic Constant Matrix: (Units=GPa)
#
#
# Indices 1 2 3 4 5 6 
#
# 1 95.8276 39.0080 57.0298 0.0000 4.0717 0.0000
# 2 39.0080 135.1559 43.2027 0.0000 -1.4774 0.0000
# 3 57.0298 43.2027 95.8266 0.0000 -2.7587 0.0000
# 4 0.0000 0.0000 0.0000 23.5234 0.0000 3.4232
# 5 4.0717 -1.4774 -2.7587 0.0000 34.0233 0.0000
# 6 0.0000 0.0000 0.0000 3.4232 0.0000 24.2669
#
#
#
# Elastic Compliance Matrix: (Units=1/GPa)
#
#
# Indices 1 2 3 4 5 6 
#
# 1 0.016838 -0.001941 -0.009228 0.000000 -0.002848 0.000000
# 2 -0.001941 0.008869 -0.002832 0.000000 0.000388 0.000000
# 3 -0.009228 -0.002832 0.017273 0.000000 0.002382 0.000000
# 4 0.000000 0.000000 0.000000 0.043402 0.000000 -0.006122
# 5 -0.002848 0.000388 0.002382 0.000000 0.029942 0.000000
# 6 0.000000 0.000000 0.000000 -0.006122 0.000000 0.042072
#
#
# Mechanical properties :
#
#
# Convention : Reuss Voigt Hill
#
# Bulk Modulus (GPa) = 66.76631 67.25458 67.01045
# Shear Modulus (GPa) = 26.12458 28.86734 27.49596
#
# Velocity S-wave (km/s) = 3.68706 3.87578 3.78259
# Velocity P-wave (km/s) = 7.27110 7.41795 7.34489
#
# Compressibility (1/GPa) = 0.01497761
#
# Stress axis : x y z
#
# Youngs Moduli (GPa) = 59.38804 112.75759 57.89492
#
# Poissons Ratio (x) = 0.21889 0.53425
# Poissons Ratio (y) = 0.11529 0.16395
# Poissons Ratio (z) = 0.54803 0.31932
#
# Static dielectric constant tensor:
#      x y z
#    x 3.618680 0.000000 -0.458940 
#    y 0.000000 3.449260 0.000000 
#    z -0.458940 0.000000 3.754900 
# 
# 
# High freq. dielectric constant tensor:
#      x y z
#    x 1.738090 0.000000 -0.030130 
#    y 0.000000 1.745930 0.000000 
#    z -0.030130 0.000000 1.742420 
# 
# From -- ./inp_files/103417.got.cif
#   From: 2010.06.25/outbox.cif.g09.slc.cpg/sg12_52_cif.got.tgz:103417.got - 2010.06.28 00:19:55.
