data_PCOD8095752
_publ_section_title
;
Structure prediction by ZEFSAII (Michael W. Deem and Ramdas Pophale) SiO2 
 PCOD8095752
Probable space group: C 2/M
;
_chemical_formula_sum "Si O2"
_cell_formula_units_Z 64
_cell_length_a 27.107485
_cell_length_b 9.785999
_cell_length_c 14.129576
_cell_angle_alpha 90.000000
_cell_angle_beta 65.931415
_cell_angle_gamma 90.000000
_cell_volume 3422.329758
_symmetry_space_group_name_H-M "C 2/M"
_symmetry_group_IT_number 12
_symmetry_cell_setting 'monoclinic'
loop_
_space_group_symop_operation_xyz
x,y,z
-x,y,-z
-x,-y,-z
x,-y,z
1/2+x,1/2+y,z
1/2-x,1/2+y,-z
1/2-x,1/2-y,-z
1/2+x,1/2-y,z
loop_
_atom_site_type_symbol
_atom_site_label
_atom_site_fract_x
_atom_site_fract_y
_atom_site_fract_z
Si Si1 0.861939 0.158927 0.789746
Si Si2 0.443204 0.663266 0.084431
Si Si3 0.757295 0.348434 0.625375
Si Si4 0.258332 0.155370 0.839852
Si Si5 0.855005 0.841264 0.008751
Si Si6 0.474228 0.337644 0.617870
Si Si7 0.441500 0.337984 0.297873
Si Si8 0.171469 0.842245 0.536428
O O1 0.810003 0.249467 0.809743
O O2 0.911611 0.205169 0.682853
O O3 0.847498 0.000000 0.783995
O O4 0.879331 0.182703 0.885323
O O5 0.440655 0.500000 0.085478
O O6 0.395479 0.724143 0.054881
O O7 0.438671 0.723309 0.194288
O O8 0.500000 0.715471 0.000000
O O9 0.777800 0.500000 0.582288
O O10 0.738518 0.341839 0.747459
O O11 0.806116 0.243678 0.569241
O O12 0.705338 0.309229 0.604082
O O13 0.206731 0.216492 0.937752
O O14 0.273232 0.000000 0.859539
O O15 0.849595 0.000000 0.037077
O O16 0.500000 0.278314 0.500000
O O17 0.478587 0.500000 0.612067
O O18 0.507769 0.281503 0.681872
O O19 0.444512 0.500000 0.285858
O O20 0.388994 0.293428 0.397324
O O21 0.173978 0.000000 0.505067
#
# Coordination Sequence:
#
# PCOD8095752 Si02
#       8
#     8   8   8   8   8   8   8   8
#     4  10  20  33  51  73  98 128 167 207 244 289
#     4   9  15  24  43  70 100 128 156 197 248 297
#     4   9  18  31  45  67  96 126 158 196 240 283
#     4  10  20  33  50  69  99 136 166 198 245 294
#     4   9  17  30  47  70  99 129 160 201 250 293
#     4   9  18  30  44  67 100 130 157 200 252 291
#     4   9  16  26  43  68  95 124 158 192 239 296
#     4   9  17  29  48  70  94 123 159 199 237 285
#
# _framework density 18.700711999999999
#
# number of rings (size 3 to 8) (size 9 to 14) (size 15 to 20)
#    0.000    2.750    0.000    1.875    1.750    6.500 
#    0.000    0.000    0.000    1.125    0.000    0.875 
#    0.000    3.500    0.000    0.000    0.000    0.000 
#
# Total GULP energy -396643.890250 kJ/mol
# GULP energy per Si atom -12395.121570 kJ/mol
# Density = 1.865815 g / cm^3
# Si number density = 18.700712 Si / 1000 Ang^3
#
#
#
# Elastic Constant Matrix: (Units=GPa)
#
#
# Indices 1 2 3 4 5 6 
#
# 1 120.2987 26.0752 43.6166 0.0000 -16.3850 0.0000
# 2 26.0752 30.8406 18.9738 0.0000 -9.2688 0.0000
# 3 43.6166 18.9738 102.2633 0.0000 -14.7721 0.0000
# 4 0.0000 0.0000 0.0000 14.8469 0.0000 -2.1387
# 5 -16.3850 -9.2688 -14.7721 0.0000 34.2234 0.0000
# 6 0.0000 0.0000 0.0000 -2.1387 0.0000 15.8856
#
#
#
# Elastic Compliance Matrix: (Units=1/GPa)
#
#
# Indices 1 2 3 4 5 6 
#
# 1 0.011266 -0.006905 -0.003215 0.000000 0.002136 0.000000
# 2 -0.006905 0.042705 -0.004037 0.000000 0.006517 0.000000
# 3 -0.003215 -0.004037 0.012285 0.000000 0.002670 0.000000
# 4 0.000000 0.000000 0.000000 0.068686 0.000000 0.009247
# 5 0.002136 0.006517 0.002670 0.000000 0.033160 0.000000
# 6 0.000000 0.000000 0.000000 0.009247 0.000000 0.064195
#
#
# Mechanical properties :
#
#
# Convention : Reuss Voigt Hill
#
# Bulk Modulus (GPa) = 26.35656 47.85930 37.10793
# Shear Modulus (GPa) = 18.29762 23.97363 21.13563
#
# Velocity S-wave (km/s) = 3.13140 3.58434 3.36550
# Velocity P-wave (km/s) = 5.21524 6.54047 5.91509
#
# Compressibility (1/GPa) = 0.03794122
#
# Stress axis : x y z
#
# Youngs Moduli (GPa) = 88.76194 23.41625 81.40169
#
# Poissons Ratio (x) = 0.16169 0.26174
# Poissons Ratio (y) = 0.61292 0.32861
# Poissons Ratio (z) = 0.28541 0.09453
#
# Static dielectric constant tensor:
#      x y z
#    x 3.526200 0.000000 -0.022340 
#    y 0.000000 2.910910 0.000000 
#    z -0.022340 0.000000 3.665360 
# 
# 
# High freq. dielectric constant tensor:
#      x y z
#    x 1.734440 0.000000 -0.001590 
#    y 0.000000 1.651540 0.000000 
#    z -0.001590 0.000000 1.741370 
# 
# From -- ./inp_files/175265.got.cif
#   From: 2010.06.25/outbox.cif.g09.slc.cpg/sg12_88_cif.got.tgz:175265.got - 2010.06.28 00:19:55.
