data_PCOD8095633
_publ_section_title
;
Structure prediction by ZEFSAII (Michael W. Deem and Ramdas Pophale) SiO2 
 PCOD8095633
Probable space group: C 2/M
;
_chemical_formula_sum "Si O2"
_cell_formula_units_Z 56
_cell_length_a 28.657675
_cell_length_b 8.872351
_cell_length_c 19.520479
_cell_angle_alpha 90.000000
_cell_angle_beta 144.686046
_cell_angle_gamma 90.000000
_cell_volume 2869.064627
_symmetry_space_group_name_H-M "C 2/M"
_symmetry_group_IT_number 12
_symmetry_cell_setting 'monoclinic'
loop_
_space_group_symop_operation_xyz
x,y,z
-x,y,-z
-x,-y,-z
x,-y,z
1/2+x,1/2+y,z
1/2-x,1/2+y,-z
1/2-x,1/2-y,-z
1/2+x,1/2-y,z
loop_
_atom_site_type_symbol
_atom_site_label
_atom_site_fract_x
_atom_site_fract_y
_atom_site_fract_z
Si Si1 0.572667 0.671509 0.041884
Si Si2 0.378564 0.177837 0.036899
Si Si3 0.014799 0.678816 0.302085
Si Si4 0.718083 0.821458 0.809519
Si Si5 0.037753 0.678500 0.615152
Si Si6 0.306886 0.820773 0.511101
Si Si7 0.253450 0.669979 0.703376
O O1 0.556345 0.500000 0.997529
O O2 0.650102 0.677025 0.183637
O O3 0.500000 0.735842 0.000000
O O4 0.583105 0.778228 0.989575
O O5 0.439220 0.240756 0.167802
O O6 0.369478 0.000000 0.030744
O O7 0.289736 0.249656 0.940715
O O8 0.010166 0.500000 0.298879
O O9 0.099273 0.727823 0.367884
O O10 0.008696 0.740307 0.373168
O O11 0.631697 0.776390 0.736584
O O12 0.721902 0.755510 0.736309
O O13 0.733518 0.000000 0.826736
O O14 0.029819 0.500000 0.601064
O O15 0.000000 0.748683 0.500000
O O16 0.250000 0.750000 0.500000
O O17 0.280046 0.751983 0.405296
O O18 0.295739 0.000000 0.500991
O O19 0.220146 0.500000 0.662842
#
# Coordination Sequence:
#
# PCOD8095633 Si02
#       7
#     8   8   8   8   8   8   8
#     4   9  18  32  52  75  97 126 171 224 261 293
#     4  10  20  33  48  71 108 146 170 199 256 318
#     4   9  19  33  48  73 108 137 166 213 261 305
#     4   9  17  32  55  80 102 128 172 219 254 296
#     4   9  16  29  55  84 103 130 174 218 258 303
#     4  10  20  34  51  71  99 133 167 207 257 307
#     4   8  15  29  48  71  96 123 157 206 258 292
#
# _framework density 19.518557000000001
#
# number of rings (size 3 to 8) (size 9 to 14) (size 15 to 20)
#    0.000    2.857    0.000    2.143    2.000    4.286 
#    0.000    3.571    0.000    2.143    0.000    0.000 
#    0.000    0.000    0.000    0.000    0.000    0.000 
#
# Total GULP energy -347028.672909 kJ/mol
# GULP energy per Si atom -12393.881175 kJ/mol
# Density = 1.947413 g / cm^3
# Si number density = 19.518557 Si / 1000 Ang^3
#
#
#
# Elastic Constant Matrix: (Units=GPa)
#
#
# Indices 1 2 3 4 5 6 
#
# 1 125.6171 18.0944 63.6493 0.0000 16.5048 0.0000
# 2 18.0944 27.8490 25.6951 0.0000 3.2748 0.0000
# 3 63.6493 25.6951 144.8319 0.0000 -2.0863 0.0000
# 4 0.0000 0.0000 0.0000 21.7866 0.0000 2.9651
# 5 16.5048 3.2748 -2.0863 0.0000 30.4929 0.0000
# 6 0.0000 0.0000 0.0000 2.9651 0.0000 20.1723
#
#
#
# Elastic Compliance Matrix: (Units=1/GPa)
#
#
# Indices 1 2 3 4 5 6 
#
# 1 0.011533 -0.002381 -0.004737 0.000000 -0.006311 0.000000
# 2 -0.002381 0.044247 -0.006860 0.000000 -0.003933 0.000000
# 3 -0.004737 -0.006860 0.010261 0.000000 0.004003 0.000000
# 4 0.000000 0.000000 0.000000 0.046837 0.000000 -0.006884
# 5 -0.006311 -0.003933 0.004003 0.000000 0.036907 0.000000
# 6 0.000000 0.000000 0.000000 -0.006884 0.000000 0.050585
#
#
# Mechanical properties :
#
#
# Convention : Reuss Voigt Hill
#
# Bulk Modulus (GPa) = 26.25704 57.01953 41.63828
# Shear Modulus (GPa) = 20.74512 27.21429 23.97971
#
# Velocity S-wave (km/s) = 3.26366 3.73805 3.50888
# Velocity P-wave (km/s) = 5.26151 6.92150 6.14779
#
# Compressibility (1/GPa) = 0.03808503
#
# Stress axis : x y z
#
# Youngs Moduli (GPa) = 86.70784 22.60038 97.45533
#
# Poissons Ratio (x) = 0.05380 0.46164
# Poissons Ratio (y) = 0.20642 0.66859
# Poissons Ratio (z) = 0.41073 0.15505
#
# Static dielectric constant tensor:
#      x y z
#    x 3.669320 0.000000 0.006710 
#    y 0.000000 3.019940 0.000000 
#    z 0.006710 0.000000 3.845090 
# 
# 
# High freq. dielectric constant tensor:
#      x y z
#    x 1.765420 0.000000 0.007450 
#    y 0.000000 1.698340 0.000000 
#    z 0.007450 0.000000 1.772700 
# 
# From -- ./inp_files/292532.got.cif
#   From: 2010.06.25/outbox.cif.g09.slc.cpg/sg12_147_cif.got.tgz:292532.got - 2010.06.28 00:19:55.
