data_PCOD8095351
_publ_section_title
;
Structure prediction by ZEFSAII (Michael W. Deem and Ramdas Pophale) SiO2 
 PCOD8095351
Probable space group: C 2/M
;
_chemical_formula_sum "Si O2"
_cell_formula_units_Z 64
_cell_length_a 16.335608
_cell_length_b 23.249201
_cell_length_c 17.746047
_cell_angle_alpha 90.000000
_cell_angle_beta 147.070794
_cell_angle_gamma 90.000000
_cell_volume 3663.753975
_symmetry_space_group_name_H-M "C 2/M"
_symmetry_group_IT_number 12
_symmetry_cell_setting 'monoclinic'
loop_
_space_group_symop_operation_xyz
x,y,z
-x,y,-z
-x,-y,-z
x,-y,z
1/2+x,1/2+y,z
1/2-x,1/2+y,-z
1/2-x,1/2-y,-z
1/2+x,1/2-y,z
loop_
_atom_site_type_symbol
_atom_site_label
_atom_site_fract_x
_atom_site_fract_y
_atom_site_fract_z
Si Si1 0.123803 0.246679 0.776873
Si Si2 0.078498 0.064663 0.743458
Si Si3 0.164690 0.309156 0.442293
Si Si4 0.118829 0.846145 0.651950
Si Si5 0.397958 0.157168 0.770526
Si Si6 0.067018 0.436263 0.972694
Si Si7 0.540214 0.726280 0.943746
Si Si8 0.554856 0.656794 0.260226
O O1 0.165548 0.208398 0.737590
O O2 0.008126 0.298339 0.664580
O O3 0.039361 0.207864 0.772973
O O4 0.279127 0.272507 0.928776
O O5 0.042662 0.102361 0.641252
O O6 0.008765 0.094766 0.763746
O O7 0.012328 0.000000 0.684009
O O8 0.255528 0.062489 0.887924
O O9 0.250000 0.250000 0.500000
O O10 0.164871 0.341450 0.362460
O O11 0.266121 0.344273 0.580869
O O12 0.267835 0.866316 0.724723
O O13 0.000000 0.823324 0.500000
O O14 0.524971 0.108059 0.874042
O O15 0.464831 0.217968 0.847736
O O16 0.002920 0.500000 0.905690
O O17 0.000000 0.413544 0.000000
O O18 0.471405 0.669597 0.848804
O O19 0.500000 0.721508 0.000000
#
# Coordination Sequence:
#
# PCOD8095351 Si02
#       8
#     8   8   8   8   8   8   8   8
#     4  10  20  32  49  74 106 145 177 211 265 315
#     4  10  21  37  55  75 105 145 188 225 266 310
#     4  10  20  35  50  71 106 148 177 220 267 320
#     4  11  21  31  49  76 111 150 183 214 259 320
#     4  12  19  32  52  74 114 146 184 219 265 311
#     4  10  20  34  50  75 110 147 185 225 258 300
#     4  12  22  32  52  83 107 135 177 227 271 329
#     4  10  21  37  52  76 105 137 185 222 270 322
#
# _framework density 17.468422
#
# number of rings (size 3 to 8) (size 9 to 14) (size 15 to 20)
#    0.000    1.375    5.000    4.500    1.750    0.250 
#    0.000    1.875    0.000    0.375    0.000    0.000 
#    0.000    1.000    0.000    0.000    0.000    0.000 
#
# Total GULP energy -396672.947809 kJ/mol
# GULP energy per Si atom -12396.029619 kJ/mol
# Density = 1.742866 g / cm^3
# Si number density = 17.468422 Si / 1000 Ang^3
#
#
#
# Elastic Constant Matrix: (Units=GPa)
#
#
# Indices 1 2 3 4 5 6 
#
# 1 41.4619 23.5544 27.9070 -0.0003 -1.8377 -0.0001
# 2 23.5544 74.3346 29.1155 -0.0003 -9.9008 -0.0001
# 3 27.9070 29.1155 104.5144 0.0052 -8.1573 0.0026
# 4 -0.0003 -0.0003 0.0052 -8.7008 0.0024 -13.2660
# 5 -1.8377 -9.9008 -8.1573 0.0024 30.1997 0.0012
# 6 -0.0001 -0.0001 0.0026 -13.2660 0.0012 13.5265
#
#
#
# Elastic Compliance Matrix: (Units=1/GPa)
#
#
# Indices 1 2 3 4 5 6 
#
# 1 0.033236 -0.008208 -0.006783 -0.000003 -0.002501 -0.000001
# 2 -0.008208 0.017590 -0.002347 0.000000 0.004633 0.000000
# 3 -0.006783 -0.002347 0.012198 0.000005 0.002113 0.000002
# 4 -0.000003 0.000000 0.000005 -0.046059 0.000007 -0.045172
# 5 -0.002501 0.004633 0.002113 0.000007 0.035050 0.000003
# 6 -0.000001 0.000000 0.000002 -0.045172 0.000003 0.029627
#
#
# Mechanical properties :
#
#
# Convention : Reuss Voigt Hill
#
# Bulk Modulus (GPa) = 35.27566 42.38498 38.83032
# Shear Modulus (GPa) = 39.75584 16.32068 28.03826
#
# Velocity S-wave (km/s) = 4.77578 3.05994 4.01069
# Velocity P-wave (km/s) = 7.11678 6.06636 6.61246
#
# Compressibility (1/GPa) = 0.02834816
#
# Stress axis : x y z
#
# Youngs Moduli (GPa) = 30.08770 56.85105 81.98064
#
# Poissons Ratio (x) = 0.46662 0.55610
# Poissons Ratio (y) = 0.24695 0.19240
# Poissons Ratio (z) = 0.20409 0.13343
#
# Static dielectric constant tensor:
#      x y z
#    x 3.313070 0.000000 0.185950 
#    y 0.000000 3.290140 0.000000 
#    z 0.185950 0.000000 3.700020 
# 
# 
# High freq. dielectric constant tensor:
#      x y z
#    x 1.651900 0.000000 0.008340 
#    y 0.000000 1.638910 0.000000 
#    z 0.008340 0.000000 1.691850 
# 
# From -- ./inp_files/279387.got.cif
#   From: 2010.06.25/outbox.cif.g09.slc.cpg/sg12_140_cif.got.tgz:279387.got - 2010.06.28 00:19:55.
