data_PCOD8095078
_publ_section_title
;
Structure prediction by ZEFSAII (Michael W. Deem and Ramdas Pophale) SiO2 
 PCOD8095078
Probable space group: C 2/M
;
_chemical_formula_sum "Si O2"
_cell_formula_units_Z 56
_cell_length_a 24.917006
_cell_length_b 21.884398
_cell_length_c 14.181589
_cell_angle_alpha 90.000000
_cell_angle_beta 17.876838
_cell_angle_gamma 90.000000
_cell_volume 2373.853914
_symmetry_space_group_name_H-M "C 2/M"
_symmetry_group_IT_number 12
_symmetry_cell_setting 'monoclinic'
loop_
_space_group_symop_operation_xyz
x,y,z
-x,y,-z
-x,-y,-z
x,-y,z
1/2+x,1/2+y,z
1/2-x,1/2+y,-z
1/2-x,1/2-y,-z
1/2+x,1/2-y,z
loop_
_atom_site_type_symbol
_atom_site_label
_atom_site_fract_x
_atom_site_fract_y
_atom_site_fract_z
Si Si1 0.177748 0.102918 0.802320
Si Si2 0.004932 0.570708 0.380116
Si Si3 0.738856 0.162914 0.690947
Si Si4 0.937069 0.222836 0.940142
Si Si5 0.668743 0.372282 0.270333
Si Si6 0.211082 0.932513 0.538581
Si Si7 0.178505 0.735688 0.218971
O O1 0.320791 0.091077 0.643653
O O2 0.121430 0.174260 0.882738
O O3 0.254175 0.080022 0.575803
O O4 0.997818 0.069061 0.131556
O O5 0.042333 0.500000 0.293676
O O6 0.000000 0.581326 0.500000
O O7 0.159859 0.610895 0.075505
O O8 0.581554 0.206774 0.993018
O O9 0.808176 0.114937 0.656080
O O10 0.682019 0.116847 0.702719
O O11 0.872277 0.211942 0.421711
O O12 0.811355 0.201729 0.064082
O O13 0.500000 0.402879 0.500000
O O14 0.633685 0.300245 0.341430
O O15 0.279484 0.000000 0.398684
O O16 0.000000 0.696707 0.500000
O O17 0.250000 0.750000 0.000000
#
# Coordination Sequence:
#
# PCOD8095078 Si02
#       7
#     8   8   8   8   8   8   8
#     4  10  22  39  69  98 129 175 223 281 332 393
#     4  11  26  42  64  99 135 174 223 278 334 391
#     4  10  23  40  64 101 130 174 220 268 339 394
#     4  10  21  36  60  95 136 166 214 274 335 402
#     4  10  23  40  59  91 134 175 220 260 326 399
#     4  10  21  43  71  95 128 176 230 277 324 397
#     4  10  20  31  53  83 119 166 209 249 305 390
#
# _framework density 23.590332
#
# number of rings (size 3 to 8) (size 9 to 14) (size 15 to 20)
#    0.000    1.857    0.000    4.286   12.000    1.429 
#    0.000    0.714    0.000    1.714    0.000    0.000 
#    0.000    0.000    0.000    0.000    0.000    0.000 
#
# Total GULP energy -346880.804153 kJ/mol
# GULP energy per Si atom -12388.600148 kJ/mol
# Density = 2.353664 g / cm^3
# Si number density = 23.590332 Si / 1000 Ang^3
#
#
#
# Elastic Constant Matrix: (Units=GPa)
#
#
# Indices 1 2 3 4 5 6 
#
# 1 113.5243 36.7158 32.9098 0.0095 11.8960 -0.0281
# 2 36.7158 98.3515 14.4779 0.0871 14.5070 -0.0735
# 3 32.9098 14.4779 71.9457 0.0170 7.6694 -0.0602
# 4 0.0095 0.0871 0.0170 5.4968 -0.0452 -2.0069
# 5 11.8960 14.5070 7.6694 -0.0452 38.1631 0.0201
# 6 -0.0281 -0.0735 -0.0602 -2.0069 0.0201 28.1704
#
#
#
# Elastic Compliance Matrix: (Units=1/GPa)
#
#
# Indices 1 2 3 4 5 6 
#
# 1 0.011304 -0.003379 -0.004345 0.000035 -0.001366 -0.000003
# 2 -0.003379 0.012007 -0.000507 -0.000206 -0.003409 0.000015
# 3 -0.004345 -0.000507 0.016171 -0.000038 -0.001703 0.000027
# 4 0.000035 -0.000206 -0.000038 0.186789 0.000289 0.013306
# 5 -0.001366 -0.003409 -0.001703 0.000289 0.028268 -0.000014
# 6 -0.000003 0.000015 0.000027 0.013306 -0.000014 0.036446
#
#
# Mechanical properties :
#
#
# Convention : Reuss Voigt Hill
#
# Bulk Modulus (GPa) = 43.44239 50.22538 46.83389
# Shear Modulus (GPa) = 15.86697 27.68059 21.77378
#
# Velocity S-wave (km/s) = 2.59628 3.42919 3.04138
# Velocity P-wave (km/s) = 5.23859 6.08408 5.67710
#
# Compressibility (1/GPa) = 0.02301899
#
# Stress axis : x y z
#
# Youngs Moduli (GPa) = 88.46185 83.28678 61.84063
#
# Poissons Ratio (x) = 0.28142 0.26872
# Poissons Ratio (y) = 0.29891 0.03136
# Poissons Ratio (z) = 0.38440 0.04223
#
# Static dielectric constant tensor:
#      x y z
#    x 4.587940 -0.000070 -0.219890 
#    y -0.000070 3.828420 0.000320 
#    z -0.219890 0.000320 4.020400 
# 
# 
# High freq. dielectric constant tensor:
#      x y z
#    x 1.948830 0.000000 0.000110 
#    y 0.000000 1.920270 0.000020 
#    z 0.000110 0.000020 1.920560 
# 
# From -- ./inp_files/242123.got.cif
#   From: 2010.06.25/outbox.cif.g09.slc.cpg/sg12_122_cif.got.tgz:242123.got - 2010.06.28 00:19:55.
