data_PCOD8095390
_publ_section_title
;
Structure prediction by ZEFSAII (Michael W. Deem and Ramdas Pophale) SiO2 
 PCOD8095390
Probable space group: C 2/M
;
_chemical_formula_sum "Si O2"
_cell_formula_units_Z 64
_cell_length_a 23.615528
_cell_length_b 8.670964
_cell_length_c 17.851872
_cell_angle_alpha 90.000000
_cell_angle_beta 72.596293
_cell_angle_gamma 90.000000
_cell_volume 3488.171006
_symmetry_space_group_name_H-M "C 2/M"
_symmetry_group_IT_number 12
_symmetry_cell_setting 'monoclinic'
loop_
_space_group_symop_operation_xyz
x,y,z
-x,y,-z
-x,-y,-z
x,-y,z
1/2+x,1/2+y,z
1/2-x,1/2+y,-z
1/2-x,1/2-y,-z
1/2+x,1/2-y,z
loop_
_atom_site_type_symbol
_atom_site_label
_atom_site_fract_x
_atom_site_fract_y
_atom_site_fract_z
Si Si1 0.187471 0.682497 0.671594
Si Si2 0.850905 0.179087 0.464757
Si Si3 0.511845 0.678001 0.578803
Si Si4 0.409701 0.818610 0.710736
Si Si5 0.418911 0.815499 0.182900
Si Si6 0.429989 0.831188 0.018141
Si Si7 0.810757 0.316764 0.637420
Si Si8 0.448384 0.815063 0.852254
O O1 0.193201 0.500000 0.674743
O O2 0.183395 0.731331 0.586768
O O3 0.130806 0.745877 0.740153
O O4 0.245290 0.760446 0.685069
O O5 0.920475 0.206066 0.425827
O O6 0.830618 0.244577 0.551641
O O7 0.833851 0.000000 0.467701
O O8 0.500000 0.739314 0.500000
O O9 0.493078 0.500000 0.592281
O O10 0.472539 0.776847 0.650147
O O11 0.354795 0.751670 0.684693
O O12 0.409930 0.755884 0.796446
O O13 0.404313 0.000000 0.714533
O O14 0.405214 0.748889 0.103684
O O15 0.483517 0.756893 0.184503
O O16 0.418210 0.000000 0.179642
O O17 0.400289 0.000000 0.025363
O O18 0.500000 0.849268 0.000000
O O19 0.419430 0.747327 0.941393
O O20 0.813345 0.500000 0.630232
O O21 0.449005 0.000000 0.857031
#
# Coordination Sequence:
#
# PCOD8095390 Si02
#       8
#     8   8   8   8   8   8   8   8
#     4  11  22  35  52  72  96 126 165 209 247 284
#     4  11  22  37  55  73  96 125 161 202 247 293
#     4  10  20  34  51  72  99 129 157 190 240 296
#     4  10  20  32  50  74  99 129 165 205 243 283
#     4   8  14  25  44  72 101 125 152 190 239 291
#     4   7  10  19  39  68 101 128 146 179 236 291
#     4  11  23  37  50  67  94 130 171 207 246 288
#     4   8  13  24  44  73 103 124 149 191 241 288
#
# _framework density 18.347723999999999
#
# number of rings (size 3 to 8) (size 9 to 14) (size 15 to 20)
#    0.000    2.500    1.250    3.750    0.000    2.750 
#    0.000    0.000    0.000    0.750    0.000    1.750 
#    0.000    9.500    0.000    0.000    0.000    0.250 
#
# Total GULP energy -396554.628806 kJ/mol
# GULP energy per Si atom -12392.332150 kJ/mol
# Density = 1.830596 g / cm^3
# Si number density = 18.347724 Si / 1000 Ang^3
#
#
#
# Elastic Constant Matrix: (Units=GPa)
#
#
# Indices 1 2 3 4 5 6 
#
# 1 108.5977 60.6401 80.6145 0.0000 18.9425 0.0000
# 2 60.6401 118.9244 75.5811 0.0000 16.5962 0.0000
# 3 80.6145 75.5811 181.3980 0.0000 33.9808 0.0000
# 4 0.0000 0.0000 0.0000 2.9430 0.0000 -5.2769
# 5 18.9425 16.5962 33.9808 0.0000 22.6247 0.0000
# 6 0.0000 0.0000 0.0000 -5.2769 0.0000 20.2511
#
#
#
# Elastic Compliance Matrix: (Units=1/GPa)
#
#
# Indices 1 2 3 4 5 6 
#
# 1 0.015671 -0.004765 -0.004419 0.000000 -0.002988 0.000000
# 2 -0.004765 0.012934 -0.003119 0.000000 -0.000814 0.000000
# 3 -0.004419 -0.003119 0.010651 0.000000 -0.010010 0.000000
# 4 0.000000 0.000000 0.000000 0.637779 0.000000 0.166188
# 5 -0.002988 -0.000814 -0.010010 0.000000 0.062332 0.000000
# 6 0.000000 0.000000 0.000000 0.166188 0.000000 0.092684
#
#
# Mechanical properties :
#
#
# Convention : Reuss Voigt Hill
#
# Bulk Modulus (GPa) = 68.26104 93.62129 80.94116
# Shear Modulus (GPa) = 5.80355 21.96937 13.88646
#
# Velocity S-wave (km/s) = 1.78044 3.46409 2.75407
# Velocity P-wave (km/s) = 6.44294 8.19370 7.37049
#
# Compressibility (1/GPa) = 0.01464964
#
# Stress axis : x y z
#
# Youngs Moduli (GPa) = 63.81394 77.31361 93.88531
#
# Poissons Ratio (x) = 0.36841 0.41488
# Poissons Ratio (y) = 0.30408 0.29284
# Poissons Ratio (z) = 0.28199 0.24115
#
# Static dielectric constant tensor:
#      x y z
#    x 3.496320 0.000000 0.205220 
#    y 0.000000 2.994170 0.000000 
#    z 0.205220 0.000000 3.879140 
# 
# 
# High freq. dielectric constant tensor:
#      x y z
#    x 1.692960 0.000000 0.012200 
#    y 0.000000 1.672190 0.000000 
#    z 0.012200 0.000000 1.723390 
# 
# From -- ./inp_files/287591.got.cif
#   From: 2010.06.25/outbox.cif.g09.slc.cpg/sg12_144_cif.got.tgz:287591.got - 2010.06.28 00:19:55.
