data_PCOD8095654
_publ_section_title
;
Structure prediction by ZEFSAII (Michael W. Deem and Ramdas Pophale) SiO2 
 PCOD8095654
Probable space group: C 2/M
;
_chemical_formula_sum "Si O2"
_cell_formula_units_Z 56
_cell_length_a 27.822346
_cell_length_b 8.903780
_cell_length_c 13.781581
_cell_angle_alpha 90.000000
_cell_angle_beta 99.323604
_cell_angle_gamma 90.000000
_cell_volume 3368.926489
_symmetry_space_group_name_H-M "C 2/M"
_symmetry_group_IT_number 12
_symmetry_cell_setting 'monoclinic'
loop_
_space_group_symop_operation_xyz
x,y,z
-x,y,-z
-x,-y,-z
x,-y,z
1/2+x,1/2+y,z
1/2-x,1/2+y,-z
1/2-x,1/2-y,-z
1/2+x,1/2-y,z
loop_
_atom_site_type_symbol
_atom_site_label
_atom_site_fract_x
_atom_site_fract_y
_atom_site_fract_z
Si Si1 0.956056 0.823319 0.915273
Si Si2 0.265304 0.674415 0.906120
Si Si3 0.359878 0.825953 0.960902
Si Si4 0.515190 0.821961 0.274835
Si Si5 0.161037 0.330403 0.820097
Si Si6 0.580965 0.324984 0.677997
Si Si7 0.944713 0.665053 0.514700
O O1 0.907202 0.765742 0.948043
O O2 0.963018 0.743766 0.815340
O O3 0.953186 0.000000 0.897482
O O4 0.000000 0.778293 0.000000
O O5 0.277165 0.500000 0.927626
O O6 0.313973 0.758927 0.884787
O O7 0.218979 0.692673 0.818934
O O8 0.250000 0.750000 0.000000
O O9 0.366204 0.000000 0.936106
O O10 0.351226 0.800292 0.071775
O O11 0.461543 0.758163 0.277409
O O12 0.553354 0.777518 0.373205
O O13 0.509903 0.000000 0.265168
O O14 0.145712 0.500000 0.787557
O O15 0.132340 0.214308 0.743574
O O16 0.570920 0.500000 0.681670
O O17 0.583715 0.278279 0.565383
O O18 0.920075 0.500000 0.499939
O O19 0.000000 0.651803 0.500000
#
# Coordination Sequence:
#
# PCOD8095654 Si02
#       7
#     8   8   8   8   8   8   8
#     4  11  23  35  48  69  96 126 160 196 230 267
#     4   9  17  30  48  68  91 121 156 194 235 277
#     4  10  20  33  49  68  93 127 161 193 231 276
#     4  10  20  34  50  66  90 126 162 194 230 275
#     4   9  18  31  47  68  95 126 156 189 232 278
#     4  11  20  28  45  72  98 123 152 192 237 277
#     4   8  16  31  48  65  88 120 155 190 231 279
#
# _framework density 16.622506000000001
#
# number of rings (size 3 to 8) (size 9 to 14) (size 15 to 20)
#    0.000    2.286    0.000    5.571    0.000   10.000 
#    0.000    0.000    0.000    0.000    0.000    1.000 
#    0.000    0.000    0.000    0.000    0.000    0.000 
#
# Total GULP energy -347098.152107 kJ/mol
# GULP energy per Si atom -12396.362575 kJ/mol
# Density = 1.658467 g / cm^3
# Si number density = 16.622506 Si / 1000 Ang^3
#
#
#
# Elastic Constant Matrix: (Units=GPa)
#
#
# Indices 1 2 3 4 5 6 
#
# 1 82.8157 30.9805 34.7238 0.0000 14.6165 0.0000
# 2 30.9805 79.4473 42.8896 0.0000 7.3600 0.0000
# 3 34.7238 42.8896 85.7365 0.0000 5.7799 0.0000
# 4 0.0000 0.0000 0.0000 23.7881 0.0000 1.8609
# 5 14.6165 7.3600 5.7799 0.0000 18.5669 0.0000
# 6 0.0000 0.0000 0.0000 1.8609 0.0000 28.6288
#
#
#
# Elastic Compliance Matrix: (Units=1/GPa)
#
#
# Indices 1 2 3 4 5 6 
#
# 1 0.017097 -0.003183 -0.004606 0.000000 -0.010763 0.000000
# 2 -0.003183 0.018169 -0.007644 0.000000 -0.002317 0.000000
# 3 -0.004606 -0.007644 0.017267 0.000000 0.001281 0.000000
# 4 0.000000 0.000000 0.000000 0.042253 0.000000 -0.002747
# 5 -0.010763 -0.002317 0.001281 0.000000 0.062852 0.000000
# 6 0.000000 0.000000 0.000000 -0.002747 0.000000 0.035108
#
#
# Mechanical properties :
#
#
# Convention : Reuss Voigt Hill
#
# Bulk Modulus (GPa) = 46.15451 51.68749 48.92100
# Shear Modulus (GPa) = 21.66050 23.49047 22.57549
#
# Velocity S-wave (km/s) = 3.61374 3.76330 3.68928
# Velocity P-wave (km/s) = 6.72597 7.07429 6.90233
#
# Compressibility (1/GPa) = 0.02166635
#
# Stress axis : x y z
#
# Youngs Moduli (GPa) = 58.49037 55.03772 57.91491
#
# Poissons Ratio (x) = 0.17519 0.26678
# Poissons Ratio (y) = 0.18618 0.44269
# Poissons Ratio (z) = 0.26943 0.42070
#
# Static dielectric constant tensor:
#      x y z
#    x 3.126080 0.000000 0.206970 
#    y 0.000000 3.275700 0.000000 
#    z 0.206970 0.000000 3.315800 
# 
# 
# High freq. dielectric constant tensor:
#      x y z
#    x 1.616390 0.000000 0.019150 
#    y 0.000000 1.654240 0.000000 
#    z 0.019150 0.000000 1.625630 
# 
# From -- ./inp_files/243259.got.cif
#   From: 2010.06.25/outbox.cif.g09.slc.cpg/sg12_122_cif.got.tgz:243259.got - 2010.06.28 00:19:55.
