data_PCOD8095429
_publ_section_title
;
Structure prediction by ZEFSAII (Michael W. Deem and Ramdas Pophale) SiO2 
 PCOD8095429
Probable space group: C 2/M
;
_chemical_formula_sum "Si O2"
_cell_formula_units_Z 64
_cell_length_a 11.011561
_cell_length_b 28.909395
_cell_length_c 17.017704
_cell_angle_alpha 90.000000
_cell_angle_beta 33.712007
_cell_angle_gamma 90.000000
_cell_volume 3006.744471
_symmetry_space_group_name_H-M "C 2/M"
_symmetry_group_IT_number 12
_symmetry_cell_setting 'monoclinic'
loop_
_space_group_symop_operation_xyz
x,y,z
-x,y,-z
-x,-y,-z
x,-y,z
1/2+x,1/2+y,z
1/2-x,1/2+y,-z
1/2-x,1/2-y,-z
1/2+x,1/2-y,z
loop_
_atom_site_type_symbol
_atom_site_label
_atom_site_fract_x
_atom_site_fract_y
_atom_site_fract_z
Si Si1 0.975738 0.697935 0.921645
Si Si2 0.044491 0.051211 0.367488
Si Si3 0.717102 0.356736 0.350598
Si Si4 0.994899 0.947212 0.783773
Si Si5 0.811960 0.627558 0.655537
Si Si6 0.567911 0.915037 0.654463
Si Si7 0.976695 0.193479 0.920083
Si Si8 0.181893 0.052720 0.958413
O O1 0.007262 0.752153 0.892946
O O2 0.183862 0.673864 0.770648
O O3 0.756188 0.679975 0.995278
O O4 0.000000 0.684389 0.000000
O O5 0.132109 0.054369 0.230673
O O6 0.781079 0.056662 0.513129
O O7 0.164561 0.090326 0.352760
O O8 0.103187 0.000000 0.369130
O O9 0.500000 0.331472 0.500000
O O10 0.875634 0.364279 0.339647
O O11 0.182440 0.908881 0.671518
O O12 0.082844 0.000000 0.750262
O O13 0.842764 0.929303 0.938221
O O14 0.666584 0.668533 0.769338
O O15 0.000000 0.650756 0.500000
O O16 0.910055 0.593839 0.667620
O O17 0.428329 0.941769 0.796087
O O18 0.000000 0.179897 0.000000
O O19 0.115558 0.000000 0.996691
O O20 0.000000 0.078100 0.000000
#
# Coordination Sequence:
#
# PCOD8095429 Si02
#       8
#     8   8   8   8   8   8   8   8
#     4  10  23  44  70  95 123 168 210 252 323 390
#     4  10  22  41  59  82 125 172 216 257 300 364
#     4  10  24  39  62  90 122 162 215 258 309 362
#     4  10  22  37  55  83 122 161 205 252 301 363
#     4  12  24  37  62  94 126 160 205 252 322 373
#     4  11  22  36  57  88 119 161 203 258 307 366
#     4  10  24  44  68  97 128 161 205 261 323 388
#     4  10  20  32  50  80 112 150 198 245 298 354
#
# _framework density 21.28548
#
# number of rings (size 3 to 8) (size 9 to 14) (size 15 to 20)
#    0.000    1.625    2.500    1.125    5.250    4.000 
#    0.000    0.000    0.000    9.375    0.000    0.000 
#    0.000    0.000    0.000    0.000    0.000    0.000 
#
# Total GULP energy -396531.953462 kJ/mol
# GULP energy per Si atom -12391.623546 kJ/mol
# Density = 2.123703 g / cm^3
# Si number density = 21.285480 Si / 1000 Ang^3
#
#
#
# Elastic Constant Matrix: (Units=GPa)
#
#
# Indices 1 2 3 4 5 6 
#
# 1 92.8785 14.2362 37.2286 0.0000 13.6033 -0.0001
# 2 14.2362 59.3032 44.3648 0.0000 2.5708 0.0000
# 3 37.2286 44.3648 148.3786 -0.0001 19.2822 -0.0005
# 4 0.0000 0.0000 -0.0001 25.7585 0.0000 -1.1268
# 5 13.6033 2.5708 19.2822 0.0000 34.0057 0.0002
# 6 -0.0001 0.0000 -0.0005 -1.1268 0.0002 8.7961
#
#
#
# Elastic Compliance Matrix: (Units=1/GPa)
#
#
# Indices 1 2 3 4 5 6 
#
# 1 0.012384 -0.001082 -0.002322 0.000000 -0.003556 0.000000
# 2 -0.001082 0.021970 -0.006626 0.000000 0.002529 0.000000
# 3 -0.002322 -0.006626 0.009843 0.000000 -0.004151 0.000001
# 4 0.000000 0.000000 0.000000 0.039041 0.000000 0.005001
# 5 -0.003556 0.002529 -0.004151 0.000000 0.032992 -0.000001
# 6 0.000000 0.000000 0.000001 0.005001 -0.000001 0.114328
#
#
# Mechanical properties :
#
#
# Convention : Reuss Voigt Hill
#
# Bulk Modulus (GPa) = 41.43010 54.69106 48.06058
# Shear Modulus (GPa) = 19.33028 27.36076 23.34552
#
# Velocity S-wave (km/s) = 3.01681 3.58916 3.31536
# Velocity P-wave (km/s) = 5.62505 6.55179 6.10603
#
# Compressibility (1/GPa) = 0.02413704
#
# Stress axis : x y z
#
# Youngs Moduli (GPa) = 80.74968 45.51755 101.59845
#
# Poissons Ratio (x) = 0.04925 0.23587
# Poissons Ratio (y) = 0.08737 0.67320
# Poissons Ratio (z) = 0.18747 0.30160
#
# Static dielectric constant tensor:
#      x y z
#    x 4.042690 0.000000 0.192140 
#    y 0.000000 3.575610 0.000000 
#    z 0.192140 0.000000 3.995670 
# 
# 
# High freq. dielectric constant tensor:
#      x y z
#    x 1.843410 0.000000 0.016210 
#    y 0.000000 1.816240 0.000000 
#    z 0.016210 0.000000 1.840600 
# 
# From -- ./inp_files/266288.got.cif
#   From: 2010.06.25/outbox.cif.g09.slc.cpg/sg12_134_cif.got.tgz:266288.got - 2010.06.28 00:19:55.
