data_PCOD8095283
_publ_section_title
;
Structure prediction by ZEFSAII (Michael W. Deem and Ramdas Pophale) SiO2 
 PCOD8095283
Probable space group: C 2/M
;
_chemical_formula_sum "Si O2"
_cell_formula_units_Z 64
_cell_length_a 10.098940
_cell_length_b 22.415080
_cell_length_c 24.396354
_cell_angle_alpha 90.000000
_cell_angle_beta 136.850674
_cell_angle_gamma 90.000000
_cell_volume 3776.895426
_symmetry_space_group_name_H-M "C 2/M"
_symmetry_group_IT_number 12
_symmetry_cell_setting 'monoclinic'
loop_
_space_group_symop_operation_xyz
x,y,z
-x,y,-z
-x,-y,-z
x,-y,z
1/2+x,1/2+y,z
1/2-x,1/2+y,-z
1/2-x,1/2-y,-z
1/2+x,1/2-y,z
loop_
_atom_site_type_symbol
_atom_site_label
_atom_site_fract_x
_atom_site_fract_y
_atom_site_fract_z
Si Si1 0.298526 0.068885 0.800937
Si Si2 0.314762 0.139607 0.090802
Si Si3 0.204847 0.828624 0.317562
Si Si4 0.520904 0.431199 0.205669
Si Si5 0.978057 0.862124 0.904268
Si Si6 0.926149 0.750013 0.816461
Si Si7 0.027175 0.245153 0.444824
Si Si8 0.405651 0.667965 0.314938
O O1 0.515130 0.093464 0.872323
O O2 0.188902 0.102181 0.717500
O O3 0.179106 0.079982 0.821279
O O4 0.307190 0.000000 0.787860
O O5 0.197404 0.117637 0.109039
O O6 0.390660 0.206279 0.125129
O O7 0.178228 0.141311 0.997015
O O8 0.196583 0.894083 0.287102
O O9 0.072399 0.784851 0.240780
O O10 0.424355 0.805349 0.390826
O O11 0.117401 0.830603 0.351987
O O12 0.581815 0.500000 0.225465
O O13 0.494119 0.410669 0.135115
O O14 0.931074 0.796523 0.867557
O O15 0.729641 0.712077 0.761343
O O16 0.250000 0.250000 0.500000
O O17 0.000000 0.233982 0.500000
O O18 0.929315 0.188354 0.384908
#
# Coordination Sequence:
#
# PCOD8095283 Si02
#       8
#     8   8   8   8   8   8   8   8
#     4   9  19  36  55  72  94 133 180 217 250 294
#     4  10  20  32  48  73 104 135 169 213 266 308
#     4   9  17  31  51  75 100 126 162 203 243 293
#     4   9  19  36  55  72  95 133 178 218 251 292
#     4  10  20  32  48  73 104 135 168 215 265 307
#     4   9  17  30  49  72 100 130 170 203 252 303
#     4  11  20  32  53  80 110 133 153 192 247 302
#     4   9  17  31  51  75  99 127 163 201 244 295
#
# _framework density 16.945135000000001
#
# number of rings (size 3 to 8) (size 9 to 14) (size 15 to 20)
#    0.000    2.500    1.250    1.125    0.000    2.500 
#    2.250    2.500    0.000    1.500    0.000    0.000 
#    0.000    0.000    0.000    0.000    0.000    0.000 
#
# Total GULP energy -396688.521659 kJ/mol
# GULP energy per Si atom -12396.516302 kJ/mol
# Density = 1.690657 g / cm^3
# Si number density = 16.945135 Si / 1000 Ang^3
#
#
#
# Elastic Constant Matrix: (Units=GPa)
#
#
# Indices 1 2 3 4 5 6 
#
# 1 91.0085 46.3065 61.5552 -0.0001 0.2551 -0.0001
# 2 46.3065 126.8019 60.3810 0.0000 -1.4704 -0.0001
# 3 61.5552 60.3810 119.1364 0.0001 -3.2100 0.0000
# 4 -0.0001 0.0000 0.0001 15.6803 0.0000 0.1773
# 5 0.2551 -1.4704 -3.2100 0.0000 29.4542 -0.0001
# 6 -0.0001 -0.0001 0.0000 0.1773 -0.0001 22.6975
#
#
#
# Elastic Compliance Matrix: (Units=1/GPa)
#
#
# Indices 1 2 3 4 5 6 
#
# 1 0.017634 -0.002768 -0.007739 0.000000 -0.001134 0.000000
# 2 -0.002768 0.010830 -0.004055 0.000000 0.000123 0.000000
# 3 -0.007739 -0.004055 0.014486 0.000000 0.001443 0.000000
# 4 0.000000 0.000000 0.000000 0.063780 0.000000 -0.000498
# 5 -0.001134 0.000123 0.001443 0.000000 0.034124 0.000000
# 6 0.000000 0.000000 0.000000 -0.000498 0.000000 0.044062
#
#
# Mechanical properties :
#
#
# Convention : Reuss Voigt Hill
#
# Bulk Modulus (GPa) = 72.32735 74.82582 73.57658
# Shear Modulus (GPa) = 22.86784 24.81334 23.84059
#
# Velocity S-wave (km/s) = 3.67757 3.83081 3.75497
# Velocity P-wave (km/s) = 7.79799 7.98877 7.89395
#
# Compressibility (1/GPa) = 0.01382603
#
# Stress axis : x y z
#
# Youngs Moduli (GPa) = 56.70977 92.33987 69.03011
#
# Poissons Ratio (x) = 0.25557 0.53421
# Poissons Ratio (y) = 0.15695 0.27994
# Poissons Ratio (z) = 0.43886 0.37447
#
# Static dielectric constant tensor:
#      x y z
#    x 3.125800 0.000000 -0.001460 
#    y 0.000000 3.225540 0.000000 
#    z -0.001460 0.000000 3.153320 
# 
# 
# High freq. dielectric constant tensor:
#      x y z
#    x 1.654950 0.000000 -0.001330 
#    y 0.000000 1.644230 0.000000 
#    z -0.001330 0.000000 1.646760 
# 
# From -- ./inp_files/302117.got.cif
#   From: 2010.06.25/outbox.cif.g09.slc.cpg/sg12_152_cif.got.tgz:302117.got - 2010.06.28 00:19:55.
