data_PCOD8095499
_publ_section_title
;
Structure prediction by ZEFSAII (Michael W. Deem and Ramdas Pophale) SiO2 
 PCOD8095499
Probable space group: C 2/M
;
_chemical_formula_sum "Si O2"
_cell_formula_units_Z 48
_cell_length_a 9.224136
_cell_length_b 26.178385
_cell_length_c 12.119969
_cell_angle_alpha 90.000000
_cell_angle_beta 123.802115
_cell_angle_gamma 90.000000
_cell_volume 2431.936504
_symmetry_space_group_name_H-M "C 2/M"
_symmetry_group_IT_number 12
_symmetry_cell_setting 'monoclinic'
loop_
_space_group_symop_operation_xyz
x,y,z
-x,y,-z
-x,-y,-z
x,-y,z
1/2+x,1/2+y,z
1/2-x,1/2+y,-z
1/2-x,1/2-y,-z
1/2+x,1/2-y,z
loop_
_atom_site_type_symbol
_atom_site_label
_atom_site_fract_x
_atom_site_fract_y
_atom_site_fract_z
Si Si1 0.446466 0.256327 0.722270
Si Si2 0.543092 0.558614 0.642526
Si Si3 0.313855 0.783715 0.876665
Si Si4 0.608469 0.106039 0.147288
Si Si5 0.994657 0.351942 0.327577
Si Si6 0.288497 0.362228 0.617961
O O1 0.301607 0.240246 0.749377
O O2 0.638052 0.264465 0.862879
O O3 0.469211 0.208783 0.649459
O O4 0.383076 0.307733 0.634225
O O5 0.500000 0.575815 0.500000
O O6 0.492099 0.500000 0.641124
O O7 0.748599 0.565778 0.751593
O O8 0.432829 0.593345 0.679931
O O9 0.300141 0.844688 0.867527
O O10 0.500000 0.764713 0.000000
O O11 0.490674 0.124846 0.201860
O O12 0.500000 0.080592 0.000000
O O13 0.807209 0.363111 0.303753
O O14 0.151180 0.376546 0.464094
#
# Coordination Sequence:
#
# PCOD8095499 Si02
#       6
#     8   8   8   8   8   8
#     4  11  19  34  52  85 120 160 195 240 290 350
#     4  11  23  42  67  91 114 152 203 256 309 355
#     4  10  20  32  52  81 122 163 199 232 281 356
#     4  10  21  40  63  88 124 160 200 245 295 358
#     4  10  22  37  57  91 123 159 199 236 299 363
#     4  11  21  38  59  87 123 155 198 253 299 350
#
# _framework density 19.737356999999999
#
# number of rings (size 3 to 8) (size 9 to 14) (size 15 to 20)
#    0.000    1.500    5.000    1.000    0.000    0.333 
#    3.000    3.333    0.000    1.000    0.000    0.000 
#    0.000    0.000    0.000    0.000    0.000    0.000 
#
# Total GULP energy -297458.816873 kJ/mol
# GULP energy per Si atom -12394.117370 kJ/mol
# Density = 1.969243 g / cm^3
# Si number density = 19.737357 Si / 1000 Ang^3
#
#
#
# Elastic Constant Matrix: (Units=GPa)
#
#
# Indices 1 2 3 4 5 6 
#
# 1 109.6834 40.9113 34.2097 0.0000 -0.9644 0.0000
# 2 40.9113 78.5511 18.2957 0.0000 -3.5909 0.0000
# 3 34.2097 18.2957 99.4630 0.0000 4.4248 0.0000
# 4 0.0000 0.0000 0.0000 17.2973 0.0000 3.5283
# 5 -0.9644 -3.5909 4.4248 0.0000 28.0083 0.0000
# 6 0.0000 0.0000 0.0000 3.5283 0.0000 22.1683
#
#
#
# Elastic Compliance Matrix: (Units=1/GPa)
#
#
# Indices 1 2 3 4 5 6 
#
# 1 0.012200 -0.005605 -0.003174 0.000000 0.000203 0.000000
# 2 -0.005605 0.016000 -0.001106 0.000000 0.002033 0.000000
# 3 -0.003174 -0.001106 0.011441 0.000000 -0.002058 0.000000
# 4 0.000000 0.000000 0.000000 0.059753 0.000000 -0.009510
# 5 0.000203 0.002033 -0.002058 0.000000 0.036296 0.000000
# 6 0.000000 0.000000 0.000000 -0.009510 0.000000 0.046623
#
#
# Mechanical properties :
#
#
# Convention : Reuss Voigt Hill
#
# Bulk Modulus (GPa) = 50.32539 52.72568 51.52554
# Shear Modulus (GPa) = 23.95710 26.44683 25.20196
#
# Velocity S-wave (km/s) = 3.48774 3.66449 3.57720
# Velocity P-wave (km/s) = 6.46312 6.68403 6.57450
#
# Compressibility (1/GPa) = 0.01987068
#
# Stress axis : x y z
#
# Youngs Moduli (GPa) = 81.96972 62.49828 87.40794
#
# Poissons Ratio (x) = 0.35032 0.27743
# Poissons Ratio (y) = 0.45947 0.09665
# Poissons Ratio (z) = 0.26017 0.06911
#
# Static dielectric constant tensor:
#      x y z
#    x 3.634270 0.000000 0.094520 
#    y 0.000000 3.265500 0.000000 
#    z 0.094520 0.000000 3.522900 
# 
# 
# High freq. dielectric constant tensor:
#      x y z
#    x 1.774720 0.000000 0.008130 
#    y 0.000000 1.740460 0.000000 
#    z 0.008130 0.000000 1.759110 
# 
# From -- ./inp_files/121819.got.cif
#   From: 2010.06.25/outbox.cif.g09.slc.cpg/sg12_61_cif.got.tgz:121819.got - 2010.06.28 00:19:55.
