data_PCOD8095597
_publ_section_title
;
Structure prediction by ZEFSAII (Michael W. Deem and Ramdas Pophale) SiO2 
 PCOD8095597
Probable space group: C 2/M
;
_chemical_formula_sum "Si O2"
_cell_formula_units_Z 64
_cell_length_a 24.793274
_cell_length_b 8.628279
_cell_length_c 23.621999
_cell_angle_alpha 90.000000
_cell_angle_beta 137.967303
_cell_angle_gamma 90.000000
_cell_volume 3383.457276
_symmetry_space_group_name_H-M "C 2/M"
_symmetry_group_IT_number 12
_symmetry_cell_setting 'monoclinic'
loop_
_space_group_symop_operation_xyz
x,y,z
-x,y,-z
-x,-y,-z
x,-y,z
1/2+x,1/2+y,z
1/2-x,1/2+y,-z
1/2-x,1/2-y,-z
1/2+x,1/2-y,z
loop_
_atom_site_type_symbol
_atom_site_label
_atom_site_fract_x
_atom_site_fract_y
_atom_site_fract_z
Si Si1 0.988986 0.317504 0.732885
Si Si2 0.810569 0.820047 0.711541
Si Si3 0.194106 0.681406 0.408643
Si Si4 0.247518 0.320603 0.222452
Si Si5 0.495585 0.682934 0.858358
Si Si6 0.263413 0.821915 0.069439
Si Si7 0.383465 0.321236 0.242368
Si Si8 0.869626 0.320519 0.967779
O O1 0.995512 0.500000 0.746487
O O2 0.024761 0.239562 0.818455
O O3 0.034496 0.269833 0.709653
O O4 0.897371 0.260695 0.653284
O O5 0.775127 0.733561 0.629122
O O6 0.756932 0.776375 0.723768
O O7 0.902631 0.770345 0.793934
O O8 0.802981 0.000000 0.693513
O O9 0.199644 0.500000 0.417331
O O10 0.250000 0.750000 0.500000
O O11 0.258711 0.500000 0.245917
O O12 0.328579 0.261334 0.252542
O O13 0.163326 0.297495 0.121995
O O14 0.509812 0.500000 0.874553
O O15 0.539029 0.772056 0.945151
O O16 0.328690 0.706147 0.145496
O O17 0.293277 0.000000 0.092493
O O18 0.250000 0.750000 0.000000
O O19 0.179081 0.806303 0.034905
O O20 0.405149 0.500000 0.267401
O O21 0.854790 0.500000 0.973728
#
# Coordination Sequence:
#
# PCOD8095597 Si02
#       8
#     8   8   8   8   8   8   8   8
#     4  10  20  34  54  81 109 139 173 214 263 314
#     4  10  21  36  56  80 107 139 176 216 262 314
#     4  10  21  38  62  89 115 138 166 205 256 315
#     4   9  20  36  52  72 102 142 185 222 262 309
#     4  10  20  33  49  73 104 139 179 225 272 316
#     4  11  20  30  44  63  92 131 175 224 271 313
#     4  10  20  34  51  73 102 138 177 217 260 311
#     4  10  20  33  47  67  97 136 182 227 268 312
#
# _framework density 18.915562999999999
#
# number of rings (size 3 to 8) (size 9 to 14) (size 15 to 20)
#    0.000    2.000    0.000    4.875    0.000    6.500 
#    0.000    2.500    0.000    0.750    0.000    5.250 
#    0.000    0.000    0.000    0.000    0.000    0.000 
#
# Total GULP energy -396521.906017 kJ/mol
# GULP energy per Si atom -12391.309563 kJ/mol
# Density = 1.887251 g / cm^3
# Si number density = 18.915563 Si / 1000 Ang^3
#
#
#
# Elastic Constant Matrix: (Units=GPa)
#
#
# Indices 1 2 3 4 5 6 
#
# 1 104.5499 23.9259 42.9154 0.0000 -11.5415 0.0000
# 2 23.9259 52.4126 22.6575 0.0000 -6.6091 0.0000
# 3 42.9154 22.6575 89.3566 0.0000 -12.8417 0.0000
# 4 0.0000 0.0000 0.0000 29.3454 0.0000 -0.9890
# 5 -11.5415 -6.6091 -12.8417 0.0000 15.1751 0.0000
# 6 0.0000 0.0000 0.0000 -0.9890 0.0000 30.7811
#
#
#
# Elastic Compliance Matrix: (Units=1/GPa)
#
#
# Indices 1 2 3 4 5 6 
#
# 1 0.012692 -0.003239 -0.004656 0.000000 0.004302 0.000000
# 2 -0.003239 0.022649 -0.003556 0.000000 0.004392 0.000000
# 3 -0.004656 -0.003556 0.015480 0.000000 0.008010 0.000000
# 4 0.000000 0.000000 0.000000 0.034114 0.000000 0.001096
# 5 0.004302 0.004392 0.008010 0.000000 0.077860 0.000000
# 6 0.000000 0.000000 0.000000 0.001096 0.000000 0.032523
#
#
# Mechanical properties :
#
#
# Convention : Reuss Voigt Hill
#
# Bulk Modulus (GPa) = 35.81790 47.25740 41.53765
# Shear Modulus (GPa) = 21.97546 25.51501 23.74523
#
# Velocity S-wave (km/s) = 3.41217 3.67671 3.54690
# Velocity P-wave (km/s) = 5.87372 6.56215 6.22746
#
# Compressibility (1/GPa) = 0.02791900
#
# Stress axis : x y z
#
# Youngs Moduli (GPa) = 78.78886 44.15221 64.59849
#
# Poissons Ratio (x) = 0.14299 0.30078
# Poissons Ratio (y) = 0.25516 0.22974
# Poissons Ratio (z) = 0.36686 0.15702
#
# Static dielectric constant tensor:
#      x y z
#    x 3.574880 0.000000 0.035470 
#    y 0.000000 3.605890 0.000000 
#    z 0.035470 0.000000 3.241600 
# 
# 
# High freq. dielectric constant tensor:
#      x y z
#    x 1.730680 0.000000 -0.001400 
#    y 0.000000 1.743750 0.000000 
#    z -0.001400 0.000000 1.704120 
# 
# From -- ./inp_files/324222.got.cif
#   From: 2010.06.25/outbox.cif.g09.slc.cpg/sg12_163_cif.got.tgz:324222.got - 2010.06.28 00:19:55.
