data_PCOD8095502
_publ_section_title
;
Structure prediction by ZEFSAII (Michael W. Deem and Ramdas Pophale) SiO2 
 PCOD8095502
Probable space group: C 2/M
;
_chemical_formula_sum "Si O2"
_cell_formula_units_Z 64
_cell_length_a 29.663190
_cell_length_b 9.307818
_cell_length_c 21.844134
_cell_angle_alpha 90.000000
_cell_angle_beta 146.469856
_cell_angle_gamma 90.000000
_cell_volume 3331.463621
_symmetry_space_group_name_H-M "C 2/M"
_symmetry_group_IT_number 12
_symmetry_cell_setting 'monoclinic'
loop_
_space_group_symop_operation_xyz
x,y,z
-x,y,-z
-x,-y,-z
x,-y,z
1/2+x,1/2+y,z
1/2-x,1/2+y,-z
1/2-x,1/2-y,-z
1/2+x,1/2-y,z
loop_
_atom_site_type_symbol
_atom_site_label
_atom_site_fract_x
_atom_site_fract_y
_atom_site_fract_z
Si Si1 0.950069 0.660300 0.049497
Si Si2 0.335785 0.838505 0.033487
Si Si3 0.290570 0.168158 0.801299
Si Si4 0.906991 0.167659 0.740985
Si Si5 0.289422 0.833448 0.184045
Si Si6 0.740544 0.168585 0.373788
Si Si7 0.569376 0.834735 0.741522
Si Si8 0.419984 0.333851 0.614637
O O1 0.981520 0.500000 0.068256
O O2 0.910425 0.660429 0.071090
O O3 0.027024 0.766933 0.137071
O O4 0.883109 0.712983 0.924008
O O5 0.370064 0.780514 0.136465
O O6 0.299494 0.000000 0.998387
O O7 0.266573 0.729771 0.933227
O O8 0.224906 0.252238 0.768307
O O9 0.275279 0.209385 0.714376
O O10 0.278082 0.000000 0.800853
O O11 0.820455 0.243404 0.652558
O O12 0.934748 0.196957 0.702909
O O13 0.897687 0.000000 0.744176
O O14 0.383788 0.814124 0.270163
O O15 0.266967 0.000000 0.166946
O O16 0.830708 0.219547 0.493862
O O17 0.727572 0.000000 0.371316
O O18 0.485628 0.747154 0.647021
O O19 0.546977 0.000000 0.728041
O O20 0.429630 0.500000 0.610080
#
# Coordination Sequence:
#
# PCOD8095502 Si02
#       8
#     8   8   8   8   8   8   8   8
#     4   9  17  32  55  80 108 144 179 217 265 322
#     4   9  17  31  51  77 111 149 184 215 260 324
#     4   9  20  39  59  78 106 146 191 227 263 318
#     4  11  22  35  55  86 115 137 171 223 283 335
#     4  10  20  32  52  82 113 144 179 223 274 321
#     4  10  22  41  61  78 102 144 191 231 268 320
#     4  10  20  34  53  80 112 147 183 218 267 328
#     4  10  22  38  57  83 111 140 182 229 275 321
#
# _framework density 19.210775999999999
#
# number of rings (size 3 to 8) (size 9 to 14) (size 15 to 20)
#    0.000    2.250    1.250    2.250    0.000    5.500 
#    0.000    3.125    0.000    3.750    0.000    0.000 
#    0.000    0.000    0.000    0.000    0.000    0.000 
#
# Total GULP energy -396845.898667 kJ/mol
# GULP energy per Si atom -12401.434333 kJ/mol
# Density = 1.916705 g / cm^3
# Si number density = 19.210776 Si / 1000 Ang^3
#
#
#
# Elastic Constant Matrix: (Units=GPa)
#
#
# Indices 1 2 3 4 5 6 
#
# 1 41.8408 34.1270 30.6027 0.0000 15.9582 0.0000
# 2 34.1270 78.4555 43.2007 0.0000 17.0614 0.0000
# 3 30.6027 43.2007 75.0969 0.0000 13.7156 0.0000
# 4 0.0000 0.0000 0.0000 29.1916 0.0000 9.3789
# 5 15.9582 17.0614 13.7156 0.0000 30.5183 0.0000
# 6 0.0000 0.0000 0.0000 9.3789 0.0000 30.0687
#
#
#
# Elastic Compliance Matrix: (Units=1/GPa)
#
#
# Indices 1 2 3 4 5 6 
#
# 1 0.045195 -0.011725 -0.009318 0.000000 -0.012890 0.000000
# 2 -0.011725 0.022804 -0.007770 0.000000 -0.003126 0.000000
# 3 -0.009318 -0.007770 0.021679 0.000000 -0.000527 0.000000
# 4 0.000000 0.000000 0.000000 0.038072 0.000000 -0.011875
# 5 -0.012890 -0.003126 -0.000527 0.000000 0.041492 0.000000
# 6 0.000000 0.000000 0.000000 -0.011875 0.000000 0.036961
#
#
# Mechanical properties :
#
#
# Convention : Reuss Voigt Hill
#
# Bulk Modulus (GPa) = 31.19831 45.69490 38.44660
# Shear Modulus (GPa) = 18.21400 23.78657 21.00028
#
# Velocity S-wave (km/s) = 3.08249 3.52261 3.30987
# Velocity P-wave (km/s) = 5.37998 6.35474 5.88757
#
# Compressibility (1/GPa) = 0.03205302
#
# Stress axis : x y z
#
# Youngs Moduli (GPa) = 22.12613 43.85121 46.12718
#
# Poissons Ratio (x) = 0.51417 0.42982
# Poissons Ratio (y) = 0.25943 0.35839
# Poissons Ratio (z) = 0.20618 0.34070
#
# Static dielectric constant tensor:
#      x y z
#    x 3.417680 0.000000 0.009820 
#    y 0.000000 3.441900 0.000000 
#    z 0.009820 0.000000 3.408660 
# 
# 
# High freq. dielectric constant tensor:
#      x y z
#    x 1.743600 0.000000 0.006460 
#    y 0.000000 1.742910 0.000000 
#    z 0.006460 0.000000 1.735410 
# 
# From -- ./inp_files/353454.got.cif
#   From: 2010.06.25/outbox.cif.g09.slc.cpg/sg12_177_cif.got.tgz:353454.got - 2010.06.28 00:19:55.
