data_PCOD8095291
_publ_section_title
;
Structure prediction by ZEFSAII (Michael W. Deem and Ramdas Pophale) SiO2 
 PCOD8095291
Probable space group: C 2/M
;
_chemical_formula_sum "Si O2"
_cell_formula_units_Z 64
_cell_length_a 22.876654
_cell_length_b 9.026427
_cell_length_c 17.750982
_cell_angle_alpha 90.000000
_cell_angle_beta 95.775186
_cell_angle_gamma 90.000000
_cell_volume 3646.874644
_symmetry_space_group_name_H-M "C 2/M"
_symmetry_group_IT_number 12
_symmetry_cell_setting 'monoclinic'
loop_
_space_group_symop_operation_xyz
x,y,z
-x,y,-z
-x,-y,-z
x,-y,z
1/2+x,1/2+y,z
1/2-x,1/2+y,-z
1/2-x,1/2-y,-z
1/2+x,1/2-y,z
loop_
_atom_site_type_symbol
_atom_site_label
_atom_site_fract_x
_atom_site_fract_y
_atom_site_fract_z
Si Si1 0.339461 0.828546 0.790479
Si Si2 0.797089 0.168316 0.252342
Si Si3 0.702582 0.331246 0.912218
Si Si4 0.392472 0.330225 0.660167
Si Si5 0.687835 0.327745 0.488811
Si Si6 0.821936 0.831334 0.932356
Si Si7 0.508717 0.325722 0.587885
Si Si8 0.373200 0.824660 0.383232
O O1 0.271803 0.791188 0.762782
O O2 0.382776 0.761562 0.734335
O O3 0.356733 0.765883 0.875507
O O4 0.351869 0.000000 0.794167
O O5 0.827739 0.187001 0.173805
O O6 0.826603 0.281906 0.313176
O O7 0.804914 0.000000 0.283010
O O8 0.728787 0.500000 0.919838
O O9 0.753427 0.210058 0.924079
O O10 0.657405 0.307754 0.977080
O O11 0.398520 0.500000 0.684360
O O12 0.337304 0.306801 0.597895
O O13 0.451491 0.276332 0.626687
O O14 0.694075 0.500000 0.510904
O O15 0.750000 0.250000 0.500000
O O16 0.643548 0.251371 0.540588
O O17 0.829595 0.000000 0.907914
O O18 0.500000 0.280861 0.500000
O O19 0.521503 0.500000 0.596821
O O20 0.562583 0.234716 0.630708
O O21 0.373220 0.000000 0.392977
#
# Coordination Sequence:
#
# PCOD8095291 Si02
#       8
#     8   8   8   8   8   8   8   8
#     4  10  20  32  48  73 106 138 168 204 249 298
#     4   9  18  33  50  70 102 141 173 205 246 296
#     4   8  15  27  44  68  97 132 171 206 243 289
#     4  10  21  36  55  74  95 127 169 209 251 299
#     4  11  22  37  54  75 101 132 167 204 249 303
#     4   9  15  25  44  69  99 133 168 204 243 293
#     4  10  20  40  61  74  92 127 169 214 260 301
#     4  12  24  35  51  77 103 131 167 209 254 301
#
# _framework density 17.549274
#
# number of rings (size 3 to 8) (size 9 to 14) (size 15 to 20)
#    0.000    2.125    1.250    3.750    0.000    6.750 
#    0.000    0.000    0.000    0.000    0.000    0.875 
#    0.000    7.000    0.000    0.000    0.000    0.000 
#
# Total GULP energy -396679.871364 kJ/mol
# GULP energy per Si atom -12396.245980 kJ/mol
# Density = 1.750933 g / cm^3
# Si number density = 17.549274 Si / 1000 Ang^3
#
#
#
# Elastic Constant Matrix: (Units=GPa)
#
#
# Indices 1 2 3 4 5 6 
#
# 1 62.3950 32.0413 21.7071 0.0000 -21.1913 0.0000
# 2 32.0413 85.5017 41.2999 0.0000 -17.4484 0.0000
# 3 21.7071 41.2999 106.7047 0.0000 -35.0786 0.0000
# 4 0.0000 0.0000 0.0000 28.0624 0.0000 -3.9679
# 5 -21.1913 -17.4484 -35.0786 0.0000 23.2504 0.0000
# 6 0.0000 0.0000 0.0000 -3.9679 0.0000 24.7353
#
#
#
# Elastic Compliance Matrix: (Units=1/GPa)
#
#
# Indices 1 2 3 4 5 6 
#
# 1 0.027907 -0.007769 0.007490 0.000000 0.030905 0.000000
# 2 -0.007769 0.016817 -0.006166 0.000000 -0.003762 0.000000
# 3 0.007490 -0.006166 0.021740 0.000000 0.035000 0.000000
# 4 0.000000 0.000000 0.000000 0.036462 0.000000 0.005849
# 5 0.030905 -0.003762 0.035000 0.000000 0.121160 0.000000
# 6 0.000000 0.000000 0.000000 0.005849 0.000000 0.041366
#
#
# Mechanical properties :
#
#
# Convention : Reuss Voigt Hill
#
# Bulk Modulus (GPa) = 18.66528 49.41091 34.03810
# Shear Modulus (GPa) = 16.88042 25.84651 21.36346
#
# Velocity S-wave (km/s) = 3.10480 3.84187 3.49283
# Velocity P-wave (km/s) = 4.84892 6.92073 5.97531
#
# Compressibility (1/GPa) = 0.05357541
#
# Stress axis : x y z
#
# Youngs Moduli (GPa) = 35.83302 59.46218 45.99741
#
# Poissons Ratio (x) = 0.46196 -0.34451
# Poissons Ratio (y) = 0.27839 0.28360
# Poissons Ratio (z) = -0.26838 0.36662
#
# Static dielectric constant tensor:
#      x y z
#    x 2.482390 0.000000 0.118970 
#    y 0.000000 3.272930 0.000000 
#    z 0.118970 0.000000 3.389690 
# 
# 
# High freq. dielectric constant tensor:
#      x y z
#    x 1.630660 0.000000 -0.017980 
#    y 0.000000 1.684850 0.000000 
#    z -0.017980 0.000000 1.690040 
# 
# From -- ./inp_files/287666.got.cif
#   From: 2010.06.25/outbox.cif.g09.slc.cpg/sg12_144_cif.got.tgz:287666.got - 2010.06.28 00:19:55.
