data_PCOD8095922
_publ_section_title
;
Structure prediction by ZEFSAII (Michael W. Deem and Ramdas Pophale) SiO2 
 PCOD8095922
Probable space group: C 2/M
;
_chemical_formula_sum "Si O2"
_cell_formula_units_Z 40
_cell_length_a 18.276751
_cell_length_b 27.211792
_cell_length_c 8.136443
_cell_angle_alpha 90.000000
_cell_angle_beta 148.791449
_cell_angle_gamma 90.000000
_cell_volume 2096.766808
_symmetry_space_group_name_H-M "C 2/M"
_symmetry_group_IT_number 12
_symmetry_cell_setting 'monoclinic'
loop_
_space_group_symop_operation_xyz
x,y,z
-x,y,-z
-x,-y,-z
x,-y,z
1/2+x,1/2+y,z
1/2-x,1/2+y,-z
1/2-x,1/2-y,-z
1/2+x,1/2-y,z
loop_
_atom_site_type_symbol
_atom_site_label
_atom_site_fract_x
_atom_site_fract_y
_atom_site_fract_z
Si Si1 0.844624 0.703363 0.144852
Si Si2 0.449604 0.444264 0.084878
Si Si3 0.254497 0.555904 0.203384
Si Si4 0.798466 0.607178 0.230280
Si Si5 0.064824 0.634871 0.950507
O O1 0.767707 0.660969 0.100404
O O2 0.000000 0.717421 0.500000
O O3 0.861591 0.683314 0.989232
O O4 0.750000 0.750000 0.000000
O O5 0.392182 0.500000 0.986449
O O6 0.576949 0.436567 0.458686
O O7 0.500000 0.432118 0.000000
O O8 0.323523 0.406651 0.877168
O O9 0.213947 0.500000 0.169693
O O10 0.202322 0.567788 0.919074
O O11 0.180415 0.591789 0.194186
O O12 0.949816 0.610111 0.608764
O O13 0.000000 0.650751 0.000000
#
# Coordination Sequence:
#
# PCOD8095922 Si02
#       5
#     8   8   8   8   8
#     4   9  20  38  57  78 103 133 172 216 264 321
#     4  10  20  33  50  77 111 142 178 223 264 305
#     4  10  20  33  52  78 107 145 186 218 257 312
#     4  10  20  35  54  76 105 140 178 219 263 318
#     4  10  21  37  55  78 109 139 174 222 268 312
#
# _framework density 19.076991
#
# number of rings (size 3 to 8) (size 9 to 14) (size 15 to 20)
#    0.000    2.200    0.000    4.200    0.000    7.600 
#    0.000    5.000    0.000    0.000    0.000    0.000 
#    0.000    0.000    0.000    0.000    0.000    0.000 
#
# Total GULP energy -247901.628215 kJ/mol
# GULP energy per Si atom -12395.081411 kJ/mol
# Density = 1.903357 g / cm^3
# Si number density = 19.076991 Si / 1000 Ang^3
#
#
#
# Elastic Constant Matrix: (Units=GPa)
#
#
# Indices 1 2 3 4 5 6 
#
# 1 119.5135 62.1899 30.8608 0.0000 15.7151 0.0000
# 2 62.1899 125.8420 36.9579 0.0000 23.9355 0.0000
# 3 30.8608 36.9579 53.3202 0.0000 4.4946 0.0000
# 4 0.0000 0.0000 0.0000 28.3936 0.0000 12.8520
# 5 15.7151 23.9355 4.4946 0.0000 31.0699 0.0000
# 6 0.0000 0.0000 0.0000 12.8520 0.0000 27.5517
#
#
#
# Elastic Compliance Matrix: (Units=1/GPa)
#
#
# Indices 1 2 3 4 5 6 
#
# 1 0.011873 -0.004399 -0.003646 0.000000 -0.002089 0.000000
# 2 -0.004399 0.013244 -0.006035 0.000000 -0.007105 0.000000
# 3 -0.003646 -0.006035 0.024803 0.000000 0.002905 0.000000
# 4 0.000000 0.000000 0.000000 0.044646 0.000000 -0.020826
# 5 -0.002089 -0.007105 0.002905 0.000000 0.038295 0.000000
# 6 0.000000 0.000000 0.000000 -0.020826 0.000000 0.046010
#
#
# Mechanical properties :
#
#
# Convention : Reuss Voigt Hill
#
# Bulk Modulus (GPa) = 45.95788 62.07698 54.01743
# Shear Modulus (GPa) = 23.33341 28.64751 25.99046
#
# Velocity S-wave (km/s) = 3.50110 3.87935 3.69507
# Velocity P-wave (km/s) = 6.36291 7.25787 6.82508
#
# Compressibility (1/GPa) = 0.02175905
#
# Stress axis : x y z
#
# Youngs Moduli (GPa) = 84.22743 75.50435 40.31740
#
# Poissons Ratio (x) = 0.33216 0.14701
# Poissons Ratio (y) = 0.37053 0.24331
# Poissons Ratio (z) = 0.30713 0.45566
#
# Static dielectric constant tensor:
#      x y z
#    x 3.530000 0.000000 0.060480 
#    y 0.000000 3.375280 0.000000 
#    z 0.060480 0.000000 3.608630 
# 
# 
# High freq. dielectric constant tensor:
#      x y z
#    x 1.744190 0.000000 0.006400 
#    y 0.000000 1.726710 0.000000 
#    z 0.006400 0.000000 1.742040 
# 
# From -- ./inp_files/39306.got.cif
#   From: 2010.06.25/outbox.cif.g09.slc.cpg/sg12_20_cif.got.tgz:39306.got - 2010.06.28 00:19:55.
