data_PCOD8095958
_publ_section_title
;
Structure prediction by ZEFSAII (Michael W. Deem and Ramdas Pophale) SiO2 
 PCOD8095958
Probable space group: C 2/M
;
_chemical_formula_sum "Si O2"
_cell_formula_units_Z 56
_cell_length_a 16.531790
_cell_length_b 13.857512
_cell_length_c 14.853932
_cell_angle_alpha 90.000000
_cell_angle_beta 66.694010
_cell_angle_gamma 90.000000
_cell_volume 3125.221659
_symmetry_space_group_name_H-M "C 2/M"
_symmetry_group_IT_number 12
_symmetry_cell_setting 'monoclinic'
loop_
_space_group_symop_operation_xyz
x,y,z
-x,y,-z
-x,-y,-z
x,-y,z
1/2+x,1/2+y,z
1/2-x,1/2+y,-z
1/2-x,1/2-y,-z
1/2+x,1/2-y,z
loop_
_atom_site_type_symbol
_atom_site_label
_atom_site_fract_x
_atom_site_fract_y
_atom_site_fract_z
Si Si1 0.796060 0.185376 0.054019
Si Si2 0.924064 0.890457 0.863607
Si Si3 0.265551 0.220818 0.635710
Si Si4 0.865877 0.286793 0.767579
Si Si5 0.536527 0.108354 0.736022
Si Si6 0.095930 0.774773 0.825882
Si Si7 0.706750 0.108327 0.548066
O O1 0.713410 0.151400 0.150710
O O2 0.864381 0.239369 0.091456
O O3 0.750000 0.250000 0.000000
O O4 0.853840 0.104937 0.977335
O O5 0.888052 0.816238 0.804315
O O6 0.019660 0.855898 0.856933
O O7 0.931747 0.000000 0.822288
O O8 0.340516 0.235860 0.676742
O O9 0.171176 0.196071 0.721280
O O10 0.290147 0.133159 0.558945
O O11 0.267746 0.320277 0.578659
O O12 0.947016 0.358155 0.729878
O O13 0.556951 0.171257 0.815469
O O14 0.607330 0.118848 0.626029
O O15 0.528821 0.000000 0.775314
O O16 0.742197 0.000000 0.546631
#
# Coordination Sequence:
#
# PCOD8095958 Si02
#       7
#     8   8   8   8   8   8   8
#     4   9  18  33  50  69  96 126 158 198 239 279
#     4  10  20  33  51  73  97 128 164 199 239 288
#     4   9  18  33  51  72  99 130 160 198 245 284
#     4   9  19  34  51  72 100 129 159 200 244 287
#     4   9  18  33  52  73  97 127 162 199 240 286
#     4   9  18  33  51  70  97 129 160 197 240 287
#     4   9  18  32  51  74  98 127 164 200 237 287
#
# _framework density 17.918728000000002
#
# number of rings (size 3 to 8) (size 9 to 14) (size 15 to 20)
#    0.000    2.857    0.000    0.429    0.000    4.000 
#    0.000   11.429    0.000   11.143    0.000    8.000 
#    0.000    0.000    0.000    0.000    0.000    0.000 
#
# Total GULP energy -346966.581652 kJ/mol
# GULP energy per Si atom -12391.663630 kJ/mol
# Density = 1.787794 g / cm^3
# Si number density = 17.918728 Si / 1000 Ang^3
#
#
#
# Elastic Constant Matrix: (Units=GPa)
#
#
# Indices 1 2 3 4 5 6 
#
# 1 109.5774 31.5834 34.7083 0.0000 10.2806 0.0000
# 2 31.5834 90.4568 32.2016 0.0000 -9.4318 0.0000
# 3 34.7083 32.2016 69.8811 0.0000 13.9578 0.0000
# 4 0.0000 0.0000 0.0000 20.8061 0.0000 -5.3141
# 5 10.2806 -9.4318 13.9578 0.0000 25.0336 0.0000
# 6 0.0000 0.0000 0.0000 -5.3141 0.0000 13.8588
#
#
#
# Elastic Compliance Matrix: (Units=1/GPa)
#
#
# Indices 1 2 3 4 5 6 
#
# 1 0.011520 -0.003220 -0.003433 0.000000 -0.004030 0.000000
# 2 -0.003220 0.016451 -0.008421 0.000000 0.012216 0.000000
# 3 -0.003433 -0.008421 0.022785 0.000000 -0.014467 0.000000
# 4 0.000000 0.000000 0.000000 0.053281 0.000000 0.020430
# 5 -0.004030 0.012216 -0.014467 0.000000 0.054270 0.000000
# 6 0.000000 0.000000 0.000000 0.020430 0.000000 0.079990
#
#
# Mechanical properties :
#
#
# Convention : Reuss Voigt Hill
#
# Bulk Modulus (GPa) = 48.52637 51.87798 50.20217
# Shear Modulus (GPa) = 18.16106 23.36784 20.76445
#
# Velocity S-wave (km/s) = 3.18704 3.61515 3.40783
# Velocity P-wave (km/s) = 6.37833 6.81472 6.60014
#
# Compressibility (1/GPa) = 0.02060735
#
# Stress axis : x y z
#
# Youngs Moduli (GPa) = 86.80911 60.78655 43.88842
#
# Poissons Ratio (x) = 0.19576 0.15065
# Poissons Ratio (y) = 0.27956 0.36959
# Poissons Ratio (z) = 0.29797 0.51190
#
# Static dielectric constant tensor:
#      x y z
#    x 3.450240 0.000000 -0.106660 
#    y 0.000000 3.188190 0.000000 
#    z -0.106660 0.000000 3.554080 
# 
# 
# High freq. dielectric constant tensor:
#      x y z
#    x 1.700680 0.000000 -0.004790 
#    y 0.000000 1.672240 0.000000 
#    z -0.004790 0.000000 1.698370 
# 
# From -- ./inp_files/224685.got.cif
#   From: 2010.06.25/outbox.cif.g09.slc.cpg/sg12_113_cif.got.tgz:224685.got - 2010.06.28 00:19:55.
