data_PCOD8095747
_publ_section_title
;
Structure prediction by ZEFSAII (Michael W. Deem and Ramdas Pophale) SiO2 
 PCOD8095747
Probable space group: C 2/M
;
_chemical_formula_sum "Si O2"
_cell_formula_units_Z 56
_cell_length_a 13.438951
_cell_length_b 32.419016
_cell_length_c 8.805014
_cell_angle_alpha 90.000000
_cell_angle_beta 130.386535
_cell_angle_gamma 90.000000
_cell_volume 2921.957173
_symmetry_space_group_name_H-M "C 2/M"
_symmetry_group_IT_number 12
_symmetry_cell_setting 'monoclinic'
loop_
_space_group_symop_operation_xyz
x,y,z
-x,y,-z
-x,-y,-z
x,-y,z
1/2+x,1/2+y,z
1/2-x,1/2+y,-z
1/2-x,1/2-y,-z
1/2+x,1/2-y,z
loop_
_atom_site_type_symbol
_atom_site_label
_atom_site_fract_x
_atom_site_fract_y
_atom_site_fract_z
Si Si1 0.550456 0.725746 0.885289
Si Si2 0.352266 0.044745 0.021580
Si Si3 0.830558 0.628083 0.494298
Si Si4 0.662937 0.953987 0.332940
Si Si5 0.359583 0.123480 0.187213
Si Si6 0.292419 0.800711 0.951526
Si Si7 0.701682 0.292863 0.523252
O O1 0.696616 0.710301 0.996832
O O2 0.453084 0.706917 0.663356
O O3 0.500000 0.711356 0.000000
O O4 0.569405 0.775706 0.898956
O O5 0.290345 0.052651 0.794230
O O6 0.307045 0.000000 0.036584
O O7 0.507779 0.047311 0.173644
O O8 0.302834 0.078524 0.091487
O O9 0.779063 0.583712 0.508068
O O10 0.791041 0.634583 0.279104
O O11 0.772414 0.666725 0.527772
O O12 0.985565 0.626635 0.652348
O O13 0.707801 0.000000 0.435673
O O14 0.321198 0.151568 0.005623
O O15 0.223345 0.791721 0.723866
O O16 0.750000 0.250000 0.500000
#
# Coordination Sequence:
#
# PCOD8095747 Si02
#       7
#     8   8   8   8   8   8   8
#     4  11  23  41  58  80 106 139 183 227 279 321
#     4   8  14  26  46  70 102 141 177 218 272 327
#     4  10  21  32  50  78 109 146 185 226 277 324
#     4   8  14  27  46  71 103 140 180 222 271 329
#     4  10  20  33  49  77 111 142 185 228 269 331
#     4  11  24  39  58  80 107 144 183 228 272 330
#     4  12  23  38  57  78 106 145 183 226 273 326
#
# _framework density 19.165237999999999
#
# number of rings (size 3 to 8) (size 9 to 14) (size 15 to 20)
#    0.000    2.000    1.429    3.857    2.000    1.714 
#    0.000    2.857    0.000    0.000    0.000    1.000 
#    0.000    8.000    0.000    0.000    0.000    0.000 
#
# Total GULP energy -346891.734891 kJ/mol
# GULP energy per Si atom -12388.990532 kJ/mol
# Density = 1.912162 g / cm^3
# Si number density = 19.165238 Si / 1000 Ang^3
#
#
#
# Elastic Constant Matrix: (Units=GPa)
#
#
# Indices 1 2 3 4 5 6 
#
# 1 63.5706 31.6063 24.1166 0.0000 -18.2014 0.0000
# 2 31.6063 148.8864 47.9333 0.0000 -19.1465 0.0000
# 3 24.1166 47.9333 88.8747 0.0000 -21.2277 0.0000
# 4 0.0000 0.0000 0.0000 29.9375 0.0000 -8.3046
# 5 -18.2014 -19.1465 -21.2277 0.0000 24.3822 0.0000
# 6 0.0000 0.0000 0.0000 -8.3046 0.0000 18.9720
#
#
#
# Elastic Compliance Matrix: (Units=1/GPa)
#
#
# Indices 1 2 3 4 5 6 
#
# 1 0.021070 -0.002396 -0.001411 0.000000 0.012619 0.000000
# 2 -0.002396 0.008608 -0.003542 0.000000 0.001888 0.000000
# 3 -0.001411 -0.003542 0.015945 0.000000 0.010047 0.000000
# 4 0.000000 0.000000 0.000000 0.038019 0.000000 0.016642
# 5 0.012619 0.001888 0.010047 0.000000 0.060663 0.000000
# 6 0.000000 0.000000 0.000000 0.016642 0.000000 0.059994
#
#
# Mechanical properties :
#
#
# Convention : Reuss Voigt Hill
#
# Bulk Modulus (GPa) = 32.33587 56.51598 44.42592
# Shear Modulus (GPa) = 21.80497 27.83670 24.82083
#
# Velocity S-wave (km/s) = 3.37669 3.81525 3.60265
# Velocity P-wave (km/s) = 5.66670 6.99721 6.36681
#
# Compressibility (1/GPa) = 0.03092541
#
# Stress axis : x y z
#
# Youngs Moduli (GPa) = 47.46063 116.16981 62.71683
#
# Poissons Ratio (x) = 0.27831 0.08852
# Poissons Ratio (y) = 0.11370 0.22212
# Poissons Ratio (z) = 0.06698 0.41143
#
# Static dielectric constant tensor:
#      x y z
#    x 3.289280 0.000000 -0.282110 
#    y 0.000000 3.899700 0.000000 
#    z -0.282110 0.000000 3.554670 
# 
# 
# High freq. dielectric constant tensor:
#      x y z
#    x 1.713970 0.000000 -0.031700 
#    y 0.000000 1.757350 0.000000 
#    z -0.031700 0.000000 1.726790 
# 
# From -- ./inp_files/68112.got.cif
#   From: 2010.06.25/outbox.cif.g09.slc.cpg/sg12_35_cif.got.tgz:68112.got - 2010.06.28 00:19:55.
