data_PCOD8095683
_publ_section_title
;
Structure prediction by ZEFSAII (Michael W. Deem and Ramdas Pophale) SiO2 
 PCOD8095683
Probable space group: C 2/M
;
_chemical_formula_sum "Si O2"
_cell_formula_units_Z 48
_cell_length_a 20.736647
_cell_length_b 9.287289
_cell_length_c 31.362350
_cell_angle_alpha 90.000000
_cell_angle_beta 28.059269
_cell_angle_gamma 90.000000
_cell_volume 2841.117850
_symmetry_space_group_name_H-M "C 2/M"
_symmetry_group_IT_number 12
_symmetry_cell_setting 'monoclinic'
loop_
_space_group_symop_operation_xyz
x,y,z
-x,y,-z
-x,-y,-z
x,-y,z
1/2+x,1/2+y,z
1/2-x,1/2+y,-z
1/2-x,1/2-y,-z
1/2+x,1/2-y,z
loop_
_atom_site_type_symbol
_atom_site_label
_atom_site_fract_x
_atom_site_fract_y
_atom_site_fract_z
Si Si1 0.953872 0.834888 0.267028
Si Si2 0.065472 0.662698 0.077289
Si Si3 0.266594 0.168973 0.534193
Si Si4 0.480807 0.170412 0.558358
Si Si5 0.803720 0.337372 0.905927
Si Si6 0.674754 0.666326 0.748542
O O1 0.865175 0.796552 0.360048
O O2 0.861205 0.804412 0.279727
O O3 0.089218 0.736366 0.188803
O O4 0.002642 0.000000 0.238740
O O5 0.047368 0.500000 0.071220
O O6 0.134223 0.665024 0.083268
O O7 0.917359 0.738262 0.166101
O O8 0.161279 0.749538 0.988380
O O9 0.250000 0.250000 0.500000
O O10 0.402483 0.230112 0.478212
O O11 0.280193 0.000000 0.517489
O O12 0.500000 0.238071 0.500000
O O13 0.332249 0.211966 0.663791
O O14 0.496789 0.000000 0.545083
O O15 0.775476 0.500000 0.907146
O O16 0.649171 0.500000 0.775034
#
# Coordination Sequence:
#
# PCOD8095683 Si02
#       6
#     8   8   8   8   8   8
#     4   9  16  27  44  65  89 120 156 194 236 277
#     4   9  16  25  37  59  93 124 149 183 232 284
#     4  10  20  33  49  70  97 128 162 199 238 282
#     4   9  15  28  50  72  91 121 165 203 234 275
#     4   9  16  25  39  60  88 121 155 189 228 276
#     4   9  15  25  45  68  89 116 156 199 233 270
#
# _framework density 16.894756999999998
#
# number of rings (size 3 to 8) (size 9 to 14) (size 15 to 20)
#    0.000    2.833    1.667    1.000    0.000    4.667 
#    0.000    0.833    0.000    1.000    0.000    1.167 
#    0.000    9.333    0.000    0.000    0.000    0.000 
#
# Total GULP energy -297562.292035 kJ/mol
# GULP energy per Si atom -12398.428835 kJ/mol
# Density = 1.685630 g / cm^3
# Si number density = 16.894757 Si / 1000 Ang^3
#
#
#
# Elastic Constant Matrix: (Units=GPa)
#
#
# Indices 1 2 3 4 5 6 
#
# 1 66.6406 32.5239 56.4148 -0.0035 -2.4949 0.0078
# 2 32.5239 97.0705 78.2620 -0.0042 1.4027 0.0073
# 3 56.4148 78.2620 150.2408 0.0027 -2.1747 -0.0001
# 4 -0.0035 -0.0042 0.0027 30.7489 0.0009 3.1741
# 5 -2.4949 1.4027 -2.1747 0.0009 14.1169 -0.0004
# 6 0.0078 0.0073 -0.0001 3.1741 -0.0004 16.9462
#
#
#
# Elastic Compliance Matrix: (Units=1/GPa)
#
#
# Indices 1 2 3 4 5 6 
#
# 1 0.022200 -0.001367 -0.007582 0.000004 0.002891 -0.000010
# 2 -0.001367 0.017990 -0.008907 0.000004 -0.003401 -0.000008
# 3 -0.007582 -0.008907 0.014168 -0.000004 0.001728 0.000008
# 4 0.000004 0.000004 -0.000004 0.033163 -0.000003 -0.006212
# 5 0.002891 -0.003401 0.001728 -0.000003 0.071952 0.000002
# 6 -0.000010 -0.000008 0.000008 -0.006212 0.000002 0.060174
#
#
# Mechanical properties :
#
#
# Convention : Reuss Voigt Hill
#
# Bulk Modulus (GPa) = 53.63226 72.03923 62.83574
# Shear Modulus (GPa) = 19.11499 22.14580 20.63039
#
# Velocity S-wave (km/s) = 3.36730 3.62444 3.49823
# Velocity P-wave (km/s) = 6.85070 7.76196 7.32052
#
# Compressibility (1/GPa) = 0.01864550
#
# Stress axis : x y z
#
# Youngs Moduli (GPa) = 45.04528 55.58527 70.58210
#
# Poissons Ratio (x) = 0.07599 0.53515
# Poissons Ratio (y) = 0.06158 0.62870
# Poissons Ratio (z) = 0.34153 0.49511
#
# Static dielectric constant tensor:
#      x y z
#    x 2.680270 -0.000010 -0.089670 
#    y -0.000010 3.092190 0.000010 
#    z -0.089670 0.000010 3.364880 
# 
# 
# High freq. dielectric constant tensor:
#      x y z
#    x 1.588200 0.000000 -0.003910 
#    y 0.000000 1.638310 0.000000 
#    z -0.003910 0.000000 1.670200 
# 
# From -- ./inp_files/230350.got.cif
#   From: 2010.06.25/outbox.cif.g09.slc.cpg/sg12_116_cif.got.tgz:230350.got - 2010.06.28 00:19:55.
