data_PCOD8095508
_publ_section_title
;
Structure prediction by ZEFSAII (Michael W. Deem and Ramdas Pophale) SiO2 
 PCOD8095508
Probable space group: C 2/M
;
_chemical_formula_sum "Si O2"
_cell_formula_units_Z 56
_cell_length_a 28.136564
_cell_length_b 9.115068
_cell_length_c 10.993799
_cell_angle_alpha 90.000000
_cell_angle_beta 78.575896
_cell_angle_gamma 90.000000
_cell_volume 2763.682310
_symmetry_space_group_name_H-M "C 2/M"
_symmetry_group_IT_number 12
_symmetry_cell_setting 'monoclinic'
loop_
_space_group_symop_operation_xyz
x,y,z
-x,y,-z
-x,-y,-z
x,-y,z
1/2+x,1/2+y,z
1/2-x,1/2+y,-z
1/2-x,1/2-y,-z
1/2+x,1/2-y,z
loop_
_atom_site_type_symbol
_atom_site_label
_atom_site_fract_x
_atom_site_fract_y
_atom_site_fract_z
Si Si1 0.973394 0.834530 0.885366
Si Si2 0.367316 0.332159 0.452437
Si Si3 0.196284 0.833742 0.290965
Si Si4 0.888279 0.670515 0.039769
Si Si5 0.058526 0.669471 0.733698
Si Si6 0.199260 0.168811 0.018407
Si Si7 0.271782 0.667177 0.375586
O O1 0.923939 0.743171 0.922505
O O2 0.007928 0.755915 0.769911
O O3 0.961600 0.000000 0.847827
O O4 0.000000 0.837169 0.000000
O O5 0.384696 0.500000 0.457551
O O6 0.343376 0.275426 0.591261
O O7 0.413225 0.231315 0.398011
O O8 0.329833 0.318925 0.357362
O O9 0.175417 0.824009 0.165523
O O10 0.247254 0.742541 0.269842
O O11 0.209311 0.000000 0.321415
O O12 0.882236 0.500000 0.010827
O O13 0.836316 0.750472 0.057772
O O14 0.908766 0.693713 0.163906
O O15 0.046480 0.500000 0.719198
O O16 0.206204 0.000000 0.972705
O O17 0.250000 0.250000 0.000000
O O18 0.254959 0.500000 0.385961
O O19 0.250000 0.750000 0.500000
#
# Coordination Sequence:
#
# PCOD8095508 Si02
#       7
#     8   8   8   8   8   8   8
#     4   9  17  32  55  81 108 140 176 217 266 319
#     4   9  18  32  50  75 104 136 173 217 269 320
#     4   9  20  37  53  71 101 139 180 225 269 316
#     4  10  21  37  55  79 111 145 179 218 267 319
#     4  10  20  32  52  83 114 141 172 217 268 321
#     4  11  24  40  57  78 106 143 187 228 268 317
#     4   9  17  29  47  71  98 133 173 215 262 313
#
# _framework density 20.262822
#
# number of rings (size 3 to 8) (size 9 to 14) (size 15 to 20)
#    0.000    2.429    0.000    3.000    2.000    7.429 
#    0.000    0.000    0.000    0.857    0.000    6.000 
#    0.000    0.000    0.000    0.000    0.000    0.000 
#
# Total GULP energy -347122.350548 kJ/mol
# GULP energy per Si atom -12397.226805 kJ/mol
# Density = 2.021670 g / cm^3
# Si number density = 20.262822 Si / 1000 Ang^3
#
#
#
# Elastic Constant Matrix: (Units=GPa)
#
#
# Indices 1 2 3 4 5 6 
#
# 1 60.6642 36.6048 6.9505 0.0000 -18.8826 0.0000
# 2 36.6048 130.5673 22.3059 0.0000 -18.6797 0.0000
# 3 6.9505 22.3059 49.5898 0.0000 -16.9103 0.0000
# 4 0.0000 0.0000 0.0000 25.4612 0.0000 -8.0603
# 5 -18.8826 -18.6797 -16.9103 0.0000 31.5463 0.0000
# 6 0.0000 0.0000 0.0000 -8.0603 0.0000 36.2785
#
#
#
# Elastic Compliance Matrix: (Units=1/GPa)
#
#
# Indices 1 2 3 4 5 6 
#
# 1 0.023202 -0.005288 0.003420 0.000000 0.012590 0.000000
# 2 -0.005288 0.009842 -0.003399 0.000000 0.000841 0.000000
# 3 0.003420 -0.003399 0.025975 0.000000 0.013958 0.000000
# 4 0.000000 0.000000 0.000000 0.042247 0.000000 0.009386
# 5 0.012590 0.000841 0.013958 0.000000 0.047215 0.000000
# 6 0.000000 0.000000 0.000000 0.009386 0.000000 0.029650
#
#
# Mechanical properties :
#
#
# Convention : Reuss Voigt Hill
#
# Bulk Modulus (GPa) = 20.62526 41.39374 31.00950
# Shear Modulus (GPa) = 24.41084 30.32121 27.36602
#
# Velocity S-wave (km/s) = 3.47466 3.87252 3.67897
# Velocity P-wave (km/s) = 5.12822 6.36145 5.77783
#
# Compressibility (1/GPa) = 0.04848424
#
# Stress axis : x y z
#
# Youngs Moduli (GPa) = 43.10016 101.60204 38.49879
#
# Poissons Ratio (x) = 0.53724 -0.13165
# Poissons Ratio (y) = 0.22790 0.13087
# Poissons Ratio (z) = -0.14739 0.34538
#
# Static dielectric constant tensor:
#      x y z
#    x 3.474950 0.000000 -0.211470 
#    y 0.000000 3.893140 0.000000 
#    z -0.211470 0.000000 3.374060 
# 
# 
# High freq. dielectric constant tensor:
#      x y z
#    x 1.766130 0.000000 -0.017920 
#    y 0.000000 1.800790 0.000000 
#    z -0.017920 0.000000 1.776210 
# 
# From -- ./inp_files/186420.got.cif
#   From: 2010.06.25/outbox.cif.g09.slc.cpg/sg12_94_cif.got.tgz:186420.got - 2010.06.28 00:19:55.
