data_PCOD8095259
_publ_section_title
;
Structure prediction by ZEFSAII (Michael W. Deem and Ramdas Pophale) SiO2 
 PCOD8095259
Probable space group: C 2/M
;
_chemical_formula_sum "Si O2"
_cell_formula_units_Z 56
_cell_length_a 31.640907
_cell_length_b 9.723285
_cell_length_c 16.840106
_cell_angle_alpha 90.000000
_cell_angle_beta 36.784117
_cell_angle_gamma 90.000000
_cell_volume 3102.342310
_symmetry_space_group_name_H-M "C 2/M"
_symmetry_group_IT_number 12
_symmetry_cell_setting 'monoclinic'
loop_
_space_group_symop_operation_xyz
x,y,z
-x,y,-z
-x,-y,-z
x,-y,z
1/2+x,1/2+y,z
1/2-x,1/2+y,-z
1/2-x,1/2-y,-z
1/2+x,1/2-y,z
loop_
_atom_site_type_symbol
_atom_site_label
_atom_site_fract_x
_atom_site_fract_y
_atom_site_fract_z
Si Si1 0.851315 0.341792 0.868271
Si Si2 0.996877 0.337761 0.416648
Si Si3 0.891671 0.662816 0.121568
Si Si4 0.756407 0.842121 0.286945
Si Si5 0.965862 0.662592 0.170375
Si Si6 0.756214 0.155080 0.105066
Si Si7 0.604483 0.836499 0.564519
O O1 0.842290 0.500000 0.905645
O O2 0.932149 0.301028 0.736899
O O3 0.821079 0.253920 0.986412
O O4 0.811841 0.307134 0.845247
O O5 0.987655 0.500000 0.440967
O O6 0.000000 0.270222 0.500000
O O7 0.933218 0.278067 0.458493
O O8 0.876916 0.500000 0.139608
O O9 0.820367 0.743211 0.211367
O O10 0.917354 0.709485 0.169961
O O11 0.952535 0.706820 0.966737
O O12 0.687172 0.796271 0.440846
O O13 0.777337 0.000000 0.274366
O O14 0.734508 0.825390 0.228413
O O15 0.963764 0.500000 0.177813
O O16 0.934035 0.726377 0.299431
O O17 0.781011 0.000000 0.050315
O O18 0.596330 0.000000 0.576930
#
# Coordination Sequence:
#
# PCOD8095259 Si02
#       7
#     8   8   8   8   8   8   8
#     4   9  17  29  48  71  91 123 168 206 237 278
#     4   9  16  26  44  71  98 123 159 206 242 271
#     4   9  18  33  54  75  98 125 160 206 248 288
#     4  10  20  32  48  72 101 134 161 194 247 300
#     4   8  16  32  51  73  97 125 161 204 249 288
#     4   9  18  31  44  65 101 130 154 195 249 293
#     4   9  17  29  47  70  98 130 165 200 241 292
#
# _framework density 18.050875999999999
#
# number of rings (size 3 to 8) (size 9 to 14) (size 15 to 20)
#    0.000    3.000    0.000    1.714    2.000    4.571 
#    0.000    1.429    0.000    2.143    0.000    0.000 
#    0.000    0.000    0.000    0.000    0.000    0.000 
#
# Total GULP energy -347069.991561 kJ/mol
# GULP energy per Si atom -12395.356841 kJ/mol
# Density = 1.800979 g / cm^3
# Si number density = 18.050876 Si / 1000 Ang^3
#
#
#
# Elastic Constant Matrix: (Units=GPa)
#
#
# Indices 1 2 3 4 5 6 
#
# 1 88.6412 27.1354 66.5322 0.0000 -13.5345 0.0000
# 2 27.1354 35.9835 36.8175 0.0020 -9.1489 -0.0013
# 3 66.5322 36.8175 130.2939 0.0003 -0.6303 -0.0003
# 4 0.0000 0.0020 0.0003 19.5455 -0.0003 -3.3779
# 5 -13.5345 -9.1489 -0.6303 -0.0003 29.6732 0.0001
# 6 0.0000 -0.0013 -0.0003 -3.3779 0.0001 19.9237
#
#
#
# Elastic Compliance Matrix: (Units=1/GPa)
#
#
# Indices 1 2 3 4 5 6 
#
# 1 0.020851 -0.003958 -0.009490 0.000001 0.008089 0.000000
# 2 -0.003958 0.044481 -0.010492 -0.000004 0.011687 0.000002
# 3 -0.009490 -0.010492 0.015450 0.000001 -0.007235 0.000000
# 4 0.000001 -0.000004 0.000001 0.052707 0.000000 0.008936
# 5 0.008089 0.011687 -0.007235 0.000000 0.040839 0.000000
# 6 0.000000 0.000002 0.000000 0.008936 0.000000 0.051706
#
#
# Mechanical properties :
#
#
# Convention : Reuss Voigt Hill
#
# Bulk Modulus (GPa) = 30.39110 57.32097 43.85603
# Shear Modulus (GPa) = 17.55119 22.12407 19.83763
#
# Velocity S-wave (km/s) = 3.12158 3.50473 3.31869
# Velocity P-wave (km/s) = 5.46491 6.94274 6.24768
#
# Compressibility (1/GPa) = 0.03290437
#
# Stress axis : x y z
#
# Youngs Moduli (GPa) = 47.96012 22.48138 64.72355
#
# Poissons Ratio (x) = 0.08897 0.61420
# Poissons Ratio (y) = 0.18981 0.67907
# Poissons Ratio (z) = 0.45512 0.23587
#
# Static dielectric constant tensor:
#      x y z
#    x 3.435180 0.000000 0.141470 
#    y 0.000000 2.894300 0.000000 
#    z 0.141470 0.000000 3.619540 
# 
# 
# High freq. dielectric constant tensor:
#      x y z
#    x 1.702920 0.000000 0.000220 
#    y 0.000000 1.640370 0.000000 
#    z 0.000220 0.000000 1.709620 
# 
# From -- ./inp_files/250509.got.cif
#   From: 2010.06.25/outbox.cif.g09.slc.cpg/sg12_126_cif.got.tgz:250509.got - 2010.06.28 00:19:55.
