data_PCOD8095904
_publ_section_title
;
Structure prediction by ZEFSAII (Michael W. Deem and Ramdas Pophale) SiO2 
 PCOD8095904
Probable space group: C 2/M
;
_chemical_formula_sum "Si O2"
_cell_formula_units_Z 64
_cell_length_a 25.440661
_cell_length_b 8.922987
_cell_length_c 15.438851
_cell_angle_alpha 90.000000
_cell_angle_beta 71.376113
_cell_angle_gamma 90.000000
_cell_volume 3321.198864
_symmetry_space_group_name_H-M "C 2/M"
_symmetry_group_IT_number 12
_symmetry_cell_setting 'monoclinic'
loop_
_space_group_symop_operation_xyz
x,y,z
-x,y,-z
-x,-y,-z
x,-y,z
1/2+x,1/2+y,z
1/2-x,1/2+y,-z
1/2-x,1/2-y,-z
1/2+x,1/2-y,z
loop_
_atom_site_type_symbol
_atom_site_label
_atom_site_fract_x
_atom_site_fract_y
_atom_site_fract_z
Si Si1 0.193377 0.676919 0.499688
Si Si2 0.633614 0.177774 0.184838
Si Si3 0.984508 0.164732 0.916085
Si Si4 0.356076 0.335867 0.992736
Si Si5 0.832879 0.821995 0.196410
Si Si6 0.602855 0.677099 0.667248
Si Si7 0.492631 0.826319 0.746768
Si Si8 0.210652 0.676202 0.296790
O O1 0.196456 0.500000 0.513931
O O2 0.250000 0.750000 0.500000
O O3 0.142567 0.746647 0.577195
O O4 0.184618 0.715900 0.403183
O O5 0.661599 0.234346 0.080077
O O6 0.570152 0.230760 0.239101
O O7 0.671098 0.242876 0.242779
O O8 0.633179 0.000000 0.179458
O O9 0.005174 0.292158 0.840504
O O10 0.920131 0.138587 0.945036
O O11 0.013332 0.000000 0.883760
O O12 0.000000 0.230515 0.000000
O O13 0.326475 0.500000 0.003468
O O14 0.345575 0.259247 0.092581
O O15 0.878129 0.772772 0.245209
O O16 0.772879 0.757748 0.256463
O O17 0.832955 0.000000 0.191114
O O18 0.606954 0.500000 0.654026
O O19 0.540817 0.732088 0.673456
O O20 0.500249 0.000000 0.720653
O O21 0.214352 0.500000 0.281419
#
# Coordination Sequence:
#
# PCOD8095904 Si02
#       8
#     8   8   8   8   8   8   8   8
#     4  11  21  37  60  86 112 139 174 219 272 326
#     4   9  19  36  55  74 105 147 187 220 259 314
#     4   9  16  28  46  69  99 141 186 222 264 322
#     4   9  17  29  48  74 105 139 179 224 263 308
#     4   9  17  31  53  80 106 138 180 220 266 323
#     4  11  21  36  58  83 110 142 177 222 275 329
#     4  10  20  33  50  76 106 140 180 226 272 315
#     4   9  18  35  58  79 103 142 183 218 262 323
#
# _framework density 19.270149
#
# number of rings (size 3 to 8) (size 9 to 14) (size 15 to 20)
#    0.000    2.375    1.250    1.875    0.000    3.250 
#    0.000    5.625    0.000    3.750    0.000    0.000 
#    0.000    0.000    0.000    0.000    0.000    0.000 
#
# Total GULP energy -396479.763885 kJ/mol
# GULP energy per Si atom -12389.992621 kJ/mol
# Density = 1.922629 g / cm^3
# Si number density = 19.270149 Si / 1000 Ang^3
#
#
#
# Elastic Constant Matrix: (Units=GPa)
#
#
# Indices 1 2 3 4 5 6 
#
# 1 75.5568 21.2810 32.5356 0.0000 -0.9281 0.0000
# 2 21.2810 49.1978 31.6648 0.0000 -1.4683 0.0000
# 3 32.5356 31.6648 115.0711 0.0000 -2.7776 0.0000
# 4 0.0000 0.0000 0.0000 32.4687 0.0000 -3.2666
# 5 -0.9281 -1.4683 -2.7776 0.0000 33.3283 0.0000
# 6 0.0000 0.0000 0.0000 -3.2666 0.0000 21.6838
#
#
#
# Elastic Compliance Matrix: (Units=1/GPa)
#
#
# Indices 1 2 3 4 5 6 
#
# 1 0.015974 -0.004865 -0.003179 0.000000 -0.000034 0.000000
# 2 -0.004865 0.026192 -0.005819 0.000000 0.000533 0.000000
# 3 -0.003179 -0.005819 0.011204 0.000000 0.000589 0.000000
# 4 0.000000 0.000000 0.000000 0.031273 0.000000 0.004711
# 5 -0.000034 0.000533 0.000589 0.000000 0.030076 0.000000
# 6 0.000000 0.000000 0.000000 0.004711 0.000000 0.046827
#
#
# Mechanical properties :
#
#
# Convention : Reuss Voigt Hill
#
# Bulk Modulus (GPa) = 38.99393 45.64317 42.31855
# Shear Modulus (GPa) = 25.27567 27.78576 26.53072
#
# Velocity S-wave (km/s) = 3.62560 3.80136 3.71452
# Velocity P-wave (km/s) = 6.14865 6.55778 6.35651
#
# Compressibility (1/GPa) = 0.02564502
#
# Stress axis : x y z
#
# Youngs Moduli (GPa) = 62.60338 38.18027 89.25021
#
# Poissons Ratio (x) = 0.18574 0.28369
# Poissons Ratio (y) = 0.30455 0.51934
# Poissons Ratio (z) = 0.19899 0.22217
#
# Static dielectric constant tensor:
#      x y z
#    x 3.469960 0.000000 0.003590 
#    y 0.000000 3.443920 0.000000 
#    z 0.003590 0.000000 3.578340 
# 
# 
# High freq. dielectric constant tensor:
#      x y z
#    x 1.747810 0.000000 -0.007960 
#    y 0.000000 1.719110 0.000000 
#    z -0.007960 0.000000 1.749080 
# 
# From -- ./inp_files/243736.got.cif
#   From: 2010.06.25/outbox.cif.g09.slc.cpg/sg12_122_cif.got.tgz:243736.got - 2010.06.28 00:19:55.
