data_PCOD8095632
_publ_section_title
;
Structure prediction by ZEFSAII (Michael W. Deem and Ramdas Pophale) SiO2 
 PCOD8095632
Probable space group: C 2/M
;
_chemical_formula_sum "Si O2"
_cell_formula_units_Z 56
_cell_length_a 19.540432
_cell_length_b 9.018776
_cell_length_c 17.738533
_cell_angle_alpha 90.000000
_cell_angle_beta 98.425235
_cell_angle_gamma 90.000000
_cell_volume 3092.338563
_symmetry_space_group_name_H-M "C 2/M"
_symmetry_group_IT_number 12
_symmetry_cell_setting 'monoclinic'
loop_
_space_group_symop_operation_xyz
x,y,z
-x,y,-z
-x,-y,-z
x,-y,z
1/2+x,1/2+y,z
1/2-x,1/2+y,-z
1/2-x,1/2-y,-z
1/2+x,1/2-y,z
loop_
_atom_site_type_symbol
_atom_site_label
_atom_site_fract_x
_atom_site_fract_y
_atom_site_fract_z
Si Si1 0.849689 0.175586 0.632227
Si Si2 0.137603 0.174282 0.200224
Si Si3 0.078123 0.323680 0.494599
Si Si4 0.816862 0.325291 0.044937
Si Si5 0.210372 0.324268 0.796428
Si Si6 0.192034 0.675764 0.629325
Si Si7 0.422678 0.667319 0.961292
O O1 0.879568 0.231322 0.718331
O O2 0.897354 0.258926 0.580538
O O3 0.768632 0.223883 0.612924
O O4 0.857140 0.000000 0.621573
O O5 0.211390 0.236958 0.184364
O O6 0.081980 0.219954 0.127164
O O7 0.143704 0.000000 0.209672
O O8 0.080993 0.500000 0.490588
O O9 0.131291 0.260664 0.566397
O O10 0.000000 0.269805 0.500000
O O11 0.806134 0.500000 0.039275
O O12 0.828997 0.272597 0.134008
O O13 0.750000 0.250000 0.000000
O O14 0.883192 0.279214 0.008706
O O15 0.210899 0.500000 0.791910
O O16 0.177850 0.263831 0.712496
O O17 0.188730 0.500000 0.628580
O O18 0.392135 0.500000 0.963422
O O19 0.500000 0.671910 0.000000
#
# Coordination Sequence:
#
# PCOD8095632 Si02
#       7
#     8   8   8   8   8   8   8
#     4   9  17  31  55  75  89 123 171 209 236 283
#     4   8  14  29  51  73  95 125 167 204 244 297
#     4  10  20  33  48  71 104 132 154 192 250 304
#     4  11  20  32  54  79 104 135 174 215 255 301
#     4   8  14  27  50  74  94 124 167 207 241 291
#     4   8  15  30  52  73  93 126 168 200 237 295
#     4  10  20  35  53  73 103 141 175 211 257 306
#
# _framework density 18.109272000000001
#
# number of rings (size 3 to 8) (size 9 to 14) (size 15 to 20)
#    0.000    2.857    1.429    2.571    0.000    0.571 
#    2.571    0.714    0.000    1.714    0.000    0.000 
#    0.000    0.000    0.000    0.000    0.000    0.000 
#
# Total GULP energy -346909.183814 kJ/mol
# GULP energy per Si atom -12389.613708 kJ/mol
# Density = 1.806805 g / cm^3
# Si number density = 18.109272 Si / 1000 Ang^3
#
#
#
# Elastic Constant Matrix: (Units=GPa)
#
#
# Indices 1 2 3 4 5 6 
#
# 1 94.3705 23.5766 80.3304 0.0000 -3.4978 0.0000
# 2 23.5766 28.4366 28.4885 0.0000 -6.7723 0.0000
# 3 80.3304 28.4885 183.5756 0.0000 -4.8542 0.0000
# 4 0.0000 0.0000 0.0000 22.8180 0.0000 -6.6089
# 5 -3.4978 -6.7723 -4.8542 0.0000 29.1122 0.0000
# 6 0.0000 0.0000 0.0000 -6.6089 0.0000 18.5088
#
#
#
# Elastic Compliance Matrix: (Units=1/GPa)
#
#
# Indices 1 2 3 4 5 6 
#
# 1 0.018516 -0.008805 -0.006761 0.000000 -0.000951 0.000000
# 2 -0.008805 0.048112 -0.003361 0.000000 0.009574 0.000000
# 3 -0.006761 -0.003361 0.008925 0.000000 -0.000106 0.000000
# 4 0.000000 0.000000 0.000000 0.048880 0.000000 0.017454
# 5 -0.000951 0.009574 -0.000106 0.000000 0.036445 0.000000
# 6 0.000000 0.000000 0.000000 0.017454 0.000000 0.060261
#
#
# Mechanical properties :
#
#
# Convention : Reuss Voigt Hill
#
# Bulk Modulus (GPa) = 26.52465 63.46376 44.99420
# Shear Modulus (GPa) = 18.41221 25.68695 22.04958
#
# Velocity S-wave (km/s) = 3.19208 3.77031 3.49318
# Velocity P-wave (km/s) = 5.31645 7.35354 6.41635
#
# Compressibility (1/GPa) = 0.03770079
#
# Stress axis : x y z
#
# Youngs Moduli (GPa) = 54.00646 20.78463 112.04841
#
# Poissons Ratio (x) = 0.18300 0.75759
# Poissons Ratio (y) = 0.47550 0.37654
# Poissons Ratio (z) = 0.36515 0.06985
#
# Static dielectric constant tensor:
#      x y z
#    x 3.135720 0.000000 0.108570 
#    y 0.000000 3.034640 0.000000 
#    z 0.108570 0.000000 3.928420 
# 
# 
# High freq. dielectric constant tensor:
#      x y z
#    x 1.680060 0.000000 -0.000660 
#    y 0.000000 1.654950 0.000000 
#    z -0.000660 0.000000 1.726920 
# 
# From -- ./inp_files/280431.got.cif
#   From: 2010.06.25/outbox.cif.g09.slc.cpg/sg12_141_cif.got.tgz:280431.got - 2010.06.28 00:19:55.
