data_PCOD8095264
_publ_section_title
;
Structure prediction by ZEFSAII (Michael W. Deem and Ramdas Pophale) SiO2 
 PCOD8095264
Probable space group: C 2/M
;
_chemical_formula_sum "Si O2"
_cell_formula_units_Z 48
_cell_length_a 25.822903
_cell_length_b 14.208012
_cell_length_c 25.431115
_cell_angle_alpha 90.000000
_cell_angle_beta 16.696289
_cell_angle_gamma 90.000000
_cell_volume 2680.631471
_symmetry_space_group_name_H-M "C 2/M"
_symmetry_group_IT_number 12
_symmetry_cell_setting 'monoclinic'
loop_
_space_group_symop_operation_xyz
x,y,z
-x,y,-z
-x,-y,-z
x,-y,z
1/2+x,1/2+y,z
1/2-x,1/2+y,-z
1/2-x,1/2-y,-z
1/2+x,1/2-y,z
loop_
_atom_site_type_symbol
_atom_site_label
_atom_site_fract_x
_atom_site_fract_y
_atom_site_fract_z
Si Si1 0.452695 0.609100 0.486446
Si Si2 0.144608 0.655908 0.612741
Si Si3 0.223399 0.608802 0.904487
Si Si4 0.397885 0.396605 0.282887
Si Si5 0.752614 0.608589 0.999382
Si Si6 0.861504 0.298606 0.266488
O O1 0.500000 0.633071 0.500000
O O2 0.399582 0.500000 0.531068
O O3 0.620452 0.637031 0.287257
O O4 0.286748 0.674825 0.631951
O O5 0.250000 0.750000 0.500000
O O6 0.246393 0.583427 0.475361
O O7 0.163671 0.635736 0.656686
O O8 0.931373 0.664660 0.806749
O O9 0.166164 0.500000 0.953023
O O10 0.294865 0.628943 0.893791
O O11 0.055622 0.676036 0.053564
O O12 0.422699 0.500000 0.231423
O O13 0.343901 0.313962 0.294958
O O14 0.583968 0.360625 0.128195
O O15 0.800177 0.500000 0.945072
#
# Coordination Sequence:
#
# PCOD8095264 Si02
#       6
#     8   8   8   8   8   8
#     4  10  21  36  54  76  99 123 157 205 259 310
#     4   9  18  29  46  71 100 134 168 202 238 282
#     4   9  18  32  51  74 100 128 158 197 246 300
#     4  10  20  32  48  72 104 139 172 206 239 280
#     4   9  17  29  45  68  99 133 165 194 231 282
#     4  10  20  32  50  74 101 133 169 204 244 295
#
# _framework density 17.906230000000001
#
# number of rings (size 3 to 8) (size 9 to 14) (size 15 to 20)
#    0.000    2.500    0.000    2.000    0.000   12.667 
#    0.000    2.500    0.000    0.500    0.000    1.167 
#    0.000    0.000    0.000    0.000    0.000    0.000 
#
# Total GULP energy -297455.410211 kJ/mol
# GULP energy per Si atom -12393.975425 kJ/mol
# Density = 1.786547 g / cm^3
# Si number density = 17.906230 Si / 1000 Ang^3
#
#
#
# Elastic Constant Matrix: (Units=GPa)
#
#
# Indices 1 2 3 4 5 6 
#
# 1 82.8726 43.4786 50.5374 -0.0152 -19.9742 -0.0085
# 2 43.4786 91.4313 32.8812 -0.0903 -8.3417 0.0432
# 3 50.5374 32.8812 100.4457 -0.1797 -12.6608 0.0323
# 4 -0.0152 -0.0903 -0.1797 23.9740 0.0372 -3.7877
# 5 -19.9742 -8.3417 -12.6608 0.0372 17.0505 -0.0168
# 6 -0.0085 0.0432 0.0323 -3.7877 -0.0168 30.8481
#
#
#
# Elastic Compliance Matrix: (Units=1/GPa)
#
#
# Indices 1 2 3 4 5 6 
#
# 1 0.025854 -0.007555 -0.007925 -0.000100 0.020707 0.000025
# 2 -0.007555 0.014782 -0.001370 0.000042 -0.002636 -0.000018
# 3 -0.007925 -0.001370 0.014493 0.000097 0.000808 -0.000003
# 4 -0.000100 0.000042 0.000097 0.042538 -0.000112 0.005223
# 5 0.020707 -0.002636 0.000808 -0.000112 0.082217 0.000040
# 6 0.000025 -0.000018 -0.000003 0.005223 0.000040 0.033058
#
#
# Mechanical properties :
#
#
# Convention : Reuss Voigt Hill
#
# Bulk Modulus (GPa) = 46.66511 58.72711 52.69611
# Shear Modulus (GPa) = 19.70159 24.23134 21.96647
#
# Velocity S-wave (km/s) = 3.32062 3.68263 3.50630
# Velocity P-wave (km/s) = 6.38901 7.13796 6.77385
#
# Compressibility (1/GPa) = 0.02142929
#
# Stress axis : x y z
#
# Youngs Moduli (GPa) = 38.67847 67.64903 68.99731
#
# Poissons Ratio (x) = 0.51112 0.54680
# Poissons Ratio (y) = 0.29223 0.09452
# Poissons Ratio (z) = 0.30652 0.09267
#
# Static dielectric constant tensor:
#      x y z
#    x 3.007790 0.000060 0.117910 
#    y 0.000060 3.361940 0.000510 
#    z 0.117910 0.000510 3.935380 
# 
# 
# High freq. dielectric constant tensor:
#      x y z
#    x 1.645730 0.000000 -0.008390 
#    y 0.000000 1.687480 0.000010 
#    z -0.008390 0.000010 1.708590 
# 
# From -- ./inp_files/349622.got.cif
#   From: 2010.06.25/outbox.cif.g09.slc.cpg/sg12_175_cif.got.tgz:349622.got - 2010.06.28 00:19:55.
