data_PCOD8095842
_publ_section_title
;
Structure prediction by ZEFSAII (Michael W. Deem and Ramdas Pophale) SiO2 
 PCOD8095842
Probable space group: C 2/M
;
_chemical_formula_sum "Si O2"
_cell_formula_units_Z 56
_cell_length_a 14.167486
_cell_length_b 9.245495
_cell_length_c 24.816832
_cell_angle_alpha 90.000000
_cell_angle_beta 108.946982
_cell_angle_gamma 90.000000
_cell_volume 3074.521491
_symmetry_space_group_name_H-M "C 2/M"
_symmetry_group_IT_number 12
_symmetry_cell_setting 'monoclinic'
loop_
_space_group_symop_operation_xyz
x,y,z
-x,y,-z
-x,-y,-z
x,-y,z
1/2+x,1/2+y,z
1/2-x,1/2+y,-z
1/2-x,1/2-y,-z
1/2+x,1/2-y,z
loop_
_atom_site_type_symbol
_atom_site_label
_atom_site_fract_x
_atom_site_fract_y
_atom_site_fract_z
Si Si1 0.376220 0.332499 0.232461
Si Si2 0.672069 0.831576 0.136998
Si Si3 0.468663 0.167298 0.155180
Si Si4 0.185589 0.667773 0.563808
Si Si5 0.235422 0.330632 0.941660
Si Si6 0.606908 0.334343 0.453111
Si Si7 0.402464 0.669235 0.358709
O O1 0.403362 0.500000 0.233270
O O2 0.262018 0.302174 0.195017
O O3 0.453483 0.251252 0.208074
O O4 0.391757 0.275092 0.295751
O O5 0.570112 0.778944 0.145920
O O6 0.686890 0.736459 0.086407
O O7 0.666493 0.000000 0.119308
O O8 0.377618 0.198223 0.097940
O O9 0.476377 0.000000 0.171674
O O10 0.159945 0.500000 0.564087
O O11 0.297641 0.697272 0.565818
O O12 0.108148 0.738057 0.507146
O O13 0.176262 0.743363 0.619930
O O14 0.258197 0.500000 0.952414
O O15 0.250000 0.250000 0.000000
O O16 0.603582 0.500000 0.471874
O O17 0.512966 0.293076 0.399430
O O18 0.377721 0.500000 0.358395
#
# Coordination Sequence:
#
# PCOD8095842 Si02
#       7
#     8   8   8   8   8   8   8
#     4   9  19  34  52  74  99 128 166 206 241 288
#     4   9  18  35  55  74 100 134 167 202 245 289
#     4   9  19  35  54  74 100 134 167 201 246 291
#     4  10  20  33  50  73  97 124 163 206 244 289
#     4  10  20  34  52  77 106 134 166 204 243 287
#     4   9  19  35  51  68  97 132 160 194 247 303
#     4  10  20  34  51  72  99 131 162 196 247 301
#
# _framework density 18.214217000000001
#
# number of rings (size 3 to 8) (size 9 to 14) (size 15 to 20)
#    0.000    2.571    0.000    1.286    0.000    6.286 
#    0.000    2.857    0.000    0.000    0.000    0.000 
#    0.000    0.000    0.000    0.000    0.000    0.000 
#
# Total GULP energy -347301.422534 kJ/mol
# GULP energy per Si atom -12403.622233 kJ/mol
# Density = 1.817276 g / cm^3
# Si number density = 18.214217 Si / 1000 Ang^3
#
#
#
# Elastic Constant Matrix: (Units=GPa)
#
#
# Indices 1 2 3 4 5 6 
#
# 1 123.6848 52.6792 59.5478 0.0000 -22.0759 0.0000
# 2 52.6792 76.3798 59.8047 0.0000 -20.1170 0.0000
# 3 59.5478 59.8047 132.6886 0.0000 -32.9268 0.0000
# 4 0.0000 0.0000 0.0000 30.4326 0.0000 -9.4300
# 5 -22.0759 -20.1170 -32.9268 0.0000 25.5549 0.0000
# 6 0.0000 0.0000 0.0000 -9.4300 0.0000 31.3634
#
#
#
# Elastic Compliance Matrix: (Units=1/GPa)
#
#
# Indices 1 2 3 4 5 6 
#
# 1 0.012162 -0.006008 -0.001935 0.000000 0.003283 0.000000
# 2 -0.006008 0.023878 -0.006894 0.000000 0.004725 0.000000
# 3 -0.001935 -0.006894 0.014333 0.000000 0.011370 0.000000
# 4 0.000000 0.000000 0.000000 0.036235 0.000000 0.010895
# 5 0.003283 0.004725 0.011370 0.000000 0.060336 0.000000
# 6 0.000000 0.000000 0.000000 0.010895 0.000000 0.035160
#
#
# Mechanical properties :
#
#
# Convention : Reuss Voigt Hill
#
# Bulk Modulus (GPa) = 48.31015 75.20185 61.75600
# Shear Modulus (GPa) = 22.86461 28.18494 25.52478
#
# Velocity S-wave (km/s) = 3.54689 3.93799 3.74754
# Velocity P-wave (km/s) = 6.58444 7.87744 7.25978
#
# Compressibility (1/GPa) = 0.02069958
#
# Stress axis : x y z
#
# Youngs Moduli (GPa) = 82.22582 41.87935 69.76694
#
# Poissons Ratio (x) = 0.25160 0.13503
# Poissons Ratio (y) = 0.49400 0.48094
# Poissons Ratio (z) = 0.15914 0.28870
#
# Static dielectric constant tensor:
#      x y z
#    x 3.460540 0.000000 -0.042650 
#    y 0.000000 3.356920 0.000000 
#    z -0.042650 0.000000 3.377850 
# 
# 
# High freq. dielectric constant tensor:
#      x y z
#    x 1.711210 0.000000 -0.005110 
#    y 0.000000 1.704350 0.000000 
#    z -0.005110 0.000000 1.703420 
# 
# From -- ./inp_files/337861.got.cif
#   From: 2010.06.25/outbox.cif.g09.slc.cpg/sg12_169_cif.got.tgz:337861.got - 2010.06.28 00:19:55.
