data_PCOD8095898
_publ_section_title
;
Structure prediction by ZEFSAII (Michael W. Deem and Ramdas Pophale) SiO2 
 PCOD8095898
Probable space group: C 2/M
;
_chemical_formula_sum "Si O2"
_cell_formula_units_Z 56
_cell_length_a 14.248608
_cell_length_b 29.945365
_cell_length_c 9.270090
_cell_angle_alpha 90.000000
_cell_angle_beta 130.586577
_cell_angle_gamma 90.000000
_cell_volume 3003.794193
_symmetry_space_group_name_H-M "C 2/M"
_symmetry_group_IT_number 12
_symmetry_cell_setting 'monoclinic'
loop_
_space_group_symop_operation_xyz
x,y,z
-x,y,-z
-x,-y,-z
x,-y,z
1/2+x,1/2+y,z
1/2-x,1/2+y,-z
1/2-x,1/2-y,-z
1/2+x,1/2-y,z
loop_
_atom_site_type_symbol
_atom_site_label
_atom_site_fract_x
_atom_site_fract_y
_atom_site_fract_z
Si Si1 0.262469 0.051213 0.931069
Si Si2 0.000000 0.552899 0.660409
Si Si3 0.144018 0.778209 0.314498
Si Si4 0.644018 0.278209 0.973538
Si Si5 0.762470 0.551213 0.593870
Si Si6 0.357910 0.622444 0.702119
Si Si7 0.642090 0.622444 0.986298
O O1 0.284898 0.056384 0.784898
O O2 0.229282 0.000000 0.937060
O O3 0.382162 0.069381 0.133678
O O4 0.156469 0.084076 0.879997
O O5 1.000000 0.500000 0.653554
O O6 0.882162 0.569381 0.630646
O O7 0.000000 0.573600 0.500000
O O8 0.250000 0.750000 0.500000
O O9 0.186706 0.828912 0.394857
O O10 0.000000 0.768540 0.220861
O O11 0.152527 0.769345 0.152527
O O12 0.750000 0.250000 0.000000
O O13 0.686706 0.328912 0.978556
O O14 0.729282 0.500000 0.521504
O O15 0.656469 0.584076 0.432941
O O16 0.296294 0.609153 0.796294
O O17 0.500000 0.628209 0.874059
#
# Coordination Sequence:
#
# PCOD8095898 Si02
#       7
#     8   8   8   8   8   8   8
#     4  10  20  33  50  75 107 139 174 218 266 315
#     4   9  17  31  51  71  95 133 177 217 259 307
#     4   9  19  37  59  83 111 142 180 226 274 327
#     4   9  19  37  59  83 111 142 180 226 274 327
#     4  10  20  33  50  75 107 139 174 218 266 315
#     4   9  19  36  55  75 103 140 180 219 260 311
#     4   9  19  36  55  75 103 140 180 219 260 311
#
# _framework density 18.643089
#
# number of rings (size 3 to 8) (size 9 to 14) (size 15 to 20)
#    0.000    2.714    0.000    3.000    0.000    6.286 
#    2.571    5.714    0.000    0.000    0.000    0.000 
#    0.000    0.000    0.000    0.000    0.000    0.000 
#
# Total GULP energy -346867.250977 kJ/mol
# GULP energy per Si atom -12388.116106 kJ/mol
# Density = 1.860066 g / cm^3
# Si number density = 18.643089 Si / 1000 Ang^3
#
#
#
# Elastic Constant Matrix: (Units=GPa)
#
#
# Indices 1 2 3 4 5 6 
#
# 1 86.7280 54.0757 27.3936 0.0000 -11.5876 0.0000
# 2 54.0757 110.1325 58.0151 0.0000 -8.3050 0.0000
# 3 27.3936 58.0151 95.4056 0.0000 -6.7060 0.0000
# 4 0.0000 0.0000 0.0000 29.4863 0.0000 0.0857
# 5 -11.5876 -8.3050 -6.7060 0.0000 22.1245 0.0000
# 6 0.0000 0.0000 0.0000 0.0857 0.0000 29.5269
#
#
#
# Elastic Compliance Matrix: (Units=1/GPa)
#
#
# Indices 1 2 3 4 5 6 
#
# 1 0.017392 -0.008348 0.000513 0.000000 0.006131 0.000000
# 2 -0.008348 0.017515 -0.008275 0.000000 -0.000306 0.000000
# 3 0.000513 -0.008275 0.015497 0.000000 0.001860 0.000000
# 4 0.000000 0.000000 0.000000 0.033914 0.000000 -0.000098
# 5 0.006131 -0.000306 0.001860 0.000000 0.048859 0.000000
# 6 0.000000 0.000000 0.000000 -0.000098 0.000000 0.033868
#
#
# Mechanical properties :
#
#
# Convention : Reuss Voigt Hill
#
# Bulk Modulus (GPa) = 54.99095 63.47053 59.23074
# Shear Modulus (GPa) = 24.35154 26.41300 25.38227
#
# Velocity S-wave (km/s) = 3.61806 3.76809 3.69383
# Velocity P-wave (km/s) = 6.85671 7.28356 7.07336
#
# Compressibility (1/GPa) = 0.01818481
#
# Stress axis : x y z
#
# Youngs Moduli (GPa) = 57.49692 57.09422 64.52877
#
# Poissons Ratio (x) = 0.47661 -0.03313
# Poissons Ratio (y) = 0.47997 0.53399
# Poissons Ratio (z) = -0.02952 0.47247
#
# Static dielectric constant tensor:
#      x y z
#    x 3.412050 0.000000 -0.001530 
#    y 0.000000 3.387620 0.000000 
#    z -0.001530 0.000000 3.412780 
# 
# 
# High freq. dielectric constant tensor:
#      x y z
#    x 1.720090 0.000000 -0.005130 
#    y 0.000000 1.712110 0.000000 
#    z -0.005130 0.000000 1.722530 
# 
# From -- ./inp_files/68292.got.cif
#   From: 2010.06.25/outbox.cif.g09.slc.cpg/sg12_35_cif.got.tgz:68292.got - 2010.06.28 00:19:55.
