data_PCOD8095608
_publ_section_title
;
Structure prediction by ZEFSAII (Michael W. Deem and Ramdas Pophale) SiO2 
 PCOD8095608
Probable space group: C 2/M
;
_chemical_formula_sum "Si O2"
_cell_formula_units_Z 56
_cell_length_a 29.048977
_cell_length_b 8.872960
_cell_length_c 13.721921
_cell_angle_alpha 90.000000
_cell_angle_beta 76.661794
_cell_angle_gamma 90.000000
_cell_volume 3441.425667
_symmetry_space_group_name_H-M "C 2/M"
_symmetry_group_IT_number 12
_symmetry_cell_setting 'monoclinic'
loop_
_space_group_symop_operation_xyz
x,y,z
-x,y,-z
-x,-y,-z
x,-y,z
1/2+x,1/2+y,z
1/2-x,1/2+y,-z
1/2-x,1/2-y,-z
1/2+x,1/2-y,z
loop_
_atom_site_type_symbol
_atom_site_label
_atom_site_fract_x
_atom_site_fract_y
_atom_site_fract_z
Si Si1 0.146726 0.823419 0.759440
Si Si2 0.787842 0.173763 0.761385
Si Si3 0.450476 0.321478 0.132685
Si Si4 0.807598 0.670710 0.088634
Si Si5 0.445233 0.678444 0.914481
Si Si6 0.356116 0.175268 0.865995
Si Si7 0.762556 0.820391 0.391468
O O1 0.092258 0.764021 0.775059
O O2 0.162524 0.784866 0.860837
O O3 0.184633 0.758400 0.663236
O O4 0.147548 0.000000 0.746824
O O5 0.747861 0.194790 0.863797
O O6 0.836521 0.239632 0.780383
O O7 0.774773 0.264748 0.670416
O O8 0.795070 0.000000 0.729400
O O9 0.449520 0.500000 0.124942
O O10 0.501895 0.273424 0.147988
O O11 0.440926 0.262334 0.027606
O O12 0.822571 0.500000 0.108042
O O13 0.819403 0.707426 0.971384
O O14 0.436993 0.500000 0.909752
O O15 0.408041 0.763258 0.864818
O O16 0.359969 0.000000 0.839931
O O17 0.750000 0.750000 0.500000
O O18 0.760613 0.000000 0.398203
#
# Coordination Sequence:
#
# PCOD8095608 Si02
#       7
#     8   8   8   8   8   8   8
#     4   9  16  28  48  69  90 120 157 192 226 267
#     4  10  20  33  48  65  88 121 159 193 228 273
#     4   8  14  26  44  66  89 119 161 198 224 258
#     4   9  18  29  41  62  92 124 156 190 225 265
#     4   9  16  27  44  63  89 126 162 193 224 260
#     4  11  20  29  41  64  96 127 158 190 227 270
#     4  10  20  34  52  73  95 118 147 189 236 280
#
# _framework density 16.272326
#
# number of rings (size 3 to 8) (size 9 to 14) (size 15 to 20)
#    0.000    2.571    1.429    2.571    0.000    1.714 
#    0.000    2.143    0.000    0.000    0.000    1.000 
#    0.000    8.000    0.000    0.000    0.000    0.000 
#
# Total GULP energy -346983.986517 kJ/mol
# GULP energy per Si atom -12392.285233 kJ/mol
# Density = 1.623529 g / cm^3
# Si number density = 16.272326 Si / 1000 Ang^3
#
#
#
# Elastic Constant Matrix: (Units=GPa)
#
#
# Indices 1 2 3 4 5 6 
#
# 1 130.9370 35.5226 56.3139 0.0000 0.4619 0.0000
# 2 35.5226 46.6354 30.6509 0.0000 -0.0640 0.0000
# 3 56.3139 30.6509 80.6270 0.0000 -0.9077 0.0000
# 4 0.0000 0.0000 0.0000 21.2997 0.0000 3.9986
# 5 0.4619 -0.0640 -0.9077 0.0000 15.4441 0.0000
# 6 0.0000 0.0000 0.0000 3.9986 0.0000 23.6377
#
#
#
# Elastic Compliance Matrix: (Units=1/GPa)
#
#
# Indices 1 2 3 4 5 6 
#
# 1 0.011649 -0.004694 -0.006360 0.000000 -0.000742 0.000000
# 2 -0.004694 0.030481 -0.008312 0.000000 -0.000222 0.000000
# 3 -0.006360 -0.008312 0.020020 0.000000 0.001332 0.000000
# 4 0.000000 0.000000 0.000000 0.048489 0.000000 -0.008203
# 5 -0.000742 -0.000222 0.001332 0.000000 0.064849 0.000000
# 6 0.000000 0.000000 0.000000 -0.008203 0.000000 0.043693
#
#
# Mechanical properties :
#
#
# Convention : Reuss Voigt Hill
#
# Bulk Modulus (GPa) = 42.70165 55.90823 49.30494
# Shear Modulus (GPa) = 18.81704 21.12375 19.97039
#
# Velocity S-wave (km/s) = 3.40425 3.60688 3.50703
# Velocity P-wave (km/s) = 6.46148 7.19573 6.83847
#
# Compressibility (1/GPa) = 0.02341830
#
# Stress axis : x y z
#
# Youngs Moduli (GPa) = 85.84734 32.80767 49.95120
#
# Poissons Ratio (x) = 0.15399 0.31768
# Poissons Ratio (y) = 0.40295 0.41517
# Poissons Ratio (z) = 0.54598 0.27268
#
# Static dielectric constant tensor:
#      x y z
#    x 3.366480 0.000000 -0.271640 
#    y 0.000000 2.979670 0.000000 
#    z -0.271640 0.000000 2.829220 
# 
# 
# High freq. dielectric constant tensor:
#      x y z
#    x 1.630500 0.000000 -0.008460 
#    y 0.000000 1.619810 0.000000 
#    z -0.008460 0.000000 1.580560 
# 
# From -- ./inp_files/247786.got.cif
#   From: 2010.06.25/outbox.cif.g09.slc.cpg/sg12_124_cif.got.tgz:247786.got - 2010.06.28 00:19:55.
