data_PCOD8095943
_publ_section_title
;
Structure prediction by ZEFSAII (Michael W. Deem and Ramdas Pophale) SiO2 
 PCOD8095943
Probable space group: C 2/M
;
_chemical_formula_sum "Si O2"
_cell_formula_units_Z 56
_cell_length_a 23.665383
_cell_length_b 8.687520
_cell_length_c 15.093808
_cell_angle_alpha 90.000000
_cell_angle_beta 60.406937
_cell_angle_gamma 90.000000
_cell_volume 2698.392345
_symmetry_space_group_name_H-M "C 2/M"
_symmetry_group_IT_number 12
_symmetry_cell_setting 'monoclinic'
loop_
_space_group_symop_operation_xyz
x,y,z
-x,y,-z
-x,-y,-z
x,-y,z
1/2+x,1/2+y,z
1/2-x,1/2+y,-z
1/2-x,1/2-y,-z
1/2+x,1/2-y,z
loop_
_atom_site_type_symbol
_atom_site_label
_atom_site_fract_x
_atom_site_fract_y
_atom_site_fract_z
Si Si1 0.559573 0.818226 0.682841
Si Si2 0.691226 0.818146 0.487893
Si Si3 0.441019 0.321015 0.990528
Si Si4 0.734702 0.673720 0.282126
Si Si5 0.211811 0.682761 0.114947
Si Si6 0.573330 0.317240 0.194694
Si Si7 0.621621 0.171336 0.814333
O O1 0.620734 0.763277 0.577406
O O2 0.492862 0.734163 0.703503
O O3 0.575168 0.767611 0.771864
O O4 0.549758 0.000000 0.682419
O O5 0.750000 0.750000 0.500000
O O6 0.689865 0.763521 0.386605
O O7 0.698231 0.000000 0.487136
O O8 0.452456 0.500000 0.969862
O O9 0.379217 0.282971 0.099410
O O10 0.500000 0.243374 0.000000
O O11 0.432398 0.250577 0.900524
O O12 0.708427 0.500000 0.287046
O O13 0.743400 0.759154 0.181606
O O14 0.804583 0.669286 0.276599
O O15 0.216428 0.500000 0.104655
O O16 0.137187 0.736355 0.182753
O O17 0.250000 0.750000 0.000000
O O18 0.582083 0.500000 0.194004
O O19 0.600416 0.000000 0.859513
#
# Coordination Sequence:
#
# PCOD8095943 Si02
#       7
#     8   8   8   8   8   8   8
#     4  10  21  38  58  88 127 165 205 255 317 380
#     4  11  22  39  63  94 132 172 215 267 325 385
#     4  10  20  33  50  81 119 154 196 247 303 368
#     4  11  23  42  65  94 127 165 215 269 321 383
#     4  12  26  46  69  95 127 170 216 265 318 378
#     4  11  23  40  62  89 124 167 212 264 320 377
#     4  10  20  34  55  85 121 160 200 248 309 372
#
# _framework density 20.753097
#
# number of rings (size 3 to 8) (size 9 to 14) (size 15 to 20)
#    0.000    1.286    2.857    3.429    0.000    6.000 
#    0.000    0.714    0.000    4.286    0.000    0.000 
#    0.000    0.000    0.000    0.000    0.000    0.000 
#
# Total GULP energy -347085.191438 kJ/mol
# GULP energy per Si atom -12395.899694 kJ/mol
# Density = 2.070586 g / cm^3
# Si number density = 20.753097 Si / 1000 Ang^3
#
#
#
# Elastic Constant Matrix: (Units=GPa)
#
#
# Indices 1 2 3 4 5 6 
#
# 1 90.5299 30.5883 27.9144 0.0000 -17.1071 0.0000
# 2 30.5883 92.3909 34.2183 0.0000 -5.8498 0.0000
# 3 27.9144 34.2183 112.1442 0.0000 -9.8853 0.0000
# 4 0.0000 0.0000 0.0000 36.2518 0.0000 -2.6960
# 5 -17.1071 -5.8498 -9.8853 0.0000 34.8239 0.0000
# 6 0.0000 0.0000 0.0000 -2.6960 0.0000 31.6688
#
#
#
# Elastic Compliance Matrix: (Units=1/GPa)
#
#
# Indices 1 2 3 4 5 6 
#
# 1 0.013900 -0.003546 -0.001875 0.000000 0.005700 0.000000
# 2 -0.003546 0.013143 -0.003166 0.000000 -0.000433 0.000000
# 3 -0.001875 -0.003166 0.010484 0.000000 0.001523 0.000000
# 4 0.000000 0.000000 0.000000 0.027761 0.000000 0.002363
# 5 0.005700 -0.000433 0.001523 0.000000 0.031876 0.000000
# 6 0.000000 0.000000 0.000000 0.002363 0.000000 0.031778
#
#
# Mechanical properties :
#
#
# Convention : Reuss Voigt Hill
#
# Bulk Modulus (GPa) = 49.13560 53.38967 51.26264
# Shear Modulus (GPa) = 32.70126 34.03850 33.36988
#
# Velocity S-wave (km/s) = 3.97385 4.05429 4.01427
# Velocity P-wave (km/s) = 6.69201 6.90640 6.80005
#
# Compressibility (1/GPa) = 0.02035184
#
# Stress axis : x y z
#
# Youngs Moduli (GPa) = 71.94409 76.08784 95.38293
#
# Poissons Ratio (x) = 0.26984 0.17887
# Poissons Ratio (y) = 0.25514 0.30195
# Poissons Ratio (z) = 0.13492 0.24087
#
# Static dielectric constant tensor:
#      x y z
#    x 3.794430 0.000000 -0.118030 
#    y 0.000000 3.655950 0.000000 
#    z -0.118030 0.000000 3.823630 
# 
# 
# High freq. dielectric constant tensor:
#      x y z
#    x 1.807180 0.000000 -0.011990 
#    y 0.000000 1.808900 0.000000 
#    z -0.011990 0.000000 1.812490 
# 
# From -- ./inp_files/238339.got.cif
#   From: 2010.06.25/outbox.cif.g09.slc.cpg/sg12_120_cif.got.tgz:238339.got - 2010.06.28 00:19:55.
