data_PCOD8095586
_publ_section_title
;
Structure prediction by ZEFSAII (Michael W. Deem and Ramdas Pophale) SiO2 
 PCOD8095586
Probable space group: C 2/M
;
_chemical_formula_sum "Si O2"
_cell_formula_units_Z 56
_cell_length_a 27.745404
_cell_length_b 13.699060
_cell_length_c 14.013927
_cell_angle_alpha 90.000000
_cell_angle_beta 143.233478
_cell_angle_gamma 90.000000
_cell_volume 3188.204645
_symmetry_space_group_name_H-M "C 2/M"
_symmetry_group_IT_number 12
_symmetry_cell_setting 'monoclinic'
loop_
_space_group_symop_operation_xyz
x,y,z
-x,y,-z
-x,-y,-z
x,-y,z
1/2+x,1/2+y,z
1/2-x,1/2+y,-z
1/2-x,1/2-y,-z
1/2+x,1/2-y,z
loop_
_atom_site_type_symbol
_atom_site_label
_atom_site_fract_x
_atom_site_fract_y
_atom_site_fract_z
Si Si1 0.103551 0.884977 0.080982
Si Si2 0.384313 0.725717 0.507272
Si Si3 0.649442 0.384966 0.734815
Si Si4 0.694746 0.886174 0.903349
Si Si5 0.542613 0.234229 0.659674
Si Si6 0.729268 0.885016 0.739318
Si Si7 0.072973 0.115803 0.243876
O O1 0.180474 0.848987 0.142897
O O2 0.109262 0.850031 0.199858
O O3 0.100232 0.000000 0.078064
O O4 0.020714 0.850079 0.900122
O O5 0.350824 0.652646 0.373648
O O6 0.478208 0.750739 0.640783
O O7 0.333187 0.825777 0.425750
O O8 0.375976 0.672576 0.595324
O O9 0.638244 0.500000 0.720488
O O10 0.576619 0.339233 0.680004
O O11 0.732433 0.350128 0.915029
O O12 0.613697 0.834338 0.810419
O O13 0.712921 0.858094 0.822944
O O14 0.681337 0.000000 0.894308
O O15 0.500000 0.183705 0.500000
O O16 0.717950 0.000000 0.700998
O O17 0.081611 0.000000 0.274112
#
# Coordination Sequence:
#
# PCOD8095586 Si02
#       7
#     8   8   8   8   8   8   8
#     4   8  17  34  55  76  99 124 160 207 248 296
#     4  11  22  31  50  75 101 134 163 201 246 295
#     4  10  21  34  47  69 100 133 167 202 243 292
#     4  10  20  34  52  69  97 137 171 204 241 282
#     4  10  20  33  46  70  99 130 167 205 237 282
#     4  10  20  34  51  73  97 131 171 205 242 285
#     4   9  18  34  54  78 102 125 157 202 255 300
#
# _framework density 17.564744000000001
#
# number of rings (size 3 to 8) (size 9 to 14) (size 15 to 20)
#    0.000    2.286    2.857    1.714    2.000    4.571 
#    0.000    0.000    0.000    0.000    0.000    2.000 
#    0.000    0.000    0.000    0.000    0.000    0.000 
#
# Total GULP energy -347169.963116 kJ/mol
# GULP energy per Si atom -12398.927254 kJ/mol
# Density = 1.752477 g / cm^3
# Si number density = 17.564744 Si / 1000 Ang^3
#
#
#
# Elastic Constant Matrix: (Units=GPa)
#
#
# Indices 1 2 3 4 5 6 
#
# 1 49.4003 18.0799 35.4013 0.0000 1.3643 0.0000
# 2 18.0799 45.7031 40.9021 0.0000 -0.0832 0.0000
# 3 35.4013 40.9021 108.1683 0.0000 0.1404 0.0000
# 4 0.0000 0.0000 0.0000 34.3443 0.0000 -0.9525
# 5 1.3643 -0.0832 0.1404 0.0000 29.1714 0.0000
# 6 0.0000 0.0000 0.0000 -0.9525 0.0000 15.5559
#
#
#
# Elastic Compliance Matrix: (Units=1/GPa)
#
#
# Indices 1 2 3 4 5 6 
#
# 1 0.027009 -0.004198 -0.007251 0.000000 -0.001240 0.000000
# 2 -0.004198 0.033726 -0.011379 0.000000 0.000347 0.000000
# 3 -0.007251 -0.011379 0.015920 0.000000 0.000230 0.000000
# 4 0.000000 0.000000 0.000000 0.029166 0.000000 0.001786
# 5 -0.001240 0.000347 0.000230 0.000000 0.034338 0.000000
# 6 0.000000 0.000000 0.000000 0.001786 0.000000 0.064394
#
#
# Mechanical properties :
#
#
# Convention : Reuss Voigt Hill
#
# Bulk Modulus (GPa) = 32.25859 43.55982 37.90921
# Shear Modulus (GPa) = 19.19071 23.07355 21.13213
#
# Velocity S-wave (km/s) = 3.30899 3.62833 3.47234
# Velocity P-wave (km/s) = 5.74497 6.51203 6.14049
#
# Compressibility (1/GPa) = 0.03099949
#
# Stress axis : x y z
#
# Youngs Moduli (GPa) = 37.02411 29.65097 62.81246
#
# Poissons Ratio (x) = 0.12448 0.45543
# Poissons Ratio (y) = 0.15543 0.71476
# Poissons Ratio (z) = 0.26845 0.33741
#
# Static dielectric constant tensor:
#      x y z
#    x 3.322190 0.000000 0.190900 
#    y 0.000000 3.076890 0.000000 
#    z 0.190900 0.000000 3.456580 
# 
# 
# High freq. dielectric constant tensor:
#      x y z
#    x 1.662870 0.000000 0.006590 
#    y 0.000000 1.663210 0.000000 
#    z 0.006590 0.000000 1.686900 
# 
# From -- ./inp_files/251203.got.cif
#   From: 2010.06.25/outbox.cif.g09.slc.cpg/sg12_126_cif.got.tgz:251203.got - 2010.06.28 00:19:55.
