data_PCOD8095646
_publ_section_title
;
Structure prediction by ZEFSAII (Michael W. Deem and Ramdas Pophale) SiO2 
 PCOD8095646
Probable space group: C 2/M
;
_chemical_formula_sum "Si O2"
_cell_formula_units_Z 56
_cell_length_a 27.371272
_cell_length_b 8.855318
_cell_length_c 15.956893
_cell_angle_alpha 90.000000
_cell_angle_beta 49.968444
_cell_angle_gamma 90.000000
_cell_volume 2961.424225
_symmetry_space_group_name_H-M "C 2/M"
_symmetry_group_IT_number 12
_symmetry_cell_setting 'monoclinic'
loop_
_space_group_symop_operation_xyz
x,y,z
-x,y,-z
-x,-y,-z
x,-y,z
1/2+x,1/2+y,z
1/2-x,1/2+y,-z
1/2-x,1/2-y,-z
1/2+x,1/2-y,z
loop_
_atom_site_type_symbol
_atom_site_label
_atom_site_fract_x
_atom_site_fract_y
_atom_site_fract_z
Si Si1 0.999476 0.820831 0.625697
Si Si2 0.474276 0.825468 0.826834
Si Si3 0.404980 0.180152 0.601892
Si Si4 0.260214 0.177470 0.744193
Si Si5 0.786550 0.822979 0.384144
Si Si6 0.361467 0.823152 0.065032
Si Si7 0.906201 0.326239 0.195995
O O1 0.994822 0.781211 0.728308
O O2 0.939171 0.747203 0.645631
O O3 0.064400 0.751290 0.515847
O O4 0.999376 0.000000 0.612894
O O5 0.521966 0.801026 0.852189
O O6 0.475042 0.000000 0.796470
O O7 0.404416 0.777200 0.937565
O O8 0.331287 0.229321 0.689837
O O9 0.413185 0.000000 0.589475
O O10 0.245415 0.234706 0.666792
O O11 0.208157 0.246891 0.865374
O O12 0.253317 0.000000 0.757858
O O13 0.750000 0.750000 0.500000
O O14 0.859958 0.771537 0.306200
O O15 0.781845 0.000000 0.398679
O O16 0.398791 0.771652 0.108112
O O17 0.350556 0.000000 0.077980
O O18 0.885832 0.500000 0.227340
#
# Coordination Sequence:
#
# PCOD8095646 Si02
#       7
#     8   8   8   8   8   8   8
#     4  11  23  37  55  84 112 136 175 228 275 318
#     4  10  20  35  56  80 110 146 184 221 265 322
#     4  10  20  39  62  80 104 142 180 218 274 332
#     4   9  20  36  56  78 105 141 178 217 268 324
#     4  10  20  33  48  75 110 142 178 218 262 316
#     4   9  18  34  56  82 109 142 183 224 264 313
#     4   9  18  33  53  77 107 144 183 222 263 310
#
# _framework density 18.909821000000001
#
# number of rings (size 3 to 8) (size 9 to 14) (size 15 to 20)
#    0.000    2.286    0.000    3.429    2.000    4.571 
#    0.000    0.714    0.000    4.286    0.000    0.000 
#    0.000    0.000    0.000    0.000    0.000    0.000 
#
# Total GULP energy -347209.057819 kJ/mol
# GULP energy per Si atom -12400.323494 kJ/mol
# Density = 1.886678 g / cm^3
# Si number density = 18.909821 Si / 1000 Ang^3
#
#
#
# Elastic Constant Matrix: (Units=GPa)
#
#
# Indices 1 2 3 4 5 6 
#
# 1 69.8883 28.9365 45.5388 0.0000 -18.3576 0.0000
# 2 28.9365 68.8310 36.2306 0.0002 -7.1368 -0.0001
# 3 45.5388 36.2306 108.3787 -0.0002 -15.4769 0.0000
# 4 0.0000 0.0002 -0.0002 32.9456 0.0000 -1.9981
# 5 -18.3576 -7.1368 -15.4769 0.0000 32.2893 0.0000
# 6 0.0000 -0.0001 0.0000 -1.9981 0.0000 25.2249
#
#
#
# Elastic Compliance Matrix: (Units=1/GPa)
#
#
# Indices 1 2 3 4 5 6 
#
# 1 0.023189 -0.005302 -0.006716 0.000000 0.008793 0.000000
# 2 -0.005302 0.018883 -0.004207 0.000000 -0.000857 0.000000
# 3 -0.006716 -0.004207 0.013716 0.000000 0.001826 0.000000
# 4 0.000000 0.000000 0.000000 0.030500 0.000000 0.002416
# 5 0.008793 -0.000857 0.001826 0.000000 0.036655 0.000000
# 6 0.000000 0.000000 0.000000 0.002416 0.000000 0.039835
#
#
# Mechanical properties :
#
#
# Convention : Reuss Voigt Hill
#
# Bulk Modulus (GPa) = 42.84747 52.05666 47.45207
# Shear Modulus (GPa) = 24.62968 27.18474 25.90721
#
# Velocity S-wave (km/s) = 3.61291 3.79568 3.70542
# Velocity P-wave (km/s) = 6.33342 6.84093 6.59206
#
# Compressibility (1/GPa) = 0.02333860
#
# Stress axis : x y z
#
# Youngs Moduli (GPa) = 43.12312 52.95783 72.90806
#
# Poissons Ratio (x) = 0.28079 0.48962
# Poissons Ratio (y) = 0.22865 0.30673
# Poissons Ratio (z) = 0.28960 0.22280
#
# Static dielectric constant tensor:
#      x y z
#    x 3.538360 0.000000 -0.301840 
#    y 0.000000 3.663840 0.000000 
#    z -0.301840 0.000000 3.780350 
# 
# 
# High freq. dielectric constant tensor:
#      x y z
#    x 1.720140 0.000000 -0.009750 
#    y 0.000000 1.731320 0.000000 
#    z -0.009750 0.000000 1.740530 
# 
# From -- ./inp_files/295086.got.cif
#   From: 2010.06.25/outbox.cif.g09.slc.cpg/sg12_148_cif.got.tgz:295086.got - 2010.06.28 00:19:55.
