data_PCOD8095004
_publ_section_title
;
Structure prediction by ZEFSAII (Michael W. Deem and Ramdas Pophale) SiO2 
 PCOD8095004
Probable space group: C 2/M
;
_chemical_formula_sum "Si O2"
_cell_formula_units_Z 56
_cell_length_a 19.456121
_cell_length_b 9.473280
_cell_length_c 26.163961
_cell_angle_alpha 90.000000
_cell_angle_beta 137.584370
_cell_angle_gamma 90.000000
_cell_volume 3252.703914
_symmetry_space_group_name_H-M "C 2/M"
_symmetry_group_IT_number 12
_symmetry_cell_setting 'monoclinic'
loop_
_space_group_symop_operation_xyz
x,y,z
-x,y,-z
-x,-y,-z
x,-y,z
1/2+x,1/2+y,z
1/2-x,1/2+y,-z
1/2-x,1/2-y,-z
1/2+x,1/2-y,z
loop_
_atom_site_type_symbol
_atom_site_label
_atom_site_fract_x
_atom_site_fract_y
_atom_site_fract_z
Si Si1 0.033938 0.339406 0.701310
Si Si2 0.412740 0.167008 0.992185
Si Si3 0.841157 0.832569 0.420092
Si Si4 0.615545 0.167485 0.293197
Si Si5 0.288594 0.162034 0.121993
Si Si6 0.947042 0.332433 0.125962
Si Si7 0.011824 0.833283 0.588123
O O1 0.018693 0.500000 0.674829
O O2 0.139046 0.323452 0.789399
O O3 0.034817 0.238817 0.653793
O O4 0.940616 0.290167 0.685543
O O5 0.308543 0.242108 0.919478
O O6 0.394686 0.000000 0.981303
O O7 0.500000 0.211505 0.000000
O O8 0.443745 0.220492 0.065869
O O9 0.728319 0.764587 0.356579
O O10 0.901354 0.781172 0.403259
O O11 0.901908 0.786716 0.504730
O O12 0.834528 0.000000 0.415791
O O13 0.550507 0.226673 0.209193
O O14 0.622135 0.000000 0.292144
O O15 0.347773 0.217968 0.103658
O O16 0.254141 0.000000 0.095502
O O17 0.949319 0.500000 0.130494
O O18 0.016376 0.000000 0.598644
#
# Coordination Sequence:
#
# PCOD8095004 Si02
#       7
#     8   8   8   8   8   8   8
#     4   9  18  31  47  68  90 116 155 194 225 265
#     4  10  20  31  46  73 100 116 143 190 233 267
#     4   8  15  28  45  66  92 123 156 184 219 274
#     4   8  14  27  47  66  87 120 157 188 221 268
#     4   9  18  33  50  65  87 123 159 185 218 272
#     4   8  15  29  47  66  89 119 154 188 224 270
#     4   9  17  29  46  69  95 121 151 188 228 270
#
# _framework density 17.216446999999999
#
# number of rings (size 3 to 8) (size 9 to 14) (size 15 to 20)
#    0.000    3.286    0.000    3.000    0.000    2.571 
#    0.000    4.286    0.000    1.714    0.000    0.000 
#    0.000    0.000    0.000    0.000    0.000    0.000 
#
# Total GULP energy -347042.898042 kJ/mol
# GULP energy per Si atom -12394.389216 kJ/mol
# Density = 1.717726 g / cm^3
# Si number density = 17.216447 Si / 1000 Ang^3
#
#
#
# Elastic Constant Matrix: (Units=GPa)
#
#
# Indices 1 2 3 4 5 6 
#
# 1 118.0106 32.5070 77.0755 0.0000 1.4829 0.0000
# 2 32.5070 27.7395 33.0864 0.0000 -2.2825 0.0000
# 3 77.0755 33.0864 101.2040 0.0000 -0.3375 0.0000
# 4 0.0000 0.0000 0.0000 24.5270 0.0000 -4.6134
# 5 1.4829 -2.2825 -0.3375 0.0000 32.1880 0.0000
# 6 0.0000 0.0000 0.0000 -4.6134 0.0000 18.2316
#
#
#
# Elastic Compliance Matrix: (Units=1/GPa)
#
#
# Indices 1 2 3 4 5 6 
#
# 1 0.017880 -0.007915 -0.011034 0.000000 -0.001501 0.000000
# 2 -0.007915 0.063113 -0.014590 0.000000 0.004687 0.000000
# 3 -0.011034 -0.014590 0.023053 0.000000 -0.000285 0.000000
# 4 0.000000 0.000000 0.000000 0.042809 0.000000 0.010833
# 5 -0.001501 0.004687 -0.000285 0.000000 0.031466 0.000000
# 6 0.000000 0.000000 0.000000 0.010833 0.000000 0.057591
#
#
# Mechanical properties :
#
#
# Convention : Reuss Voigt Hill
#
# Bulk Modulus (GPa) = 27.05059 59.14355 43.09707
# Shear Modulus (GPa) = 15.85731 21.94167 18.89949
#
# Velocity S-wave (km/s) = 3.03818 3.57383 3.31684
# Velocity P-wave (km/s) = 5.29656 7.17337 6.30519
#
# Compressibility (1/GPa) = 0.03696778
#
# Stress axis : x y z
#
# Youngs Moduli (GPa) = 55.92950 15.84472 43.37739
#
# Poissons Ratio (x) = 0.12541 0.47864
# Poissons Ratio (y) = 0.44267 0.63287
# Poissons Ratio (z) = 0.61714 0.23117
#
# Static dielectric constant tensor:
#      x y z
#    x 3.343380 0.000000 0.170780 
#    y 0.000000 2.738560 0.000000 
#    z 0.170780 0.000000 3.556840 
# 
# 
# High freq. dielectric constant tensor:
#      x y z
#    x 1.665720 0.000000 0.001690 
#    y 0.000000 1.615910 0.000000 
#    z 0.001690 0.000000 1.675800 
# 
# From -- ./inp_files/343131.got.cif
#   From: 2010.06.25/outbox.cif.g09.slc.cpg/sg12_172_cif.got.tgz:343131.got - 2010.06.28 00:19:55.
