data_PCOD8095160
_publ_section_title
;
Structure prediction by ZEFSAII (Michael W. Deem and Ramdas Pophale) SiO2 
 PCOD8095160
Probable space group: C 2/M
;
_chemical_formula_sum "Si O2"
_cell_formula_units_Z 64
_cell_length_a 15.484298
_cell_length_b 24.952552
_cell_length_c 15.446431
_cell_angle_alpha 90.000000
_cell_angle_beta 38.251495
_cell_angle_gamma 90.000000
_cell_volume 3694.924532
_symmetry_space_group_name_H-M "C 2/M"
_symmetry_group_IT_number 12
_symmetry_cell_setting 'monoclinic'
loop_
_space_group_symop_operation_xyz
x,y,z
-x,y,-z
-x,-y,-z
x,-y,z
1/2+x,1/2+y,z
1/2-x,1/2+y,-z
1/2-x,1/2-y,-z
1/2+x,1/2-y,z
loop_
_atom_site_type_symbol
_atom_site_label
_atom_site_fract_x
_atom_site_fract_y
_atom_site_fract_z
Si Si1 0.172430 0.768365 0.235357
Si Si2 0.052913 0.345057 0.366468
Si Si3 0.539919 0.440554 0.109124
Si Si4 0.529715 0.656684 0.215898
Si Si5 0.450379 0.266439 0.947594
Si Si6 0.221444 0.671843 0.491762
Si Si7 0.223638 0.060960 0.798686
Si Si8 0.233421 0.725217 0.651346
O O1 0.125907 0.706204 0.262443
O O2 0.071470 0.812087 0.270305
O O3 0.178902 0.785556 0.330792
O O4 0.321146 0.773127 0.069240
O O5 0.152865 0.395742 0.302060
O O6 0.000000 0.324034 0.500000
O O7 0.916145 0.363774 0.419624
O O8 0.527635 0.500000 0.156355
O O9 0.581848 0.403956 0.159512
O O10 0.393463 0.423367 0.179783
O O11 0.661246 0.436986 0.943411
O O12 0.593672 0.686532 0.081928
O O13 0.363412 0.648815 0.341865
O O14 0.573323 0.234857 0.803089
O O15 0.500000 0.291879 0.000000
O O16 0.233472 0.674905 0.586640
O O17 0.195059 0.728063 0.462110
O O18 0.278137 0.000000 0.737888
#
# Coordination Sequence:
#
# PCOD8095160 Si02
#       8
#     8   8   8   8   8   8   8   8
#     4  11  21  31  48  76 101 136 175 212 252 310
#     4  12  21  31  48  73 107 137 171 206 254 312
#     4   9  19  36  55  76  99 130 175 220 264 307
#     4  11  21  31  51  73 101 134 174 211 260 307
#     4   9  19  30  46  69 101 135 165 209 254 305
#     4  10  20  32  46  69 100 142 168 203 251 311
#     4   9  20  36  55  75 100 135 174 216 262 311
#     4   9  18  34  47  65 105 138 172 203 250 304
#
# _framework density 17.321057
#
# number of rings (size 3 to 8) (size 9 to 14) (size 15 to 20)
#    0.000    2.000    1.250    4.875    5.250    1.250 
#    0.000    0.625    0.000    0.000    0.000    2.625 
#    0.000    6.500    0.000    0.000    0.000    0.000 
#
# Total GULP energy -396478.917467 kJ/mol
# GULP energy per Si atom -12389.966171 kJ/mol
# Density = 1.728163 g / cm^3
# Si number density = 17.321057 Si / 1000 Ang^3
#
#
#
# Elastic Constant Matrix: (Units=GPa)
#
#
# Indices 1 2 3 4 5 6 
#
# 1 83.7421 36.7717 31.4762 0.0088 6.0990 -0.0054
# 2 36.7717 80.1912 23.9414 -0.0021 6.0049 -0.0002
# 3 31.4762 23.9414 62.6711 -0.0231 3.1338 0.0081
# 4 0.0088 -0.0021 -0.0231 10.9453 0.0023 -1.2950
# 5 6.0990 6.0049 3.1338 0.0023 29.8469 0.0020
# 6 -0.0054 -0.0002 0.0081 -1.2950 0.0020 25.4398
#
#
#
# Elastic Compliance Matrix: (Units=1/GPa)
#
#
# Indices 1 2 3 4 5 6 
#
# 1 0.016939 -0.005789 -0.006214 -0.000027 -0.001644 0.000004
# 2 -0.005789 0.016210 -0.003198 0.000001 -0.001743 0.000000
# 3 -0.006214 -0.003198 0.020310 0.000047 -0.000219 -0.000005
# 4 -0.000027 0.000001 0.000047 0.091917 -0.000007 0.004679
# 5 -0.001644 -0.001743 -0.000219 -0.000007 0.034214 -0.000003
# 6 0.000004 0.000000 -0.000005 0.004679 -0.000003 0.039547
#
#
# Mechanical properties :
#
#
# Convention : Reuss Voigt Hill
#
# Bulk Modulus (GPa) = 43.37010 45.66477 44.51743
# Shear Modulus (GPa) = 19.43840 22.20742 20.82291
#
# Velocity S-wave (km/s) = 3.35362 3.58453 3.47100
# Velocity P-wave (km/s) = 6.33159 6.59946 6.46691
#
# Compressibility (1/GPa) = 0.02305736
#
# Stress axis : x y z
#
# Youngs Moduli (GPa) = 59.03644 61.69047 49.23755
#
# Poissons Ratio (x) = 0.35713 0.30595
# Poissons Ratio (y) = 0.34176 0.15745
# Poissons Ratio (z) = 0.36683 0.19728
#
# Static dielectric constant tensor:
#      x y z
#    x 3.292330 -0.000010 -0.072390 
#    y -0.000010 2.953270 0.000010 
#    z -0.072390 0.000010 3.378530 
# 
# 
# High freq. dielectric constant tensor:
#      x y z
#    x 1.657050 0.000000 -0.004070 
#    y 0.000000 1.620530 0.000000 
#    z -0.004070 0.000000 1.684860 
# 
# From -- ./inp_files/218918.got.cif
#   From: 2010.06.25/outbox.cif.g09.slc.cpg/sg12_110_cif.got.tgz:218918.got - 2010.06.28 00:19:55.
