data_PCOD8095445
_publ_section_title
;
Structure prediction by ZEFSAII (Michael W. Deem and Ramdas Pophale) SiO2 
 PCOD8095445
Probable space group: C 2/M
;
_chemical_formula_sum "Si O2"
_cell_formula_units_Z 24
_cell_length_a 20.913221
_cell_length_b 9.292961
_cell_length_c 10.436527
_cell_angle_alpha 90.000000
_cell_angle_beta 130.926211
_cell_angle_gamma 90.000000
_cell_volume 1532.485857
_symmetry_space_group_name_H-M "C 2/M"
_symmetry_group_IT_number 12
_symmetry_cell_setting 'monoclinic'
loop_
_space_group_symop_operation_xyz
x,y,z
-x,y,-z
-x,-y,-z
x,-y,z
1/2+x,1/2+y,z
1/2-x,1/2+y,-z
1/2-x,1/2-y,-z
1/2+x,1/2-y,z
loop_
_atom_site_type_symbol
_atom_site_label
_atom_site_fract_x
_atom_site_fract_y
_atom_site_fract_z
Si Si1 0.268832 0.840577 0.649968
Si Si2 0.054570 0.000000 0.765161
Si Si3 0.370009 0.500000 0.405435
Si Si4 0.084040 0.159652 0.044937
O O1 0.250000 0.750000 0.500000
O O2 0.337718 0.763486 0.828597
O O3 0.302202 0.000000 0.654304
O O4 0.182551 0.857737 0.620154
O O5 0.120253 0.000000 0.734648
O O6 0.070293 0.857739 0.873350
O O7 0.959314 0.000000 0.591929
O O8 0.101242 0.000000 0.128823
O O9 0.000000 0.225858 0.000000
#
# Coordination Sequence:
#
# PCOD8095445 Si02
#       4
#     8   4   4   8
#     4  10  20  32  51  78 103 129 174 213 250 297
#     4   9  17  34  54  70 106 134 170 205 248 314
#     4   9  20  32  51  78  97 140 170 203 257 300
#     4   9  18  32  55  75 101 135 166 207 253 298
#
# _framework density 15.660830000000001
#
# number of rings (size 3 to 8) (size 9 to 14) (size 15 to 20)
#    2.000    0.667    0.000    3.000    0.000    2.000 
#    0.000    0.000    0.000    0.000    0.000    9.333 
#    0.000    0.000    0.000    0.000    0.000    0.000 
#
# Total GULP energy -148667.879734 kJ/mol
# GULP energy per Si atom -12388.989978 kJ/mol
# Density = 1.562519 g / cm^3
# Si number density = 15.660830 Si / 1000 Ang^3
#
#
#
# Elastic Constant Matrix: (Units=GPa)
#
#
# Indices 1 2 3 4 5 6 
#
# 1 146.5781 40.8909 70.8046 0.0000 -6.8275 0.0000
# 2 40.8909 74.5646 50.5329 0.0000 2.0518 0.0000
# 3 70.8046 50.5329 116.2434 0.0000 -5.5499 0.0000
# 4 0.0000 0.0000 0.0000 40.7340 0.0000 7.0734
# 5 -6.8275 2.0518 -5.5499 0.0000 29.9718 0.0000
# 6 0.0000 0.0000 0.0000 7.0734 0.0000 10.2619
#
#
#
# Elastic Compliance Matrix: (Units=1/GPa)
#
#
# Indices 1 2 3 4 5 6 
#
# 1 0.009913 -0.002029 -0.005087 0.000000 0.001455 0.000000
# 2 -0.002029 0.019673 -0.007469 0.000000 -0.003192 0.000000
# 3 -0.005087 -0.007469 0.015050 0.000000 0.002139 0.000000
# 4 0.000000 0.000000 0.000000 0.027888 0.000000 -0.019223
# 5 0.001455 -0.003192 0.002139 0.000000 0.034311 0.000000
# 6 0.000000 0.000000 0.000000 -0.019223 0.000000 0.110698
#
#
# Mechanical properties :
#
#
# Convention : Reuss Voigt Hill
#
# Bulk Modulus (GPa) = 64.65211 73.53809 69.09510
# Shear Modulus (GPa) = 19.85246 27.87074 23.86160
#
# Velocity S-wave (km/s) = 3.56427 4.22316 3.90763
# Velocity P-wave (km/s) = 7.63616 8.41658 8.03585
#
# Compressibility (1/GPa) = 0.01546740
#
# Stress axis : x y z
#
# Youngs Moduli (GPa) = 100.87493 50.82994 66.44578
#
# Poissons Ratio (x) = 0.10314 0.33798
# Poissons Ratio (y) = 0.20470 0.49627
# Poissons Ratio (z) = 0.51311 0.37964
#
# Static dielectric constant tensor:
#      x y z
#    x 2.961080 0.000000 -0.014290 
#    y 0.000000 2.758990 0.000000 
#    z -0.014290 0.000000 2.922740 
# 
# 
# High freq. dielectric constant tensor:
#      x y z
#    x 1.597260 0.000000 0.001860 
#    y 0.000000 1.572870 0.000000 
#    z 0.001860 0.000000 1.608780 
# 
# From -- ./inp_files/150670.got.cif
#   From: 2010.06.25/outbox.cif.g09.slc.cpg/sg12_76_cif.got.tgz:150670.got - 2010.06.28 00:19:55.
