data_PCOD8095948
_publ_section_title
;
Structure prediction by ZEFSAII (Michael W. Deem and Ramdas Pophale) SiO2 
 PCOD8095948
Probable space group: C 2/M
;
_chemical_formula_sum "Si O2"
_cell_formula_units_Z 64
_cell_length_a 18.572363
_cell_length_b 9.289366
_cell_length_c 23.469384
_cell_angle_alpha 90.000000
_cell_angle_beta 121.730881
_cell_angle_gamma 90.000000
_cell_volume 3443.843652
_symmetry_space_group_name_H-M "C 2/M"
_symmetry_group_IT_number 12
_symmetry_cell_setting 'monoclinic'
loop_
_space_group_symop_operation_xyz
x,y,z
-x,y,-z
-x,-y,-z
x,-y,z
1/2+x,1/2+y,z
1/2-x,1/2+y,-z
1/2-x,1/2-y,-z
1/2+x,1/2-y,z
loop_
_atom_site_type_symbol
_atom_site_label
_atom_site_fract_x
_atom_site_fract_y
_atom_site_fract_z
Si Si1 0.674204 0.659505 0.035304
Si Si2 0.600063 0.666249 0.799531
Si Si3 0.619868 0.831924 0.451606
Si Si4 0.036815 0.163142 0.654402
Si Si5 0.261870 0.668477 0.822076
Si Si6 0.238564 0.833573 0.579331
Si Si7 0.129309 0.337841 0.915737
Si Si8 0.229119 0.166348 0.704714
O O1 0.640988 0.500000 0.006674
O O2 0.664408 0.689699 0.099311
O O3 0.773468 0.669866 0.062447
O O4 0.619950 0.770785 0.975153
O O5 0.619039 0.500000 0.822036
O O6 0.529867 0.680034 0.720511
O O7 0.682981 0.738518 0.808986
O O8 0.573246 0.748146 0.846603
O O9 0.526828 0.770782 0.402644
O O10 0.677001 0.795691 0.420435
O O11 0.660005 0.759627 0.524164
O O12 0.612509 0.000000 0.460214
O O13 0.130097 0.202263 0.670868
O O14 0.013583 0.000000 0.627530
O O15 0.237973 0.500000 0.807238
O O16 0.286653 0.733802 0.770645
O O17 0.256914 0.794887 0.652398
O O18 0.213246 0.000000 0.561764
O O19 0.094810 0.500000 0.903119
O O20 0.246787 0.000000 0.726903
#
# Coordination Sequence:
#
# PCOD8095948 Si02
#       8
#     8   8   8   8   8   8   8   8
#     4   8  14  22  31  47  75 111 145 176 216 266
#     4   9  16  26  39  55  80 116 151 180 219 269
#     4  10  20  33  51  72  92 117 148 186 227 263
#     4   9  18  31  47  67  91 121 152 183 223 270
#     4   9  16  25  38  58  84 112 144 185 227 262
#     4   9  19  36  53  68  90 120 152 183 220 269
#     4   9  15  21  32  51  75 107 147 188 223 255
#     4   9  18  32  49  67  89 121 155 184 220 269
#
# _framework density 18.583887000000001
#
# number of rings (size 3 to 8) (size 9 to 14) (size 15 to 20)
#    0.000    3.000    0.000    3.000    0.000    7.500 
#    0.000    2.500    0.000    0.000    0.000    0.000 
#    0.000    1.000    0.000   11.250    0.000   14.000 
#
# Total GULP energy -396598.344793 kJ/mol
# GULP energy per Si atom -12393.698275 kJ/mol
# Density = 1.854159 g / cm^3
# Si number density = 18.583887 Si / 1000 Ang^3
#
#
#
# Elastic Constant Matrix: (Units=GPa)
#
#
# Indices 1 2 3 4 5 6 
#
# 1 16.7708 8.5844 11.4696 0.0000 -11.3598 0.0000
# 2 8.5844 99.3270 37.7115 0.0000 -16.5932 0.0000
# 3 11.4696 37.7115 68.5106 0.0000 -32.8170 0.0000
# 4 0.0000 0.0000 0.0000 40.2054 0.0000 -3.8014
# 5 -11.3598 -16.5932 -32.8170 0.0000 19.5865 0.0000
# 6 0.0000 0.0000 0.0000 -3.8014 0.0000 13.7400
#
#
#
# Elastic Compliance Matrix: (Units=1/GPa)
#
#
# Indices 1 2 3 4 5 6 
#
# 1 0.175655 -0.010138 0.105651 0.000000 0.270306 0.000000
# 2 -0.010138 0.013404 -0.015489 0.000000 -0.020476 0.000000
# 3 0.105651 -0.015489 0.144359 0.000000 0.290025 0.000000
# 4 0.000000 0.000000 0.000000 0.025540 0.000000 0.007066
# 5 0.270306 -0.020476 0.290025 0.000000 0.676416 0.000000
# 6 0.000000 0.000000 0.000000 0.007066 0.000000 0.074735
#
#
# Mechanical properties :
#
#
# Convention : Reuss Voigt Hill
#
# Bulk Modulus (GPa) = 2.02648 33.34883 17.68766
# Shear Modulus (GPa) = 4.48612 23.16255 13.82434
#
# Velocity S-wave (km/s) = 1.55539 3.53424 2.73039
# Velocity P-wave (km/s) = 2.07809 5.88544 4.41344
#
# Compressibility (1/GPa) = 0.49346628
#
# Stress axis : x y z
#
# Youngs Moduli (GPa) = 5.69299 74.60431 6.92720
#
# Poissons Ratio (x) = 0.75630 -0.73187
# Poissons Ratio (y) = 0.05771 0.10730
# Poissons Ratio (z) = -0.60147 1.15556
#
# Static dielectric constant tensor:
#      x y z
#    x 2.835610 0.000000 -0.378340 
#    y 0.000000 3.535400 0.000000 
#    z -0.378340 0.000000 3.919850 
# 
# 
# High freq. dielectric constant tensor:
#      x y z
#    x 1.649480 0.000000 -0.024550 
#    y 0.000000 1.730270 0.000000 
#    z -0.024550 0.000000 1.734170 
# 
# From -- ./inp_files/345617.got.cif
#   From: 2010.06.25/outbox.cif.g09.slc.cpg/sg12_173_cif.got.tgz:345617.got - 2010.06.28 00:19:55.
