data_PCOD8095046
_publ_section_title
;
Structure prediction by ZEFSAII (Michael W. Deem and Ramdas Pophale) SiO2 
 PCOD8095046
Probable space group: C 2/M
;
_chemical_formula_sum "Si O2"
_cell_formula_units_Z 56
_cell_length_a 19.422656
_cell_length_b 20.022168
_cell_length_c 8.649734
_cell_angle_alpha 90.000000
_cell_angle_beta 96.784670
_cell_angle_gamma 90.000000
_cell_volume 3340.184641
_symmetry_space_group_name_H-M "C 2/M"
_symmetry_group_IT_number 12
_symmetry_cell_setting 'monoclinic'
loop_
_space_group_symop_operation_xyz
x,y,z
-x,y,-z
-x,-y,-z
x,-y,z
1/2+x,1/2+y,z
1/2-x,1/2+y,-z
1/2-x,1/2-y,-z
1/2+x,1/2-y,z
loop_
_atom_site_type_symbol
_atom_site_label
_atom_site_fract_x
_atom_site_fract_y
_atom_site_fract_z
Si Si1 0.753572 0.340340 0.131153
Si Si2 0.811378 0.223966 0.617364
Si Si3 0.097351 0.688891 0.153597
Si Si4 0.141151 0.778613 0.907748
Si Si5 0.973071 0.355139 0.336402
Si Si6 0.927075 0.215157 0.415009
Si Si7 0.126654 0.576903 0.924759
O O1 0.716857 0.337545 0.287846
O O2 0.810048 0.281216 0.138713
O O3 0.795500 0.409063 0.117185
O O4 0.692070 0.334898 0.989053
O O5 0.750000 0.250000 0.500000
O O6 0.836870 0.286102 0.729862
O O7 0.871999 0.194014 0.528976
O O8 0.031237 0.680600 0.245815
O O9 0.087259 0.745816 0.017779
O O10 0.113009 0.617848 0.078347
O O11 0.096362 0.813352 0.758848
O O12 0.926677 0.295289 0.392976
O O13 0.929149 0.406056 0.222887
O O14 0.000000 0.392851 0.500000
O O15 0.000000 0.187445 0.500000
O O16 0.118925 0.500000 0.966325
#
# Coordination Sequence:
#
# PCOD8095046 Si02
#       7
#     8   8   8   8   8   8   8
#     4   9  18  32  48  71  94 130 170 218 258 297
#     4  11  18  29  53  76 101 136 165 206 269 324
#     4  10  20  31  50  71 102 139 176 206 256 305
#     4   9  17  31  47  73  99 130 165 207 265 313
#     4  11  20  33  48  70 106 143 172 215 255 295
#     4  11  19  29  48  80 107 135 154 202 263 322
#     4  11  23  37  51  68  99 144 193 222 240 286
#
# _framework density 16.765540999999999
#
# number of rings (size 3 to 8) (size 9 to 14) (size 15 to 20)
#    0.000    1.714    7.143    1.286    0.000    1.429 
#    0.000    0.000    0.000    0.000    0.000    0.000 
#    0.000    3.429    0.000    0.000    0.000    0.000 
#
# Total GULP energy -346972.054770 kJ/mol
# GULP energy per Si atom -12391.859099 kJ/mol
# Density = 1.672738 g / cm^3
# Si number density = 16.765541 Si / 1000 Ang^3
#
#
#
# Elastic Constant Matrix: (Units=GPa)
#
#
# Indices 1 2 3 4 5 6 
#
# 1 86.3993 8.6952 54.2157 0.0000 3.9421 0.0000
# 2 8.6952 30.8832 12.9508 0.0000 1.0852 0.0000
# 3 54.2157 12.9508 129.0828 0.0000 8.9983 0.0000
# 4 0.0000 0.0000 0.0000 12.8664 0.0000 1.1156
# 5 3.9421 1.0852 8.9983 0.0000 42.2070 0.0000
# 6 0.0000 0.0000 0.0000 1.1156 0.0000 13.8695
#
#
#
# Elastic Compliance Matrix: (Units=1/GPa)
#
#
# Indices 1 2 3 4 5 6 
#
# 1 0.015805 -0.001739 -0.006460 0.000000 -0.000054 0.000000
# 2 -0.001739 0.033994 -0.002670 0.000000 -0.000142 0.000000
# 3 -0.006460 -0.002670 0.010842 0.000000 -0.001640 0.000000
# 4 0.000000 0.000000 0.000000 0.078268 0.000000 -0.006296
# 5 -0.000054 -0.000142 -0.001640 0.000000 0.024051 0.000000
# 6 0.000000 0.000000 0.000000 -0.006296 0.000000 0.072607
#
#
# Mechanical properties :
#
#
# Convention : Reuss Voigt Hill
#
# Bulk Modulus (GPa) = 25.70471 44.23208 34.96840
# Shear Modulus (GPa) = 18.49967 25.15548 21.82758
#
# Velocity S-wave (km/s) = 3.32540 3.87774 3.61214
# Velocity P-wave (km/s) = 5.48722 6.81829 6.18865
#
# Compressibility (1/GPa) = 0.03890338
#
# Stress axis : x y z
#
# Youngs Moduli (GPa) = 63.26949 29.41653 92.22994
#
# Poissons Ratio (x) = 0.05116 0.59582
# Poissons Ratio (y) = 0.11003 0.24628
# Poissons Ratio (z) = 0.40873 0.07855
#
# Static dielectric constant tensor:
#      x y z
#    x 3.404110 0.000000 0.091870 
#    y 0.000000 2.551920 0.000000 
#    z 0.091870 0.000000 3.590490 
# 
# 
# High freq. dielectric constant tensor:
#      x y z
#    x 1.659220 0.000000 0.002930 
#    y 0.000000 1.558410 0.000000 
#    z 0.002930 0.000000 1.673980 
# 
# From -- ./inp_files/76884.got.cif
#   From: 2010.06.25/outbox.cif.g09.slc.cpg/sg12_39_cif.got.tgz:76884.got - 2010.06.28 00:19:55.
