data_PCOD8095896
_publ_section_title
;
Structure prediction by ZEFSAII (Michael W. Deem and Ramdas Pophale) SiO2 
 PCOD8095896
Probable space group: C 2/M
;
_chemical_formula_sum "Si O2"
_cell_formula_units_Z 64
_cell_length_a 19.852608
_cell_length_b 8.959926
_cell_length_c 24.916253
_cell_angle_alpha 90.000000
_cell_angle_beta 126.641214
_cell_angle_gamma 90.000000
_cell_volume 3556.226050
_symmetry_space_group_name_H-M "C 2/M"
_symmetry_group_IT_number 12
_symmetry_cell_setting 'monoclinic'
loop_
_space_group_symop_operation_xyz
x,y,z
-x,y,-z
-x,-y,-z
x,-y,z
1/2+x,1/2+y,z
1/2-x,1/2+y,-z
1/2-x,1/2-y,-z
1/2+x,1/2-y,z
loop_
_atom_site_type_symbol
_atom_site_label
_atom_site_fract_x
_atom_site_fract_y
_atom_site_fract_z
Si Si1 0.120832 0.831752 0.934329
Si Si2 0.979255 0.674503 0.200827
Si Si3 0.821541 0.325522 0.200635
Si Si4 0.345330 0.324184 0.700330
Si Si5 0.230844 0.326440 0.546317
Si Si6 0.595746 0.672070 0.547032
Si Si7 0.206700 0.173986 0.701567
Si Si8 0.718854 0.831824 0.065488
O O1 0.048421 0.739777 0.869811
O O2 0.203718 0.834286 0.938079
O O3 0.089328 0.000000 0.930367
O O4 0.140611 0.751529 0.000246
O O5 0.996613 0.500000 0.202233
O O6 0.908642 0.706589 0.211742
O O7 0.062301 0.757397 0.259457
O O8 0.804869 0.500000 0.199391
O O9 0.827063 0.248264 0.260602
O O10 0.743589 0.256442 0.130920
O O11 0.349119 0.500000 0.712594
O O12 0.302101 0.284613 0.623299
O O13 0.293492 0.249465 0.724091
O O14 0.225531 0.500000 0.533526
O O15 0.250000 0.250000 0.500000
O O16 0.141282 0.270712 0.524268
O O17 0.500000 0.723443 0.500000
O O18 0.605981 0.500000 0.535483
O O19 0.633639 0.702323 0.623672
O O20 0.223796 0.000000 0.719172
O O21 0.691878 0.000000 0.067730
#
# Coordination Sequence:
#
# PCOD8095896 Si02
#       8
#     8   8   8   8   8   8   8   8
#     4   9  16  27  45  70 101 135 169 209 258 305
#     4  10  20  33  51  77 106 136 173 216 258 301
#     4  10  20  33  50  75 106 136 171 215 258 302
#     4  10  21  37  55  75 102 137 174 211 255 307
#     4  10  21  36  55  78 104 135 171 211 255 305
#     4   9  19  36  56  78 104 134 169 210 256 306
#     4  10  20  35  55  76 102 137 173 209 254 308
#     4   9  16  27  45  70 100 133 170 211 256 304
#
# _framework density 17.996606
#
# number of rings (size 3 to 8) (size 9 to 14) (size 15 to 20)
#    0.000    2.375    0.000    2.625    0.000    7.750 
#    0.000    3.750    0.000    0.750    0.000    5.250 
#    0.000    0.000    0.000    0.000    0.000    0.000 
#
# Total GULP energy -396884.885200 kJ/mol
# GULP energy per Si atom -12402.652662 kJ/mol
# Density = 1.795565 g / cm^3
# Si number density = 17.996606 Si / 1000 Ang^3
#
#
#
# Elastic Constant Matrix: (Units=GPa)
#
#
# Indices 1 2 3 4 5 6 
#
# 1 75.7279 55.1266 67.7326 0.0000 0.7852 0.0000
# 2 55.1266 120.9812 66.6153 0.0000 -0.1099 0.0000
# 3 67.7326 66.6153 111.0802 0.0000 0.4516 0.0000
# 4 0.0000 0.0000 0.0000 36.3875 0.0000 -2.1902
# 5 0.7852 -0.1099 0.4516 0.0000 18.9875 0.0000
# 6 0.0000 0.0000 0.0000 -2.1902 0.0000 30.8260
#
#
#
# Elastic Compliance Matrix: (Units=1/GPa)
#
#
# Indices 1 2 3 4 5 6 
#
# 1 0.031434 -0.005632 -0.015786 0.000000 -0.000957 0.000000
# 2 -0.005632 0.013351 -0.004574 0.000000 0.000419 0.000000
# 3 -0.015786 -0.004574 0.021371 0.000000 0.000118 0.000000
# 4 0.000000 0.000000 0.000000 0.027600 0.000000 0.001961
# 5 -0.000957 0.000419 0.000118 0.000000 0.052705 0.000000
# 6 0.000000 0.000000 0.000000 0.001961 0.000000 0.032579
#
#
# Mechanical properties :
#
#
# Convention : Reuss Voigt Hill
#
# Bulk Modulus (GPa) = 70.56282 76.30425 73.43353
# Shear Modulus (GPa) = 21.20890 25.12785 23.16837
#
# Velocity S-wave (km/s) = 3.43665 3.74070 3.59189
# Velocity P-wave (km/s) = 7.41899 7.81975 7.62200
#
# Compressibility (1/GPa) = 0.01417177
#
# Stress axis : x y z
#
# Youngs Moduli (GPa) = 31.81224 74.89991 46.79266
#
# Poissons Ratio (x) = 0.42185 0.73867
# Poissons Ratio (y) = 0.17917 0.21404
# Poissons Ratio (z) = 0.50219 0.34260
#
# Static dielectric constant tensor:
#      x y z
#    x 3.053910 0.000000 0.034100 
#    y 0.000000 3.530760 0.000000 
#    z 0.034100 0.000000 3.411050 
# 
# 
# High freq. dielectric constant tensor:
#      x y z
#    x 1.665750 0.000000 0.000140 
#    y 0.000000 1.715740 0.000000 
#    z 0.000140 0.000000 1.703960 
# 
# From -- ./inp_files/346158.got.cif
#   From: 2010.06.25/outbox.cif.g09.slc.cpg/sg12_174_cif.got.tgz:346158.got - 2010.06.28 00:19:55.
