data_PCOD8095271
_publ_section_title
;
Structure prediction by ZEFSAII (Michael W. Deem and Ramdas Pophale) SiO2 
 PCOD8095271
Probable space group: C 2/M
;
_chemical_formula_sum "Si O2"
_cell_formula_units_Z 56
_cell_length_a 23.644169
_cell_length_b 8.749382
_cell_length_c 18.789855
_cell_angle_alpha 90.000000
_cell_angle_beta 51.760238
_cell_angle_gamma 90.000000
_cell_volume 3053.029413
_symmetry_space_group_name_H-M "C 2/M"
_symmetry_group_IT_number 12
_symmetry_cell_setting 'monoclinic'
loop_
_space_group_symop_operation_xyz
x,y,z
-x,y,-z
-x,-y,-z
x,-y,z
1/2+x,1/2+y,z
1/2-x,1/2+y,-z
1/2-x,1/2-y,-z
1/2+x,1/2-y,z
loop_
_atom_site_type_symbol
_atom_site_label
_atom_site_fract_x
_atom_site_fract_y
_atom_site_fract_z
Si Si1 0.631910 0.820047 0.799644
Si Si2 0.227743 0.676410 0.148039
Si Si3 0.910291 0.180129 0.768414
Si Si4 0.931495 0.679405 0.598538
Si Si5 0.789833 0.177333 0.689315
Si Si6 0.001411 0.179952 0.830734
Si Si7 0.886528 0.176641 0.033302
O O1 0.713669 0.771949 0.713145
O O2 0.579129 0.756225 0.780346
O O3 0.609151 0.758715 0.894493
O O4 0.626187 0.000000 0.807883
O O5 0.214645 0.500000 0.180660
O O6 0.163276 0.734326 0.147018
O O7 0.219692 0.790608 0.220215
O O8 0.308515 0.697501 0.055153
O O9 0.934528 0.235116 0.671683
O O10 0.972785 0.225151 0.775152
O O11 0.896483 0.000000 0.779671
O O12 0.931868 0.500000 0.612326
O O13 0.859614 0.726245 0.609416
O O14 0.000000 0.732627 0.500000
O O15 0.805822 0.000000 0.663315
O O16 0.009517 0.000000 0.832328
O O17 0.946337 0.243543 0.933561
O O18 0.901200 0.000000 0.037724
#
# Coordination Sequence:
#
# PCOD8095271 Si02
#       7
#     8   8   8   8   8   8   8
#     4  10  20  32  48  72  98 127 168 210 241 273
#     4   9  16  28  47  68  93 127 163 200 242 284
#     4  10  20  33  49  71  99 129 161 196 239 292
#     4  10  20  34  55  81 102 120 148 189 237 291
#     4   9  17  30  49  73  99 125 155 194 238 282
#     4  10  21  34  47  66  96 135 171 202 240 284
#     4   9  18  32  48  67  94 130 171 209 243 281
#
# _framework density 18.342437
#
# number of rings (size 3 to 8) (size 9 to 14) (size 15 to 20)
#    0.000    2.429    0.000    4.286    0.000    7.429 
#    0.000    0.000    0.000    0.857    0.000    0.000 
#    0.000    0.000    0.000    0.000    0.000    0.000 
#
# Total GULP energy -346977.699048 kJ/mol
# GULP energy per Si atom -12392.060680 kJ/mol
# Density = 1.830069 g / cm^3
# Si number density = 18.342437 Si / 1000 Ang^3
#
#
#
# Elastic Constant Matrix: (Units=GPa)
#
#
# Indices 1 2 3 4 5 6 
#
# 1 150.4934 43.6710 55.3903 -0.0039 -26.0930 0.0011
# 2 43.6710 45.9121 18.9489 -0.0040 -7.9143 0.0001
# 3 55.3903 18.9489 60.4081 -0.0022 -25.4048 0.0001
# 4 -0.0039 -0.0040 -0.0022 18.2005 0.0010 -6.6608
# 5 -26.0930 -7.9143 -25.4048 0.0010 27.7404 0.0000
# 6 0.0011 0.0001 0.0001 -6.6608 0.0000 29.9825
#
#
#
# Elastic Compliance Matrix: (Units=1/GPa)
#
#
# Indices 1 2 3 4 5 6 
#
# 1 0.012205 -0.008033 -0.007819 0.000000 0.002028 0.000000
# 2 -0.008033 0.030307 -0.002736 0.000005 -0.001415 0.000001
# 3 -0.007819 -0.002736 0.034415 0.000001 0.023383 0.000000
# 4 0.000000 0.000005 0.000001 0.059806 0.000000 0.013286
# 5 0.002028 -0.001415 0.023383 0.000000 0.058967 0.000000
# 6 0.000000 0.000001 0.000000 0.013286 0.000000 0.036305
#
#
# Mechanical properties :
#
#
# Convention : Reuss Voigt Hill
#
# Bulk Modulus (GPa) = 25.15603 54.75933 39.95768
# Shear Modulus (GPa) = 17.70346 24.43823 21.07085
#
# Velocity S-wave (km/s) = 3.11008 3.65407 3.39300
# Velocity P-wave (km/s) = 5.16151 6.90809 6.09766
#
# Compressibility (1/GPa) = 0.03975190
#
# Stress axis : x y z
#
# Youngs Moduli (GPa) = 81.93221 32.99576 29.05686
#
# Poissons Ratio (x) = 0.26505 0.22718
# Poissons Ratio (y) = 0.65815 0.07951
# Poissons Ratio (z) = 0.64060 0.09028
#
# Static dielectric constant tensor:
#      x y z
#    x 3.833270 0.000000 -0.537020 
#    y 0.000000 3.344680 0.000000 
#    z -0.537020 0.000000 3.283050 
# 
# 
# High freq. dielectric constant tensor:
#      x y z
#    x 1.714600 0.000000 -0.034180 
#    y 0.000000 1.716290 0.000000 
#    z -0.034180 0.000000 1.673730 
# 
# From -- ./inp_files/323556.got.cif
#   From: 2010.06.25/outbox.cif.g09.slc.cpg/sg12_162_cif.got.tgz:323556.got - 2010.06.28 00:19:55.
