data_PCOD8095816
_publ_section_title
;
Structure prediction by ZEFSAII (Michael W. Deem and Ramdas Pophale) SiO2 
 PCOD8095816
Probable space group: C 2/M
;
_chemical_formula_sum "Si O2"
_cell_formula_units_Z 64
_cell_length_a 19.344045
_cell_length_b 9.484614
_cell_length_c 18.683466
_cell_angle_alpha 90.000000
_cell_angle_beta 96.407396
_cell_angle_gamma 90.000000
_cell_volume 3406.458337
_symmetry_space_group_name_H-M "C 2/M"
_symmetry_group_IT_number 12
_symmetry_cell_setting 'monoclinic'
loop_
_space_group_symop_operation_xyz
x,y,z
-x,y,-z
-x,-y,-z
x,-y,z
1/2+x,1/2+y,z
1/2-x,1/2+y,-z
1/2-x,1/2-y,-z
1/2+x,1/2-y,z
loop_
_atom_site_type_symbol
_atom_site_label
_atom_site_fract_x
_atom_site_fract_y
_atom_site_fract_z
Si Si1 0.005339 0.840691 0.792102
Si Si2 0.988265 0.341690 0.078363
Si Si3 0.102451 0.664743 0.707413
Si Si4 0.611315 0.340883 0.339553
Si Si5 0.260729 0.332932 0.735121
Si Si6 0.838222 0.657084 0.022144
Si Si7 0.290886 0.333881 0.897587
Si Si8 0.012513 0.336070 0.421059
O O1 0.978232 0.765693 0.861133
O O2 0.070088 0.754316 0.767901
O O3 0.939791 0.839410 0.733230
O O4 0.029768 0.000000 0.810889
O O5 0.019321 0.500000 0.091963
O O6 0.905602 0.341385 0.080095
O O7 0.000000 0.285792 0.000000
O O8 0.098439 0.500000 0.727864
O O9 0.182308 0.713991 0.705299
O O10 0.058224 0.696102 0.630642
O O11 0.619417 0.500000 0.370241
O O12 0.685747 0.280167 0.320346
O O13 0.579988 0.244430 0.398466
O O14 0.264917 0.500000 0.739463
O O15 0.284256 0.275239 0.815803
O O16 0.821941 0.500000 0.992363
O O17 0.849189 0.752752 0.951536
O O18 0.779295 0.710175 0.069354
O O19 0.306282 0.500000 0.900163
O O20 0.031517 0.500000 0.420754
O O21 0.000000 0.283076 0.500000
#
# Coordination Sequence:
#
# PCOD8095816 Si02
#       8
#     8   8   8   8   8   8   8   8
#     4  10  20  33  50  73 101 130 165 213 261 304
#     4  10  21  34  48  66  92 128 170 211 251 302
#     4   9  17  33  57  77  98 135 173 203 241 296
#     4   9  19  34  52  77 106 134 168 207 252 305
#     4   9  17  31  52  75  98 130 172 209 247 299
#     4   9  18  32  45  64  90 119 162 207 249 297
#     4   9  17  29  48  66  87 121 158 202 250 298
#     4   9  18  34  56  81 107 136 170 204 241 292
#
# _framework density 18.787841
#
# number of rings (size 3 to 8) (size 9 to 14) (size 15 to 20)
#    0.000    2.750    0.000    1.125    1.750    3.500 
#    0.000    5.000    0.000    0.000    0.000    0.000 
#    0.000    0.000    0.000    0.000    0.000    0.000 
#
# Total GULP energy -396655.912135 kJ/mol
# GULP energy per Si atom -12395.497254 kJ/mol
# Density = 1.874508 g / cm^3
# Si number density = 18.787841 Si / 1000 Ang^3
#
#
#
# Elastic Constant Matrix: (Units=GPa)
#
#
# Indices 1 2 3 4 5 6 
#
# 1 73.5686 23.7996 23.9370 0.0000 -19.0845 0.0000
# 2 23.7996 65.6357 47.8979 0.0000 -11.6637 0.0000
# 3 23.9370 47.8979 110.4803 0.0000 -20.5003 0.0000
# 4 0.0000 0.0000 0.0000 25.3679 0.0000 -2.7652
# 5 -19.0845 -11.6637 -20.5003 0.0000 24.2157 0.0000
# 6 0.0000 0.0000 0.0000 -2.7652 0.0000 16.9094
#
#
#
# Elastic Compliance Matrix: (Units=1/GPa)
#
#
# Indices 1 2 3 4 5 6 
#
# 1 0.018201 -0.004676 0.000389 0.000000 0.012421 0.000000
# 2 -0.004676 0.023677 -0.009277 0.000000 -0.000134 0.000000
# 3 0.000389 -0.009277 0.014494 0.000000 0.008108 0.000000
# 4 0.000000 0.000000 0.000000 0.040135 0.000000 0.006563
# 5 0.012421 -0.000134 0.008108 0.000000 0.057884 0.000000
# 6 0.000000 0.000000 0.000000 0.006563 0.000000 0.060212
#
#
# Mechanical properties :
#
#
# Convention : Reuss Voigt Hill
#
# Bulk Modulus (GPa) = 34.19599 48.99482 41.59540
# Shear Modulus (GPa) = 19.88236 23.56862 21.72549
#
# Velocity S-wave (km/s) = 3.25662 3.54568 3.40422
# Velocity P-wave (km/s) = 5.69046 6.54958 6.13508
#
# Compressibility (1/GPa) = 0.02924319
#
# Stress axis : x y z
#
# Youngs Moduli (GPa) = 54.94138 42.23494 68.99619
#
# Poissons Ratio (x) = 0.19749 -0.02681
# Poissons Ratio (y) = 0.25691 0.64007
# Poissons Ratio (z) = -0.02135 0.39181
#
# Static dielectric constant tensor:
#      x y z
#    x 3.607100 0.000000 -0.077130 
#    y 0.000000 3.388450 0.000000 
#    z -0.077130 0.000000 3.412680 
# 
# 
# High freq. dielectric constant tensor:
#      x y z
#    x 1.729760 0.000000 -0.008280 
#    y 0.000000 1.709690 0.000000 
#    z -0.008280 0.000000 1.717110 
# 
# From -- ./inp_files/281326.got.cif
#   From: 2010.06.25/outbox.cif.g09.slc.cpg/sg12_141_cif.got.tgz:281326.got - 2010.06.28 00:19:55.
