data_PCOD8095114
_publ_section_title
;
Structure prediction by ZEFSAII (Michael W. Deem and Ramdas Pophale) SiO2 
 PCOD8095114
Probable space group: C 2/M
;
_chemical_formula_sum "Si O2"
_cell_formula_units_Z 56
_cell_length_a 28.062690
_cell_length_b 9.288473
_cell_length_c 28.543079
_cell_angle_alpha 90.000000
_cell_angle_beta 29.311423
_cell_angle_gamma 90.000000
_cell_volume 3642.311542
_symmetry_space_group_name_H-M "C 2/M"
_symmetry_group_IT_number 12
_symmetry_cell_setting 'monoclinic'
loop_
_space_group_symop_operation_xyz
x,y,z
-x,y,-z
-x,-y,-z
x,-y,z
1/2+x,1/2+y,z
1/2-x,1/2+y,-z
1/2-x,1/2-y,-z
1/2+x,1/2-y,z
loop_
_atom_site_type_symbol
_atom_site_label
_atom_site_fract_x
_atom_site_fract_y
_atom_site_fract_z
Si Si1 0.460292 0.330634 0.784044
Si Si2 0.614853 0.162512 0.409163
Si Si3 0.411177 0.664859 0.480039
Si Si4 0.655088 0.668557 0.565212
Si Si5 0.701513 0.666603 0.148885
Si Si6 0.138884 0.834585 0.299891
Si Si7 0.834309 0.331428 0.955125
O O1 0.445219 0.500000 0.805963
O O2 0.569247 0.293672 0.675130
O O3 0.385708 0.270657 0.808461
O O4 0.436226 0.243990 0.853081
O O5 0.500000 0.168736 0.500000
O O6 0.641472 0.241077 0.434867
O O7 0.667521 0.242078 0.320810
O O8 0.653695 0.000000 0.378315
O O9 0.381673 0.500000 0.514021
O O10 0.374329 0.720377 0.461409
O O11 0.526535 0.683245 0.382750
O O12 0.676202 0.500000 0.547174
O O13 0.750000 0.750000 0.500000
O O14 0.675387 0.500000 0.177408
O O15 0.699944 0.729421 0.203118
O O16 0.807273 0.689137 0.033577
O O17 0.164268 0.000000 0.289622
O O18 0.835881 0.500000 0.940801
O O19 0.750000 0.250000 0.000000
#
# Coordination Sequence:
#
# PCOD8095114 Si02
#       7
#     8   8   8   8   8   8   8
#     4   9  16  29  43  56  80 111 142 177 213 247
#     4   9  17  26  36  56  84 107 130 168 212 247
#     4   9  16  28  44  57  74 108 147 174 202 246
#     4  10  20  32  46  63  83 110 147 187 219 249
#     4   8  13  23  40  59  80 107 139 170 199 238
#     4   9  14  24  42  59  77 108 144 168 194 243
#     4   9  16  25  39  59  82 109 140 172 207 249
#
# _framework density 15.374852000000001
#
# number of rings (size 3 to 8) (size 9 to 14) (size 15 to 20)
#    0.000    3.000    1.429    1.714    0.000    2.857 
#    0.000    3.571    0.000    0.000    0.000    0.000 
#    0.000    1.143    0.000   12.857    0.000    6.429 
#
# Total GULP energy -346973.415297 kJ/mol
# GULP energy per Si atom -12391.907689 kJ/mol
# Density = 1.533986 g / cm^3
# Si number density = 15.374852 Si / 1000 Ang^3
#
#
#
# Elastic Constant Matrix: (Units=GPa)
#
#
# Indices 1 2 3 4 5 6 
#
# 1 54.4003 38.0286 48.2825 0.0000 19.9409 0.0001
# 2 38.0286 75.7652 53.7653 0.0043 18.8071 -0.0036
# 3 48.2825 53.7653 110.8739 0.0029 30.3865 -0.0022
# 4 0.0000 0.0043 0.0029 23.9642 -0.0027 3.0924
# 5 19.9409 18.8071 30.3865 -0.0027 28.7514 0.0025
# 6 0.0001 -0.0036 -0.0022 3.0924 0.0025 18.9987
#
#
#
# Elastic Compliance Matrix: (Units=1/GPa)
#
#
# Indices 1 2 3 4 5 6 
#
# 1 0.036279 -0.009854 -0.008292 0.000002 -0.009951 -0.000002
# 2 -0.009854 0.023135 -0.006550 -0.000004 -0.001376 0.000005
# 3 -0.008292 -0.006550 0.018380 -0.000002 -0.009389 0.000003
# 4 0.000002 -0.000004 -0.000002 0.042624 0.000009 -0.006938
# 5 -0.009951 -0.001376 -0.009389 0.000009 0.052506 -0.000010
# 6 -0.000002 0.000005 0.000003 -0.006938 -0.000010 0.053764
#
#
# Mechanical properties :
#
#
# Convention : Reuss Voigt Hill
#
# Bulk Modulus (GPa) = 35.21227 57.91026 46.56126
# Shear Modulus (GPa) = 17.51020 21.07373 19.29197
#
# Velocity S-wave (km/s) = 3.37840 3.70626 3.54612
# Velocity P-wave (km/s) = 6.17821 7.48749 6.86414
#
# Compressibility (1/GPa) = 0.02839919
#
# Stress axis : x y z
#
# Youngs Moduli (GPa) = 27.56445 43.22545 54.40732
#
# Poissons Ratio (x) = 0.42596 0.45116
# Poissons Ratio (y) = 0.27163 0.35637
# Poissons Ratio (z) = 0.22857 0.28313
#
# Static dielectric constant tensor:
#      x y z
#    x 2.736700 0.000000 0.473410 
#    y 0.000000 2.976190 0.000000 
#    z 0.473410 0.000000 3.163440 
# 
# 
# High freq. dielectric constant tensor:
#      x y z
#    x 1.546730 0.000000 0.042870 
#    y 0.000000 1.582280 0.000000 
#    z 0.042870 0.000000 1.578730 
# 
# From -- ./inp_files/247887.got.cif
#   From: 2010.06.25/outbox.cif.g09.slc.cpg/sg12_124_cif.got.tgz:247887.got - 2010.06.28 00:19:55.
