data_PCOD8095088
_publ_section_title
;
Structure prediction by ZEFSAII (Michael W. Deem and Ramdas Pophale) SiO2 
 PCOD8095088
Probable space group: C 2/M
;
_chemical_formula_sum "Si O2"
_cell_formula_units_Z 40
_cell_length_a 30.376039
_cell_length_b 9.572611
_cell_length_c 8.942957
_cell_angle_alpha 90.000000
_cell_angle_beta 61.957513
_cell_angle_gamma 90.000000
_cell_volume 2295.124421
_symmetry_space_group_name_H-M "C 2/M"
_symmetry_group_IT_number 12
_symmetry_cell_setting 'monoclinic'
loop_
_space_group_symop_operation_xyz
x,y,z
-x,y,-z
-x,-y,-z
x,-y,z
1/2+x,1/2+y,z
1/2-x,1/2+y,-z
1/2-x,1/2-y,-z
1/2+x,1/2-y,z
loop_
_atom_site_type_symbol
_atom_site_label
_atom_site_fract_x
_atom_site_fract_y
_atom_site_fract_z
Si Si1 0.938591 0.500000 0.367188
Si Si2 0.877962 0.000000 0.733173
Si Si3 0.055828 0.269088 0.400815
Si Si4 0.199482 0.000000 0.909016
Si Si5 0.134957 0.500000 0.781825
Si Si6 0.781068 0.721895 0.300826
Si Si7 0.227290 0.000000 0.189652
Si Si8 0.051915 0.500000 0.164875
O O1 0.932183 0.361715 0.474839
O O2 0.892027 0.500000 0.332684
O O3 0.993920 0.500000 0.203510
O O4 0.908578 0.861686 0.657003
O O5 0.832247 0.000000 0.688092
O O6 0.856950 0.000000 0.936613
O O7 0.062932 0.361513 0.242031
O O8 0.000000 0.210911 0.500000
O O9 0.206232 0.867979 0.793246
O O10 0.237532 0.000000 0.992265
O O11 0.168511 0.638370 0.741872
O O12 0.090235 0.500000 0.969864
O O13 0.750000 0.750000 0.500000
O O14 0.749469 0.637596 0.229287
#
# Coordination Sequence:
#
# PCOD8095088 Si02
#       8
#     4   4   8   4   4   8   4   4
#     4   9  20  35  56  85 107 147 181 227 269 338
#     4  10  20  31  58  84 109 136 188 218 284 324
#     4   9  18  35  56  81 113 140 178 228 276 324
#     4  10  21  38  60  75 110 142 190 234 270 331
#     4  11  22  34  59  77 113 147 185 221 288 326
#     4  11  23  41  54  82 113 152 184 235 284 328
#     4   9  23  37  58  80 108 141 196 228 268 330
#     4   9  18  37  57  81 111 137 190 227 273 328
#
# _framework density 17.428249999999998
#
# number of rings (size 3 to 8) (size 9 to 14) (size 15 to 20)
#    0.600    1.600    0.000    4.800    2.800    0.000 
#    0.000    0.000    0.000    0.000    0.000    9.800 
#    0.000    0.000    0.000    0.000    0.000    0.000 
#
# Total GULP energy -247900.331424 kJ/mol
# GULP energy per Si atom -12395.016571 kJ/mol
# Density = 1.738858 g / cm^3
# Si number density = 17.428250 Si / 1000 Ang^3
#
#
#
# Elastic Constant Matrix: (Units=GPa)
#
#
# Indices 1 2 3 4 5 6 
#
# 1 139.4214 82.8334 51.2750 0.0000 4.0687 0.0000
# 2 82.8334 157.5513 70.1993 0.0000 -13.7316 0.0000
# 3 51.2750 70.1993 127.0023 0.0000 -5.2106 0.0000
# 4 0.0000 0.0000 0.0000 13.2621 0.0000 -0.9388
# 5 4.0687 -13.7316 -5.2106 0.0000 25.6564 0.0000
# 6 0.0000 0.0000 0.0000 -0.9388 0.0000 24.4556
#
#
#
# Elastic Compliance Matrix: (Units=1/GPa)
#
#
# Indices 1 2 3 4 5 6 
#
# 1 0.011283 -0.005648 -0.001645 0.000000 -0.005146 0.000000
# 2 -0.005648 0.011590 -0.003867 0.000000 0.006313 0.000000
# 3 -0.001645 -0.003867 0.010690 0.000000 0.000362 0.000000
# 4 0.000000 0.000000 0.000000 0.075609 0.000000 0.002903
# 5 -0.005146 0.006313 0.000362 0.000000 0.043245 0.000000
# 6 0.000000 0.000000 0.000000 0.002903 0.000000 0.041002
#
#
# Mechanical properties :
#
#
# Convention : Reuss Voigt Hill
#
# Bulk Modulus (GPa) = 88.93540 92.51003 90.72272
# Shear Modulus (GPa) = 22.78058 27.31930 25.04994
#
# Velocity S-wave (km/s) = 3.61931 3.96350 3.79531
# Velocity P-wave (km/s) = 8.28288 8.61055 8.44830
#
# Compressibility (1/GPa) = 0.01124412
#
# Stress axis : x y z
#
# Youngs Moduli (GPa) = 88.62865 86.28369 93.54427
#
# Poissons Ratio (x) = 0.48731 0.15385
# Poissons Ratio (y) = 0.50056 0.36172
# Poissons Ratio (z) = 0.14577 0.33365
#
# Static dielectric constant tensor:
#      x y z
#    x 3.293290 0.000000 -0.057550 
#    y 0.000000 3.243490 0.000000 
#    z -0.057550 0.000000 3.241610 
# 
# 
# High freq. dielectric constant tensor:
#      x y z
#    x 1.675790 0.000000 -0.005180 
#    y 0.000000 1.681970 0.000000 
#    z -0.005180 0.000000 1.676120 
# 
# From -- ./inp_files/107823.got.cif
#   From: 2010.06.25/outbox.cif.g09.slc.cpg/sg12_54_cif.got.tgz:107823.got - 2010.06.28 00:19:55.
