data_PCOD8095358
_publ_section_title
;
Structure prediction by ZEFSAII (Michael W. Deem and Ramdas Pophale) SiO2 
 PCOD8095358
Probable space group: C 2/M
;
_chemical_formula_sum "Si O2"
_cell_formula_units_Z 64
_cell_length_a 20.271819
_cell_length_b 9.225378
_cell_length_c 23.487429
_cell_angle_alpha 90.000000
_cell_angle_beta 123.295213
_cell_angle_gamma 90.000000
_cell_volume 3671.490379
_symmetry_space_group_name_H-M "C 2/M"
_symmetry_group_IT_number 12
_symmetry_cell_setting 'monoclinic'
loop_
_space_group_symop_operation_xyz
x,y,z
-x,y,-z
-x,-y,-z
x,-y,z
1/2+x,1/2+y,z
1/2-x,1/2+y,-z
1/2-x,1/2-y,-z
1/2+x,1/2-y,z
loop_
_atom_site_type_symbol
_atom_site_label
_atom_site_fract_x
_atom_site_fract_y
_atom_site_fract_z
Si Si1 0.517927 0.828273 0.916875
Si Si2 0.970101 0.334794 0.678682
Si Si3 0.377864 0.171247 0.929625
Si Si4 0.087474 0.672401 0.544447
Si Si5 0.668843 0.170916 0.469383
Si Si6 0.295208 0.670953 0.178740
Si Si7 0.128419 0.334500 0.686665
Si Si8 0.450774 0.328718 0.185965
O O1 0.432354 0.783239 0.901725
O O2 0.533656 0.742893 0.866947
O O3 0.522717 0.000000 0.907794
O O4 0.584236 0.775248 0.993227
O O5 0.965887 0.500000 0.698996
O O6 0.889167 0.287948 0.609959
O O7 0.038601 0.318452 0.664657
O O8 0.984533 0.230205 0.739010
O O9 0.289193 0.233843 0.882012
O O10 0.375434 0.000000 0.930580
O O11 0.080883 0.500000 0.540748
O O12 0.135001 0.730137 0.512851
O O13 0.131577 0.721793 0.623169
O O14 0.000000 0.739914 0.500000
O O15 0.750000 0.250000 0.500000
O O16 0.682012 0.000000 0.478090
O O17 0.292033 0.500000 0.185110
O O18 0.312657 0.737664 0.248572
O O19 0.362878 0.715304 0.165576
O O20 0.156916 0.500000 0.705371
O O21 0.460439 0.500000 0.185523
#
# Coordination Sequence:
#
# PCOD8095358 Si02
#       8
#     8   8   8   8   8   8   8   8
#     4   9  17  33  56  75  94 129 174 204 230 285
#     4   9  17  32  53  72  94 131 173 204 234 288
#     4   8  16  33  55  74  95 130 169 203 238 283
#     4   9  15  29  54  76  93 123 167 210 245 282
#     4  10  20  34  52  74 101 131 163 204 252 295
#     4   9  18  33  50  71 103 133 158 198 251 295
#     4   9  16  29  52  77  96 121 166 211 244 285
#     4  10  20  32  49  75 104 131 158 198 255 299
#
# _framework density 17.431614
#
# number of rings (size 3 to 8) (size 9 to 14) (size 15 to 20)
#    0.000    2.875    1.250    1.125    0.000    1.500 
#    2.250    3.125    0.000    0.750    0.000    0.000 
#    0.000    0.000    0.000    0.000    0.000    0.000 
#
# Total GULP energy -396715.116956 kJ/mol
# GULP energy per Si atom -12397.347405 kJ/mol
# Density = 1.739194 g / cm^3
# Si number density = 17.431614 Si / 1000 Ang^3
#
#
#
# Elastic Constant Matrix: (Units=GPa)
#
#
# Indices 1 2 3 4 5 6 
#
# 1 120.8293 40.7677 95.2457 0.0000 -2.0809 0.0000
# 2 40.7677 42.8081 50.3381 0.0000 -3.8290 0.0000
# 3 95.2457 50.3381 150.0987 0.0000 -5.6277 0.0000
# 4 0.0000 0.0000 0.0000 26.2782 0.0000 0.7167
# 5 -2.0809 -3.8290 -5.6277 0.0000 34.7185 0.0000
# 6 0.0000 0.0000 0.0000 0.7167 0.0000 20.1388
#
#
#
# Elastic Compliance Matrix: (Units=1/GPa)
#
#
# Indices 1 2 3 4 5 6 
#
# 1 0.017467 -0.006028 -0.009103 0.000000 -0.001093 0.000000
# 2 -0.006028 0.040814 -0.009767 0.000000 0.002557 0.000000
# 3 -0.009103 -0.009767 0.015749 0.000000 0.000930 0.000000
# 4 0.000000 0.000000 0.000000 0.038091 0.000000 -0.001356
# 5 -0.001093 0.002557 0.000930 0.000000 0.029170 0.000000
# 6 0.000000 0.000000 0.000000 -0.001356 0.000000 0.049704
#
#
# Mechanical properties :
#
#
# Convention : Reuss Voigt Hill
#
# Bulk Modulus (GPa) = 41.26354 76.27103 58.76729
# Shear Modulus (GPa) = 20.09093 24.71941 22.40517
#
# Velocity S-wave (km/s) = 3.39862 3.76982 3.58902
# Velocity P-wave (km/s) = 6.25491 7.92453 7.13870
#
# Compressibility (1/GPa) = 0.02423447
#
# Stress axis : x y z
#
# Youngs Moduli (GPa) = 57.25187 24.50135 63.49587
#
# Poissons Ratio (x) = 0.14769 0.57801
# Poissons Ratio (y) = 0.34509 0.62016
# Poissons Ratio (z) = 0.52117 0.23930
#
# Static dielectric constant tensor:
#      x y z
#    x 3.331340 0.000000 0.101210 
#    y 0.000000 2.958490 0.000000 
#    z 0.101210 0.000000 3.494660 
# 
# 
# High freq. dielectric constant tensor:
#      x y z
#    x 1.666690 0.000000 -0.001640 
#    y 0.000000 1.644060 0.000000 
#    z -0.001640 0.000000 1.683320 
# 
# From -- ./inp_files/345620.got.cif
#   From: 2010.06.25/outbox.cif.g09.slc.cpg/sg12_173_cif.got.tgz:345620.got - 2010.06.28 00:19:55.
