data_PCOD8095658
_publ_section_title
;
Structure prediction by ZEFSAII (Michael W. Deem and Ramdas Pophale) SiO2 
 PCOD8095658
Probable space group: C 2/M
;
_chemical_formula_sum "Si O2"
_cell_formula_units_Z 56
_cell_length_a 19.132339
_cell_length_b 9.077780
_cell_length_c 23.484330
_cell_angle_alpha 90.000000
_cell_angle_beta 129.449606
_cell_angle_gamma 90.000000
_cell_volume 3149.535796
_symmetry_space_group_name_H-M "C 2/M"
_symmetry_group_IT_number 12
_symmetry_cell_setting 'monoclinic'
loop_
_space_group_symop_operation_xyz
x,y,z
-x,y,-z
-x,-y,-z
x,-y,z
1/2+x,1/2+y,z
1/2-x,1/2+y,-z
1/2-x,1/2-y,-z
1/2+x,1/2-y,z
loop_
_atom_site_type_symbol
_atom_site_label
_atom_site_fract_x
_atom_site_fract_y
_atom_site_fract_z
Si Si1 0.372834 0.337304 0.719984
Si Si2 0.522508 0.835154 0.140452
Si Si3 0.199574 0.665732 0.710658
Si Si4 0.757922 0.675132 0.443587
Si Si5 0.414725 0.334005 0.997449
Si Si6 0.306091 0.166540 0.853555
Si Si7 0.605123 0.330800 0.566786
O O1 0.415838 0.500000 0.738459
O O2 0.450116 0.228530 0.783420
O O3 0.288894 0.340287 0.719136
O O4 0.334639 0.287256 0.638765
O O5 0.608641 0.832378 0.144101
O O6 0.486631 0.000000 0.130687
O O7 0.441670 0.740162 0.071285
O O8 0.164457 0.500000 0.704671
O O9 0.222432 0.745916 0.782036
O O10 0.123324 0.758200 0.637862
O O11 0.771263 0.500000 0.455651
O O12 0.750000 0.750000 0.500000
O O13 0.844069 0.742229 0.456273
O O14 0.382332 0.500000 0.992539
O O15 0.332386 0.244547 0.926424
O O16 0.500000 0.332810 0.000000
O O17 0.275385 0.000000 0.850552
O O18 0.500000 0.320604 0.500000
O O19 0.638902 0.500000 0.585129
#
# Coordination Sequence:
#
# PCOD8095658 Si02
#       7
#     8   8   8   8   8   8   8
#     4   8  15  26  38  54  76 104 137 173 214 260
#     4   9  15  21  31  47  67  95 131 170 209 251
#     4   9  16  26  40  57  78 106 141 178 218 265
#     4  10  20  33  50  70  93 121 154 192 233 278
#     4   9  15  21  29  42  64  95 130 168 208 251
#     4   9  15  22  32  47  69  97 132 172 211 254
#     4  10  20  33  49  69  93 121 154 192 233 276
#
# _framework density 17.780398000000002
#
# number of rings (size 3 to 8) (size 9 to 14) (size 15 to 20)
#    0.000    2.857    0.000    3.429    0.000   10.286 
#    0.000    0.000    0.000    0.000    0.000    0.000 
#    0.000    0.000    0.000    1.286    0.000   18.286 
#
# Total GULP energy -347104.810167 kJ/mol
# GULP energy per Si atom -12396.600363 kJ/mol
# Density = 1.773993 g / cm^3
# Si number density = 17.780398 Si / 1000 Ang^3
#
#
#
# Elastic Constant Matrix: (Units=GPa)
#
#
# Indices 1 2 3 4 5 6 
#
# 1 16.4737 21.4479 23.5638 0.0000 -4.2025 0.0000
# 2 21.4479 173.5306 97.8317 0.0000 -9.2775 0.0000
# 3 23.5638 97.8317 166.4717 0.0000 -16.0174 0.0000
# 4 0.0000 0.0000 0.0000 41.5471 0.0000 -3.0473
# 5 -4.2025 -9.2775 -16.0174 0.0000 13.4749 0.0000
# 6 0.0000 0.0000 0.0000 -3.0473 0.0000 11.0676
#
#
#
# Elastic Compliance Matrix: (Units=1/GPa)
#
#
# Indices 1 2 3 4 5 6 
#
# 1 0.081144 -0.005330 -0.007081 0.000000 0.013220 0.000000
# 2 -0.005330 0.008968 -0.004609 0.000000 -0.000966 0.000000
# 3 -0.007081 -0.004609 0.010388 0.000000 0.006966 0.000000
# 4 0.000000 0.000000 0.000000 0.024565 0.000000 0.006764
# 5 0.013220 -0.000966 0.006966 0.000000 0.085951 0.000000
# 6 0.000000 0.000000 0.000000 0.006764 0.000000 0.092216
#
#
# Mechanical properties :
#
#
# Convention : Reuss Voigt Hill
#
# Bulk Modulus (GPa) = 15.04678 71.35141 43.19910
# Shear Modulus (GPa) = 13.91106 27.46008 20.68557
#
# Velocity S-wave (km/s) = 2.80014 3.93415 3.41455
# Velocity P-wave (km/s) = 4.35148 7.80084 6.31619
#
# Compressibility (1/GPa) = 0.06645939
#
# Stress axis : x y z
#
# Youngs Moduli (GPa) = 12.32380 111.50553 96.26281
#
# Poissons Ratio (x) = 0.59433 0.68168
# Poissons Ratio (y) = 0.06569 0.44367
# Poissons Ratio (z) = 0.08727 0.51392
#
# Static dielectric constant tensor:
#      x y z
#    x 2.461720 0.000000 -0.142770 
#    y 0.000000 3.610370 0.000000 
#    z -0.142770 0.000000 3.629270 
# 
# 
# High freq. dielectric constant tensor:
#      x y z
#    x 1.588370 0.000000 -0.010420 
#    y 0.000000 1.709240 0.000000 
#    z -0.010420 0.000000 1.708780 
# 
# From -- ./inp_files/287018.got.cif
#   From: 2010.06.25/outbox.cif.g09.slc.cpg/sg12_144_cif.got.tgz:287018.got - 2010.06.28 00:19:55.
