data_PCOD8095418
_publ_section_title
;
Structure prediction by ZEFSAII (Michael W. Deem and Ramdas Pophale) SiO2 
 PCOD8095418
Probable space group: C 2/M
;
_chemical_formula_sum "Si O2"
_cell_formula_units_Z 56
_cell_length_a 27.458058
_cell_length_b 27.368428
_cell_length_c 21.115328
_cell_angle_alpha 90.000000
_cell_angle_beta 168.784904
_cell_angle_gamma 90.000000
_cell_volume 3086.178455
_symmetry_space_group_name_H-M "C 2/M"
_symmetry_group_IT_number 12
_symmetry_cell_setting 'monoclinic'
loop_
_space_group_symop_operation_xyz
x,y,z
-x,y,-z
-x,-y,-z
x,-y,z
1/2+x,1/2+y,z
1/2-x,1/2+y,-z
1/2-x,1/2-y,-z
1/2+x,1/2-y,z
loop_
_atom_site_type_symbol
_atom_site_label
_atom_site_fract_x
_atom_site_fract_y
_atom_site_fract_z
Si Si1 0.588685 0.200847 0.786391
Si Si2 0.198622 0.682906 0.204063
Si Si3 0.555497 0.379830 0.736598
Si Si4 0.276298 0.698222 0.568052
Si Si5 0.859112 0.386139 0.696311
Si Si6 0.282160 0.557458 0.172837
Si Si7 0.705767 0.783477 0.714210
O O1 0.460948 0.191158 0.690369
O O2 0.376804 0.206320 0.462792
O O3 0.750000 0.250000 0.000000
O O4 0.741092 0.151184 0.963779
O O5 0.439521 0.664155 0.547938
O O6 0.271425 0.724907 0.247382
O O7 0.000000 0.706178 0.000000
O O8 0.083176 0.636938 0.021733
O O9 0.354350 0.406010 0.527211
O O10 0.671589 0.419819 0.837646
O O11 0.250000 0.750000 0.500000
O O12 0.277365 0.654394 0.519674
O O13 0.529601 0.692407 0.931601
O O14 0.000809 0.428330 0.837505
O O15 0.500000 0.573963 0.500000
O O16 0.287530 0.500000 0.170618
O O17 0.500000 0.804066 0.500000
#
# Coordination Sequence:
#
# PCOD8095418 Si02
#       7
#     8   8   8   8   8   8   8
#     4  12  23  36  54  81 116 158 201 239 286 350
#     4  10  20  32  50  77 114 157 198 234 282 341
#     4  11  22  38  58  83 116 158 198 240 295 350
#     4  12  23  36  54  81 116 158 201 239 286 350
#     4  11  22  38  58  83 116 158 198 240 295 350
#     4  11  24  40  62  89 117 155 203 250 299 353
#     4  12  24  34  50  80 117 158 202 240 280 338
#
# _framework density 18.145419
#
# number of rings (size 3 to 8) (size 9 to 14) (size 15 to 20)
#    0.000    0.714    5.714    3.857    2.000    0.571 
#    0.000    1.429    0.000    0.000    0.000    2.000 
#    0.000    3.429    0.000    0.000    0.000    0.000 
#
# Total GULP energy -347141.617509 kJ/mol
# GULP energy per Si atom -12397.914911 kJ/mol
# Density = 1.810412 g / cm^3
# Si number density = 18.145419 Si / 1000 Ang^3
#
#
#
# Elastic Constant Matrix: (Units=GPa)
#
#
# Indices 1 2 3 4 5 6 
#
# 1 90.4470 28.6185 32.9809 0.0761 16.3657 0.0432
# 2 28.6185 66.2288 30.1637 -0.0111 8.5274 0.0018
# 3 32.9809 30.1637 93.0951 0.1360 4.9961 0.0326
# 4 0.0761 -0.0111 0.1360 15.9955 0.0997 -0.3017
# 5 16.3657 8.5274 4.9961 0.0997 40.6977 0.0294
# 6 0.0432 0.0018 0.0326 -0.3017 0.0294 22.6279
#
#
#
# Elastic Compliance Matrix: (Units=1/GPa)
#
#
# Indices 1 2 3 4 5 6 
#
# 1 0.014455 -0.004037 -0.003570 -0.000013 -0.004528 -0.000016
# 2 -0.004037 0.019219 -0.004699 0.000084 -0.001827 0.000016
# 3 -0.003570 -0.004699 0.013488 -0.000106 0.000765 -0.000015
# 4 -0.000013 0.000084 -0.000106 0.062535 -0.000153 0.000834
# 5 -0.004528 -0.001827 0.000765 -0.000153 0.026682 -0.000029
# 6 -0.000016 0.000016 -0.000015 0.000834 -0.000029 0.044204
#
#
# Mechanical properties :
#
#
# Convention : Reuss Voigt Hill
#
# Bulk Modulus (GPa) = 44.34606 48.14414 46.24510
# Shear Modulus (GPa) = 23.50597 26.39805 24.95201
#
# Velocity S-wave (km/s) = 3.60310 3.81833 3.71228
# Velocity P-wave (km/s) = 6.46545 6.78451 6.62690
#
# Compressibility (1/GPa) = 0.02254992
#
# Stress axis : x y z
#
# Youngs Moduli (GPa) = 69.18155 52.03154 74.13994
#
# Poissons Ratio (x) = 0.21006 0.26466
# Poissons Ratio (y) = 0.27930 0.34838
# Poissons Ratio (z) = 0.24696 0.24450
#
# Static dielectric constant tensor:
#      x y z
#    x 3.256800 -0.003120 -0.009570 
#    y -0.003120 2.939900 -0.001970 
#    z -0.009570 -0.001970 3.413480 
# 
# 
# High freq. dielectric constant tensor:
#      x y z
#    x 1.714040 -0.000010 0.013450 
#    y -0.000010 1.657180 -0.000010 
#    z 0.013450 -0.000010 1.710190 
# 
# From -- ./inp_files/66855.got.cif
#   From: 2010.06.25/outbox.cif.g09.slc.cpg/sg12_34_cif.got.tgz:66855.got - 2010.06.28 00:19:55.
