data_PCOD8095892
_publ_section_title
;
Structure prediction by ZEFSAII (Michael W. Deem and Ramdas Pophale) SiO2 
 PCOD8095892
Probable space group: C 2/M
;
_chemical_formula_sum "Si O2"
_cell_formula_units_Z 64
_cell_length_a 14.164454
_cell_length_b 9.471045
_cell_length_c 29.346592
_cell_angle_alpha 90.000000
_cell_angle_beta 117.632386
_cell_angle_gamma 90.000000
_cell_volume 3487.871605
_symmetry_space_group_name_H-M "C 2/M"
_symmetry_group_IT_number 12
_symmetry_cell_setting 'monoclinic'
loop_
_space_group_symop_operation_xyz
x,y,z
-x,y,-z
-x,-y,-z
x,-y,z
1/2+x,1/2+y,z
1/2-x,1/2+y,-z
1/2-x,1/2-y,-z
1/2+x,1/2-y,z
loop_
_atom_site_type_symbol
_atom_site_label
_atom_site_fract_x
_atom_site_fract_y
_atom_site_fract_z
Si Si1 0.220718 0.165729 0.597327
Si Si2 0.466487 0.664524 0.865445
Si Si3 0.595790 0.343989 0.485680
Si Si4 0.041949 0.165216 0.783457
Si Si5 0.773965 0.334906 0.865145
Si Si6 0.953319 0.340251 0.680935
Si Si7 0.959410 0.337830 0.395340
Si Si8 0.200128 0.163980 0.948086
O O1 0.199241 0.202074 0.538880
O O2 0.339637 0.209495 0.636418
O O3 0.145120 0.254969 0.613272
O O4 0.197930 0.000000 0.600445
O O5 0.440731 0.500000 0.865030
O O6 0.478369 0.705163 0.815082
O O7 0.371476 0.751208 0.865996
O O8 0.575807 0.703036 0.915698
O O9 0.500000 0.349543 0.500000
O O10 0.612192 0.500000 0.467495
O O11 0.567348 0.230599 0.440501
O O12 0.165403 0.210421 0.815334
O O13 0.987913 0.242736 0.729688
O O14 0.034232 0.000000 0.772666
O O15 0.795217 0.500000 0.863286
O O16 0.762787 0.297641 0.915908
O O17 0.947315 0.500000 0.697811
O O18 0.036923 0.327974 0.658453
O O19 0.954282 0.500000 0.410532
O O20 0.213153 0.000000 0.962006
O O21 0.250000 0.250000 0.000000
#
# Coordination Sequence:
#
# PCOD8095892 Si02
#       8
#     8   8   8   8   8   8   8   8
#     4   9  19  36  53  70  98 134 166 198 245 307
#     4   9  19  36  56  78 105 138 176 217 258 299
#     4   8  15  30  51  71  95 130 165 196 240 302
#     4   9  20  38  55  73 101 134 170 214 259 303
#     4   9  19  36  56  78 105 139 177 214 255 304
#     4  10  22  37  52  74 103 132 165 208 257 306
#     4  10  20  33  50  75 103 127 159 207 254 296
#     4   9  19  35  53  78 114 147 175 212 255 299
#
# _framework density 18.349298999999998
#
# number of rings (size 3 to 8) (size 9 to 14) (size 15 to 20)
#    0.000    2.875    0.000    2.625    0.000    7.750 
#    0.000   10.000    0.000    0.000    0.000    0.000 
#    0.000    0.000    0.000    0.000    0.000    0.000 
#
# Total GULP energy -396726.293408 kJ/mol
# GULP energy per Si atom -12397.696669 kJ/mol
# Density = 1.830754 g / cm^3
# Si number density = 18.349299 Si / 1000 Ang^3
#
#
#
# Elastic Constant Matrix: (Units=GPa)
#
#
# Indices 1 2 3 4 5 6 
#
# 1 103.2587 47.3868 38.5345 0.0000 1.1998 0.0000
# 2 47.3868 72.2408 51.5208 0.0000 -1.4940 0.0000
# 3 38.5345 51.5208 116.9652 0.0000 0.0528 0.0000
# 4 0.0000 0.0000 0.0000 40.0434 0.0000 0.2099
# 5 1.1998 -1.4940 0.0528 0.0000 17.3301 0.0000
# 6 0.0000 0.0000 0.0000 0.2099 0.0000 30.6017
#
#
#
# Elastic Compliance Matrix: (Units=1/GPa)
#
#
# Indices 1 2 3 4 5 6 
#
# 1 0.013959 -0.008621 -0.000801 0.000000 -0.001707 0.000000
# 2 -0.008621 0.025561 -0.008420 0.000000 0.002826 0.000000
# 3 -0.000801 -0.008420 0.012523 0.000000 -0.000709 0.000000
# 4 0.000000 0.000000 0.000000 0.024974 0.000000 -0.000171
# 5 -0.001707 0.002826 -0.000709 0.000000 0.058067 0.000000
# 6 0.000000 0.000000 0.000000 -0.000171 0.000000 0.032679
#
#
# Mechanical properties :
#
#
# Convention : Reuss Voigt Hill
#
# Bulk Modulus (GPa) = 61.12781 63.03877 62.08329
# Shear Modulus (GPa) = 23.93491 27.92990 25.93240
#
# Velocity S-wave (km/s) = 3.61557 3.90567 3.76342
# Velocity P-wave (km/s) = 7.12850 7.40057 7.26581
#
# Compressibility (1/GPa) = 0.01635917
#
# Stress axis : x y z
#
# Youngs Moduli (GPa) = 71.63663 39.12193 79.85515
#
# Poissons Ratio (x) = 0.33726 0.06395
# Poissons Ratio (y) = 0.61757 0.67240
# Poissons Ratio (z) = 0.05737 0.32942
#
# Static dielectric constant tensor:
#      x y z
#    x 3.288700 0.000000 0.095380 
#    y 0.000000 3.310660 0.000000 
#    z 0.095380 0.000000 3.445520 
# 
# 
# High freq. dielectric constant tensor:
#      x y z
#    x 1.708870 0.000000 0.003800 
#    y 0.000000 1.709560 0.000000 
#    z 0.003800 0.000000 1.710920 
# 
# From -- ./inp_files/375084.got.cif
#   From: 2010.06.25/outbox.cif.g09.slc.cpg/sg12_188_cif.got.tgz:375084.got - 2010.06.28 00:19:55.
