data_PCOD8095858
_publ_section_title
;
Structure prediction by ZEFSAII (Michael W. Deem and Ramdas Pophale) SiO2 
 PCOD8095858
Probable space group: C 2/M
;
_chemical_formula_sum "Si O2"
_cell_formula_units_Z 48
_cell_length_a 18.424867
_cell_length_b 9.030843
_cell_length_c 16.397244
_cell_angle_alpha 90.000000
_cell_angle_beta 90.775929
_cell_angle_gamma 90.000000
_cell_volume 2728.121367
_symmetry_space_group_name_H-M "C 2/M"
_symmetry_group_IT_number 12
_symmetry_cell_setting 'monoclinic'
loop_
_space_group_symop_operation_xyz
x,y,z
-x,y,-z
-x,-y,-z
x,-y,z
1/2+x,1/2+y,z
1/2-x,1/2+y,-z
1/2-x,1/2-y,-z
1/2+x,1/2-y,z
loop_
_atom_site_type_symbol
_atom_site_label
_atom_site_fract_x
_atom_site_fract_y
_atom_site_fract_z
Si Si1 0.080897 0.673010 0.662587
Si Si2 0.545944 0.667013 0.418917
Si Si3 0.088231 0.826569 0.824344
Si Si4 0.827879 0.325585 0.495722
Si Si5 0.174605 0.172784 0.989043
Si Si6 0.040826 0.175072 0.077459
O O1 0.065695 0.500000 0.667577
O O2 0.115278 0.733376 0.747090
O O3 0.138015 0.709294 0.592112
O O4 0.003301 0.752841 0.649324
O O5 0.500000 0.665009 0.500000
O O6 0.564451 0.500000 0.390519
O O7 0.620543 0.756764 0.433508
O O8 0.137325 0.783682 0.902769
O O9 0.003441 0.779527 0.841690
O O10 0.094695 0.000000 0.804035
O O11 0.820504 0.500000 0.511159
O O12 0.750000 0.250000 0.500000
O O13 0.188604 0.000000 0.991393
O O14 0.250000 0.250000 0.000000
O O15 0.125120 0.221893 0.067193
O O16 0.034863 0.000000 0.069503
O O17 0.000000 0.247205 0.000000
#
# Coordination Sequence:
#
# PCOD8095858 Si02
#       6
#     8   8   8   8   8   8
#     4  10  20  33  50  74 102 129 160 204 252 293
#     4   9  17  31  52  74  95 124 162 199 238 289
#     4   9  17  31  51  71  92 125 167 204 239 285
#     4  10  20  34  52  74 101 132 166 203 245 294
#     4   9  17  30  49  72  97 125 159 199 243 291
#     4   7  12  26  47  67  87 117 158 196 228 271
#
# _framework density 17.594524
#
# number of rings (size 3 to 8) (size 9 to 14) (size 15 to 20)
#    0.000    3.000    0.000    3.500    0.000    4.667 
#    0.000    2.500    0.000    9.000    0.000    0.000 
#    0.000    0.000    0.000    0.000    0.000    0.000 
#
# Total GULP energy -297330.964256 kJ/mol
# GULP energy per Si atom -12388.790177 kJ/mol
# Density = 1.755448 g / cm^3
# Si number density = 17.594524 Si / 1000 Ang^3
#
#
#
# Elastic Constant Matrix: (Units=GPa)
#
#
# Indices 1 2 3 4 5 6 
#
# 1 135.6635 58.4855 42.5771 0.0000 6.6906 0.0000
# 2 58.4855 86.9787 41.5132 0.0000 3.0346 0.0000
# 3 42.5771 41.5132 73.5073 0.0000 -0.2950 0.0000
# 4 0.0000 0.0000 0.0000 26.0819 0.0000 3.9864
# 5 6.6906 3.0346 -0.2950 0.0000 18.0030 0.0000
# 6 0.0000 0.0000 0.0000 3.9864 0.0000 33.1965
#
#
#
# Elastic Compliance Matrix: (Units=1/GPa)
#
#
# Indices 1 2 3 4 5 6 
#
# 1 0.011006 -0.005807 -0.003108 0.000000 -0.003162 0.000000
# 2 -0.005807 0.018945 -0.007341 0.000000 -0.001156 0.000000
# 3 -0.003108 -0.007341 0.019561 0.000000 0.002713 0.000000
# 4 0.000000 0.000000 0.000000 0.039058 0.000000 -0.004690
# 5 -0.003162 -0.001156 0.002713 0.000000 0.056961 0.000000
# 6 0.000000 0.000000 0.000000 -0.004690 0.000000 0.030687
#
#
# Mechanical properties :
#
#
# Convention : Reuss Voigt Hill
#
# Bulk Modulus (GPa) = 58.81971 64.58901 61.70436
# Shear Modulus (GPa) = 23.32132 25.69451 24.50792
#
# Velocity S-wave (km/s) = 3.64467 3.82562 3.73624
# Velocity P-wave (km/s) = 7.15645 7.50355 7.33206
#
# Compressibility (1/GPa) = 0.01700110
#
# Stress axis : x y z
#
# Youngs Moduli (GPa) = 90.85995 52.78320 51.12208
#
# Poissons Ratio (x) = 0.30649 0.15890
# Poissons Ratio (y) = 0.52759 0.37527
# Poissons Ratio (z) = 0.28242 0.38747
#
# Static dielectric constant tensor:
#      x y z
#    x 3.289870 0.000000 -0.080290 
#    y 0.000000 3.157900 0.000000 
#    z -0.080290 0.000000 3.175560 
# 
# 
# High freq. dielectric constant tensor:
#      x y z
#    x 1.676350 0.000000 -0.003830 
#    y 0.000000 1.669800 0.000000 
#    z -0.003830 0.000000 1.660640 
# 
# From -- ./inp_files/273702.got.cif
#   From: 2010.06.25/outbox.cif.g09.slc.cpg/sg12_137_cif.got.tgz:273702.got - 2010.06.28 00:19:55.
