data_PCOD8095919
_publ_section_title
;
Structure prediction by ZEFSAII (Michael W. Deem and Ramdas Pophale) SiO2 
 PCOD8095919
Probable space group: C 2/M
;
_chemical_formula_sum "Si O2"
_cell_formula_units_Z 56
_cell_length_a 27.968960
_cell_length_b 15.235020
_cell_length_c 11.412439
_cell_angle_alpha 90.000000
_cell_angle_beta 39.237676
_cell_angle_gamma 90.000000
_cell_volume 3075.990213
_symmetry_space_group_name_H-M "C 2/M"
_symmetry_group_IT_number 12
_symmetry_cell_setting 'monoclinic'
loop_
_space_group_symop_operation_xyz
x,y,z
-x,y,-z
-x,-y,-z
x,-y,z
1/2+x,1/2+y,z
1/2-x,1/2+y,-z
1/2-x,1/2-y,-z
1/2+x,1/2-y,z
loop_
_atom_site_type_symbol
_atom_site_label
_atom_site_fract_x
_atom_site_fract_y
_atom_site_fract_z
Si Si1 0.849117 0.898639 0.819451
Si Si2 0.394198 0.743778 0.903100
Si Si3 0.461181 0.500000 0.252716
Si Si4 0.674010 0.679667 0.749952
Si Si5 0.617838 0.500000 0.827821
Si Si6 0.945487 0.173183 0.435521
Si Si7 0.189617 0.211002 0.455761
Si Si8 0.714541 0.100628 0.895643
O O1 0.844683 0.836398 0.941835
O O2 0.919436 0.858466 0.612745
O O3 0.770980 0.892572 0.898089
O O4 0.866808 0.000000 0.819990
O O5 0.481187 0.735951 0.697560
O O6 0.387395 0.733888 0.056977
O O7 0.358249 0.838262 0.936857
O O8 0.389133 0.500000 0.301404
O O9 0.459863 0.586038 0.333927
O O10 0.534940 0.500000 0.036266
O O11 0.665772 0.578138 0.790078
O O12 0.758508 0.703407 0.629642
O O13 0.656237 0.692325 0.646954
O O14 0.879547 0.230758 0.500039
O O15 0.241321 0.131823 0.305468
O O16 0.687972 0.000000 0.927633
#
# Coordination Sequence:
#
# PCOD8095919 Si02
#       8
#     8   8   4   8   4   8   8   8
#     4  10  21  34  54  80 108 135 168 212 260 315
#     4  11  22  33  52  81 109 136 168 212 267 311
#     4  11  20  30  48  83 112 138 163 203 264 324
#     4  10  20  33  50  77 107 136 169 209 252 314
#     4  11  20  30  51  78 113 138 167 204 261 324
#     4  11  20  34  53  76 109 137 170 209 257 312
#     4   9  20  35  52  77 101 134 176 213 253 299
#     4   9  20  39  58  73  96 139 185 218 246 300
#
# _framework density 18.20552
#
# number of rings (size 3 to 8) (size 9 to 14) (size 15 to 20)
#    0.000    1.857    3.571    0.857    4.000    1.143 
#    0.000    0.000    1.571    1.714    0.000    3.000 
#    0.000    0.000    0.000    0.000    0.000    0.000 
#
# Total GULP energy -347044.657349 kJ/mol
# GULP energy per Si atom -12394.452048 kJ/mol
# Density = 1.816408 g / cm^3
# Si number density = 18.205520 Si / 1000 Ang^3
#
#
#
# Elastic Constant Matrix: (Units=GPa)
#
#
# Indices 1 2 3 4 5 6 
#
# 1 53.3267 40.9384 19.2742 0.0000 -5.4523 0.0000
# 2 40.9384 103.8777 36.0486 0.0000 -17.6646 0.0000
# 3 19.2742 36.0486 63.7950 0.0000 -7.6742 0.0000
# 4 0.0000 0.0000 0.0000 28.3333 0.0000 -4.6375
# 5 -5.4523 -17.6646 -7.6742 0.0000 30.5943 0.0000
# 6 0.0000 0.0000 0.0000 -4.6375 0.0000 23.3748
#
#
#
# Elastic Compliance Matrix: (Units=1/GPa)
#
#
# Indices 1 2 3 4 5 6 
#
# 1 0.027329 -0.010096 -0.002750 0.000000 -0.001649 0.000000
# 2 -0.010096 0.016630 -0.005576 0.000000 0.006404 0.000000
# 3 -0.002750 -0.005576 0.019808 0.000000 0.001259 0.000000
# 4 0.000000 0.000000 0.000000 0.036479 0.000000 0.007237
# 5 -0.001649 0.006404 0.001259 0.000000 0.036405 0.000000
# 6 0.000000 0.000000 0.000000 0.007237 0.000000 0.044217
#
#
# Mechanical properties :
#
#
# Convention : Reuss Voigt Hill
#
# Bulk Modulus (GPa) = 37.14474 45.94687 41.54580
# Shear Modulus (GPa) = 22.05688 24.77636 23.41662
#
# Velocity S-wave (km/s) = 3.48451 3.69307 3.59031
# Velocity P-wave (km/s) = 6.05280 6.59376 6.32906
#
# Compressibility (1/GPa) = 0.02692172
#
# Stress axis : x y z
#
# Youngs Moduli (GPa) = 36.59177 60.13310 50.48345
#
# Poissons Ratio (x) = 0.60712 0.13883
# Poissons Ratio (y) = 0.36944 0.28151
# Poissons Ratio (z) = 0.10063 0.33532
#
# Static dielectric constant tensor:
#      x y z
#    x 3.449630 0.000000 0.134690 
#    y 0.000000 3.308250 0.000000 
#    z 0.134690 0.000000 3.457770 
# 
# 
# High freq. dielectric constant tensor:
#      x y z
#    x 1.707840 0.000000 0.013620 
#    y 0.000000 1.684940 0.000000 
#    z 0.013620 0.000000 1.703630 
# 
# From -- ./inp_files/183502.got.cif
#   From: 2010.06.25/outbox.cif.g09.slc.cpg/sg12_92_cif.got.tgz:183502.got - 2010.06.28 00:19:55.
