data_PCOD8095091
_publ_section_title
;
Structure prediction by ZEFSAII (Michael W. Deem and Ramdas Pophale) SiO2 
 PCOD8095091
Probable space group: C 2/M
;
_chemical_formula_sum "Si O2"
_cell_formula_units_Z 40
_cell_length_a 19.554494
_cell_length_b 26.500174
_cell_length_c 20.675273
_cell_angle_alpha 90.000000
_cell_angle_beta 166.019684
_cell_angle_gamma 90.000000
_cell_volume 2588.349287
_symmetry_space_group_name_H-M "C 2/M"
_symmetry_group_IT_number 12
_symmetry_cell_setting 'monoclinic'
loop_
_space_group_symop_operation_xyz
x,y,z
-x,y,-z
-x,-y,-z
x,-y,z
1/2+x,1/2+y,z
1/2-x,1/2+y,-z
1/2-x,1/2-y,-z
1/2+x,1/2-y,z
loop_
_atom_site_type_symbol
_atom_site_label
_atom_site_fract_x
_atom_site_fract_y
_atom_site_fract_z
Si Si1 0.693599 0.556065 0.239500
Si Si2 0.470060 0.813210 0.203843
Si Si3 0.007464 0.703176 0.430430
Si Si4 0.947955 0.783428 0.272943
Si Si5 0.583383 0.351771 0.954096
O O1 0.729896 0.500000 0.303650
O O2 0.548981 0.592816 0.158702
O O3 0.000000 0.578118 0.500000
O O4 0.500000 0.552432 0.000000
O O5 0.802287 0.825589 0.500576
O O6 0.475195 0.758854 0.242710
O O7 0.298064 0.852842 0.090430
O O8 0.339089 0.812257 0.010957
O O9 0.938778 0.757256 0.334882
O O10 0.324163 0.686292 0.700507
O O11 0.000000 0.708544 0.500000
O O12 0.762650 0.664304 0.182387
#
# Coordination Sequence:
#
# PCOD8095091 Si02
#       5
#     8   8   8   8   8
#     4  10  20  32  43  55  75 101 127 160 201 235
#     4   9  16  26  40  54  70  95 122 155 187 216
#     4  11  20  27  39  57  77 100 126 158 189 220
#     4   9  16  27  38  53  75  95 120 151 187 222
#     4  11  19  28  42  57  73  95 131 165 189 221
#
# _framework density 15.453865
#
# number of rings (size 3 to 8) (size 9 to 14) (size 15 to 20)
#    0.000    2.000    0.000    9.600    0.000    0.000 
#    0.000    0.000    0.000    0.000    0.000    0.000 
#    0.000    0.000    0.000    0.000    0.000    6.000 
#
# Total GULP energy -247770.415518 kJ/mol
# GULP energy per Si atom -12388.520776 kJ/mol
# Density = 1.541869 g / cm^3
# Si number density = 15.453865 Si / 1000 Ang^3
#
#
#
# Elastic Constant Matrix: (Units=GPa)
#
#
# Indices 1 2 3 4 5 6 
#
# 1 46.9489 35.2300 18.9762 0.1141 -7.5715 0.0925
# 2 35.2300 52.7728 21.2389 -0.0539 6.3475 0.0116
# 3 18.9762 21.2389 97.9513 0.4562 -2.4163 0.2251
# 4 0.1141 -0.0539 0.4562 17.9099 0.0769 6.5475
# 5 -7.5715 6.3475 -2.4163 0.0769 28.5269 0.0499
# 6 0.0925 0.0116 0.2251 6.5475 0.0499 24.4777
#
#
#
# Elastic Compliance Matrix: (Units=1/GPa)
#
#
# Indices 1 2 3 4 5 6 
#
# 1 0.054572 -0.038524 -0.001651 -0.000487 0.022918 -0.000089
# 2 -0.038524 0.048697 -0.003626 0.000558 -0.021369 0.000050
# 3 -0.001651 -0.003626 0.011349 -0.000287 0.001331 -0.000022
# 4 -0.000487 0.000558 -0.000287 0.061900 -0.000416 -0.016552
# 5 0.022918 -0.021369 0.001331 -0.000416 0.046006 -0.000071
# 6 -0.000089 0.000050 -0.000022 -0.016552 -0.000071 0.045282
#
#
# Mechanical properties :
#
#
# Convention : Reuss Voigt Hill
#
# Bulk Modulus (GPa) = 37.01358 38.72924 37.87141
# Shear Modulus (GPa) = 13.72065 22.33144 18.02605
#
# Velocity S-wave (km/s) = 2.98291 3.80549 3.41903
# Velocity P-wave (km/s) = 5.98888 6.66518 6.33606
#
# Compressibility (1/GPa) = 0.02701711
#
# Stress axis : x y z
#
# Youngs Moduli (GPa) = 18.32425 20.53520 88.11012
#
# Poissons Ratio (x) = 0.79110 0.14550
# Poissons Ratio (y) = 0.70592 0.31945
# Poissons Ratio (z) = 0.03026 0.07445
#
# Static dielectric constant tensor:
#      x y z
#    x 2.663350 0.000140 -0.017630 
#    y 0.000140 2.669950 -0.000400 
#    z -0.017630 -0.000400 3.646200 
# 
# 
# High freq. dielectric constant tensor:
#      x y z
#    x 1.555620 -0.000010 -0.004410 
#    y -0.000010 1.525920 -0.000030 
#    z -0.004410 -0.000030 1.636200 
# 
# From -- ./inp_files/350266.got.cif
#   From: 2010.06.25/outbox.cif.g09.slc.cpg/sg12_176_cif.got.tgz:350266.got - 2010.06.28 00:19:55.
