data_PCOD8095576
_publ_section_title
;
Structure prediction by ZEFSAII (Michael W. Deem and Ramdas Pophale) SiO2 
 PCOD8095576
Probable space group: C 2/M
;
_chemical_formula_sum "Si O2"
_cell_formula_units_Z 36
_cell_length_a 11.728352
_cell_length_b 30.293564
_cell_length_c 11.850929
_cell_angle_alpha 90.000000
_cell_angle_beta 154.321962
_cell_angle_gamma 90.000000
_cell_volume 1824.492744
_symmetry_space_group_name_H-M "C 2/M"
_symmetry_group_IT_number 12
_symmetry_cell_setting 'monoclinic'
loop_
_space_group_symop_operation_xyz
x,y,z
-x,y,-z
-x,-y,-z
x,-y,z
1/2+x,1/2+y,z
1/2-x,1/2+y,-z
1/2-x,1/2-y,-z
1/2+x,1/2-y,z
loop_
_atom_site_type_symbol
_atom_site_label
_atom_site_fract_x
_atom_site_fract_y
_atom_site_fract_z
Si Si1 0.500000 0.699179 0.000000
Si Si2 0.618615 0.269679 0.738703
Si Si3 0.706694 0.547645 0.283673
Si Si4 0.788467 0.640299 0.412047
Si Si5 0.922308 0.298755 0.731698
O O1 0.238457 0.729259 0.773525
O O2 0.461391 0.669114 0.853802
O O3 0.358064 0.293127 0.450182
O O4 0.495583 0.248970 0.743886
O O5 0.842864 0.306352 0.968150
O O6 0.639059 0.500000 0.282209
O O7 0.691766 0.590186 0.353409
O O8 0.000000 0.544334 0.500000
O O9 0.500000 0.556592 0.000000
O O10 0.909730 0.660896 0.633151
O O11 0.000000 0.639339 0.500000
#
# Coordination Sequence:
#
# PCOD8095576 Si02
#       5
#     4   8   8   8   8
#     4  12  20  30  45  66  84 118 161 184 208 268
#     4  10  21  32  44  60  87 115 146 192 224 250
#     4   9  18  31  44  62  87 112 143 185 222 251
#     4  11  20  29  46  67  85 118 157 184 205 270
#     4  10  20  33  43  61  88 114 146 189 227 247
#
# _framework density 19.731513
#
# number of rings (size 3 to 8) (size 9 to 14) (size 15 to 20)
#    0.000    1.778    3.333    4.000    0.000    0.000 
#    0.000    0.000    0.000    0.000    0.000    0.000 
#    0.000    0.000    0.000    6.000    0.000    0.000 
#
# Total GULP energy -222984.974029 kJ/mol
# GULP energy per Si atom -12388.054113 kJ/mol
# Density = 1.968660 g / cm^3
# Si number density = 19.731513 Si / 1000 Ang^3
#
#
#
# Elastic Constant Matrix: (Units=GPa)
#
#
# Indices 1 2 3 4 5 6 
#
# 1 31.7564 27.9493 16.9351 0.0000 16.1312 -0.0001
# 2 27.9493 165.4407 55.2986 0.0000 -14.1350 0.0000
# 3 16.9351 55.2986 166.6152 -0.0001 2.7905 0.0000
# 4 0.0000 0.0000 -0.0001 23.2774 -0.0001 -6.9493
# 5 16.1312 -14.1350 2.7905 -0.0001 29.9405 -0.0001
# 6 -0.0001 0.0000 0.0000 -6.9493 -0.0001 16.7893
#
#
#
# Elastic Compliance Matrix: (Units=1/GPa)
#
#
# Indices 1 2 3 4 5 6 
#
# 1 0.066459 -0.014442 -0.001250 0.000000 -0.042508 0.000000
# 2 -0.014442 0.010307 -0.002168 0.000000 0.012849 0.000000
# 3 -0.001250 -0.002168 0.006865 0.000000 -0.000990 0.000000
# 4 0.000000 0.000000 0.000000 0.049017 0.000000 0.020289
# 5 -0.042508 0.012849 -0.000990 0.000000 0.062460 0.000000
# 6 0.000000 0.000000 0.000000 0.020289 0.000000 0.067959
#
#
# Mechanical properties :
#
#
# Convention : Reuss Voigt Hill
#
# Bulk Modulus (GPa) = 20.87175 62.68650 41.77913
# Shear Modulus (GPa) = 15.88526 31.57671 23.73099
#
# Velocity S-wave (km/s) = 2.84045 4.00474 3.47175
# Velocity P-wave (km/s) = 4.62152 7.29538 6.10660
#
# Compressibility (1/GPa) = 0.04791164
#
# Stress axis : x y z
#
# Youngs Moduli (GPa) = 15.04682 97.02500 145.66540
#
# Poissons Ratio (x) = 1.40119 0.18209
# Poissons Ratio (y) = 0.21730 0.31581
# Poissons Ratio (z) = 0.01881 0.21035
#
# Static dielectric constant tensor:
#      x y z
#    x 3.345870 0.000000 0.239160 
#    y 0.000000 4.019400 0.000000 
#    z 0.239160 0.000000 4.270600 
# 
# 
# High freq. dielectric constant tensor:
#      x y z
#    x 1.715620 0.000000 0.014680 
#    y 0.000000 1.731280 0.000000 
#    z 0.014680 0.000000 1.813490 
# 
# From -- ./inp_files/11799.got.cif
#   From: 2010.06.25/outbox.cif.g09.slc.cpg/sg12_6_cif.got.tgz:11799.got - 2010.06.28 00:19:55.
