data_PCOD8095014
_publ_section_title
;
Structure prediction by ZEFSAII (Michael W. Deem and Ramdas Pophale) SiO2 
 PCOD8095014
Probable space group: C 2/M
;
_chemical_formula_sum "Si O2"
_cell_formula_units_Z 48
_cell_length_a 27.606356
_cell_length_b 8.937020
_cell_length_c 11.768068
_cell_angle_alpha 90.000000
_cell_angle_beta 106.198430
_cell_angle_gamma 90.000000
_cell_volume 2788.139593
_symmetry_space_group_name_H-M "C 2/M"
_symmetry_group_IT_number 12
_symmetry_cell_setting 'monoclinic'
loop_
_space_group_symop_operation_xyz
x,y,z
-x,y,-z
-x,-y,-z
x,-y,z
1/2+x,1/2+y,z
1/2-x,1/2+y,-z
1/2-x,1/2-y,-z
1/2+x,1/2-y,z
loop_
_atom_site_type_symbol
_atom_site_label
_atom_site_fract_x
_atom_site_fract_y
_atom_site_fract_z
Si Si1 0.790414 0.167013 0.391774
Si Si2 0.557115 0.321524 0.529987
Si Si3 0.870289 0.672183 0.586875
Si Si4 0.184701 0.673291 0.230545
Si Si5 0.802696 0.178682 0.997084
Si Si6 0.365552 0.333605 0.241197
O O1 0.818175 0.281581 0.492659
O O2 0.733522 0.222010 0.335408
O O3 0.816023 0.165699 0.285725
O O4 0.792532 0.000000 0.446273
O O5 0.500000 0.263469 0.500000
O O6 0.560547 0.500000 0.530757
O O7 0.582256 0.265634 0.429240
O O8 0.588272 0.254834 0.659272
O O9 0.880534 0.500000 0.566258
O O10 0.863575 0.698264 0.718234
O O11 0.189657 0.500000 0.196850
O O12 0.179734 0.775288 0.116702
O O13 0.797473 0.000000 0.002355
O O14 0.750000 0.250000 0.000000
O O15 0.847382 0.239838 0.110505
O O16 0.384524 0.500000 0.226317
#
# Coordination Sequence:
#
# PCOD8095014 Si02
#       6
#     8   8   8   8   8   8
#     4   9  16  30  48  65  97 135 166 201 237 285
#     4   9  18  35  58  76  93 123 161 203 256 309
#     4  10  20  31  47  73 102 127 159 206 254 296
#     4  10  20  33  46  66 101 139 169 201 239 282
#     4  11  20  31  48  70 101 137 171 202 236 287
#     4   8  15  29  48  71  97 124 158 205 244 274
#
# _framework density 17.215782000000001
#
# number of rings (size 3 to 8) (size 9 to 14) (size 15 to 20)
#    0.000    2.500    1.667    2.500    0.000    2.333 
#    0.000    0.833    0.000    1.000    0.000    7.000 
#    0.000    0.000    0.000    0.000    0.000    0.000 
#
# Total GULP energy -297405.561337 kJ/mol
# GULP energy per Si atom -12391.898389 kJ/mol
# Density = 1.717660 g / cm^3
# Si number density = 17.215782 Si / 1000 Ang^3
#
#
#
# Elastic Constant Matrix: (Units=GPa)
#
#
# Indices 1 2 3 4 5 6 
#
# 1 108.4758 26.8082 59.7955 0.0000 4.0947 0.0000
# 2 26.8082 44.1909 34.2199 0.0000 -2.3143 0.0000
# 3 59.7955 34.2199 97.8180 0.0000 -8.8574 0.0000
# 4 0.0000 0.0000 0.0000 26.6576 0.0000 -4.1453
# 5 4.0947 -2.3143 -8.8574 0.0000 17.8762 0.0000
# 6 0.0000 0.0000 0.0000 -4.1453 0.0000 20.9698
#
#
#
# Elastic Compliance Matrix: (Units=1/GPa)
#
#
# Indices 1 2 3 4 5 6 
#
# 1 0.015220 -0.002579 -0.009159 0.000000 -0.008358 0.000000
# 2 -0.002579 0.031509 -0.009447 0.000000 -0.000011 0.000000
# 3 -0.009159 -0.009447 0.020108 0.000000 0.010838 0.000000
# 4 0.000000 0.000000 0.000000 0.038703 0.000000 0.007651
# 5 -0.008358 -0.000011 0.010838 0.000000 0.063223 0.000000
# 6 0.000000 0.000000 0.000000 0.007651 0.000000 0.049200
#
#
# Mechanical properties :
#
#
# Convention : Reuss Voigt Hill
#
# Bulk Modulus (GPa) = 40.87100 54.68133 47.77616
# Shear Modulus (GPa) = 18.62285 21.74479 20.18382
#
# Velocity S-wave (km/s) = 3.29254 3.55783 3.42775
# Velocity P-wave (km/s) = 6.18436 6.97917 6.59375
#
# Compressibility (1/GPa) = 0.02446723
#
# Stress axis : x y z
#
# Youngs Moduli (GPa) = 65.70328 31.73735 49.73151
#
# Poissons Ratio (x) = 0.08184 0.45547
# Poissons Ratio (y) = 0.16943 0.46983
# Poissons Ratio (z) = 0.60175 0.29983
#
# Static dielectric constant tensor:
#      x y z
#    x 3.113440 0.000000 0.017380 
#    y 0.000000 3.055020 0.000000 
#    z 0.017380 0.000000 3.319120 
# 
# 
# High freq. dielectric constant tensor:
#      x y z
#    x 1.639900 0.000000 -0.008780 
#    y 0.000000 1.648940 0.000000 
#    z -0.008780 0.000000 1.661240 
# 
# From -- ./inp_files/172269.got.cif
#   From: 2010.06.25/outbox.cif.g09.slc.cpg/sg12_87_cif.got.tgz:172269.got - 2010.06.28 00:19:55.
