data_PCOD8095638
_publ_section_title
;
Structure prediction by ZEFSAII (Michael W. Deem and Ramdas Pophale) SiO2 
 PCOD8095638
Probable space group: C 2/M
;
_chemical_formula_sum "Si O2"
_cell_formula_units_Z 56
_cell_length_a 10.238862
_cell_length_b 19.711866
_cell_length_c 23.769658
_cell_angle_alpha 90.000000
_cell_angle_beta 139.375483
_cell_angle_gamma 90.000000
_cell_volume 3123.556915
_symmetry_space_group_name_H-M "C 2/M"
_symmetry_group_IT_number 12
_symmetry_cell_setting 'monoclinic'
loop_
_space_group_symop_operation_xyz
x,y,z
-x,y,-z
-x,-y,-z
x,-y,z
1/2+x,1/2+y,z
1/2-x,1/2+y,-z
1/2-x,1/2-y,-z
1/2+x,1/2-y,z
loop_
_atom_site_type_symbol
_atom_site_label
_atom_site_fract_x
_atom_site_fract_y
_atom_site_fract_z
Si Si1 0.447071 0.078200 0.240065
Si Si2 0.894597 0.919700 0.410493
Si Si3 0.963037 0.574494 0.855355
Si Si4 0.537225 0.693243 0.259803
Si Si5 0.397657 0.806009 0.908410
Si Si6 0.504018 0.424077 0.325974
Si Si7 0.733039 0.794124 0.773997
O O1 0.665432 0.104778 0.330857
O O2 0.417850 0.087782 0.163583
O O3 0.284513 0.126146 0.217427
O O4 0.408787 0.000000 0.244994
O O5 0.024887 0.900408 0.397800
O O6 0.000000 0.887262 0.500000
O O7 0.888606 0.000000 0.412924
O O8 0.019279 0.500000 0.897806
O O9 0.018340 0.631287 0.919430
O O10 0.730016 0.577357 0.764386
O O11 0.336005 0.672743 0.158762
O O12 0.617212 0.629329 0.322638
O O13 0.478347 0.755314 0.282580
O O14 0.710198 0.715068 0.272959
O O15 0.405907 0.740943 0.869165
O O16 0.500000 0.785992 0.000000
O O17 0.592096 0.500000 0.345408
#
# Coordination Sequence:
#
# PCOD8095638 Si02
#       7
#     8   8   8   8   8   8   8
#     4   9  17  30  51  73  97 130 164 202 243 290
#     4   8  14  26  50  83 107 126 158 200 245 291
#     4   8  14  28  47  70  95 123 161 199 241 294
#     4   9  20  32  48  72  94 129 166 203 248 286
#     4   9  19  31  48  74  95 125 167 209 259 293
#     4   8  14  26  47  72  99 125 157 196 235 287
#     4  10  20  33  48  72  95 128 169 207 242 298
#
# _framework density 17.928279
#
# number of rings (size 3 to 8) (size 9 to 14) (size 15 to 20)
#    0.857    2.429    0.000    2.571    2.000    1.429 
#    0.000    0.000    0.000    2.143    0.000    4.000 
#    0.000    0.000    0.000    0.000    0.000    0.000 
#
# Total GULP energy -346884.341570 kJ/mol
# GULP energy per Si atom -12388.726485 kJ/mol
# Density = 1.788747 g / cm^3
# Si number density = 17.928279 Si / 1000 Ang^3
#
#
#
# Elastic Constant Matrix: (Units=GPa)
#
#
# Indices 1 2 3 4 5 6 
#
# 1 100.8228 55.4731 22.9239 -0.0001 -29.9351 0.0001
# 2 55.4731 110.8700 32.8946 0.0000 -19.5401 0.0000
# 3 22.9239 32.8946 63.4974 -0.0003 -23.4090 -0.0001
# 4 -0.0001 0.0000 -0.0003 15.8511 -0.0002 -8.6345
# 5 -29.9351 -19.5401 -23.4090 -0.0002 22.2717 0.0000
# 6 0.0001 0.0000 -0.0001 -8.6345 0.0000 30.2984
#
#
#
# Elastic Compliance Matrix: (Units=1/GPa)
#
#
# Indices 1 2 3 4 5 6 
#
# 1 0.021113 -0.007505 0.007020 0.000001 0.029172 0.000000
# 2 -0.007505 0.013804 -0.006034 0.000000 -0.004319 0.000000
# 3 0.007020 -0.006034 0.029170 0.000001 0.034802 0.000000
# 4 0.000001 0.000000 0.000001 0.074680 0.000003 0.021283
# 5 0.029172 -0.004319 0.034802 0.000003 0.116900 0.000001
# 6 0.000000 0.000000 0.000000 0.021283 0.000001 0.039070
#
#
# Mechanical properties :
#
#
# Convention : Reuss Voigt Hill
#
# Bulk Modulus (GPa) = 19.58874 55.30814 37.44844
# Shear Modulus (GPa) = 15.39453 24.61081 20.00267
#
# Velocity S-wave (km/s) = 2.93349 3.70907 3.34384
# Velocity P-wave (km/s) = 4.73537 7.01851 5.98679
#
# Compressibility (1/GPa) = 0.05104974
#
# Stress axis : x y z
#
# Youngs Moduli (GPa) = 47.36432 72.44392 34.28180
#
# Poissons Ratio (x) = 0.54371 -0.24067
# Poissons Ratio (y) = 0.35548 0.20684
# Poissons Ratio (z) = -0.33251 0.43709
#
# Static dielectric constant tensor:
#      x y z
#    x 3.029360 0.000000 -0.293760 
#    y 0.000000 3.424920 0.000000 
#    z -0.293760 0.000000 3.146660 
# 
# 
# High freq. dielectric constant tensor:
#      x y z
#    x 1.666030 0.000000 -0.031720 
#    y 0.000000 1.692920 0.000000 
#    z -0.031720 0.000000 1.650080 
# 
# From -- ./inp_files/336185.got.cif
#   From: 2010.06.25/outbox.cif.g09.slc.cpg/sg12_169_cif.got.tgz:336185.got - 2010.06.28 00:19:55.
