data_PCOD8095258
_publ_section_title
;
Structure prediction by ZEFSAII (Michael W. Deem and Ramdas Pophale) SiO2 
 PCOD8095258
Probable space group: C 2/M
;
_chemical_formula_sum "Si O2"
_cell_formula_units_Z 56
_cell_length_a 18.008211
_cell_length_b 9.386910
_cell_length_c 25.442548
_cell_angle_alpha 90.000000
_cell_angle_beta 135.544424
_cell_angle_gamma 90.000000
_cell_volume 3012.123016
_symmetry_space_group_name_H-M "C 2/M"
_symmetry_group_IT_number 12
_symmetry_cell_setting 'monoclinic'
loop_
_space_group_symop_operation_xyz
x,y,z
-x,y,-z
-x,-y,-z
x,-y,z
1/2+x,1/2+y,z
1/2-x,1/2+y,-z
1/2-x,1/2-y,-z
1/2+x,1/2-y,z
loop_
_atom_site_type_symbol
_atom_site_label
_atom_site_fract_x
_atom_site_fract_y
_atom_site_fract_z
Si Si1 0.397103 0.833785 0.733476
Si Si2 0.812225 0.165259 0.987177
Si Si3 0.034723 0.665238 0.701453
Si Si4 0.448078 0.335022 0.862045
Si Si5 0.481282 0.668506 0.574778
Si Si6 0.766905 0.831069 0.848295
Si Si7 0.335110 0.668547 0.408882
O O1 0.477608 0.805367 0.727275
O O2 0.442963 0.752410 0.806165
O O3 0.282232 0.769906 0.659507
O O4 0.388596 0.000000 0.743082
O O5 0.778785 0.228019 0.913502
O O6 0.781082 0.000000 0.977211
O O7 0.750000 0.250000 0.000000
O O8 0.937584 0.187541 0.054835
O O9 0.030207 0.500000 0.683732
O O10 0.973190 0.753048 0.626084
O O11 0.155444 0.719845 0.767639
O O12 0.425918 0.500000 0.838148
O O13 0.361144 0.273683 0.858900
O O14 0.479118 0.500000 0.583101
O O15 0.382523 0.719906 0.488798
O O16 0.589607 0.717475 0.600799
O O17 0.773049 0.000000 0.854783
O O18 0.332804 0.500000 0.409494
#
# Coordination Sequence:
#
# PCOD8095258 Si02
#       7
#     8   8   8   8   8   8   8
#     4  10  20  34  51  72 102 135 163 198 250 302
#     4  10  20  35  55  77 102 132 164 200 244 291
#     4  10  20  32  48  72 101 131 162 199 248 300
#     4  10  20  34  54  77  98 126 169 210 239 281
#     4   9  17  32  53  72  94 128 169 208 243 286
#     4   9  18  34  53  72  99 134 166 198 243 296
#     4   8  16  32  52  72  95 129 169 203 242 295
#
# _framework density 18.591536999999999
#
# number of rings (size 3 to 8) (size 9 to 14) (size 15 to 20)
#    0.000    2.571    0.000    3.000    0.000    4.571 
#    0.000    3.571    0.000    1.714    0.000    0.000 
#    0.000    0.000    0.000    0.000    0.000    0.000 
#
# Total GULP energy -347209.542071 kJ/mol
# GULP energy per Si atom -12400.340788 kJ/mol
# Density = 1.854922 g / cm^3
# Si number density = 18.591537 Si / 1000 Ang^3
#
#
#
# Elastic Constant Matrix: (Units=GPa)
#
#
# Indices 1 2 3 4 5 6 
#
# 1 67.2851 26.6705 15.2079 0.0000 -8.5176 0.0000
# 2 26.6705 37.9208 30.6165 0.0000 -13.3585 0.0000
# 3 15.2079 30.6165 88.7090 0.0000 -20.7812 0.0000
# 4 0.0000 0.0000 0.0000 26.1683 0.0000 0.3134
# 5 -8.5176 -13.3585 -20.7812 0.0000 35.5242 0.0000
# 6 0.0000 0.0000 0.0000 0.3134 0.0000 16.3436
#
#
#
# Elastic Compliance Matrix: (Units=1/GPa)
#
#
# Indices 1 2 3 4 5 6 
#
# 1 0.020876 -0.016331 0.002076 0.000000 0.000079 0.000000
# 2 -0.016331 0.051081 -0.013034 0.000000 0.007668 0.000000
# 3 0.002076 -0.013034 0.016668 0.000000 0.005347 0.000000
# 4 0.000000 0.000000 0.000000 0.038223 0.000000 -0.000733
# 5 0.000079 0.007668 0.005347 0.000000 0.034180 0.000000
# 6 0.000000 0.000000 0.000000 -0.000733 0.000000 0.061200
#
#
# Mechanical properties :
#
#
# Convention : Reuss Voigt Hill
#
# Bulk Modulus (GPa) = 29.37056 37.65607 33.51332
# Shear Modulus (GPa) = 17.35178 23.70191 20.52684
#
# Velocity S-wave (km/s) = 3.05834 3.57441 3.32640
# Velocity P-wave (km/s) = 5.32009 6.11013 5.72874
#
# Compressibility (1/GPa) = 0.03404770
#
# Stress axis : x y z
#
# Youngs Moduli (GPa) = 47.90159 19.57673 59.99557
#
# Poissons Ratio (x) = 0.31971 -0.12454
# Poissons Ratio (y) = 0.78228 0.78196
# Poissons Ratio (z) = -0.09944 0.25516
#
# Static dielectric constant tensor:
#      x y z
#    x 3.557380 0.000000 0.166460 
#    y 0.000000 3.061940 0.000000 
#    z 0.166460 0.000000 3.645230 
# 
# 
# High freq. dielectric constant tensor:
#      x y z
#    x 1.729890 0.000000 0.002500 
#    y 0.000000 1.682110 0.000000 
#    z 0.002500 0.000000 1.737340 
# 
# From -- ./inp_files/342562.got.cif
#   From: 2010.06.25/outbox.cif.g09.slc.cpg/sg12_172_cif.got.tgz:342562.got - 2010.06.28 00:19:55.
