data_PCOD8095739
_publ_section_title
;
Structure prediction by ZEFSAII (Michael W. Deem and Ramdas Pophale) SiO2 
 PCOD8095739
Probable space group: C 2/M
;
_chemical_formula_sum "Si O2"
_cell_formula_units_Z 64
_cell_length_a 28.655422
_cell_length_b 9.161274
_cell_length_c 13.756464
_cell_angle_alpha 90.000000
_cell_angle_beta 103.540391
_cell_angle_gamma 90.000000
_cell_volume 3510.972246
_symmetry_space_group_name_H-M "C 2/M"
_symmetry_group_IT_number 12
_symmetry_cell_setting 'monoclinic'
loop_
_space_group_symop_operation_xyz
x,y,z
-x,y,-z
-x,-y,-z
x,-y,z
1/2+x,1/2+y,z
1/2-x,1/2+y,-z
1/2-x,1/2-y,-z
1/2+x,1/2-y,z
loop_
_atom_site_type_symbol
_atom_site_label
_atom_site_fract_x
_atom_site_fract_y
_atom_site_fract_z
Si Si1 0.296061 0.169185 0.312798
Si Si2 0.520221 0.332915 0.206902
Si Si3 0.798311 0.665502 0.524962
Si Si4 0.565363 0.829707 0.924099
Si Si5 0.108966 0.331488 0.740605
Si Si6 0.110244 0.830797 0.127613
Si Si7 0.304737 0.828422 0.737768
Si Si8 0.977944 0.170559 0.389376
O O1 0.322680 0.193795 0.431730
O O2 0.336009 0.214265 0.253447
O O3 0.249344 0.268864 0.275635
O O4 0.280495 0.000000 0.294130
O O5 0.504043 0.500000 0.179534
O O6 0.487946 0.226794 0.125422
O O7 0.575342 0.309154 0.203367
O O8 0.514296 0.294126 0.318066
O O9 0.782696 0.500000 0.528297
O O10 0.750000 0.750000 0.500000
O O11 0.825806 0.706917 0.638683
O O12 0.599599 0.799350 0.848881
O O13 0.562583 0.000000 0.949408
O O14 0.586092 0.739215 0.022480
O O15 0.100561 0.500000 0.711011
O O16 0.073426 0.242190 0.654470
O O17 0.160667 0.751965 0.170277
O O18 0.120137 0.000000 0.111806
O O19 0.304798 0.000000 0.761325
O O20 0.000000 0.234623 0.500000
O O21 0.968735 0.000000 0.396124
#
# Coordination Sequence:
#
# PCOD8095739 Si02
#       8
#     8   8   8   8   8   8   8   8
#     4   9  17  33  54  74 100 135 170 201 242 298
#     4   9  19  35  53  74 101 133 168 202 242 299
#     4   8  15  28  47  69  95 127 159 194 236 283
#     4  10  20  35  54  76 100 126 163 211 256 297
#     4   9  19  34  53  76 101 132 169 207 248 297
#     4  11  22  35  52  73  99 133 168 205 253 301
#     4  10  20  33  49  75 106 131 164 209 250 289
#     4   9  18  33  52  76 107 138 167 202 243 289
#
# _framework density 18.228570000000001
#
# number of rings (size 3 to 8) (size 9 to 14) (size 15 to 20)
#    0.000    2.625    0.000    1.500    0.000    5.250 
#    0.000    0.625    0.000    0.000    0.000    0.000 
#    0.000    0.000    0.000    0.000    0.000    0.000 
#
# Total GULP energy -396583.232558 kJ/mol
# GULP energy per Si atom -12393.226017 kJ/mol
# Density = 1.818708 g / cm^3
# Si number density = 18.228570 Si / 1000 Ang^3
#
#
#
# Elastic Constant Matrix: (Units=GPa)
#
#
# Indices 1 2 3 4 5 6 
#
# 1 89.7306 40.9633 40.3242 0.0000 0.5635 0.0000
# 2 40.9633 81.1993 47.0679 0.0000 5.4484 0.0000
# 3 40.3242 47.0679 99.2627 0.0000 6.5713 0.0000
# 4 0.0000 0.0000 0.0000 29.3083 0.0000 4.2968
# 5 0.5635 5.4484 6.5713 0.0000 17.8753 0.0000
# 6 0.0000 0.0000 0.0000 4.2968 0.0000 27.2865
#
#
#
# Elastic Compliance Matrix: (Units=1/GPa)
#
#
# Indices 1 2 3 4 5 6 
#
# 1 0.015447 -0.005835 -0.003683 0.000000 0.002646 0.000000
# 2 -0.005835 0.019278 -0.006553 0.000000 -0.003283 0.000000
# 3 -0.003683 -0.006553 0.014901 0.000000 -0.003364 0.000000
# 4 0.000000 0.000000 0.000000 0.034926 0.000000 -0.005500
# 5 0.002646 -0.003283 -0.003364 0.000000 0.058097 0.000000
# 6 0.000000 0.000000 0.000000 -0.005500 0.000000 0.037514
#
#
# Mechanical properties :
#
#
# Convention : Reuss Voigt Hill
#
# Bulk Modulus (GPa) = 57.20170 58.54480 57.87325
# Shear Modulus (GPa) = 22.92165 24.34986 23.63575
#
# Velocity S-wave (km/s) = 3.54991 3.65883 3.60478
# Velocity P-wave (km/s) = 6.94628 7.07363 7.01025
#
# Compressibility (1/GPa) = 0.01748200
#
# Stress axis : x y z
#
# Youngs Moduli (GPa) = 64.73783 51.87250 67.11041
#
# Poissons Ratio (x) = 0.30268 0.24720
# Poissons Ratio (y) = 0.37775 0.43980
# Poissons Ratio (z) = 0.23846 0.33994
#
# Static dielectric constant tensor:
#      x y z
#    x 3.388540 0.000000 -0.425800 
#    y 0.000000 3.389830 0.000000 
#    z -0.425800 0.000000 3.815930 
# 
# 
# High freq. dielectric constant tensor:
#      x y z
#    x 1.690370 0.000000 -0.011640 
#    y 0.000000 1.712110 0.000000 
#    z -0.011640 0.000000 1.706250 
# 
# From -- ./inp_files/244179.got.cif
#   From: 2010.06.25/outbox.cif.g09.slc.cpg/sg12_123_cif.got.tgz:244179.got - 2010.06.28 00:19:55.
