data_PCOD8095806
_publ_section_title
;
Structure prediction by ZEFSAII (Michael W. Deem and Ramdas Pophale) SiO2 
 PCOD8095806
Probable space group: C 2/M
;
_chemical_formula_sum "Si O2"
_cell_formula_units_Z 56
_cell_length_a 14.401033
_cell_length_b 8.619661
_cell_length_c 32.523066
_cell_angle_alpha 90.000000
_cell_angle_beta 47.148964
_cell_angle_gamma 90.000000
_cell_volume 2959.735929
_symmetry_space_group_name_H-M "C 2/M"
_symmetry_group_IT_number 12
_symmetry_cell_setting 'monoclinic'
loop_
_space_group_symop_operation_xyz
x,y,z
-x,y,-z
-x,-y,-z
x,-y,z
1/2+x,1/2+y,z
1/2-x,1/2+y,-z
1/2-x,1/2-y,-z
1/2+x,1/2-y,z
loop_
_atom_site_type_symbol
_atom_site_label
_atom_site_fract_x
_atom_site_fract_y
_atom_site_fract_z
Si Si1 0.406392 0.816746 0.062081
Si Si2 0.303063 0.684229 0.552409
Si Si3 0.851258 0.316240 0.768016
Si Si4 0.518179 0.683222 0.429270
Si Si5 0.022580 0.682851 0.641858
Si Si6 0.622024 0.316674 0.153094
Si Si7 0.577176 0.183010 0.850303
O O1 0.262482 0.761789 0.096750
O O2 0.451683 0.766430 0.093960
O O3 0.412198 0.000000 0.056820
O O4 0.500000 0.740401 0.000000
O O5 0.297665 0.500000 0.554360
O O6 0.380552 0.737232 0.488390
O O7 0.375571 0.741258 0.571152
O O8 0.163038 0.757659 0.596375
O O9 0.830577 0.500000 0.773225
O O10 0.909018 0.265755 0.794396
O O11 0.719449 0.233193 0.796914
O O12 0.950478 0.257407 0.703953
O O13 0.522537 0.500000 0.421868
O O14 0.551762 0.765037 0.376358
O O15 0.031805 0.500000 0.640874
O O16 0.618124 0.500000 0.161394
O O17 0.521550 0.269366 0.149091
O O18 0.563490 0.000000 0.848063
#
# Coordination Sequence:
#
# PCOD8095806 Si02
#       7
#     8   8   8   8   8   8   8
#     4   8  16  32  53  79 110 140 172 210 251 300
#     4   8  16  32  50  70  98 130 163 198 245 303
#     4  10  21  36  52  73 103 138 178 222 262 304
#     4   9  17  31  52  73  96 130 166 199 240 302
#     4  10  20  33  50  73 100 128 161 208 259 300
#     4  10  20  35  56  79 106 140 175 214 258 306
#     4  10  20  35  56  78 104 140 176 214 261 309
#
# _framework density 18.920607
#
# number of rings (size 3 to 8) (size 9 to 14) (size 15 to 20)
#    0.000    2.714    0.000    3.429    0.000    2.857 
#    0.000    3.571    0.000   14.571    0.000    0.000 
#    0.000    0.000    0.000    0.000    0.000    0.000 
#
# Total GULP energy -347111.714312 kJ/mol
# GULP energy per Si atom -12396.846940 kJ/mol
# Density = 1.887754 g / cm^3
# Si number density = 18.920607 Si / 1000 Ang^3
#
#
#
# Elastic Constant Matrix: (Units=GPa)
#
#
# Indices 1 2 3 4 5 6 
#
# 1 98.1649 4.1403 50.6558 0.0002 11.9122 0.0004
# 2 4.1403 17.8526 21.6854 0.0013 -0.1115 0.0013
# 3 50.6558 21.6854 145.0270 0.0000 13.0407 0.0003
# 4 0.0002 0.0013 0.0000 22.4465 0.0004 4.2409
# 5 11.9122 -0.1115 13.0407 0.0004 20.2577 0.0005
# 6 0.0004 0.0013 0.0003 4.2409 0.0005 28.1288
#
#
#
# Elastic Compliance Matrix: (Units=1/GPa)
#
#
# Indices 1 2 3 4 5 6 
#
# 1 0.012962 0.002378 -0.004457 0.000000 -0.004740 0.000000
# 2 0.002378 0.069941 -0.011886 -0.000004 0.006638 -0.000003
# 3 -0.004457 -0.011886 0.010614 0.000001 -0.004277 0.000000
# 4 0.000000 -0.000004 0.000001 0.045857 -0.000001 -0.006914
# 5 -0.004740 0.006638 -0.004277 -0.000001 0.054941 -0.000001
# 6 0.000000 -0.000003 0.000000 -0.006914 -0.000001 0.036593
#
#
# Mechanical properties :
#
#
# Convention : Reuss Voigt Hill
#
# Bulk Modulus (GPa) = 15.24668 46.00085 30.62377
# Shear Modulus (GPa) = 17.81268 26.47080 22.14174
#
# Velocity S-wave (km/s) = 3.07162 3.74444 3.42459
# Velocity P-wave (km/s) = 4.54484 6.56200 5.64426
#
# Compressibility (1/GPa) = 0.06558804
#
# Stress axis : x y z
#
# Youngs Moduli (GPa) = 77.15115 14.29768 94.21771
#
# Poissons Ratio (x) = -0.03400 0.41989
# Poissons Ratio (y) = -0.18345 1.11983
# Poissons Ratio (z) = 0.34383 0.16994
#
# Static dielectric constant tensor:
#      x y z
#    x 3.560290 0.000000 -0.100950 
#    y 0.000000 3.159550 0.000000 
#    z -0.100950 0.000000 3.866630 
# 
# 
# High freq. dielectric constant tensor:
#      x y z
#    x 1.739290 0.000000 0.003740 
#    y 0.000000 1.710890 0.000000 
#    z 0.003740 0.000000 1.739530 
# 
# From -- ./inp_files/374928.got.cif
#   From: 2010.06.25/outbox.cif.g09.slc.cpg/sg12_188_cif.got.tgz:374928.got - 2010.06.28 00:19:55.
