data_PCOD8095589
_publ_section_title
;
Structure prediction by ZEFSAII (Michael W. Deem and Ramdas Pophale) SiO2 
 PCOD8095589
Probable space group: C 2/M
;
_chemical_formula_sum "Si O2"
_cell_formula_units_Z 56
_cell_length_a 16.542719
_cell_length_b 13.150338
_cell_length_c 33.573881
_cell_angle_alpha 90.000000
_cell_angle_beta 25.998773
_cell_angle_gamma 90.000000
_cell_volume 3201.608669
_symmetry_space_group_name_H-M "C 2/M"
_symmetry_group_IT_number 12
_symmetry_cell_setting 'monoclinic'
loop_
_space_group_symop_operation_xyz
x,y,z
-x,y,-z
-x,-y,-z
x,-y,z
1/2+x,1/2+y,z
1/2-x,1/2+y,-z
1/2-x,1/2-y,-z
1/2+x,1/2-y,z
loop_
_atom_site_type_symbol
_atom_site_label
_atom_site_fract_x
_atom_site_fract_y
_atom_site_fract_z
Si Si1 0.474523 0.382295 0.465878
Si Si2 0.859609 0.619404 0.440478
Si Si3 0.795979 0.739813 0.691259
Si Si4 0.637812 0.386208 0.613791
Si Si5 0.795336 0.613462 0.206785
Si Si6 0.160209 0.620232 0.901565
Si Si7 0.931056 0.121290 0.270129
O O1 0.500000 0.347849 0.500000
O O2 0.525860 0.500000 0.437355
O O3 0.265564 0.362467 0.543237
O O4 0.620113 0.320556 0.375933
O O5 0.901339 0.500000 0.427080
O O6 0.756646 0.666198 0.525755
O O7 0.049623 0.680750 0.351079
O O8 0.653884 0.800750 0.783121
O O9 0.682614 0.656083 0.717451
O O10 0.714996 0.500000 0.582018
O O11 0.425463 0.387869 0.695823
O O12 0.659904 0.336537 0.648100
O O13 0.866965 0.500000 0.186500
O O14 0.879045 0.646903 0.127229
O O15 0.162828 0.500000 0.905814
O O16 0.359701 0.663374 0.826225
O O17 0.000000 0.669320 0.000000
O O18 0.933907 0.000000 0.270928
#
# Coordination Sequence:
#
# PCOD8095589 Si02
#       7
#     8   8   8   8   8   8   8
#     4  10  22  35  44  60  89 128 175 211 223 254
#     4  10  20  33  47  64  90 128 170 204 238 273
#     4  12  21  28  47  68  98 131 158 190 241 283
#     4   8  15  30  47  61  87 121 156 204 238 261
#     4   9  17  30  48  70  92 119 158 196 231 277
#     4   8  15  32  57  75  90 116 148 191 247 295
#     4   9  19  31  45  73 102 118 148 196 242 288
#
# _framework density 17.491208
#
# number of rings (size 3 to 8) (size 9 to 14) (size 15 to 20)
#    0.000    2.571    1.429    3.000    2.000    1.143 
#    0.000    2.857    0.000    0.000    0.000    0.000 
#    0.000    4.571    0.000    0.000    0.000    0.000 
#
# Total GULP energy -347004.365472 kJ/mol
# GULP energy per Si atom -12393.013053 kJ/mol
# Density = 1.745140 g / cm^3
# Si number density = 17.491208 Si / 1000 Ang^3
#
#
#
# Elastic Constant Matrix: (Units=GPa)
#
#
# Indices 1 2 3 4 5 6 
#
# 1 106.4465 30.3958 44.4380 0.0012 12.4478 0.0009
# 2 30.3958 38.5984 22.5053 0.0006 9.2397 -0.0001
# 3 44.4380 22.5053 77.2884 -0.0060 18.5927 -0.0025
# 4 0.0012 0.0006 -0.0060 9.9191 -0.0072 0.7309
# 5 12.4478 9.2397 18.5927 -0.0072 21.7558 0.0006
# 6 0.0009 -0.0001 -0.0025 0.7309 0.0006 11.4927
#
#
#
# Elastic Compliance Matrix: (Units=1/GPa)
#
#
# Indices 1 2 3 4 5 6 
#
# 1 0.014009 -0.007664 -0.005889 -0.000004 0.000272 -0.000002
# 2 -0.007664 0.036245 -0.004405 -0.000009 -0.007244 0.000001
# 3 -0.005889 -0.004405 0.020577 0.000004 -0.012345 0.000005
# 4 -0.000004 -0.000009 0.000004 0.101290 0.000036 -0.006442
# 5 0.000272 -0.007244 -0.012345 0.000036 0.059436 -0.000008
# 6 -0.000002 0.000001 0.000005 -0.006442 -0.000008 0.087421
#
#
# Mechanical properties :
#
#
# Convention : Reuss Voigt Hill
#
# Bulk Modulus (GPa) = 28.63986 46.33459 37.48722
# Shear Modulus (GPa) = 13.64135 16.96649 15.30392
#
# Velocity S-wave (km/s) = 2.79569 3.11786 2.96116
# Velocity P-wave (km/s) = 5.17983 6.28563 5.75933
#
# Compressibility (1/GPa) = 0.03491637
#
# Stress axis : x y z
#
# Youngs Moduli (GPa) = 71.38114 27.58971 48.59850
#
# Poissons Ratio (x) = 0.21144 0.28618
# Poissons Ratio (y) = 0.54705 0.21409
# Poissons Ratio (z) = 0.42034 0.12154
#
# Static dielectric constant tensor:
#      x y z
#    x 3.408570 0.000000 0.276400 
#    y 0.000000 3.271200 0.000020 
#    z 0.276400 0.000020 3.271230 
# 
# 
# High freq. dielectric constant tensor:
#      x y z
#    x 1.672640 0.000000 0.018720 
#    y 0.000000 1.665280 0.000000 
#    z 0.018720 0.000000 1.640050 
# 
# From -- ./inp_files/251159.got.cif
#   From: 2010.06.25/outbox.cif.g09.slc.cpg/sg12_126_cif.got.tgz:251159.got - 2010.06.28 00:19:55.
