data_PCOD8095130
_publ_section_title
;
Structure prediction by ZEFSAII (Michael W. Deem and Ramdas Pophale) SiO2 
 PCOD8095130
Probable space group: C 2/M
;
_chemical_formula_sum "Si O2"
_cell_formula_units_Z 48
_cell_length_a 18.437393
_cell_length_b 9.513180
_cell_length_c 18.578684
_cell_angle_alpha 90.000000
_cell_angle_beta 124.649147
_cell_angle_gamma 90.000000
_cell_volume 2680.740280
_symmetry_space_group_name_H-M "C 2/M"
_symmetry_group_IT_number 12
_symmetry_cell_setting 'monoclinic'
loop_
_space_group_symop_operation_xyz
x,y,z
-x,y,-z
-x,-y,-z
x,-y,z
1/2+x,1/2+y,z
1/2-x,1/2+y,-z
1/2-x,1/2-y,-z
1/2+x,1/2-y,z
loop_
_atom_site_type_symbol
_atom_site_label
_atom_site_fract_x
_atom_site_fract_y
_atom_site_fract_z
Si Si1 0.094118 0.841883 0.514491
Si Si2 0.477422 0.844644 0.641720
Si Si3 0.430321 0.335991 0.022705
Si Si4 0.932391 0.665413 0.163270
Si Si5 0.243411 0.332982 0.860471
Si Si6 0.665301 0.157037 0.672009
O O1 0.165773 0.760505 0.603833
O O2 0.000000 0.841670 0.500000
O O3 0.087597 0.766037 0.433184
O O4 0.128015 0.000000 0.521287
O O5 0.495653 0.800351 0.734460
O O6 0.569005 0.850816 0.651654
O O7 0.434082 0.000000 0.614310
O O8 0.425021 0.500000 0.039346
O O9 0.335632 0.277165 0.943261
O O10 0.500000 0.306652 0.000000
O O11 0.461757 0.250500 0.109815
O O12 0.929841 0.500000 0.144880
O O13 0.835999 0.721180 0.133738
O O14 0.239772 0.500000 0.856044
O O15 0.230917 0.281712 0.770608
O O16 0.693450 0.000000 0.662865
#
# Coordination Sequence:
#
# PCOD8095130 Si02
#       6
#     8   8   8   8   8   8
#     4   9  15  21  32  56  89 116 137 168 212 258
#     4   8  14  24  38  57  81 111 145 176 210 253
#     4  10  20  32  46  66  92 119 146 180 226 275
#     4   9  17  30  48  67  87 115 153 191 219 252
#     4   8  15  29  47  66  88 117 153 186 217 259
#     4   8  13  23  39  56  79 113 147 176 207 249
#
# _framework density 17.905501999999998
#
# number of rings (size 3 to 8) (size 9 to 14) (size 15 to 20)
#    0.000    3.333    0.000    3.000    0.000    3.000 
#    0.000    3.333    0.000    0.000    0.000    1.167 
#    0.000    0.000    0.000    0.000    0.000    0.000 
#
# Total GULP energy -297477.495234 kJ/mol
# GULP energy per Si atom -12394.895635 kJ/mol
# Density = 1.786475 g / cm^3
# Si number density = 17.905502 Si / 1000 Ang^3
#
#
#
# Elastic Constant Matrix: (Units=GPa)
#
#
# Indices 1 2 3 4 5 6 
#
# 1 31.9400 23.8557 30.5531 0.0000 -12.1922 0.0000
# 2 23.8557 95.3630 78.5121 0.0000 -16.0084 0.0000
# 3 30.5531 78.5121 152.2068 0.0000 -25.2408 0.0000
# 4 0.0000 0.0000 0.0000 28.2565 0.0000 -5.7593
# 5 -12.1922 -16.0084 -25.2408 0.0000 9.7985 0.0000
# 6 0.0000 0.0000 0.0000 -5.7593 0.0000 11.0133
#
#
#
# Elastic Compliance Matrix: (Units=1/GPa)
#
#
# Indices 1 2 3 4 5 6 
#
# 1 0.060925 -0.004919 0.002700 0.000000 0.074726 0.000000
# 2 -0.004919 0.019168 -0.008243 0.000000 0.003961 0.000000
# 3 0.002700 -0.008243 0.015020 0.000000 0.028584 0.000000
# 4 0.000000 0.000000 0.000000 0.039612 0.000000 0.020715
# 5 0.074726 0.003961 0.028584 0.000000 0.275143 0.000000
# 6 0.000000 0.000000 0.000000 0.020715 0.000000 0.101632
#
#
# Mechanical properties :
#
#
# Convention : Reuss Voigt Hill
#
# Bulk Modulus (GPa) = 13.47923 60.59464 37.03693
# Shear Modulus (GPa) = 8.97416 19.58625 14.28020
#
# Velocity S-wave (km/s) = 2.24117 3.31096 2.82712
# Velocity P-wave (km/s) = 3.77378 6.96645 5.60236
#
# Compressibility (1/GPa) = 0.07418821
#
# Stress axis : x y z
#
# Youngs Moduli (GPa) = 16.41361 52.16923 66.57672
#
# Poissons Ratio (x) = 0.25665 -0.17975
# Poissons Ratio (y) = 0.08075 0.54880
# Poissons Ratio (z) = -0.04432 0.43004
#
# Static dielectric constant tensor:
#      x y z
#    x 2.765880 0.000000 0.056650 
#    y 0.000000 3.260230 0.000000 
#    z 0.056650 0.000000 3.658930 
# 
# 
# High freq. dielectric constant tensor:
#      x y z
#    x 1.628560 0.000000 -0.004260 
#    y 0.000000 1.675070 0.000000 
#    z -0.004260 0.000000 1.710410 
# 
# From -- ./inp_files/280042.got.cif
#   From: 2010.06.25/outbox.cif.g09.slc.cpg/sg12_141_cif.got.tgz:280042.got - 2010.06.28 00:19:55.
