data_PCOD8095412
_publ_section_title
;
Structure prediction by ZEFSAII (Michael W. Deem and Ramdas Pophale) SiO2 
 PCOD8095412
Probable space group: C 2/M
;
_chemical_formula_sum "Si O2"
_cell_formula_units_Z 48
_cell_length_a 23.166319
_cell_length_b 9.073712
_cell_length_c 13.712904
_cell_angle_alpha 90.000000
_cell_angle_beta 72.149678
_cell_angle_gamma 90.000000
_cell_volume 2743.751537
_symmetry_space_group_name_H-M "C 2/M"
_symmetry_group_IT_number 12
_symmetry_cell_setting 'monoclinic'
loop_
_space_group_symop_operation_xyz
x,y,z
-x,y,-z
-x,-y,-z
x,-y,z
1/2+x,1/2+y,z
1/2-x,1/2+y,-z
1/2-x,1/2-y,-z
1/2+x,1/2-y,z
loop_
_atom_site_type_symbol
_atom_site_label
_atom_site_fract_x
_atom_site_fract_y
_atom_site_fract_z
Si Si1 0.500082 0.826036 0.388256
Si Si2 0.261867 0.325451 0.891849
Si Si3 0.885861 0.830824 0.364627
Si Si4 0.195888 0.834926 0.417819
Si Si5 0.383773 0.664989 0.723248
Si Si6 0.794463 0.170167 0.254076
O O1 0.500000 0.765844 0.500000
O O2 0.442097 0.773152 0.357730
O O3 0.558595 0.771065 0.298060
O O4 0.500407 0.000000 0.388442
O O5 0.254412 0.500000 0.903666
O O6 0.329450 0.281316 0.822105
O O7 0.212340 0.267131 0.839814
O O8 0.250000 0.250000 0.000000
O O9 0.829247 0.790615 0.463690
O O10 0.861281 0.806486 0.266887
O O11 0.905611 0.000000 0.371373
O O12 0.138447 0.830328 0.376024
O O13 0.245252 0.716408 0.360299
O O14 0.224337 0.000000 0.401518
O O15 0.403854 0.500000 0.742191
O O16 0.783732 0.000000 0.232757
#
# Coordination Sequence:
#
# PCOD8095412 Si02
#       6
#     8   8   8   8   8   8
#     4  11  22  32  47  75 107 142 183 221 255 295
#     4  10  21  38  60  83 104 132 169 215 270 318
#     4  10  20  33  49  70 103 147 182 209 253 310
#     4   9  17  30  48  71 102 141 178 212 254 306
#     4   9  18  33  53  75 103 139 176 211 255 311
#     4  10  20  32  50  77 105 135 173 216 262 312
#
# _framework density 17.494295000000001
#
# number of rings (size 3 to 8) (size 9 to 14) (size 15 to 20)
#    0.000    2.167    1.667    3.000    0.000    6.000 
#    0.000    0.000    0.000    1.000    0.000    7.000 
#    0.000    0.000    0.000    0.000    0.000    0.000 
#
# Total GULP energy -297566.797659 kJ/mol
# GULP energy per Si atom -12398.616569 kJ/mol
# Density = 1.745448 g / cm^3
# Si number density = 17.494295 Si / 1000 Ang^3
#
#
#
# Elastic Constant Matrix: (Units=GPa)
#
#
# Indices 1 2 3 4 5 6 
#
# 1 96.2940 50.8530 47.2026 0.0000 8.5201 0.0000
# 2 50.8530 84.5797 44.8650 0.0000 3.4411 0.0000
# 3 47.2026 44.8650 95.7417 0.0000 9.8546 0.0000
# 4 0.0000 0.0000 0.0000 25.4038 0.0000 0.2753
# 5 8.5201 3.4411 9.8546 0.0000 15.2445 0.0000
# 6 0.0000 0.0000 0.0000 0.2753 0.0000 31.2798
#
#
#
# Elastic Compliance Matrix: (Units=1/GPa)
#
#
# Indices 1 2 3 4 5 6 
#
# 1 0.017009 -0.007783 -0.004222 0.000000 -0.005020 0.000000
# 2 -0.007783 0.019319 -0.005587 0.000000 0.003600 0.000000
# 3 -0.004222 -0.005587 0.015824 0.000000 -0.006609 0.000000
# 4 0.000000 0.000000 0.000000 0.039368 0.000000 -0.000347
# 5 -0.005020 0.003600 -0.006609 0.000000 0.071863 0.000000
# 6 0.000000 0.000000 0.000000 -0.000347 0.000000 0.031973
#
#
# Mechanical properties :
#
#
# Convention : Reuss Voigt Hill
#
# Bulk Modulus (GPa) = 58.92761 62.49519 60.71140
# Shear Modulus (GPa) = 21.16895 23.29860 22.23377
#
# Velocity S-wave (km/s) = 3.48235 3.65332 3.56886
# Velocity P-wave (km/s) = 7.06584 7.32096 7.19453
#
# Compressibility (1/GPa) = 0.01696997
#
# Stress axis : x y z
#
# Youngs Moduli (GPa) = 58.79383 51.76147 63.19316
#
# Poissons Ratio (x) = 0.40284 0.26680
# Poissons Ratio (y) = 0.45757 0.35305
# Poissons Ratio (z) = 0.24822 0.28918
#
# Static dielectric constant tensor:
#      x y z
#    x 3.163600 0.000000 0.093130 
#    y 0.000000 3.246210 0.000000 
#    z 0.093130 0.000000 3.057010 
# 
# 
# High freq. dielectric constant tensor:
#      x y z
#    x 1.669750 0.000000 0.008470 
#    y 0.000000 1.682430 0.000000 
#    z 0.008470 0.000000 1.646520 
# 
# From -- ./inp_files/229817.got.cif
#   From: 2010.06.25/outbox.cif.g09.slc.cpg/sg12_115_cif.got.tgz:229817.got - 2010.06.28 00:19:55.
