data_PCOD8095684
_publ_section_title
;
Structure prediction by ZEFSAII (Michael W. Deem and Ramdas Pophale) SiO2 
 PCOD8095684
Probable space group: C 2/M
;
_chemical_formula_sum "Si O2"
_cell_formula_units_Z 64
_cell_length_a 31.128107
_cell_length_b 8.974815
_cell_length_c 14.043790
_cell_angle_alpha 90.000000
_cell_angle_beta 89.633106
_cell_angle_gamma 90.000000
_cell_volume 3923.319152
_symmetry_space_group_name_H-M "C 2/M"
_symmetry_group_IT_number 12
_symmetry_cell_setting 'monoclinic'
loop_
_space_group_symop_operation_xyz
x,y,z
-x,y,-z
-x,-y,-z
x,-y,z
1/2+x,1/2+y,z
1/2-x,1/2+y,-z
1/2-x,1/2-y,-z
1/2+x,1/2-y,z
loop_
_atom_site_type_symbol
_atom_site_label
_atom_site_fract_x
_atom_site_fract_y
_atom_site_fract_z
Si Si1 0.832249 0.173385 0.775852
Si Si2 0.706704 0.172476 0.392899
Si Si3 0.248000 0.325370 0.898218
Si Si4 0.500648 0.168267 0.886788
Si Si5 0.203117 0.327630 0.608711
Si Si6 0.415532 0.675007 0.889827
Si Si7 0.671432 0.323788 0.784474
Si Si8 0.414396 0.674618 0.107375
O O1 0.829260 0.270026 0.679580
O O2 0.792542 0.207830 0.845090
O O3 0.875176 0.226881 0.828204
O O4 0.834381 0.000000 0.748799
O O5 0.748721 0.270923 0.375442
O O6 0.688735 0.195417 0.499824
O O7 0.718086 0.000000 0.374243
O O8 0.239896 0.500000 0.910895
O O9 0.209893 0.255045 0.838579
O O10 0.250000 0.250000 0.000000
O O11 0.458180 0.248200 0.846860
O O12 0.543779 0.246895 0.848146
O O13 0.500648 0.000000 0.849931
O O14 0.500000 0.180106 0.000000
O O15 0.201918 0.500000 0.639001
O O16 0.170947 0.233273 0.675456
O O17 0.422688 0.500000 0.884115
O O18 0.406665 0.724799 0.998576
O O19 0.678126 0.500000 0.789079
O O20 0.626717 0.274918 0.831896
O O21 0.422351 0.500000 0.113933
#
# Coordination Sequence:
#
# PCOD8095684 Si02
#       8
#     8   8   8   8   8   8   8   8
#     4  10  20  33  49  70  97 129 165 201 241 289
#     4  10  20  33  51  71  93 124 163 205 247 290
#     4  11  22  34  47  66  97 135 169 201 235 280
#     4   9  17  29  46  70  96 122 158 202 242 279
#     4  10  20  34  50  70  95 125 161 203 249 293
#     4   9  17  31  49  68  95 131 163 195 236 284
#     4  11  21  33  50  73  97 127 166 203 242 289
#     4   9  18  32  49  69  96 129 164 197 235 288
#
# _framework density 16.312716999999999
#
# number of rings (size 3 to 8) (size 9 to 14) (size 15 to 20)
#    0.000    2.125    1.250    2.625    0.000    7.000 
#    0.000    2.500    0.000    0.000    0.000    0.875 
#    0.000    7.000    0.000    0.000    0.000    0.000 
#
# Total GULP energy -396864.324565 kJ/mol
# GULP energy per Si atom -12402.010143 kJ/mol
# Density = 1.627559 g / cm^3
# Si number density = 16.312717 Si / 1000 Ang^3
#
#
#
# Elastic Constant Matrix: (Units=GPa)
#
#
# Indices 1 2 3 4 5 6 
#
# 1 133.3922 55.6553 52.8903 0.0000 8.0394 0.0000
# 2 55.6553 73.7764 43.1069 0.0000 3.0264 0.0000
# 3 52.8903 43.1069 89.4369 0.0000 6.3648 0.0000
# 4 0.0000 0.0000 0.0000 27.8490 0.0000 0.9324
# 5 8.0394 3.0264 6.3648 0.0000 8.9797 0.0000
# 6 0.0000 0.0000 0.0000 0.9324 0.0000 27.1727
#
#
#
# Elastic Compliance Matrix: (Units=1/GPa)
#
#
# Indices 1 2 3 4 5 6 
#
# 1 0.012080 -0.006880 -0.003394 0.000000 -0.006091 0.000000
# 2 -0.006880 0.022786 -0.007167 0.000000 0.003560 0.000000
# 3 -0.003394 -0.007167 0.017118 0.000000 -0.006679 0.000000
# 4 0.000000 0.000000 0.000000 0.035949 0.000000 -0.001234
# 5 -0.006091 0.003560 -0.006679 0.000000 0.120349 0.000000
# 6 0.000000 0.000000 0.000000 -0.001234 0.000000 0.036844
#
#
# Mechanical properties :
#
#
# Convention : Reuss Voigt Hill
#
# Bulk Modulus (GPa) = 58.47483 66.65673 62.56578
# Shear Modulus (GPa) = 17.50025 22.46383 19.98204
#
# Velocity S-wave (km/s) = 3.27891 3.71492 3.50371
# Velocity P-wave (km/s) = 7.08936 7.70399 7.40305
#
# Compressibility (1/GPa) = 0.01710137
#
# Stress axis : x y z
#
# Youngs Moduli (GPa) = 82.78050 43.88618 58.41702
#
# Poissons Ratio (x) = 0.30193 0.19829
# Poissons Ratio (y) = 0.56951 0.41870
# Poissons Ratio (z) = 0.28100 0.31455
#
# Static dielectric constant tensor:
#      x y z
#    x 3.092070 0.000000 0.018920 
#    y 0.000000 3.199820 0.000000 
#    z 0.018920 0.000000 2.742310 
# 
# 
# High freq. dielectric constant tensor:
#      x y z
#    x 1.616020 0.000000 0.000710 
#    y 0.000000 1.638950 0.000000 
#    z 0.000710 0.000000 1.608790 
# 
# From -- ./inp_files/248381.got.cif
#   From: 2010.06.25/outbox.cif.g09.slc.cpg/sg12_125_cif.got.tgz:248381.got - 2010.06.28 00:19:55.
