data_PCOD8095571
_publ_section_title
;
Structure prediction by ZEFSAII (Michael W. Deem and Ramdas Pophale) SiO2 
 PCOD8095571
Probable space group: C 2/M
;
_chemical_formula_sum "Si O2"
_cell_formula_units_Z 56
_cell_length_a 8.631351
_cell_length_b 20.060456
_cell_length_c 17.869000
_cell_angle_alpha 90.000000
_cell_angle_beta 63.985449
_cell_angle_gamma 90.000000
_cell_volume 2780.521150
_symmetry_space_group_name_H-M "C 2/M"
_symmetry_group_IT_number 12
_symmetry_cell_setting 'monoclinic'
loop_
_space_group_symop_operation_xyz
x,y,z
-x,y,-z
-x,-y,-z
x,-y,z
1/2+x,1/2+y,z
1/2-x,1/2+y,-z
1/2-x,1/2-y,-z
1/2+x,1/2-y,z
loop_
_atom_site_type_symbol
_atom_site_label
_atom_site_fract_x
_atom_site_fract_y
_atom_site_fract_z
Si Si1 0.336613 0.840310 0.840653
Si Si2 0.509982 0.309656 0.338859
Si Si3 0.512640 0.300805 0.167052
Si Si4 0.690241 0.824669 0.994004
Si Si5 0.369071 0.425354 0.592694
Si Si6 0.471123 0.923836 0.676879
Si Si7 0.367572 0.811384 0.594358
O O1 0.461529 0.778814 0.835186
O O2 0.434916 0.893032 0.766896
O O3 0.163544 0.814055 0.839194
O O4 0.297051 0.869957 0.932619
O O5 0.499271 0.324122 0.254057
O O6 0.607531 0.374594 0.345604
O O7 0.610115 0.243278 0.344042
O O8 0.314242 0.303221 0.408869
O O9 0.665877 0.345519 0.097592
O O10 0.500000 0.827873 0.000000
O O11 0.750000 0.750000 0.000000
O O12 0.500000 0.403080 0.500000
O O13 0.414587 0.500000 0.609821
O O14 0.170729 0.420597 0.610496
O O15 0.374848 0.883677 0.631794
O O16 0.404676 0.000000 0.691282
O O17 0.500000 0.800300 0.500000
#
# Coordination Sequence:
#
# PCOD8095571 Si02
#       7
#     8   8   8   8   8   8   8
#     4  11  21  38  59  90 126 153 199 249 305 360
#     4  12  22  37  61  92 122 156 199 251 307 361
#     4  11  20  35  58  92 120 157 192 246 305 360
#     4  10  20  32  58  91 122 154 190 245 301 364
#     4  10  23  42  62  85 119 164 208 252 302 361
#     4  11  24  41  62  86 120 168 209 252 311 367
#     4  12  24  39  60  90 123 159 203 258 308 361
#
# _framework density 20.140108999999999
#
# number of rings (size 3 to 8) (size 9 to 14) (size 15 to 20)
#    0.000    1.000    2.857    6.429    4.000    0.857 
#    0.000    0.000    0.000    3.000    0.000    0.000 
#    0.000    0.000    0.000    0.000    0.000    0.000 
#
# Total GULP energy -347069.938030 kJ/mol
# GULP energy per Si atom -12395.354930 kJ/mol
# Density = 2.009427 g / cm^3
# Si number density = 20.140109 Si / 1000 Ang^3
#
#
#
# Elastic Constant Matrix: (Units=GPa)
#
#
# Indices 1 2 3 4 5 6 
#
# 1 86.9391 40.4703 9.1444 0.0000 3.6231 0.0000
# 2 40.4703 92.3933 25.7766 0.0000 7.1777 0.0000
# 3 9.1444 25.7766 86.0815 0.0000 -0.1126 0.0000
# 4 0.0000 0.0000 0.0000 18.1254 0.0000 -0.3066
# 5 3.6231 7.1777 -0.1126 0.0000 38.5461 0.0000
# 6 0.0000 0.0000 0.0000 -0.3066 0.0000 23.6100
#
#
#
# Elastic Compliance Matrix: (Units=1/GPa)
#
#
# Indices 1 2 3 4 5 6 
#
# 1 0.014461 -0.006431 0.000389 0.000000 -0.000161 0.000000
# 2 -0.006431 0.014861 -0.003770 0.000000 -0.002174 0.000000
# 3 0.000389 -0.003770 0.012705 0.000000 0.000702 0.000000
# 4 0.000000 0.000000 0.000000 0.055183 0.000000 0.000717
# 5 -0.000161 -0.002174 0.000702 0.000000 0.026365 0.000000
# 6 0.000000 0.000000 0.000000 0.000717 0.000000 0.042364
#
#
# Mechanical properties :
#
#
# Convention : Reuss Voigt Hill
#
# Bulk Modulus (GPa) = 44.63235 46.24406 45.43820
# Shear Modulus (GPa) = 25.90268 28.72448 27.31358
#
# Velocity S-wave (km/s) = 3.59015 3.78065 3.68663
# Velocity P-wave (km/s) = 6.27651 6.48604 6.38214
#
# Compressibility (1/GPa) = 0.02240527
#
# Stress axis : x y z
#
# Youngs Moduli (GPa) = 69.14914 67.29220 78.70740
#
# Poissons Ratio (x) = 0.43272 -0.03063
# Poissons Ratio (y) = 0.44467 0.29670
# Poissons Ratio (z) = -0.02691 0.25367
#
# Static dielectric constant tensor:
#      x y z
#    x 3.822150 0.000000 -0.214210 
#    y 0.000000 3.433100 0.000000 
#    z -0.214210 0.000000 4.634140 
# 
# 
# High freq. dielectric constant tensor:
#      x y z
#    x 1.798310 0.000000 -0.006270 
#    y 0.000000 1.742030 0.000000 
#    z -0.006270 0.000000 1.809400 
# 
# From -- ./inp_files/257037.got.cif
#   From: 2010.06.25/outbox.cif.g09.slc.cpg/sg12_129_cif.got.tgz:257037.got - 2010.06.28 00:19:55.
