data_PCOD8095027
_publ_section_title
;
Structure prediction by ZEFSAII (Michael W. Deem and Ramdas Pophale) SiO2 
 PCOD8095027
Probable space group: C 2/M
;
_chemical_formula_sum "Si O2"
_cell_formula_units_Z 56
_cell_length_a 22.642003
_cell_length_b 9.663277
_cell_length_c 14.280992
_cell_angle_alpha 90.000000
_cell_angle_beta 81.569361
_cell_angle_gamma 90.000000
_cell_volume 3090.858718
_symmetry_space_group_name_H-M "C 2/M"
_symmetry_group_IT_number 12
_symmetry_cell_setting 'monoclinic'
loop_
_space_group_symop_operation_xyz
x,y,z
-x,y,-z
-x,-y,-z
x,-y,z
1/2+x,1/2+y,z
1/2-x,1/2+y,-z
1/2-x,1/2-y,-z
1/2+x,1/2-y,z
loop_
_atom_site_type_symbol
_atom_site_label
_atom_site_fract_x
_atom_site_fract_y
_atom_site_fract_z
Si Si1 0.397201 0.662040 0.773888
Si Si2 0.004634 0.835817 0.394030
Si Si3 0.219415 0.662628 0.221284
Si Si4 0.058520 0.162745 0.036882
Si Si5 0.895853 0.842301 0.304959
Si Si6 0.845197 0.164610 0.127172
Si Si7 0.268304 0.655011 0.411732
O O1 0.380514 0.500000 0.779207
O O2 0.432778 0.701904 0.670880
O O3 0.337360 0.749773 0.796256
O O4 0.438809 0.699628 0.853887
O O5 0.000000 0.772894 0.500000
O O6 0.951312 0.769085 0.344463
O O7 0.996756 0.000000 0.401534
O O8 0.205738 0.500000 0.212321
O O9 0.275675 0.710830 0.143451
O O10 0.235301 0.699661 0.324393
O O11 0.055646 0.000000 0.022145
O O12 0.119764 0.216383 0.973127
O O13 0.000000 0.228984 0.000000
O O14 0.880460 0.771772 0.208802
O O15 0.839204 0.833826 0.385759
O O16 0.914653 0.000000 0.280976
O O17 0.844469 0.000000 0.139772
O O18 0.249433 0.500000 0.442232
O O19 0.250000 0.750000 0.500000
#
# Coordination Sequence:
#
# PCOD8095027 Si02
#       7
#     8   8   8   8   8   8   8
#     4  10  20  31  48  76 100 122 160 206 245 281
#     4   9  17  27  41  65  96 124 151 193 246 288
#     4   9  19  34  48  67  99 136 164 188 232 297
#     4   9  16  27  47  75 102 123 153 206 255 281
#     4   8  14  26  43  64  89 120 157 190 229 286
#     4   8  14  27  46  65  91 128 161 190 234 291
#     4   9  18  30  48  70  91 121 161 199 235 278
#
# _framework density 18.117941999999999
#
# number of rings (size 3 to 8) (size 9 to 14) (size 15 to 20)
#    0.000    3.143    0.000    2.571    2.000    4.571 
#    0.000    0.000    0.000    1.714    0.000    4.000 
#    0.000    0.000    0.000    0.000    0.000    0.000 
#
# Total GULP energy -346973.869892 kJ/mol
# GULP energy per Si atom -12391.923925 kJ/mol
# Density = 1.807670 g / cm^3
# Si number density = 18.117942 Si / 1000 Ang^3
#
#
#
# Elastic Constant Matrix: (Units=GPa)
#
#
# Indices 1 2 3 4 5 6 
#
# 1 123.6909 24.4549 48.1891 0.0000 2.8296 0.0000
# 2 24.4549 23.8959 21.5312 0.0000 -0.5766 0.0000
# 3 48.1891 21.5312 112.1831 0.0000 -14.1465 0.0000
# 4 0.0000 0.0000 0.0000 14.3438 0.0000 -0.4713
# 5 2.8296 -0.5766 -14.1465 0.0000 22.5002 0.0000
# 6 0.0000 0.0000 0.0000 -0.4713 0.0000 20.8673
#
#
#
# Elastic Compliance Matrix: (Units=1/GPa)
#
#
# Indices 1 2 3 4 5 6 
#
# 1 0.011272 -0.008240 -0.003764 0.000000 -0.003995 0.000000
# 2 -0.008240 0.057194 -0.007735 0.000000 -0.002361 0.000000
# 3 -0.003764 -0.007735 0.013088 0.000000 0.008504 0.000000
# 4 0.000000 0.000000 0.000000 0.069768 0.000000 0.001576
# 5 -0.003995 -0.002361 0.008504 0.000000 0.050233 0.000000
# 6 0.000000 0.000000 0.000000 0.001576 0.000000 0.047958
#
#
# Mechanical properties :
#
#
# Convention : Reuss Voigt Hill
#
# Bulk Modulus (GPa) = 23.76745 49.79115 36.77930
# Shear Modulus (GPa) = 16.50077 22.58189 19.54133
#
# Velocity S-wave (km/s) = 3.02112 3.53424 3.28771
# Velocity P-wave (km/s) = 5.03153 6.64800 5.89543
#
# Compressibility (1/GPa) = 0.04207436
#
# Stress axis : x y z
#
# Youngs Moduli (GPa) = 88.71762 17.48434 76.40645
#
# Poissons Ratio (x) = 0.14407 0.28760
# Poissons Ratio (y) = 0.73105 0.59103
# Poissons Ratio (z) = 0.33395 0.13525
#
# Static dielectric constant tensor:
#      x y z
#    x 3.606730 0.000000 0.005560 
#    y 0.000000 2.687570 0.000000 
#    z 0.005560 0.000000 3.488690 
# 
# 
# High freq. dielectric constant tensor:
#      x y z
#    x 1.712670 0.000000 -0.003790 
#    y 0.000000 1.622640 0.000000 
#    z -0.003790 0.000000 1.711260 
# 
# From -- ./inp_files/173863.got.cif
#   From: 2010.06.25/outbox.cif.g09.slc.cpg/sg12_87_cif.got.tgz:173863.got - 2010.06.28 00:19:55.
