data_PCOD8095164
_publ_section_title
;
Structure prediction by ZEFSAII (Michael W. Deem and Ramdas Pophale) SiO2 
 PCOD8095164
Probable space group: C 2/M
;
_chemical_formula_sum "Si O2"
_cell_formula_units_Z 48
_cell_length_a 15.782614
_cell_length_b 18.617739
_cell_length_c 11.939151
_cell_angle_alpha 90.000000
_cell_angle_beta 48.626837
_cell_angle_gamma 90.000000
_cell_volume 2632.595576
_symmetry_space_group_name_H-M "C 2/M"
_symmetry_group_IT_number 12
_symmetry_cell_setting 'monoclinic'
loop_
_space_group_symop_operation_xyz
x,y,z
-x,y,-z
-x,-y,-z
x,-y,z
1/2+x,1/2+y,z
1/2-x,1/2+y,-z
1/2-x,1/2-y,-z
1/2+x,1/2-y,z
loop_
_atom_site_type_symbol
_atom_site_label
_atom_site_fract_x
_atom_site_fract_y
_atom_site_fract_z
Si Si1 0.368195 0.578762 0.590175
Si Si2 0.738908 0.584083 0.711176
Si Si3 0.667245 0.667240 0.171339
Si Si4 0.950085 0.084083 0.288824
Si Si5 0.541631 0.921238 0.590175
Si Si6 0.838584 0.332760 0.828661
O O1 0.500000 0.575686 0.500000
O O2 0.313008 0.500000 0.653839
O O3 0.307501 0.632268 0.729574
O O4 0.361967 0.604043 0.466145
O O5 0.752767 0.500000 0.731085
O O6 0.613804 0.599885 0.772393
O O7 0.828112 0.604043 0.533855
O O8 0.759543 0.631004 0.803572
O O9 0.563114 0.631004 0.196428
O O10 0.640985 0.750000 0.218030
O O11 0.779308 0.657830 0.000000
O O12 0.983853 0.000000 0.268915
O O13 0.500000 0.924314 0.500000
O O14 0.462925 0.867732 0.729574
O O15 0.533153 0.000000 0.653839
#
# Coordination Sequence:
#
# PCOD8095164 Si02
#       6
#     8   8   8   8   8   8
#     4   8  15  29  48  69  93 123 160 198 237 287
#     4   9  18  33  54  78  99 121 157 208 257 292
#     4  10  20  32  46  69 102 135 166 199 237 287
#     4   9  18  33  54  78  99 121 157 208 257 292
#     4   8  15  29  48  69  93 123 160 198 237 287
#     4  10  20  32  46  69 102 135 166 199 237 287
#
# _framework density 18.232956000000001
#
# number of rings (size 3 to 8) (size 9 to 14) (size 15 to 20)
#    0.000    3.000    0.000    3.000    0.000    9.333 
#    0.000    5.000    0.000    3.000    0.000    4.667 
#    0.000    0.000    0.000    0.000    0.000    0.000 
#
# Total GULP energy -297413.334552 kJ/mol
# GULP energy per Si atom -12392.222273 kJ/mol
# Density = 1.819146 g / cm^3
# Si number density = 18.232956 Si / 1000 Ang^3
#
#
#
# Elastic Constant Matrix: (Units=GPa)
#
#
# Indices 1 2 3 4 5 6 
#
# 1 40.6523 10.5141 -10.6351 0.0000 1.0988 0.0000
# 2 10.5141 94.3709 41.4422 0.0000 -2.0590 0.0000
# 3 -10.6351 41.4422 68.6601 0.0000 -2.9635 0.0000
# 4 0.0000 0.0000 0.0000 13.1373 0.0000 0.2598
# 5 1.0988 -2.0590 -2.9635 0.0000 17.6611 0.0000
# 6 0.0000 0.0000 0.0000 0.2598 0.0000 17.0407
#
#
#
# Elastic Compliance Matrix: (Units=1/GPa)
#
#
# Indices 1 2 3 4 5 6 
#
# 1 0.028701 -0.007012 0.008628 0.000000 -0.001155 0.000000
# 2 -0.007012 0.016132 -0.010801 0.000000 0.000505 0.000000
# 3 0.008628 -0.010801 0.022506 0.000000 0.001980 0.000000
# 4 0.000000 0.000000 0.000000 0.076142 0.000000 -0.001161
# 5 -0.001155 0.000505 0.001980 0.000000 0.057085 0.000000
# 6 0.000000 0.000000 0.000000 -0.001161 0.000000 0.058701
#
#
# Mechanical properties :
#
#
# Convention : Reuss Voigt Hill
#
# Bulk Modulus (GPa) = 20.42137 31.81397 26.11767
# Shear Modulus (GPa) = 17.00918 20.39197 18.70057
#
# Velocity S-wave (km/s) = 3.05762 3.34790 3.20605
# Velocity P-wave (km/s) = 4.86724 5.69482 5.29722
#
# Compressibility (1/GPa) = 0.04896832
#
# Stress axis : x y z
#
# Youngs Moduli (GPa) = 34.84236 61.98856 44.43275
#
# Poissons Ratio (x) = 0.43465 -0.38336
# Poissons Ratio (y) = 0.24430 0.47993
# Poissons Ratio (z) = -0.30062 0.66956
#
# Static dielectric constant tensor:
#      x y z
#    x 3.510360 0.000000 0.005460 
#    y 0.000000 3.360940 0.000000 
#    z 0.005460 0.000000 3.428330 
# 
# 
# High freq. dielectric constant tensor:
#      x y z
#    x 1.678900 0.000000 -0.001330 
#    y 0.000000 1.700890 0.000000 
#    z -0.001330 0.000000 1.698800 
# 
# From -- ./inp_files/146926.got.cif
#   From: 2010.06.25/outbox.cif.g09.slc.cpg/sg12_74_cif.got.tgz:146926.got - 2010.06.28 00:19:55.
