data_PCOD8095787
_publ_section_title
;
Structure prediction by ZEFSAII (Michael W. Deem and Ramdas Pophale) SiO2 
 PCOD8095787
Probable space group: C 2/M
;
_chemical_formula_sum "Si O2"
_cell_formula_units_Z 64
_cell_length_a 19.312355
_cell_length_b 9.292222
_cell_length_c 20.669866
_cell_angle_alpha 90.000000
_cell_angle_beta 103.319918
_cell_angle_gamma 90.000000
_cell_volume 3609.519807
_symmetry_space_group_name_H-M "C 2/M"
_symmetry_group_IT_number 12
_symmetry_cell_setting 'monoclinic'
loop_
_space_group_symop_operation_xyz
x,y,z
-x,y,-z
-x,-y,-z
x,-y,z
1/2+x,1/2+y,z
1/2-x,1/2+y,-z
1/2-x,1/2-y,-z
1/2+x,1/2-y,z
loop_
_atom_site_type_symbol
_atom_site_label
_atom_site_fract_x
_atom_site_fract_y
_atom_site_fract_z
Si Si1 0.123813 0.329429 0.188332
Si Si2 0.073143 0.664758 0.549947
Si Si3 0.290587 0.332203 0.453249
Si Si4 0.969292 0.670529 0.187673
Si Si5 0.200054 0.668376 0.076448
Si Si6 0.392896 0.833530 0.298801
Si Si7 0.661822 0.168076 0.924910
Si Si8 0.245711 0.167353 0.698754
O O1 0.117729 0.500000 0.187511
O O2 0.149190 0.276703 0.123094
O O3 0.180297 0.278319 0.254603
O O4 0.046544 0.261244 0.187958
O O5 0.096020 0.500000 0.540792
O O6 0.129899 0.772354 0.531957
O O7 0.065415 0.690929 0.625043
O O8 0.000000 0.703553 0.500000
O O9 0.293180 0.500000 0.470244
O O10 0.250000 0.250000 0.500000
O O11 0.250877 0.301531 0.376988
O O12 0.976141 0.500000 0.189908
O O13 0.943256 0.725446 0.252344
O O14 0.913095 0.719692 0.120904
O O15 0.216395 0.500000 0.086574
O O16 0.275049 0.749077 0.097670
O O17 0.160593 0.704950 0.000763
O O18 0.318601 0.750393 0.281239
O O19 0.374427 0.000000 0.283522
O O20 0.674531 0.000000 0.915286
O O21 0.232892 0.000000 0.710215
#
# Coordination Sequence:
#
# PCOD8095787 Si02
#       8
#     8   8   8   8   8   8   8   8
#     4   9  17  29  46  69  94 119 151 190 229 268
#     4   9  18  32  50  72  96 123 157 196 237 282
#     4  10  20  33  50  72  97 125 157 194 236 281
#     4   9  17  28  44  68  94 119 150 189 230 269
#     4   9  17  29  47  69  91 119 153 187 224 267
#     4   9  17  30  49  69  90 120 155 190 228 272
#     4   9  17  29  46  68  92 119 152 188 225 267
#     4   9  18  32  50  69  90 120 155 190 227 270
#
# _framework density 17.730889999999999
#
# number of rings (size 3 to 8) (size 9 to 14) (size 15 to 20)
#    0.000    2.875    0.000    1.125    0.000    2.250 
#    0.000    6.250    0.000    3.000    0.000    3.500 
#    0.000    0.000    0.000    0.000    0.000    0.000 
#
# Total GULP energy -396776.970297 kJ/mol
# GULP energy per Si atom -12399.280322 kJ/mol
# Density = 1.769053 g / cm^3
# Si number density = 17.730890 Si / 1000 Ang^3
#
#
#
# Elastic Constant Matrix: (Units=GPa)
#
#
# Indices 1 2 3 4 5 6 
#
# 1 170.8320 48.4409 104.3459 0.0000 0.3045 0.0000
# 2 48.4409 45.6350 41.4649 0.0000 -5.0202 0.0000
# 3 104.3459 41.4649 130.1296 0.0000 -5.1002 0.0000
# 4 0.0000 0.0000 0.0000 17.7305 0.0000 -1.2639
# 5 0.3045 -5.0202 -5.1002 0.0000 35.1693 0.0000
# 6 0.0000 0.0000 0.0000 -1.2639 0.0000 25.9614
#
#
#
# Elastic Compliance Matrix: (Units=1/GPa)
#
#
# Indices 1 2 3 4 5 6 
#
# 1 0.012657 -0.006160 -0.008272 0.000000 -0.002188 0.000000
# 2 -0.006160 0.034157 -0.005784 0.000000 0.004090 0.000000
# 3 -0.008272 -0.005784 0.016224 0.000000 0.001599 0.000000
# 4 0.000000 0.000000 0.000000 0.056597 0.000000 0.002755
# 5 -0.002188 0.004090 0.001599 0.000000 0.029268 0.000000
# 6 0.000000 0.000000 0.000000 0.002755 0.000000 0.038653
#
#
# Mechanical properties :
#
#
# Convention : Reuss Voigt Hill
#
# Bulk Modulus (GPa) = 44.23760 81.67780 62.95770
# Shear Modulus (GPa) = 21.22932 25.92855 23.57894
#
# Velocity S-wave (km/s) = 3.46397 3.82820 3.65063
# Velocity P-wave (km/s) = 6.40331 8.10589 7.30438
#
# Compressibility (1/GPa) = 0.02260520
#
# Stress axis : x y z
#
# Youngs Moduli (GPa) = 79.00793 29.27641 61.63857
#
# Poissons Ratio (x) = 0.18033 0.50988
# Poissons Ratio (y) = 0.48666 0.35655
# Poissons Ratio (z) = 0.65357 0.16935
#
# Static dielectric constant tensor:
#      x y z
#    x 3.489600 0.000000 -0.011900 
#    y 0.000000 3.066100 0.000000 
#    z -0.011900 0.000000 3.506220 
# 
# 
# High freq. dielectric constant tensor:
#      x y z
#    x 1.681850 0.000000 0.001860 
#    y 0.000000 1.656270 0.000000 
#    z 0.001860 0.000000 1.699810 
# 
# From -- ./inp_files/314142.got.cif
#   From: 2010.06.25/outbox.cif.g09.slc.cpg/sg12_158_cif.got.tgz:314142.got - 2010.06.28 00:19:55.
