data_PCOD8095910
_publ_section_title
;
Structure prediction by ZEFSAII (Michael W. Deem and Ramdas Pophale) SiO2 
 PCOD8095910
Probable space group: C 2/M
;
_chemical_formula_sum "Si O2"
_cell_formula_units_Z 64
_cell_length_a 18.013052
_cell_length_b 8.910695
_cell_length_c 30.461524
_cell_angle_alpha 90.000000
_cell_angle_beta 42.258923
_cell_angle_gamma 90.000000
_cell_volume 3287.995567
_symmetry_space_group_name_H-M "C 2/M"
_symmetry_group_IT_number 12
_symmetry_cell_setting 'monoclinic'
loop_
_space_group_symop_operation_xyz
x,y,z
-x,y,-z
-x,-y,-z
x,-y,z
1/2+x,1/2+y,z
1/2-x,1/2+y,-z
1/2-x,1/2-y,-z
1/2+x,1/2-y,z
loop_
_atom_site_type_symbol
_atom_site_label
_atom_site_fract_x
_atom_site_fract_y
_atom_site_fract_z
Si Si1 0.326484 0.321694 0.572036
Si Si2 0.127949 0.826081 0.936929
Si Si3 0.507754 0.678303 0.427518
Si Si4 0.280845 0.676852 0.940734
Si Si5 0.915295 0.674845 0.306102
Si Si6 0.180282 0.673052 0.824376
Si Si7 0.008861 0.673215 0.823578
Si Si8 0.570376 0.325540 0.305837
O O1 0.321793 0.500000 0.577893
O O2 0.394839 0.258850 0.583835
O O3 0.389001 0.273465 0.499724
O O4 0.202431 0.256257 0.626877
O O5 0.194184 0.726682 0.942239
O O6 0.161765 0.781152 0.873316
O O7 0.156896 0.000000 0.931749
O O8 0.000000 0.792798 0.000000
O O9 0.517831 0.500000 0.421549
O O10 0.521585 0.743865 0.372462
O O11 0.274549 0.500000 0.948880
O O12 0.402665 0.722432 0.872781
O O13 0.250000 0.750000 0.000000
O O14 0.920100 0.500000 0.314155
O O15 0.928430 0.708161 0.248976
O O16 0.014850 0.749453 0.288490
O O17 0.169507 0.500000 0.844014
O O18 0.090670 0.714429 0.827069
O O19 0.299574 0.705488 0.751710
O O20 0.971489 0.500000 0.842289
O O21 0.543599 0.500000 0.314610
#
# Coordination Sequence:
#
# PCOD8095910 Si02
#       8
#     8   8   8   8   8   8   8   8
#     4   8  14  27  49  75 100 132 178 225 267 315
#     4  11  24  41  61  86 115 146 182 224 269 320
#     4   8  14  27  49  74 100 133 176 225 269 313
#     4  12  25  41  62  87 116 148 183 223 268 321
#     4  10  20  33  51  77 108 141 178 221 269 322
#     4  10  21  37  58  82 108 142 183 227 275 326
#     4  10  21  38  59  82 110 144 183 228 276 324
#     4  10  20  33  50  76 108 140 177 221 270 323
#
# _framework density 19.464746000000002
#
# number of rings (size 3 to 8) (size 9 to 14) (size 15 to 20)
#    0.000    2.125    0.000    4.500    0.000   10.000 
#    0.000    0.000    0.000    2.250    0.000    1.750 
#    0.000    0.000    0.000    0.000    0.000    0.000 
#
# Total GULP energy -396838.245208 kJ/mol
# GULP energy per Si atom -12401.195163 kJ/mol
# Density = 1.942044 g / cm^3
# Si number density = 19.464746 Si / 1000 Ang^3
#
#
#
# Elastic Constant Matrix: (Units=GPa)
#
#
# Indices 1 2 3 4 5 6 
#
# 1 119.5606 48.1186 51.1080 0.0007 2.1528 -0.0009
# 2 48.1186 69.8058 50.5399 0.0025 -2.8726 0.0024
# 3 51.1080 50.5399 122.7059 -0.0002 1.8515 0.0003
# 4 0.0007 0.0025 -0.0002 12.3323 0.0003 5.5579
# 5 2.1528 -2.8726 1.8515 0.0003 40.1995 -0.0003
# 6 -0.0009 0.0024 0.0003 5.5579 -0.0003 22.9722
#
#
#
# Elastic Compliance Matrix: (Units=1/GPa)
#
#
# Indices 1 2 3 4 5 6 
#
# 1 0.012044 -0.006731 -0.002229 0.000000 -0.001023 0.000001
# 2 -0.006731 0.024312 -0.007247 -0.000004 0.002431 -0.000002
# 3 -0.002229 -0.007247 0.012077 0.000002 -0.000955 0.000000
# 4 0.000000 -0.000004 0.000002 0.091011 -0.000001 -0.022019
# 5 -0.001023 0.002431 -0.000955 -0.000001 0.025148 0.000000
# 6 0.000001 -0.000002 0.000000 -0.022019 0.000000 0.048858
#
#
# Mechanical properties :
#
#
# Convention : Reuss Voigt Hill
#
# Bulk Modulus (GPa) = 62.42038 67.95615 65.18826
# Shear Modulus (GPa) = 19.90420 25.92120 22.91270
#
# Velocity S-wave (km/s) = 3.20124 3.65321 3.43467
# Velocity P-wave (km/s) = 6.76772 7.26517 7.02085
#
# Compressibility (1/GPa) = 0.01602041
#
# Stress axis : x y z
#
# Youngs Moduli (GPa) = 83.02953 41.13227 82.80148
#
# Poissons Ratio (x) = 0.27684 0.18454
# Poissons Ratio (y) = 0.55884 0.60005
# Poissons Ratio (z) = 0.18505 0.29808
#
# Static dielectric constant tensor:
#      x y z
#    x 3.587640 0.000010 -0.027130 
#    y 0.000010 3.253940 0.000000 
#    z -0.027130 0.000000 3.853440 
# 
# 
# High freq. dielectric constant tensor:
#      x y z
#    x 1.766880 0.000000 -0.000030 
#    y 0.000000 1.723690 0.000000 
#    z -0.000030 0.000000 1.777190 
# 
# From -- ./inp_files/378012.got.cif
#   From: 2010.06.25/outbox.cif.g09.slc.cpg/sg12_190_cif.got.tgz:378012.got - 2010.06.28 00:19:55.
