data_PCOD8095609
_publ_section_title
;
Structure prediction by ZEFSAII (Michael W. Deem and Ramdas Pophale) SiO2 
 PCOD8095609
Probable space group: C 2/M
;
_chemical_formula_sum "Si O2"
_cell_formula_units_Z 56
_cell_length_a 29.310690
_cell_length_b 9.105026
_cell_length_c 18.644420
_cell_angle_alpha 90.000000
_cell_angle_beta 140.949894
_cell_angle_gamma 90.000000
_cell_volume 3134.703762
_symmetry_space_group_name_H-M "C 2/M"
_symmetry_group_IT_number 12
_symmetry_cell_setting 'monoclinic'
loop_
_space_group_symop_operation_xyz
x,y,z
-x,y,-z
-x,-y,-z
x,-y,z
1/2+x,1/2+y,z
1/2-x,1/2+y,-z
1/2-x,1/2-y,-z
1/2+x,1/2-y,z
loop_
_atom_site_type_symbol
_atom_site_label
_atom_site_fract_x
_atom_site_fract_y
_atom_site_fract_z
Si Si1 0.768387 0.335000 0.911779
Si Si2 0.634559 0.329479 0.580003
Si Si3 0.989001 0.167609 0.329231
Si Si4 0.408346 0.669339 0.090411
Si Si5 0.626065 0.825871 0.718598
Si Si6 0.930520 0.827060 0.956501
Si Si7 0.791238 0.337369 0.770450
O O1 0.760950 0.500000 0.933062
O O2 0.696347 0.244154 0.843115
O O3 0.778925 0.334093 0.840046
O O4 0.838458 0.258993 0.032752
O O5 0.636957 0.500000 0.608174
O O6 0.574206 0.303213 0.445502
O O7 0.615815 0.230244 0.625292
O O8 0.713430 0.287085 0.642503
O O9 0.972998 0.195335 0.225740
O O10 0.944462 0.279355 0.323544
O O11 0.968640 0.000000 0.325720
O O12 0.385049 0.500000 0.056876
O O13 0.435407 0.723905 0.045414
O O14 0.634077 0.000000 0.727925
O O15 0.857042 0.768690 0.829211
O O16 0.928877 0.000000 0.946737
O O17 0.000000 0.761301 0.000000
O O18 0.812191 0.500000 0.769531
#
# Coordination Sequence:
#
# PCOD8095609 Si02
#       7
#     8   8   8   8   8   8   8
#     4   9  17  31  49  67  92 125 158 195 237 279
#     4   9  18  33  50  67  91 125 163 198 231 269
#     4  10  20  33  48  65  91 128 163 196 233 274
#     4   9  18  32  49  70  94 122 157 192 232 282
#     4  11  21  31  46  69  94 122 161 204 238 271
#     4   9  17  30  50  75  98 117 142 183 234 284
#     4   8  15  28  47  70  91 115 151 189 225 269
#
# _framework density 17.864526999999999
#
# number of rings (size 3 to 8) (size 9 to 14) (size 15 to 20)
#    0.000    2.714    0.000    3.000    0.000    7.143 
#    0.000    0.000    0.000    0.857    0.000    0.000 
#    0.000    0.000    0.000    0.000    0.000    1.857 
#
# Total GULP energy -347120.239887 kJ/mol
# GULP energy per Si atom -12397.151425 kJ/mol
# Density = 1.782387 g / cm^3
# Si number density = 17.864527 Si / 1000 Ang^3
#
#
#
# Elastic Constant Matrix: (Units=GPa)
#
#
# Indices 1 2 3 4 5 6 
#
# 1 72.4306 35.5140 58.2045 0.0000 27.4851 0.0000
# 2 35.5140 80.5858 45.9837 0.0000 11.2181 0.0000
# 3 58.2045 45.9837 135.9850 0.0000 26.6147 0.0000
# 4 0.0000 0.0000 0.0000 22.9571 0.0000 8.6368
# 5 27.4851 11.2181 26.6147 0.0000 25.6999 0.0000
# 6 0.0000 0.0000 0.0000 8.6368 0.0000 18.2673
#
#
#
# Elastic Compliance Matrix: (Units=1/GPa)
#
#
# Indices 1 2 3 4 5 6 
#
# 1 0.031432 -0.006835 -0.006456 0.000000 -0.023947 0.000000
# 2 -0.006835 0.016919 -0.003488 0.000000 0.003536 0.000000
# 3 -0.006456 -0.003488 0.012100 0.000000 -0.004104 0.000000
# 4 0.000000 0.000000 0.000000 0.052984 0.000000 -0.025051
# 5 -0.023947 0.003536 -0.004104 0.000000 0.067227 0.000000
# 6 0.000000 0.000000 0.000000 -0.025051 0.000000 0.066587
#
#
# Mechanical properties :
#
#
# Convention : Reuss Voigt Hill
#
# Bulk Modulus (GPa) = 37.18281 63.15620 50.16950
# Shear Modulus (GPa) = 17.25501 23.33812 20.29657
#
# Velocity S-wave (km/s) = 3.11123 3.61833 3.37432
# Velocity P-wave (km/s) = 5.81079 7.27228 6.58222
#
# Compressibility (1/GPa) = 0.02689415
#
# Stress axis : x y z
#
# Youngs Moduli (GPa) = 31.81430 59.10430 82.64786
#
# Poissons Ratio (x) = 0.40397 0.53355
# Poissons Ratio (y) = 0.21745 0.28827
# Poissons Ratio (z) = 0.20538 0.20615
#
# Static dielectric constant tensor:
#      x y z
#    x 3.135590 0.000000 0.289510 
#    y 0.000000 3.327090 0.000000 
#    z 0.289510 0.000000 3.525570 
# 
# 
# High freq. dielectric constant tensor:
#      x y z
#    x 1.654000 0.000000 0.023570 
#    y 0.000000 1.687180 0.000000 
#    z 0.023570 0.000000 1.692150 
# 
# From -- ./inp_files/280875.got.cif
#   From: 2010.06.25/outbox.cif.g09.slc.cpg/sg12_141_cif.got.tgz:280875.got - 2010.06.28 00:19:55.
