data_PCOD8095440
_publ_section_title
;
Structure prediction by ZEFSAII (Michael W. Deem and Ramdas Pophale) SiO2 
 PCOD8095440
Probable space group: C 2/M
;
_chemical_formula_sum "Si O2"
_cell_formula_units_Z 56
_cell_length_a 17.520811
_cell_length_b 29.051312
_cell_length_c 9.087667
_cell_angle_alpha 90.000000
_cell_angle_beta 44.874249
_cell_angle_gamma 90.000000
_cell_volume 3263.638827
_symmetry_space_group_name_H-M "C 2/M"
_symmetry_group_IT_number 12
_symmetry_cell_setting 'monoclinic'
loop_
_space_group_symop_operation_xyz
x,y,z
-x,y,-z
-x,-y,-z
x,-y,z
1/2+x,1/2+y,z
1/2-x,1/2+y,-z
1/2-x,1/2-y,-z
1/2+x,1/2-y,z
loop_
_atom_site_type_symbol
_atom_site_label
_atom_site_fract_x
_atom_site_fract_y
_atom_site_fract_z
Si Si1 0.089039 0.761790 0.482973
Si Si2 0.728255 0.183653 0.137951
Si Si3 0.437986 0.264202 0.950928
Si Si4 0.382905 0.099293 0.231393
Si Si5 0.209008 0.317697 0.815367
Si Si6 0.611106 0.000000 0.767730
Si Si7 0.615932 0.100321 0.423598
Si Si8 0.891212 0.500000 0.563345
O O1 0.141618 0.718800 0.324890
O O2 0.177462 0.799716 0.402673
O O3 0.000000 0.785191 0.500000
O O4 0.027559 0.746268 0.713722
O O5 0.849787 0.201337 0.001472
O O6 0.707561 0.134184 0.237498
O O7 0.712108 0.178150 0.986867
O O8 0.383539 0.219007 0.096701
O O9 0.500000 0.289849 0.000000
O O10 0.307976 0.134961 0.247511
O O11 0.396454 0.110496 0.385677
O O12 0.327438 0.048354 0.282394
O O13 0.500000 0.100771 0.000000
O O14 0.574168 0.000000 0.651270
O O15 0.500000 0.000000 0.000000
O O16 0.500000 0.107365 0.500000
O O17 0.666766 0.048982 0.322913
O O18 0.000000 0.500000 0.500000
#
# Coordination Sequence:
#
# PCOD8095440 Si02
#       8
#     8   8   8   8   8   4   8   4
#     4  11  20  38  55  69 105 143 167 209 260 289
#     4  11  22  35  52  77 101 138 175 208 253 302
#     4  11  24  36  52  75 106 135 174 214 249 299
#     4  10  20  32  51  77 105 135 171 208 253 308
#     4  11  22  35  53  77 101 136 180 205 251 307
#     4   8  16  32  48  70 104 134 160 206 258 302
#     4  10  20  32  52  75 107 136 167 211 254 303
#     4   8  16  32  48  72 100 136 166 197 256 312
#
# _framework density 17.158760999999998
#
# number of rings (size 3 to 8) (size 9 to 14) (size 15 to 20)
#    0.000    1.714    2.857    2.571    6.000    2.286 
#    0.000    0.000    0.000    0.000    0.000    2.000 
#    0.000    0.000    0.000    0.000    0.000    0.000 
#
# Total GULP energy -346900.591912 kJ/mol
# GULP energy per Si atom -12389.306854 kJ/mol
# Density = 1.711971 g / cm^3
# Si number density = 17.158761 Si / 1000 Ang^3
#
#
#
# Elastic Constant Matrix: (Units=GPa)
#
#
# Indices 1 2 3 4 5 6 
#
# 1 104.7614 55.9034 39.8080 0.0000 8.8380 0.0000
# 2 55.9034 142.2014 39.7411 0.0000 -1.5710 0.0000
# 3 39.8080 39.7411 79.6813 0.0000 -5.2854 0.0000
# 4 0.0000 0.0000 0.0000 18.4969 0.0000 5.3760
# 5 8.8380 -1.5710 -5.2854 0.0000 20.5184 0.0000
# 6 0.0000 0.0000 0.0000 5.3760 0.0000 27.9988
#
#
#
# Elastic Compliance Matrix: (Units=1/GPa)
#
#
# Indices 1 2 3 4 5 6 
#
# 1 0.014690 -0.004257 -0.005756 0.000000 -0.008136 0.000000
# 2 -0.004257 0.009408 -0.002438 0.000000 0.001926 0.000000
# 3 -0.005756 -0.002438 0.017086 0.000000 0.006694 0.000000
# 4 0.000000 0.000000 0.000000 0.057259 0.000000 -0.010994
# 5 -0.008136 0.001926 0.006694 0.000000 0.054113 0.000000
# 6 0.000000 0.000000 0.000000 -0.010994 0.000000 0.037827
#
#
# Mechanical properties :
#
#
# Convention : Reuss Voigt Hill
#
# Bulk Modulus (GPa) = 61.41308 66.39434 63.90371
# Shear Modulus (GPa) = 22.65398 26.14893 24.40145
#
# Velocity S-wave (km/s) = 3.63748 3.90800 3.77516
# Velocity P-wave (km/s) = 7.31508 7.69035 7.50506
#
# Compressibility (1/GPa) = 0.01628318
#
# Stress axis : x y z
#
# Youngs Moduli (GPa) = 68.07132 106.28913 58.52859
#
# Poissons Ratio (x) = 0.45242 0.33689
# Poissons Ratio (y) = 0.28975 0.14270
# Poissons Ratio (z) = 0.39182 0.25915
#
# Static dielectric constant tensor:
#      x y z
#    x 3.197290 0.000000 0.165150 
#    y 0.000000 3.897800 0.000000 
#    z 0.165150 0.000000 3.198580 
# 
# 
# High freq. dielectric constant tensor:
#      x y z
#    x 1.658790 0.000000 0.027720 
#    y 0.000000 1.659070 0.000000 
#    z 0.027720 0.000000 1.653500 
# 
# From -- ./inp_files/80456.got.cif
#   From: 2010.06.25/outbox.cif.g09.slc.cpg/sg12_41_cif.got.tgz:80456.got - 2010.06.28 00:19:55.
