data_PCOD8095623
_publ_section_title
;
Structure prediction by ZEFSAII (Michael W. Deem and Ramdas Pophale) SiO2 
 PCOD8095623
Probable space group: C 2/M
;
_chemical_formula_sum "Si O2"
_cell_formula_units_Z 64
_cell_length_a 12.444467
_cell_length_b 13.532805
_cell_length_c 23.321008
_cell_angle_alpha 90.000000
_cell_angle_beta 69.825224
_cell_angle_gamma 90.000000
_cell_volume 3686.487695
_symmetry_space_group_name_H-M "C 2/M"
_symmetry_group_IT_number 12
_symmetry_cell_setting 'monoclinic'
loop_
_space_group_symop_operation_xyz
x,y,z
-x,y,-z
-x,-y,-z
x,-y,z
1/2+x,1/2+y,z
1/2-x,1/2+y,-z
1/2-x,1/2-y,-z
1/2+x,1/2-y,z
loop_
_atom_site_type_symbol
_atom_site_label
_atom_site_fract_x
_atom_site_fract_y
_atom_site_fract_z
Si Si1 0.024214 0.612564 0.430983
Si Si2 0.793605 0.760030 0.744142
Si Si3 0.957644 0.886182 0.916864
Si Si4 0.179113 0.113809 0.945252
Si Si5 0.774594 0.886744 0.337282
Si Si6 0.381120 0.781022 0.852145
Si Si7 0.083373 0.384384 0.759581
Si Si8 0.536410 0.244579 0.658583
O O1 0.982144 0.500000 0.428244
O O2 0.158914 0.620865 0.394669
O O3 0.000000 0.646247 0.500000
O O4 0.953999 0.687181 0.403380
O O5 0.738433 0.664959 0.722346
O O6 0.812732 0.732063 0.806113
O O7 0.708596 0.852619 0.757774
O O8 0.910721 0.791691 0.690821
O O9 0.928633 0.823429 0.865892
O O10 0.078837 0.851066 0.920646
O O11 0.963202 0.000000 0.896804
O O12 0.859460 0.870398 0.982346
O O13 0.295077 0.174328 0.914648
O O14 0.205698 0.000000 0.928210
O O15 0.871993 0.832517 0.356611
O O16 0.810539 0.000000 0.320011
O O17 0.488868 0.853287 0.823797
O O18 0.080239 0.500000 0.751522
O O19 0.055755 0.336089 0.703935
#
# Coordination Sequence:
#
# PCOD8095623 Si02
#       8
#     8   8   8   8   8   8   8   8
#     4   9  17  30  50  75 101 130 164 202 241 279
#     4   9  20  33  46  69  97 124 155 193 239 283
#     4   9  19  34  50  69  95 124 155 192 236 284
#     4   9  18  33  51  70  92 122 158 195 234 281
#     4   9  18  33  51  71  97 128 163 198 234 281
#     4  11  19  31  50  73  94 121 157 196 238 284
#     4  10  20  33  48  69  96 124 155 194 238 285
#     4   9  18  33  51  71  96 129 164 197 236 280
#
# _framework density 17.360696999999998
#
# number of rings (size 3 to 8) (size 9 to 14) (size 15 to 20)
#    0.000    2.625    0.000    2.625    0.000    5.000 
#    0.000    7.500    0.000    0.375    0.000    7.875 
#    0.000    0.000    0.000    0.000    0.000    0.000 
#
# Total GULP energy -396829.965750 kJ/mol
# GULP energy per Si atom -12400.936430 kJ/mol
# Density = 1.732118 g / cm^3
# Si number density = 17.360697 Si / 1000 Ang^3
#
#
#
# Elastic Constant Matrix: (Units=GPa)
#
#
# Indices 1 2 3 4 5 6 
#
# 1 85.9028 48.8694 24.5199 0.0000 4.2102 0.0000
# 2 48.8694 101.3953 34.9136 0.0000 1.8044 0.0000
# 3 24.5199 34.9136 58.7825 0.0000 2.2382 0.0000
# 4 0.0000 0.0000 0.0000 24.1580 0.0000 -0.5492
# 5 4.2102 1.8044 2.2382 0.0000 18.1140 0.0000
# 6 0.0000 0.0000 0.0000 -0.5492 0.0000 26.9435
#
#
#
# Elastic Compliance Matrix: (Units=1/GPa)
#
#
# Indices 1 2 3 4 5 6 
#
# 1 0.016513 -0.007007 -0.002619 0.000000 -0.002816 0.000000
# 2 -0.007007 0.015373 -0.006241 0.000000 0.000868 0.000000
# 3 -0.002619 -0.006241 0.021867 0.000000 -0.001471 0.000000
# 4 0.000000 0.000000 0.000000 0.041413 0.000000 0.000844
# 5 -0.002816 0.000868 -0.001471 0.000000 0.055956 0.000000
# 6 0.000000 0.000000 0.000000 0.000844 0.000000 0.037132
#
#
# Mechanical properties :
#
#
# Convention : Reuss Voigt Hill
#
# Bulk Modulus (GPa) = 45.41486 51.40957 48.41222
# Shear Modulus (GPa) = 21.99470 23.02828 22.51149
#
# Velocity S-wave (km/s) = 3.56325 3.64601 3.60487
# Velocity P-wave (km/s) = 6.56851 6.88487 6.72855
#
# Compressibility (1/GPa) = 0.02201923
#
# Stress axis : x y z
#
# Youngs Moduli (GPa) = 60.55938 65.04950 45.73048
#
# Poissons Ratio (x) = 0.45578 0.11977
# Poissons Ratio (y) = 0.42432 0.28541
# Poissons Ratio (z) = 0.15861 0.40598
#
# Static dielectric constant tensor:
#      x y z
#    x 3.317240 0.000000 -0.092610 
#    y 0.000000 3.113590 0.000000 
#    z -0.092610 0.000000 3.133970 
# 
# 
# High freq. dielectric constant tensor:
#      x y z
#    x 1.672870 0.000000 -0.006580 
#    y 0.000000 1.661860 0.000000 
#    z -0.006580 0.000000 1.666140 
# 
# From -- ./inp_files/305409.got.cif
#   From: 2010.06.25/outbox.cif.g09.slc.cpg/sg12_153_cif.got.tgz:305409.got - 2010.06.28 00:19:55.
