data_PCOD8095279
_publ_section_title
;
Structure prediction by ZEFSAII (Michael W. Deem and Ramdas Pophale) SiO2 
 PCOD8095279
Probable space group: C 2/M
;
_chemical_formula_sum "Si O2"
_cell_formula_units_Z 40
_cell_length_a 16.397948
_cell_length_b 33.781802
_cell_length_c 5.077656
_cell_angle_alpha 90.000000
_cell_angle_beta 127.259090
_cell_angle_gamma 90.000000
_cell_volume 2238.707479
_symmetry_space_group_name_H-M "C 2/M"
_symmetry_group_IT_number 12
_symmetry_cell_setting 'monoclinic'
loop_
_space_group_symop_operation_xyz
x,y,z
-x,y,-z
-x,-y,-z
x,-y,z
1/2+x,1/2+y,z
1/2-x,1/2+y,-z
1/2-x,1/2-y,-z
1/2+x,1/2-y,z
loop_
_atom_site_type_symbol
_atom_site_label
_atom_site_fract_x
_atom_site_fract_y
_atom_site_fract_z
Si Si1 0.878684 0.907707 0.765060
Si Si2 0.121340 0.956023 0.736378
Si Si3 0.936731 0.699151 0.615387
Si Si4 0.709078 0.676721 0.276589
Si Si5 0.838954 0.223564 0.293758
O O1 0.840834 0.926482 0.417465
O O2 0.821175 0.867054 0.702416
O O3 0.843072 0.938605 0.916481
O O4 0.000000 0.899743 0.000000
O O5 0.000000 0.959246 0.500000
O O6 0.168390 0.000000 0.789917
O O7 0.826888 0.677897 0.415719
O O8 0.930320 0.746566 0.546429
O O9 0.000000 0.679454 0.500000
O O10 0.000000 0.691328 0.000000
O O11 0.697497 0.703935 0.508293
O O12 0.636217 0.691427 0.889123
O O13 0.750000 0.250000 0.000000
#
# Coordination Sequence:
#
# PCOD8095279 Si02
#       5
#     8   8   8   8   8
#     4  10  20  32  48  73 101 130 158 191 241 291
#     4   9  17  31  50  71  98 129 158 188 229 291
#     4  11  21  34  51  71  94 129 174 210 246 289
#     4  11  21  35  51  72 102 128 163 212 251 288
#     4  10  20  35  50  66  92 130 168 208 251 287
#
# _framework density 17.867453999999999
#
# number of rings (size 3 to 8) (size 9 to 14) (size 15 to 20)
#    0.000    1.800    0.000    7.800    0.000    4.800 
#    0.000    0.000    0.000    0.000    0.000    0.000 
#    0.000   16.000    0.000    0.000    0.000    0.000 
#
# Total GULP energy -247922.897122 kJ/mol
# GULP energy per Si atom -12396.144856 kJ/mol
# Density = 1.782679 g / cm^3
# Si number density = 17.867454 Si / 1000 Ang^3
#
#
#
# Elastic Constant Matrix: (Units=GPa)
#
#
# Indices 1 2 3 4 5 6 
#
# 1 111.5909 55.9859 38.4549 0.0000 -27.1719 0.0000
# 2 55.9859 110.3309 17.4054 0.0000 -1.9091 0.0000
# 3 38.4549 17.4054 61.1647 0.0000 -20.2250 0.0000
# 4 0.0000 0.0000 0.0000 8.4695 0.0000 -8.6320
# 5 -27.1719 -1.9091 -20.2250 0.0000 30.4793 0.0000
# 6 0.0000 0.0000 0.0000 -8.6320 0.0000 32.7116
#
#
#
# Elastic Compliance Matrix: (Units=1/GPa)
#
#
# Indices 1 2 3 4 5 6 
#
# 1 0.017482 -0.007907 -0.004806 0.000000 0.011901 0.000000
# 2 -0.007907 0.013122 -0.001053 0.000000 -0.006926 0.000000
# 3 -0.004806 -0.001053 0.023357 0.000000 0.011148 0.000000
# 4 0.000000 0.000000 0.000000 0.161506 0.000000 0.042619
# 5 0.011901 -0.006926 0.011148 0.000000 0.050382 0.000000
# 6 0.000000 0.000000 0.000000 0.042619 0.000000 0.041816
#
#
# Mechanical properties :
#
#
# Convention : Reuss Voigt Hill
#
# Bulk Modulus (GPa) = 37.83693 56.30878 47.07285
# Shear Modulus (GPa) = 14.53451 25.74811 20.14131
#
# Velocity S-wave (km/s) = 2.85522 3.80025 3.36112
# Velocity P-wave (km/s) = 5.66499 7.13015 6.43938
#
# Compressibility (1/GPa) = 0.02642921
#
# Stress axis : x y z
#
# Youngs Moduli (GPa) = 57.20051 76.20633 42.81382
#
# Poissons Ratio (x) = 0.60257 0.20577
# Poissons Ratio (y) = 0.45229 0.04508
# Poissons Ratio (z) = 0.27491 0.08025
#
# Static dielectric constant tensor:
#      x y z
#    x 3.492400 0.000000 -0.478090 
#    y 0.000000 3.408780 0.000000 
#    z -0.478090 0.000000 3.671210 
# 
# 
# High freq. dielectric constant tensor:
#      x y z
#    x 1.689170 0.000000 -0.039240 
#    y 0.000000 1.677400 0.000000 
#    z -0.039240 0.000000 1.681390 
# 
# From -- ./inp_files/13013.got.cif
#   From: 2010.06.25/outbox.cif.g09.slc.cpg/sg12_7_cif.got.tgz:13013.got - 2010.06.28 00:19:55.
