data_PCOD8095092
_publ_section_title
;
Structure prediction by ZEFSAII (Michael W. Deem and Ramdas Pophale) SiO2 
 PCOD8095092
Probable space group: C 2/M
;
_chemical_formula_sum "Si O2"
_cell_formula_units_Z 48
_cell_length_a 5.182587
_cell_length_b 27.270510
_cell_length_c 23.602011
_cell_angle_alpha 90.000000
_cell_angle_beta 110.658928
_cell_angle_gamma 90.000000
_cell_volume 3121.218616
_symmetry_space_group_name_H-M "C 2/M"
_symmetry_group_IT_number 12
_symmetry_cell_setting 'monoclinic'
loop_
_space_group_symop_operation_xyz
x,y,z
-x,y,-z
-x,-y,-z
x,-y,z
1/2+x,1/2+y,z
1/2-x,1/2+y,-z
1/2-x,1/2-y,-z
1/2+x,1/2-y,z
loop_
_atom_site_type_symbol
_atom_site_label
_atom_site_fract_x
_atom_site_fract_y
_atom_site_fract_z
Si Si1 0.565731 0.941774 0.725506
Si Si2 0.180194 0.878049 0.460965
Si Si3 0.957370 0.772233 0.431485
Si Si4 0.451086 0.441785 0.653908
Si Si5 0.723477 0.441490 0.138272
Si Si6 0.888904 0.441540 0.931669
O O1 0.768484 0.923093 0.692210
O O2 0.668113 0.920458 0.793523
O O3 0.259830 0.922631 0.688546
O O4 0.566846 0.000000 0.728582
O O5 0.500000 0.867698 0.500000
O O6 0.170941 0.919353 0.412635
O O7 0.000000 0.897476 0.500000
O O8 0.035340 0.828606 0.427413
O O9 0.629100 0.761290 0.399651
O O10 0.000000 0.755006 0.500000
O O11 0.438127 0.500000 0.646430
O O12 0.724799 0.500000 0.139354
O O13 0.417516 0.421457 0.102940
O O14 0.918448 0.421450 0.103576
O O15 0.890576 0.500000 0.932506
O O16 0.000000 0.421023 0.000000
#
# Coordination Sequence:
#
# PCOD8095092 Si02
#       6
#     8   8   8   8   8   8
#     4   9  17  29  42  53  67  94 131 165 194 221
#     4  11  21  31  45  63  80 100 124 152 197 247
#     4   9  16  28  45  63  81  98 117 144 181 230
#     4  10  20  32  43  56  76 100 129 165 198 229
#     4   9  15  23  35  48  63  87 119 151 186 227
#     4   9  15  21  30  47  69  88 108 143 193 237
#
# _framework density 15.378608
#
# number of rings (size 3 to 8) (size 9 to 14) (size 15 to 20)
#    0.000    2.500    0.000    5.000    0.000    6.667 
#    0.000    0.000    0.000    0.000    0.000    0.000 
#    0.000    0.000    0.000    0.000    0.000    0.000 
#
# Total GULP energy -297496.110343 kJ/mol
# GULP energy per Si atom -12395.671264 kJ/mol
# Density = 1.534361 g / cm^3
# Si number density = 15.378608 Si / 1000 Ang^3
#
#
#
# Elastic Constant Matrix: (Units=GPa)
#
#
# Indices 1 2 3 4 5 6 
#
# 1 155.6878 23.8001 50.9986 0.0000 -4.5321 0.0000
# 2 23.8001 24.4620 23.5620 0.0000 -2.8178 0.0000
# 3 50.9986 23.5620 86.7903 0.0000 -8.8371 0.0000
# 4 0.0000 0.0000 0.0000 0.5476 0.0000 1.1081
# 5 -4.5321 -2.8178 -8.8371 0.0000 28.8449 0.0000
# 6 0.0000 0.0000 0.0000 1.1081 0.0000 10.2537
#
#
#
# Elastic Compliance Matrix: (Units=1/GPa)
#
#
# Indices 1 2 3 4 5 6 
#
# 1 0.008319 -0.004590 -0.003669 0.000000 -0.000265 0.000000
# 2 -0.004590 0.057907 -0.012924 0.000000 0.000976 0.000000
# 3 -0.003669 -0.012924 0.017547 0.000000 0.003537 0.000000
# 4 0.000000 0.000000 0.000000 2.337420 0.000000 -0.252604
# 5 -0.000265 0.000976 0.003537 0.000000 0.035805 0.000000
# 6 0.000000 0.000000 0.000000 -0.252604 0.000000 0.124824
#
#
# Mechanical properties :
#
#
# Convention : Reuss Voigt Hill
#
# Bulk Modulus (GPa) = 24.15125 51.51796 37.83460
# Shear Modulus (GPa) = 1.89538 19.16785 10.53161
#
# Velocity S-wave (km/s) = 1.11138 3.53426 2.61975
# Velocity P-wave (km/s) = 4.16958 7.08711 5.81432
#
# Compressibility (1/GPa) = 0.04140573
#
# Stress axis : x y z
#
# Youngs Moduli (GPa) = 120.20655 17.26910 56.99046
#
# Poissons Ratio (x) = 0.07927 0.20911
# Poissons Ratio (y) = 0.55179 0.73655
# Poissons Ratio (z) = 0.44106 0.22319
#
# Static dielectric constant tensor:
#      x y z
#    x 3.423530 0.000000 0.028160 
#    y 0.000000 2.325040 0.000000 
#    z 0.028160 0.000000 2.896960 
# 
# 
# High freq. dielectric constant tensor:
#      x y z
#    x 1.623560 0.000000 0.002300 
#    y 0.000000 1.510970 0.000000 
#    z 0.002300 0.000000 1.572170 
# 
# From -- ./inp_files/253746.got.cif
#   From: 2010.06.25/outbox.cif.g09.slc.cpg/sg12_127_cif.got.tgz:253746.got - 2010.06.28 00:19:55.
