data_PCOD8095285
_publ_section_title
;
Structure prediction by ZEFSAII (Michael W. Deem and Ramdas Pophale) SiO2 
 PCOD8095285
Probable space group: C 2/M
;
_chemical_formula_sum "Si O2"
_cell_formula_units_Z 56
_cell_length_a 27.649823
_cell_length_b 9.021338
_cell_length_c 14.005031
_cell_angle_alpha 90.000000
_cell_angle_beta 60.178131
_cell_angle_gamma 90.000000
_cell_volume 3030.782459
_symmetry_space_group_name_H-M "C 2/M"
_symmetry_group_IT_number 12
_symmetry_cell_setting 'monoclinic'
loop_
_space_group_symop_operation_xyz
x,y,z
-x,y,-z
-x,-y,-z
x,-y,z
1/2+x,1/2+y,z
1/2-x,1/2+y,-z
1/2-x,1/2-y,-z
1/2+x,1/2-y,z
loop_
_atom_site_type_symbol
_atom_site_label
_atom_site_fract_x
_atom_site_fract_y
_atom_site_fract_z
Si Si1 0.562770 0.674123 0.746925
Si Si2 0.329360 0.327783 0.868066
Si Si3 0.788451 0.328092 0.095409
Si Si4 0.534050 0.835089 0.062819
Si Si5 0.629029 0.674608 0.867870
Si Si6 0.946445 0.670647 0.428884
Si Si7 0.574579 0.171240 0.337713
O O1 0.552881 0.500000 0.758718
O O2 0.503462 0.753351 0.821988
O O3 0.608196 0.720045 0.782522
O O4 0.583300 0.728787 0.622988
O O5 0.334127 0.500000 0.890558
O O6 0.277544 0.299828 0.847420
O O7 0.385399 0.275741 0.762047
O O8 0.320455 0.236005 0.972586
O O9 0.803027 0.500000 0.089261
O O10 0.810464 0.245746 0.169862
O O11 0.549979 0.000000 0.084370
O O12 0.500000 0.847895 0.000000
O O13 0.588824 0.738806 0.989827
O O14 0.631644 0.500000 0.876622
O O15 0.938512 0.500000 0.408229
O O16 0.916551 0.704500 0.558641
O O17 0.011567 0.710092 0.371877
O O18 0.588177 0.000000 0.302656
#
# Coordination Sequence:
#
# PCOD8095285 Si02
#       7
#     8   8   8   8   8   8   8
#     4  10  20  32  48  73 105 137 169 212 260 303
#     4  10  21  36  55  79 105 134 170 215 263 307
#     4  10  21  36  54  77 104 137 175 211 255 311
#     4   9  17  29  45  66  95 134 173 204 243 299
#     4  10  20  33  49  72 103 136 171 213 259 304
#     4   9  19  35  54  77 104 137 176 211 251 308
#     4   9  19  36  56  77 103 136 173 214 258 304
#
# _framework density 18.477077999999999
#
# number of rings (size 3 to 8) (size 9 to 14) (size 15 to 20)
#    0.000    2.429    0.000    3.000    2.000    6.286 
#    0.000    1.429    0.000    0.857    0.000    0.000 
#    0.000    0.000    0.000    0.000    0.000    0.000 
#
# Total GULP energy -347179.408553 kJ/mol
# GULP energy per Si atom -12399.264591 kJ/mol
# Density = 1.843502 g / cm^3
# Si number density = 18.477078 Si / 1000 Ang^3
#
#
#
# Elastic Constant Matrix: (Units=GPa)
#
#
# Indices 1 2 3 4 5 6 
#
# 1 68.3639 34.5373 9.4489 0.0000 11.8199 0.0000
# 2 34.5373 88.0626 18.5969 0.0000 7.4870 0.0000
# 3 9.4489 18.5969 48.9293 0.0000 5.3296 0.0000
# 4 0.0000 0.0000 0.0000 23.8080 0.0000 1.3392
# 5 11.8199 7.4870 5.3296 0.0000 26.1781 0.0000
# 6 0.0000 0.0000 0.0000 1.3392 0.0000 32.4925
#
#
#
# Elastic Compliance Matrix: (Units=1/GPa)
#
#
# Indices 1 2 3 4 5 6 
#
# 1 0.019338 -0.006939 -0.000370 0.000000 -0.006671 0.000000
# 2 -0.006939 0.015016 -0.004337 0.000000 -0.000279 0.000000
# 3 -0.000370 -0.004337 0.022503 0.000000 -0.003174 0.000000
# 4 0.000000 0.000000 0.000000 0.042100 0.000000 -0.001735
# 5 -0.006671 -0.000279 -0.003174 0.000000 0.041938 0.000000
# 6 0.000000 0.000000 0.000000 -0.001735 0.000000 0.030848
#
#
# Mechanical properties :
#
#
# Convention : Reuss Voigt Hill
#
# Bulk Modulus (GPa) = 29.79288 36.72467 33.25878
# Shear Modulus (GPa) = 24.24545 26.01389 25.12967
#
# Velocity S-wave (km/s) = 3.62635 3.75627 3.69188
# Velocity P-wave (km/s) = 5.80458 6.22348 6.01767
#
# Compressibility (1/GPa) = 0.03356506
#
# Stress axis : x y z
#
# Youngs Moduli (GPa) = 51.71262 66.59374 44.43783
#
# Poissons Ratio (x) = 0.46207 0.01646
# Poissons Ratio (y) = 0.35881 0.19273
# Poissons Ratio (z) = 0.01916 0.28882
#
# Static dielectric constant tensor:
#      x y z
#    x 3.525810 0.000000 0.136280 
#    y 0.000000 3.431370 0.000000 
#    z 0.136280 0.000000 3.188920 
# 
# 
# High freq. dielectric constant tensor:
#      x y z
#    x 1.716100 0.000000 0.017430 
#    y 0.000000 1.725920 0.000000 
#    z 0.017430 0.000000 1.686040 
# 
# From -- ./inp_files/248906.got.cif
#   From: 2010.06.25/outbox.cif.g09.slc.cpg/sg12_125_cif.got.tgz:248906.got - 2010.06.28 00:19:55.
