data_PCOD8095862
_publ_section_title
;
Structure prediction by ZEFSAII (Michael W. Deem and Ramdas Pophale) SiO2 
 PCOD8095862
Probable space group: C 2/M
;
_chemical_formula_sum "Si O2"
_cell_formula_units_Z 56
_cell_length_a 19.347834
_cell_length_b 9.079262
_cell_length_c 17.780857
_cell_angle_alpha 90.000000
_cell_angle_beta 88.747963
_cell_angle_gamma 90.000000
_cell_volume 3122.711702
_symmetry_space_group_name_H-M "C 2/M"
_symmetry_group_IT_number 12
_symmetry_cell_setting 'monoclinic'
loop_
_space_group_symop_operation_xyz
x,y,z
-x,y,-z
-x,-y,-z
x,-y,z
1/2+x,1/2+y,z
1/2-x,1/2+y,-z
1/2-x,1/2-y,-z
1/2+x,1/2-y,z
loop_
_atom_site_type_symbol
_atom_site_label
_atom_site_fract_x
_atom_site_fract_y
_atom_site_fract_z
Si Si1 0.808383 0.329231 0.592930
Si Si2 0.092014 0.834955 0.302797
Si Si3 0.669455 0.171681 0.579779
Si Si4 0.929740 0.327283 0.162506
Si Si5 0.071116 0.829284 0.690659
Si Si6 0.582619 0.165068 0.000369
Si Si7 0.928262 0.831697 0.860768
O O1 0.790943 0.500000 0.604041
O O2 0.868079 0.283502 0.648837
O O3 0.739754 0.237161 0.612616
O O4 0.835160 0.295688 0.508622
O O5 0.116570 0.821272 0.214850
O O6 0.010632 0.802462 0.310796
O O7 0.107827 0.000000 0.332015
O O8 0.603777 0.250442 0.617919
O O9 0.667298 0.000000 0.598417
O O10 0.928587 0.500000 0.180566
O O11 0.896490 0.240049 0.233518
O O12 0.008112 0.276881 0.151193
O O13 0.889746 0.293863 0.084410
O O14 0.090398 0.000000 0.689001
O O15 0.612985 0.275652 0.063678
O O16 0.605896 0.000000 0.020746
O O17 0.500000 0.177186 0.000000
O O18 0.953327 0.000000 0.872129
#
# Coordination Sequence:
#
# PCOD8095862 Si02
#       7
#     8   8   8   8   8   8   8
#     4  10  21  36  55  76  96 125 165 203 240 290
#     4   9  19  33  48  71 103 134 162 200 248 289
#     4  10  21  37  55  74  98 127 160 201 247 292
#     4   9  16  26  40  61  92 127 161 198 242 286
#     4  10  20  33  50  74 102 131 165 202 243 291
#     4   8  14  23  36  57  87 124 161 196 237 283
#     4   9  16  25  39  62  92 126 162 198 239 285
#
# _framework density 17.933130999999999
#
# number of rings (size 3 to 8) (size 9 to 14) (size 15 to 20)
#    0.000    2.714    0.000    3.857    0.000    8.857 
#    0.000    2.857    0.000    0.000    0.000    1.000 
#    0.000    0.000    0.000    0.000    0.000    0.000 
#
# Total GULP energy -347029.988775 kJ/mol
# GULP energy per Si atom -12393.928171 kJ/mol
# Density = 1.789231 g / cm^3
# Si number density = 17.933131 Si / 1000 Ang^3
#
#
#
# Elastic Constant Matrix: (Units=GPa)
#
#
# Indices 1 2 3 4 5 6 
#
# 1 30.2134 26.2406 31.6525 0.0000 7.3143 0.0000
# 2 26.2406 101.3393 58.7058 0.0000 8.0805 0.0000
# 3 31.6525 58.7058 106.4801 0.0000 8.9631 0.0000
# 4 0.0000 0.0000 0.0000 37.5473 0.0000 -1.3627
# 5 7.3143 8.0805 8.9631 0.0000 4.0880 0.0000
# 6 0.0000 0.0000 0.0000 -1.3627 0.0000 24.1077
#
#
#
# Elastic Compliance Matrix: (Units=1/GPa)
#
#
# Indices 1 2 3 4 5 6 
#
# 1 0.071310 -0.004765 -0.010575 0.000000 -0.094983 0.000000
# 2 -0.004765 0.015466 -0.006444 0.000000 -0.007916 0.000000
# 3 -0.010575 -0.006444 0.016461 0.000000 -0.004432 0.000000
# 4 0.000000 0.000000 0.000000 0.026688 0.000000 0.001509
# 5 -0.094983 -0.007916 -0.004432 0.000000 0.439932 0.000000
# 6 0.000000 0.000000 0.000000 0.001509 0.000000 0.041566
#
#
# Mechanical properties :
#
#
# Convention : Reuss Voigt Hill
#
# Bulk Modulus (GPa) = 16.75941 52.35896 34.55919
# Shear Modulus (GPa) = 7.40873 21.24419 14.32646
#
# Velocity S-wave (km/s) = 2.03477 3.44559 2.82952
# Velocity P-wave (km/s) = 3.85826 6.71488 5.47612
#
# Compressibility (1/GPa) = 0.05966798
#
# Stress axis : x y z
#
# Youngs Moduli (GPa) = 14.02336 64.65841 60.74972
#
# Poissons Ratio (x) = 0.30809 0.64245
# Poissons Ratio (y) = 0.06682 0.39147
# Poissons Ratio (z) = 0.14830 0.41666
#
# Static dielectric constant tensor:
#      x y z
#    x 2.757890 0.000000 -0.164670 
#    y 0.000000 3.438470 0.000000 
#    z -0.164670 0.000000 3.917300 
# 
# 
# High freq. dielectric constant tensor:
#      x y z
#    x 1.626280 0.000000 -0.009280 
#    y 0.000000 1.708790 0.000000 
#    z -0.009280 0.000000 1.712690 
# 
# From -- ./inp_files/280375.got.cif
#   From: 2010.06.25/outbox.cif.g09.slc.cpg/sg12_141_cif.got.tgz:280375.got - 2010.06.28 00:19:55.
