data_PCOD8095150
_publ_section_title
;
Structure prediction by ZEFSAII (Michael W. Deem and Ramdas Pophale) SiO2 
 PCOD8095150
Probable space group: C 2/M
;
_chemical_formula_sum "Si O2"
_cell_formula_units_Z 56
_cell_length_a 19.234589
_cell_length_b 9.087469
_cell_length_c 18.844342
_cell_angle_alpha 90.000000
_cell_angle_beta 104.299886
_cell_angle_gamma 90.000000
_cell_volume 3191.816229
_symmetry_space_group_name_H-M "C 2/M"
_symmetry_group_IT_number 12
_symmetry_cell_setting 'monoclinic'
loop_
_space_group_symop_operation_xyz
x,y,z
-x,y,-z
-x,-y,-z
x,-y,z
1/2+x,1/2+y,z
1/2-x,1/2+y,-z
1/2-x,1/2-y,-z
1/2+x,1/2-y,z
loop_
_atom_site_type_symbol
_atom_site_label
_atom_site_fract_x
_atom_site_fract_y
_atom_site_fract_z
Si Si1 0.401915 0.829036 0.284571
Si Si2 0.882640 0.174768 0.843842
Si Si3 0.758125 0.827996 0.711380
Si Si4 0.542285 0.325404 0.840661
Si Si5 0.062734 0.170826 0.567727
Si Si6 0.920743 0.173279 0.000779
Si Si7 0.722513 0.671790 0.562841
O O1 0.317582 0.797796 0.270408
O O2 0.427908 0.755909 0.219492
O O3 0.444559 0.760362 0.361380
O O4 0.419839 0.000000 0.286807
O O5 0.819241 0.237033 0.778719
O O6 0.959654 0.222162 0.831921
O O7 0.878029 0.000000 0.844198
O O8 0.871450 0.234028 0.923049
O O9 0.764743 0.739598 0.639990
O O10 0.769057 0.000000 0.697428
O O11 0.547977 0.500000 0.831002
O O12 0.591280 0.272031 0.921081
O O13 0.137971 0.202910 0.548425
O O14 0.000000 0.225319 0.500000
O O15 0.054041 0.000000 0.584602
O O16 0.913641 0.000000 0.000662
O O17 0.000000 0.220867 0.000000
O O18 0.739807 0.500000 0.562914
O O19 0.750000 0.750000 0.500000
#
# Coordination Sequence:
#
# PCOD8095150 Si02
#       7
#     8   8   8   8   8   8   8
#     4  10  20  32  46  67  98 129 151 180 229 283
#     4   8  14  27  49  72  90 116 159 201 229 261
#     4   9  18  33  50  67  92 126 158 187 224 272
#     4   9  16  28  49  72  92 118 156 199 233 265
#     4   9  19  36  55  71  88 117 158 196 226 263
#     4   7  11  22  43  70  92 112 149 199 237 260
#     4  10  20  34  52  72  95 121 150 188 231 275
#
# _framework density 17.544871000000001
#
# number of rings (size 3 to 8) (size 9 to 14) (size 15 to 20)
#    0.000    3.143    0.000    2.571    0.000    2.571 
#    0.000    7.143    0.000    4.714    0.000    0.000 
#    0.000    0.000    0.000    0.000    0.000    0.000 
#
# Total GULP energy -346942.691675 kJ/mol
# GULP energy per Si atom -12390.810417 kJ/mol
# Density = 1.750494 g / cm^3
# Si number density = 17.544871 Si / 1000 Ang^3
#
#
#
# Elastic Constant Matrix: (Units=GPa)
#
#
# Indices 1 2 3 4 5 6 
#
# 1 62.8890 34.8230 87.1392 0.0000 2.4024 0.0000
# 2 34.8230 58.2532 70.8123 0.0000 -6.8891 0.0000
# 3 87.1392 70.8123 220.6971 0.0000 0.7267 0.0000
# 4 0.0000 0.0000 0.0000 21.4169 0.0000 -4.2251
# 5 2.4024 -6.8891 0.7267 0.0000 35.2875 0.0000
# 6 0.0000 0.0000 0.0000 -4.2251 0.0000 21.5314
#
#
#
# Elastic Compliance Matrix: (Units=1/GPa)
#
#
# Indices 1 2 3 4 5 6 
#
# 1 0.037317 -0.007980 -0.012161 0.000000 -0.003848 0.000000
# 2 -0.007980 0.031036 -0.006830 0.000000 0.006743 0.000000
# 3 -0.012161 -0.006830 0.011527 0.000000 -0.000743 0.000000
# 4 0.000000 0.000000 0.000000 0.048572 0.000000 0.009531
# 5 -0.003848 0.006743 -0.000743 0.000000 0.029932 0.000000
# 6 0.000000 0.000000 0.000000 0.009531 0.000000 0.048314
#
#
# Mechanical properties :
#
#
# Convention : Reuss Voigt Hill
#
# Bulk Modulus (GPa) = 38.55244 80.82090 59.68667
# Shear Modulus (GPa) = 18.56764 25.58483 22.07624
#
# Velocity S-wave (km/s) = 3.25667 3.82285 3.55106
# Velocity P-wave (km/s) = 6.01353 8.10252 7.13489
#
# Compressibility (1/GPa) = 0.02593870
#
# Stress axis : x y z
#
# Youngs Moduli (GPa) = 26.79745 32.22049 86.75638
#
# Poissons Ratio (x) = 0.25711 1.05505
# Poissons Ratio (y) = 0.21384 0.59252
# Poissons Ratio (z) = 0.32589 0.22006
#
# Static dielectric constant tensor:
#      x y z
#    x 3.161990 0.000000 0.209770 
#    y 0.000000 3.003060 0.000000 
#    z 0.209770 0.000000 3.807210 
# 
# 
# High freq. dielectric constant tensor:
#      x y z
#    x 1.654960 0.000000 0.002210 
#    y 0.000000 1.649640 0.000000 
#    z 0.002210 0.000000 1.702180 
# 
# From -- ./inp_files/237850.got.cif
#   From: 2010.06.25/outbox.cif.g09.slc.cpg/sg12_119_cif.got.tgz:237850.got - 2010.06.28 00:19:55.
