data_PCOD8095266
_publ_section_title
;
Structure prediction by ZEFSAII (Michael W. Deem and Ramdas Pophale) SiO2 
 PCOD8095266
Probable space group: C 2/M
;
_chemical_formula_sum "Si O2"
_cell_formula_units_Z 48
_cell_length_a 19.405963
_cell_length_b 8.733188
_cell_length_c 22.153011
_cell_angle_alpha 90.000000
_cell_angle_beta 135.246813
_cell_angle_gamma 90.000000
_cell_volume 2643.302590
_symmetry_space_group_name_H-M "C 2/M"
_symmetry_group_IT_number 12
_symmetry_cell_setting 'monoclinic'
loop_
_space_group_symop_operation_xyz
x,y,z
-x,y,-z
-x,-y,-z
x,-y,z
1/2+x,1/2+y,z
1/2-x,1/2+y,-z
1/2-x,1/2-y,-z
1/2+x,1/2-y,z
loop_
_atom_site_type_symbol
_atom_site_label
_atom_site_fract_x
_atom_site_fract_y
_atom_site_fract_z
Si Si1 0.466899 0.175404 0.141477
Si Si2 0.807438 0.675018 0.717127
Si Si3 0.277229 0.682708 0.214433
Si Si4 0.322045 0.817981 0.593601
Si Si5 0.404722 0.817847 0.974467
Si Si6 0.971010 0.820312 0.269402
O O1 0.580160 0.191322 0.193322
O O2 0.441284 0.281690 0.182272
O O3 0.443871 0.000000 0.144951
O O4 0.404583 0.231259 0.044938
O O5 0.776389 0.500000 0.691840
O O6 0.741585 0.749502 0.729481
O O7 0.790975 0.748596 0.640405
O O8 0.269208 0.500000 0.210248
O O9 0.193798 0.747387 0.117457
O O10 0.383420 0.735986 0.258244
O O11 0.250000 0.750000 0.500000
O O12 0.432744 0.767877 0.648554
O O13 0.317850 0.000000 0.589612
O O14 0.408773 0.000000 0.973020
O O15 0.500000 0.749274 0.000000
O O16 0.989530 0.000000 0.286798
#
# Coordination Sequence:
#
# PCOD8095266 Si02
#       6
#     8   8   8   8   8   8
#     4   9  16  28  48  72  97 131 175 216 247 282
#     4   8  14  27  48  73  96 123 164 208 242 278
#     4   9  16  27  45  73 103 130 167 213 250 279
#     4  10  20  36  59  80  97 122 159 202 246 299
#     4   9  14  23  45  74  99 127 174 224 249 269
#     4  10  20  32  48  72 105 136 160 198 252 302
#
# _framework density 18.159101
#
# number of rings (size 3 to 8) (size 9 to 14) (size 15 to 20)
#    0.000    2.833    1.667    2.000    0.000    0.667 
#    0.000    0.833    0.000   16.500    0.000    0.000 
#    0.000    0.000    0.000    0.000    0.000    0.000 
#
# Total GULP energy -297450.475900 kJ/mol
# GULP energy per Si atom -12393.769829 kJ/mol
# Density = 1.811777 g / cm^3
# Si number density = 18.159101 Si / 1000 Ang^3
#
#
#
# Elastic Constant Matrix: (Units=GPa)
#
#
# Indices 1 2 3 4 5 6 
#
# 1 145.3696 24.9653 78.3834 0.0000 -2.2950 0.0000
# 2 24.9653 33.7263 23.7009 0.0000 0.4452 0.0000
# 3 78.3834 23.7009 150.8238 0.0000 -11.2560 0.0000
# 4 0.0000 0.0000 0.0000 21.9311 0.0000 -1.8240
# 5 -2.2950 0.4452 -11.2560 0.0000 20.8688 0.0000
# 6 0.0000 0.0000 0.0000 -1.8240 0.0000 19.4893
#
#
#
# Elastic Compliance Matrix: (Units=1/GPa)
#
#
# Indices 1 2 3 4 5 6 
#
# 1 0.010106 -0.004162 -0.004697 0.000000 -0.001333 0.000000
# 2 -0.004162 0.035319 -0.003624 0.000000 -0.003166 0.000000
# 3 -0.004697 -0.003624 0.010011 0.000000 0.004960 0.000000
# 4 0.000000 0.000000 0.000000 0.045955 0.000000 0.004301
# 5 -0.001333 -0.003166 0.004960 0.000000 0.050515 0.000000
# 6 0.000000 0.000000 0.000000 0.004301 0.000000 0.051713
#
#
# Mechanical properties :
#
#
# Convention : Reuss Voigt Hill
#
# Bulk Modulus (GPa) = 32.81856 64.89097 48.85476
# Shear Modulus (GPa) = 20.94323 25.98254 23.46288
#
# Velocity S-wave (km/s) = 3.39974 3.78673 3.59844
# Velocity P-wave (km/s) = 5.78990 7.41157 6.65035
#
# Compressibility (1/GPa) = 0.03047057
#
# Stress axis : x y z
#
# Youngs Moduli (GPa) = 98.95574 28.31306 99.88909
#
# Poissons Ratio (x) = 0.11783 0.46922
# Poissons Ratio (y) = 0.41183 0.36195
# Poissons Ratio (z) = 0.46483 0.10259
#
# Static dielectric constant tensor:
#      x y z
#    x 3.638080 0.000000 -0.267820 
#    y 0.000000 2.892580 0.000000 
#    z -0.267820 0.000000 3.472730 
# 
# 
# High freq. dielectric constant tensor:
#      x y z
#    x 1.706480 0.000000 -0.012820 
#    y 0.000000 1.654890 0.000000 
#    z -0.012820 0.000000 1.697300 
# 
# From -- ./inp_files/273594.got.cif
#   From: 2010.06.25/outbox.cif.g09.slc.cpg/sg12_137_cif.got.tgz:273594.got - 2010.06.28 00:19:55.
