data_PCOD8095673
_publ_section_title
;
Structure prediction by ZEFSAII (Michael W. Deem and Ramdas Pophale) SiO2 
 PCOD8095673
Probable space group: C 2/M
;
_chemical_formula_sum "Si O2"
_cell_formula_units_Z 64
_cell_length_a 19.993707
_cell_length_b 22.886705
_cell_length_c 9.870701
_cell_angle_alpha 90.000000
_cell_angle_beta 49.605614
_cell_angle_gamma 90.000000
_cell_volume 3439.953393
_symmetry_space_group_name_H-M "C 2/M"
_symmetry_group_IT_number 12
_symmetry_cell_setting 'monoclinic'
loop_
_space_group_symop_operation_xyz
x,y,z
-x,y,-z
-x,-y,-z
x,-y,z
1/2+x,1/2+y,z
1/2-x,1/2+y,-z
1/2-x,1/2-y,-z
1/2+x,1/2-y,z
loop_
_atom_site_type_symbol
_atom_site_label
_atom_site_fract_x
_atom_site_fract_y
_atom_site_fract_z
Si Si1 0.221546 0.567935 0.919853
Si Si2 0.020176 0.568047 0.126271
Si Si3 0.075477 0.392173 0.496405
Si Si4 0.272149 0.338473 0.647659
Si Si5 0.640665 0.223832 0.465527
Si Si6 0.258615 0.434232 0.177348
Si Si7 0.681017 0.660613 0.710694
Si Si8 0.091929 0.725527 0.821955
O O1 0.239041 0.500000 0.864765
O O2 0.276259 0.606627 0.742538
O O3 0.118932 0.582590 0.040741
O O4 0.254801 0.585208 0.025751
O O5 0.999381 0.500000 0.172955
O O6 0.953787 0.604340 0.308395
O O7 0.000000 0.587859 0.000000
O O8 0.094307 0.324034 0.428532
O O9 0.161039 0.431621 0.366883
O O10 0.000000 0.418336 0.500000
O O11 0.332767 0.286336 0.634149
O O12 0.319703 0.359497 0.446038
O O13 0.171348 0.317082 0.763069
O O14 0.728711 0.194892 0.402932
O O15 0.580233 0.231523 0.676200
O O16 0.293941 0.500000 0.144366
O O17 0.324077 0.393283 0.177698
O O18 0.606898 0.707274 0.851613
O O19 0.000000 0.701167 0.000000
#
# Coordination Sequence:
#
# PCOD8095673 Si02
#       8
#     8   8   8   8   8   8   8   8
#     4  10  21  33  47  72  99 129 168 204 241 288
#     4  10  22  33  44  69 102 135 172 206 238 285
#     4  11  20  32  50  69 103 137 167 200 244 291
#     4   9  18  34  50  68 102 131 163 206 243 293
#     4   8  18  32  46  69  99 133 164 201 248 292
#     4  10  20  33  49  69  98 134 167 199 246 300
#     4   8  17  34  49  70  96 129 165 202 245 299
#     4   9  17  29  52  75  96 125 164 205 251 294
#
# _framework density 18.604901999999999
#
# number of rings (size 3 to 8) (size 9 to 14) (size 15 to 20)
#    0.000    2.625    1.250    1.875    7.000    1.000 
#    0.000    6.875    0.000    0.375    0.000    0.000 
#    0.000    8.500    0.000    0.000    0.000    0.000 
#
# Total GULP energy -396533.215113 kJ/mol
# GULP energy per Si atom -12391.662972 kJ/mol
# Density = 1.856256 g / cm^3
# Si number density = 18.604902 Si / 1000 Ang^3
#
#
#
# Elastic Constant Matrix: (Units=GPa)
#
#
# Indices 1 2 3 4 5 6 
#
# 1 29.3678 20.8945 10.1941 0.0000 11.5009 0.0000
# 2 20.8945 96.0042 31.9285 0.0000 15.8473 0.0000
# 3 10.1941 31.9285 71.0278 0.0000 14.4808 0.0000
# 4 0.0000 0.0000 0.0000 32.3214 0.0000 3.3519
# 5 11.5009 15.8473 14.4808 0.0000 24.8281 0.0000
# 6 0.0000 0.0000 0.0000 3.3519 0.0000 19.2383
#
#
#
# Elastic Compliance Matrix: (Units=1/GPa)
#
#
# Indices 1 2 3 4 5 6 
#
# 1 0.045659 -0.007225 0.000075 0.000000 -0.016583 0.000000
# 2 -0.007225 0.014019 -0.004679 0.000000 -0.002872 0.000000
# 3 0.000075 -0.004679 0.017671 0.000000 -0.007355 0.000000
# 4 0.000000 0.000000 0.000000 0.031509 0.000000 -0.005490
# 5 -0.016583 -0.002872 -0.007355 0.000000 0.054081 0.000000
# 6 0.000000 0.000000 0.000000 -0.005490 0.000000 0.052936
#
#
# Mechanical properties :
#
#
# Convention : Reuss Voigt Hill
#
# Bulk Modulus (GPa) = 18.62502 35.82601 27.22552
# Shear Modulus (GPa) = 19.42275 24.16975 21.79625
#
# Velocity S-wave (km/s) = 3.23454 3.60822 3.42648
# Velocity P-wave (km/s) = 4.89716 6.05451 5.50633
#
# Compressibility (1/GPa) = 0.05369121
#
# Stress axis : x y z
#
# Youngs Moduli (GPa) = 21.90137 71.33169 56.58968
#
# Poissons Ratio (x) = 0.51539 -0.00427
# Poissons Ratio (y) = 0.15824 0.26480
# Poissons Ratio (z) = -0.00165 0.33378
#
# Static dielectric constant tensor:
#      x y z
#    x 3.339350 0.000000 0.102900 
#    y 0.000000 3.648840 0.000000 
#    z 0.102900 0.000000 3.254040 
# 
# 
# High freq. dielectric constant tensor:
#      x y z
#    x 1.681010 0.000000 0.015110 
#    y 0.000000 1.726380 0.000000 
#    z 0.015110 0.000000 1.707370 
# 
# From -- ./inp_files/90636.got.cif
#   From: 2010.06.25/outbox.cif.g09.slc.cpg/sg12_46_cif.got.tgz:90636.got - 2010.06.28 00:19:55.
