data_PCOD8095343
_publ_section_title
;
Structure prediction by ZEFSAII (Michael W. Deem and Ramdas Pophale) SiO2 
 PCOD8095343
Probable space group: C 2/M
;
_chemical_formula_sum "Si O2"
_cell_formula_units_Z 64
_cell_length_a 21.080585
_cell_length_b 9.451693
_cell_length_c 19.905602
_cell_angle_alpha 90.000000
_cell_angle_beta 57.403503
_cell_angle_gamma 90.000000
_cell_volume 3341.411262
_symmetry_space_group_name_H-M "C 2/M"
_symmetry_group_IT_number 12
_symmetry_cell_setting 'monoclinic'
loop_
_space_group_symop_operation_xyz
x,y,z
-x,y,-z
-x,-y,-z
x,-y,z
1/2+x,1/2+y,z
1/2-x,1/2+y,-z
1/2-x,1/2-y,-z
1/2+x,1/2-y,z
loop_
_atom_site_type_symbol
_atom_site_label
_atom_site_fract_x
_atom_site_fract_y
_atom_site_fract_z
Si Si1 0.054352 0.335250 0.906779
Si Si2 0.718680 0.154584 0.930764
Si Si3 0.472406 0.840027 0.813547
Si Si4 0.289815 0.334931 0.180706
Si Si5 0.140171 0.153966 0.063794
Si Si6 0.500218 0.838941 0.647306
Si Si7 0.076243 0.840821 0.498086
Si Si8 0.647966 0.161602 0.348533
O O1 0.074096 0.500000 0.903826
O O2 0.130635 0.244407 0.859827
O O3 0.020139 0.305685 0.852729
O O4 0.000000 0.287191 0.000000
O O5 0.754834 0.256291 0.853998
O O6 0.775434 0.130440 0.959052
O O7 0.694327 0.000000 0.916386
O O8 0.642766 0.235614 0.999977
O O9 0.406420 0.724462 0.849648
O O10 0.514553 0.817552 0.718761
O O11 0.440257 0.000000 0.835156
O O12 0.302868 0.500000 0.157162
O O13 0.233945 0.315535 0.275410
O O14 0.107039 0.000000 0.061457
O O15 0.561318 0.739047 0.576576
O O16 0.414245 0.801364 0.673640
O O17 0.517828 0.000000 0.616620
O O18 0.139271 0.760557 0.418622
O O19 0.000000 0.840479 0.500000
O O20 0.104015 0.000000 0.497263
O O21 0.636175 0.000000 0.377879
#
# Coordination Sequence:
#
# PCOD8095343 Si02
#       8
#     8   8   8   8   8   8   8   8
#     4  10  22  39  56  74 100 138 181 223 269 317
#     4  10  20  33  49  71 102 136 166 203 257 317
#     4  10  20  34  53  75 101 136 176 216 261 315
#     4  11  22  35  54  78 102 132 175 223 264 307
#     4  10  20  32  49  74 102 132 166 208 258 310
#     4   9  17  31  52  77 107 141 172 205 251 311
#     4   9  17  29  48  77 110 140 169 203 248 305
#     4   9  18  32  51  77 108 139 169 205 255 313
#
# _framework density 19.153583999999999
#
# number of rings (size 3 to 8) (size 9 to 14) (size 15 to 20)
#    0.000    2.250    0.000    3.000    0.000    7.250 
#    0.000    2.500    0.000    0.750    0.000    0.000 
#    0.000    0.000    0.000    0.000    0.000    0.000 
#
# Total GULP energy -396469.095184 kJ/mol
# GULP energy per Si atom -12389.659224 kJ/mol
# Density = 1.910999 g / cm^3
# Si number density = 19.153584 Si / 1000 Ang^3
#
#
#
# Elastic Constant Matrix: (Units=GPa)
#
#
# Indices 1 2 3 4 5 6 
#
# 1 51.3876 27.4373 38.0050 0.0001 2.2332 0.0003
# 2 27.4373 159.1511 91.2753 0.0003 -4.6233 0.0008
# 3 38.0050 91.2753 140.8975 0.0000 2.5917 -0.0001
# 4 0.0001 0.0003 0.0000 34.9020 0.0000 -1.9544
# 5 2.2332 -4.6233 2.5917 0.0000 23.4415 0.0000
# 6 0.0003 0.0008 -0.0001 -1.9544 0.0000 19.6887
#
#
#
# Elastic Compliance Matrix: (Units=1/GPa)
#
#
# Indices 1 2 3 4 5 6 
#
# 1 0.024432 -0.000803 -0.006037 0.000000 -0.001818 0.000000
# 2 -0.000803 0.010197 -0.006441 0.000000 0.002800 0.000000
# 3 -0.006037 -0.006441 0.012937 0.000000 -0.002126 0.000000
# 4 0.000000 0.000000 0.000000 0.028812 0.000000 0.002860
# 5 -0.001818 0.002800 -0.002126 0.000000 0.043620 0.000000
# 6 0.000000 0.000000 0.000000 0.002860 0.000000 0.051074
#
#
# Mechanical properties :
#
#
# Convention : Reuss Voigt Hill
#
# Bulk Modulus (GPa) = 47.60562 73.87459 60.74010
# Shear Modulus (GPa) = 24.43384 28.58769 26.51076
#
# Velocity S-wave (km/s) = 3.57554 3.86755 3.72441
# Velocity P-wave (km/s) = 6.47724 7.65488 7.09055
#
# Compressibility (1/GPa) = 0.02100593
#
# Stress axis : x y z
#
# Youngs Moduli (GPa) = 40.92963 98.06965 77.29715
#
# Poissons Ratio (x) = 0.07872 0.46662
# Poissons Ratio (y) = 0.03286 0.49784
# Poissons Ratio (z) = 0.24708 0.63163
#
# Static dielectric constant tensor:
#      x y z
#    x 3.155210 0.000000 0.117860 
#    y 0.000000 3.905800 0.000000 
#    z 0.117860 0.000000 3.516980 
# 
# 
# High freq. dielectric constant tensor:
#      x y z
#    x 1.703690 0.000000 0.006670 
#    y 0.000000 1.760000 0.000000 
#    z 0.006670 0.000000 1.742550 
# 
# From -- ./inp_files/324185.got.cif
#   From: 2010.06.25/outbox.cif.g09.slc.cpg/sg12_163_cif.got.tgz:324185.got - 2010.06.28 00:19:55.
