data_PCOD8095630
_publ_section_title
;
Structure prediction by ZEFSAII (Michael W. Deem and Ramdas Pophale) SiO2 
 PCOD8095630
Probable space group: C 2/M
;
_chemical_formula_sum "Si O2"
_cell_formula_units_Z 56
_cell_length_a 23.943858
_cell_length_b 9.492480
_cell_length_c 14.086476
_cell_angle_alpha 90.000000
_cell_angle_beta 74.228188
_cell_angle_gamma 90.000000
_cell_volume 3081.130237
_symmetry_space_group_name_H-M "C 2/M"
_symmetry_group_IT_number 12
_symmetry_cell_setting 'monoclinic'
loop_
_space_group_symop_operation_xyz
x,y,z
-x,y,-z
-x,-y,-z
x,-y,z
1/2+x,1/2+y,z
1/2-x,1/2+y,-z
1/2-x,1/2-y,-z
1/2+x,1/2-y,z
loop_
_atom_site_type_symbol
_atom_site_label
_atom_site_fract_x
_atom_site_fract_y
_atom_site_fract_z
Si Si1 0.941997 0.834805 0.573071
Si Si2 0.689672 0.666637 0.026828
Si Si3 0.014260 0.167879 0.889179
Si Si4 0.674614 0.338509 0.470286
Si Si5 0.725115 0.335846 0.648401
Si Si6 0.141784 0.833468 0.846283
Si Si7 0.084464 0.167669 0.205016
O O1 0.891662 0.801556 0.521222
O O2 0.924970 0.771280 0.684285
O O3 0.000000 0.766984 0.500000
O O4 0.951969 0.000000 0.582714
O O5 0.703125 0.500000 0.022872
O O6 0.647535 0.712734 0.133580
O O7 0.750000 0.750000 0.000000
O O8 0.654920 0.710145 0.947963
O O9 0.079480 0.222704 0.838175
O O10 0.968168 0.229098 0.834841
O O11 0.010963 0.000000 0.889004
O O12 0.000000 0.225047 0.000000
O O13 0.688736 0.500000 0.439651
O O14 0.685746 0.303894 0.574784
O O15 0.714366 0.244819 0.383983
O O16 0.739077 0.500000 0.651987
O O17 0.691276 0.272972 0.754318
O O18 0.141215 0.000000 0.837014
O O19 0.082087 0.000000 0.205377
#
# Coordination Sequence:
#
# PCOD8095630 Si02
#       7
#     8   8   8   8   8   8   8
#     4   9  18  29  43  66  96 125 154 192 240 286
#     4  10  20  33  48  71 100 128 159 193 233 285
#     4   9  14  24  42  64  90 116 145 187 235 273
#     4   9  18  32  48  68  94 123 157 193 232 279
#     4   9  18  31  48  69  93 123 156 194 233 273
#     4   9  17  28  45  69  95 121 154 194 236 278
#     4   9  17  28  44  67  94 123 155 196 239 278
#
# _framework density 18.175149000000001
#
# number of rings (size 3 to 8) (size 9 to 14) (size 15 to 20)
#    0.000    2.857    1.429    0.000    4.000    0.000 
#    0.000    0.000    0.000    0.429    0.000    3.000 
#    0.000    0.000    0.000    0.000    0.000    0.000 
#
# Total GULP energy -347043.908962 kJ/mol
# GULP energy per Si atom -12394.425320 kJ/mol
# Density = 1.813378 g / cm^3
# Si number density = 18.175149 Si / 1000 Ang^3
#
#
#
# Elastic Constant Matrix: (Units=GPa)
#
#
# Indices 1 2 3 4 5 6 
#
# 1 123.9229 25.5167 50.9866 0.0000 -20.6634 0.0000
# 2 25.5167 17.8433 20.0919 0.0000 -5.5764 0.0000
# 3 50.9866 20.0919 132.7566 0.0000 -24.3164 0.0000
# 4 0.0000 0.0000 0.0000 12.7642 0.0000 -3.2760
# 5 -20.6634 -5.5764 -24.3164 0.0000 31.3661 0.0000
# 6 0.0000 0.0000 0.0000 -3.2760 0.0000 16.1526
#
#
#
# Elastic Compliance Matrix: (Units=1/GPa)
#
#
# Indices 1 2 3 4 5 6 
#
# 1 0.012521 -0.014512 -0.001835 0.000000 0.004246 0.000000
# 2 -0.014512 0.084992 -0.007311 0.000000 -0.000118 0.000000
# 3 -0.001835 -0.007311 0.010355 0.000000 0.005519 0.000000
# 4 0.000000 0.000000 0.000000 0.082646 0.000000 0.016762
# 5 0.004246 -0.000118 0.005519 0.000000 0.038936 0.000000
# 6 0.000000 0.000000 0.000000 0.016762 0.000000 0.065309
#
#
# Mechanical properties :
#
#
# Convention : Reuss Voigt Hill
#
# Bulk Modulus (GPa) = 16.51489 51.96815 34.24152
# Shear Modulus (GPa) = 13.80232 23.91844 18.86038
#
# Velocity S-wave (km/s) = 2.75872 3.63160 3.22483
# Velocity P-wave (km/s) = 4.38790 6.79998 5.72247
#
# Compressibility (1/GPa) = 0.06055143
#
# Stress axis : x y z
#
# Youngs Moduli (GPa) = 79.86892 11.76581 96.57602
#
# Poissons Ratio (x) = 0.17075 0.17718
# Poissons Ratio (y) = 1.15907 0.70608
# Poissons Ratio (z) = 0.14653 0.08602
#
# Static dielectric constant tensor:
#      x y z
#    x 3.514640 0.000000 -0.062310 
#    y 0.000000 2.733680 0.000000 
#    z -0.062310 0.000000 3.691590 
# 
# 
# High freq. dielectric constant tensor:
#      x y z
#    x 1.716930 0.000000 -0.004080 
#    y 0.000000 1.626100 0.000000 
#    z -0.004080 0.000000 1.716850 
# 
# From -- ./inp_files/231788.got.cif
#   From: 2010.06.25/outbox.cif.g09.slc.cpg/sg12_116_cif.got.tgz:231788.got - 2010.06.28 00:19:55.
