data_PCOD8095598
_publ_section_title
;
Structure prediction by ZEFSAII (Michael W. Deem and Ramdas Pophale) SiO2 
 PCOD8095598
Probable space group: C 2/M
;
_chemical_formula_sum "Si O2"
_cell_formula_units_Z 56
_cell_length_a 14.921554
_cell_length_b 9.174041
_cell_length_c 21.771589
_cell_angle_alpha 90.000000
_cell_angle_beta 90.439352
_cell_angle_gamma 90.000000
_cell_volume 2980.245840
_symmetry_space_group_name_H-M "C 2/M"
_symmetry_group_IT_number 12
_symmetry_cell_setting 'monoclinic'
loop_
_space_group_symop_operation_xyz
x,y,z
-x,y,-z
-x,-y,-z
x,-y,z
1/2+x,1/2+y,z
1/2-x,1/2+y,-z
1/2-x,1/2-y,-z
1/2+x,1/2-y,z
loop_
_atom_site_type_symbol
_atom_site_label
_atom_site_fract_x
_atom_site_fract_y
_atom_site_fract_z
Si Si1 0.372507 0.826585 0.377897
Si Si2 0.923363 0.673134 0.641064
Si Si3 0.899219 0.671961 0.508821
Si Si4 0.388796 0.327491 0.940898
Si Si5 0.734636 0.827586 0.851532
Si Si6 0.779758 0.172360 0.713823
Si Si7 0.088116 0.827538 0.922101
O O1 0.472622 0.776445 0.359008
O O2 0.346672 0.769617 0.447568
O O3 0.300067 0.765047 0.329609
O O4 0.370691 0.000000 0.377376
O O5 0.916590 0.500000 0.649727
O O6 0.872396 0.725245 0.577231
O O7 0.873539 0.753209 0.696372
O O8 0.893580 0.500000 0.508777
O O9 0.000000 0.723884 0.500000
O O10 0.388300 0.500000 0.938507
O O11 0.311454 0.263609 0.896915
O O12 0.485256 0.274909 0.916643
O O13 0.373539 0.277717 0.011152
O O14 0.758133 0.781222 0.782825
O O15 0.641105 0.754004 0.868807
O O16 0.724666 0.000000 0.857902
O O17 0.790425 0.000000 0.707205
O O18 0.097235 0.000000 0.913213
#
# Coordination Sequence:
#
# PCOD8095598 Si02
#       7
#     8   8   8   8   8   8   8
#     4   8  15  30  49  67  91 122 153 187 231 281
#     4   9  17  31  51  70  88 116 158 200 228 262
#     4   7  11  23  46  70  86 109 150 194 232 268
#     4   8  16  32  52  72  95 121 149 186 234 278
#     4  10  20  33  47  67  98 129 153 183 227 275
#     4  10  21  33  45  66  97 130 155 179 227 284
#     4   9  17  32  54  74  90 117 157 193 226 267
#
# _framework density 18.790396000000001
#
# number of rings (size 3 to 8) (size 9 to 14) (size 15 to 20)
#    0.000    3.286    0.000    3.000    0.000    2.286 
#    0.000    2.857    0.000    3.857    0.000    0.000 
#    0.000    0.000    0.000    0.000    0.000    0.000 
#
# Total GULP energy -346892.325472 kJ/mol
# GULP energy per Si atom -12389.011624 kJ/mol
# Density = 1.874763 g / cm^3
# Si number density = 18.790396 Si / 1000 Ang^3
#
#
#
# Elastic Constant Matrix: (Units=GPa)
#
#
# Indices 1 2 3 4 5 6 
#
# 1 51.5233 9.7176 19.3191 0.0000 -4.2311 0.0000
# 2 9.7176 17.7321 22.7108 0.0000 -7.1714 0.0000
# 3 19.3191 22.7108 97.1103 0.0000 -15.7944 0.0000
# 4 0.0000 0.0000 0.0000 10.5295 0.0000 -4.4370
# 5 -4.2311 -7.1714 -15.7944 0.0000 31.3377 0.0000
# 6 0.0000 0.0000 0.0000 -4.4370 0.0000 19.8138
#
#
#
# Elastic Compliance Matrix: (Units=1/GPa)
#
#
# Indices 1 2 3 4 5 6 
#
# 1 0.021979 -0.009282 -0.002249 0.000000 -0.000290 0.000000
# 2 -0.009282 0.087250 -0.016900 0.000000 0.010196 0.000000
# 3 -0.002249 -0.016900 0.015271 0.000000 0.003525 0.000000
# 4 0.000000 0.000000 0.000000 0.104867 0.000000 0.023483
# 5 -0.000290 0.010196 0.003525 0.000000 0.035981 0.000000
# 6 0.000000 0.000000 0.000000 0.023483 0.000000 0.055729
#
#
# Mechanical properties :
#
#
# Convention : Reuss Voigt Hill
#
# Bulk Modulus (GPa) = 14.78457 29.98451 22.38454
# Shear Modulus (GPa) = 12.48490 19.97740 16.23115
#
# Velocity S-wave (km/s) = 2.58045 3.26417 2.94224
# Velocity P-wave (km/s) = 4.09433 5.49531 4.84572
#
# Compressibility (1/GPa) = 0.06763811
#
# Stress axis : x y z
#
# Youngs Moduli (GPa) = 45.49847 11.46130 65.48493
#
# Poissons Ratio (x) = 0.10638 0.14727
# Poissons Ratio (y) = 0.42231 1.10670
# Poissons Ratio (z) = 0.10232 0.19370
#
# Static dielectric constant tensor:
#      x y z
#    x 3.608540 0.000000 0.265790 
#    y 0.000000 2.854500 0.000000 
#    z 0.265790 0.000000 3.704910 
# 
# 
# High freq. dielectric constant tensor:
#      x y z
#    x 1.727780 0.000000 0.002250 
#    y 0.000000 1.675490 0.000000 
#    z 0.002250 0.000000 1.738980 
# 
# From -- ./inp_files/309461.got.cif
#   From: 2010.06.25/outbox.cif.g09.slc.cpg/sg12_155_cif.got.tgz:309461.got - 2010.06.28 00:19:55.
