data_PCOD8095600
_publ_section_title
;
Structure prediction by ZEFSAII (Michael W. Deem and Ramdas Pophale) SiO2 
 PCOD8095600
Probable space group: C 2/M
;
_chemical_formula_sum "Si O2"
_cell_formula_units_Z 40
_cell_length_a 30.539443
_cell_length_b 13.519876
_cell_length_c 19.430521
_cell_angle_alpha 90.000000
_cell_angle_beta 162.253848
_cell_angle_gamma 90.000000
_cell_volume 2445.308774
_symmetry_space_group_name_H-M "C 2/M"
_symmetry_group_IT_number 12
_symmetry_cell_setting 'monoclinic'
loop_
_space_group_symop_operation_xyz
x,y,z
-x,y,-z
-x,-y,-z
x,-y,z
1/2+x,1/2+y,z
1/2-x,1/2+y,-z
1/2-x,1/2-y,-z
1/2+x,1/2-y,z
loop_
_atom_site_type_symbol
_atom_site_label
_atom_site_fract_x
_atom_site_fract_y
_atom_site_fract_z
Si Si1 0.380631 0.781848 0.648464
Si Si2 0.914780 0.109729 0.040510
Si Si3 0.774864 0.705344 0.344667
Si Si4 0.103364 0.387304 0.595930
Si Si5 0.584733 0.113843 0.056826
O O1 0.250000 0.750000 0.500000
O O2 0.466203 0.683820 0.752769
O O3 0.320819 0.830393 0.489076
O O4 0.482946 0.859493 0.839975
O O5 0.981556 0.000000 0.138730
O O6 0.866052 0.142082 0.889877
O O7 0.770266 0.113658 0.871616
O O8 0.905116 0.680944 0.485791
O O9 0.730355 0.821144 0.275037
O O10 0.056395 0.500000 0.507822
O O11 0.000000 0.342626 0.500000
O O12 0.631215 0.000000 0.120305
O O13 0.500000 0.135639 0.000000
#
# Coordination Sequence:
#
# PCOD8095600 Si02
#       5
#     8   8   8   8   8
#     4  11  20  31  49  73 103 130 165 204 240 294
#     4   8  18  33  50  73  99 127 163 206 248 294
#     4   9  18  32  51  72  98 128 164 206 244 290
#     4   8  15  32  57  77  96 126 163 209 262 299
#     4  10  20  33  47  67  99 138 168 196 241 294
#
# _framework density 16.357852999999999
#
# number of rings (size 3 to 8) (size 9 to 14) (size 15 to 20)
#    1.200    1.600    2.000    0.000    0.000    3.200 
#    0.000    2.000    0.000    0.600    0.000    0.000 
#    0.000    0.000    0.000    0.000    0.000    0.000 
#
# Total GULP energy -247766.304036 kJ/mol
# GULP energy per Si atom -12388.315202 kJ/mol
# Density = 1.632062 g / cm^3
# Si number density = 16.357853 Si / 1000 Ang^3
#
#
#
# Elastic Constant Matrix: (Units=GPa)
#
#
# Indices 1 2 3 4 5 6 
#
# 1 114.5971 36.2679 27.8645 0.0000 5.6750 0.0000
# 2 36.2679 81.0117 8.4034 0.0000 12.4039 0.0000
# 3 27.8645 8.4034 46.1999 0.0000 -1.8047 0.0000
# 4 0.0000 0.0000 0.0000 17.6389 0.0000 6.7923
# 5 5.6750 12.4039 -1.8047 0.0000 22.6174 0.0000
# 6 0.0000 0.0000 0.0000 6.7923 0.0000 22.7567
#
#
#
# Elastic Compliance Matrix: (Units=1/GPa)
#
#
# Indices 1 2 3 4 5 6 
#
# 1 0.011711 -0.004435 -0.006296 0.000000 -0.001008 0.000000
# 2 -0.004435 0.015512 -0.000437 0.000000 -0.007429 0.000000
# 3 -0.006296 -0.000437 0.025673 0.000000 0.003868 0.000000
# 4 0.000000 0.000000 0.000000 0.064055 0.000000 -0.019119
# 5 -0.001008 -0.007429 0.003868 0.000000 0.048850 0.000000
# 6 0.000000 0.000000 0.000000 -0.019119 0.000000 0.049650
#
#
# Mechanical properties :
#
#
# Convention : Reuss Voigt Hill
#
# Bulk Modulus (GPa) = 32.72221 42.98670 37.85445
# Shear Modulus (GPa) = 20.16357 23.88747 22.02552
#
# Velocity S-wave (km/s) = 3.51473 3.82554 3.67342
# Velocity P-wave (km/s) = 6.04305 6.77119 6.41746
#
# Compressibility (1/GPa) = 0.03056028
#
# Stress axis : x y z
#
# Youngs Moduli (GPa) = 85.39251 64.46489 38.95193
#
# Poissons Ratio (x) = 0.28592 0.24523
# Poissons Ratio (y) = 0.37874 0.01701
# Poissons Ratio (z) = 0.53760 0.02816
#
# Static dielectric constant tensor:
#      x y z
#    x 2.963600 0.000000 -0.001520 
#    y 0.000000 3.030240 0.000000 
#    z -0.001520 0.000000 2.943880 
# 
# 
# High freq. dielectric constant tensor:
#      x y z
#    x 1.607250 0.000000 -0.001520 
#    y 0.000000 1.624710 0.000000 
#    z -0.001520 0.000000 1.613560 
# 
# From -- ./inp_files/296628.got.cif
#   From: 2010.06.25/outbox.cif.g09.slc.cpg/sg12_149_cif.got.tgz:296628.got - 2010.06.28 00:19:55.
