data_PCOD8095621
_publ_section_title
;
Structure prediction by ZEFSAII (Michael W. Deem and Ramdas Pophale) SiO2 
 PCOD8095621
Probable space group: C 2/M
;
_chemical_formula_sum "Si O2"
_cell_formula_units_Z 64
_cell_length_a 18.154112
_cell_length_b 9.342005
_cell_length_c 22.836977
_cell_angle_alpha 90.000000
_cell_angle_beta 113.868224
_cell_angle_gamma 90.000000
_cell_volume 3541.826001
_symmetry_space_group_name_H-M "C 2/M"
_symmetry_group_IT_number 12
_symmetry_cell_setting 'monoclinic'
loop_
_space_group_symop_operation_xyz
x,y,z
-x,y,-z
-x,-y,-z
x,-y,z
1/2+x,1/2+y,z
1/2-x,1/2+y,-z
1/2-x,1/2-y,-z
1/2+x,1/2-y,z
loop_
_atom_site_type_symbol
_atom_site_label
_atom_site_fract_x
_atom_site_fract_y
_atom_site_fract_z
Si Si1 0.393912 0.831961 0.141387
Si Si2 0.453256 0.170385 0.739446
Si Si3 0.261288 0.834544 0.864848
Si Si4 0.288287 0.168301 0.742055
Si Si5 0.021992 0.669786 0.383470
Si Si6 0.824919 0.336672 0.003064
Si Si7 0.848395 0.668314 0.369020
Si Si8 0.824049 0.668336 0.495835
O O1 0.475400 0.770568 0.196156
O O2 0.317513 0.757774 0.146771
O O3 0.386094 0.000000 0.152130
O O4 0.398156 0.800897 0.071782
O O5 0.368245 0.227679 0.736189
O O6 0.466386 0.230682 0.678308
O O7 0.452868 0.000000 0.740094
O O8 0.296951 0.794365 0.813357
O O9 0.333897 0.805519 0.936097
O O10 0.234696 0.000000 0.857948
O O11 0.211695 0.249479 0.692487
O O12 0.276819 0.000000 0.727399
O O13 0.022337 0.500000 0.382488
O O14 0.094455 0.725048 0.447489
O O15 0.937985 0.724380 0.383184
O O16 0.801389 0.500000 0.004810
O O17 0.750000 0.250000 0.000000
O O18 0.840580 0.500000 0.354465
O O19 0.828509 0.706867 0.429220
O O20 0.812514 0.500000 0.502601
O O21 0.750000 0.750000 0.500000
#
# Coordination Sequence:
#
# PCOD8095621 Si02
#       8
#     8   8   8   8   8   8   8   8
#     4   9  16  28  48  70  90 118 159 199 230 269
#     4   9  17  29  46  68  93 123 158 192 229 277
#     4   9  17  29  45  67  95 124 153 189 236 285
#     4  10  20  33  48  68  97 129 156 188 238 290
#     4   9  17  31  51  72  95 124 158 195 231 269
#     4   8  14  25  42  65  91 118 151 191 232 273
#     4  10  20  34  53  75  95 120 161 203 230 264
#     4  10  20  34  53  76 101 128 156 189 232 279
#
# _framework density 18.069775
#
# number of rings (size 3 to 8) (size 9 to 14) (size 15 to 20)
#    0.000    2.750    0.000    1.875    0.000    4.500 
#    0.000    1.875    0.000    9.750    0.000    0.000 
#    0.000   11.000    0.000    0.000    0.000    0.000 
#
# Total GULP energy -396554.657469 kJ/mol
# GULP energy per Si atom -12392.333046 kJ/mol
# Density = 1.802865 g / cm^3
# Si number density = 18.069775 Si / 1000 Ang^3
#
#
#
# Elastic Constant Matrix: (Units=GPa)
#
#
# Indices 1 2 3 4 5 6 
#
# 1 113.7469 23.8645 47.8163 0.0000 -15.4005 0.0000
# 2 23.8645 23.3487 27.3367 0.0000 -4.7006 0.0000
# 3 47.8163 27.3367 134.5820 0.0000 -18.2731 0.0000
# 4 0.0000 0.0000 0.0000 22.1501 0.0000 0.5946
# 5 -15.4005 -4.7006 -18.2731 0.0000 24.5618 0.0000
# 6 0.0000 0.0000 0.0000 0.5946 0.0000 21.7992
#
#
#
# Elastic Compliance Matrix: (Units=1/GPa)
#
#
# Indices 1 2 3 4 5 6 
#
# 1 0.012120 -0.009390 -0.001792 0.000000 0.004469 0.000000
# 2 -0.009390 0.063607 -0.009712 0.000000 -0.000940 0.000000
# 3 -0.001792 -0.009712 0.010717 0.000000 0.004991 0.000000
# 4 0.000000 0.000000 0.000000 0.045180 0.000000 -0.001232
# 5 0.004469 -0.000940 0.004991 0.000000 0.047049 0.000000
# 6 0.000000 0.000000 0.000000 -0.001232 0.000000 0.045907
#
#
# Mechanical properties :
#
#
# Convention : Reuss Voigt Hill
#
# Bulk Modulus (GPa) = 22.39246 52.19030 37.29138
# Shear Modulus (GPa) = 17.77759 25.21290 21.49525
#
# Velocity S-wave (km/s) = 3.14001 3.73943 3.45275
# Velocity P-wave (km/s) = 5.05622 6.89854 6.04794
#
# Compressibility (1/GPa) = 0.04465789
#
# Stress axis : x y z
#
# Youngs Moduli (GPa) = 82.50911 15.72145 93.30577
#
# Poissons Ratio (x) = 0.14762 0.16721
# Poissons Ratio (y) = 0.77474 0.90614
# Poissons Ratio (z) = 0.14786 0.15268
#
# Static dielectric constant tensor:
#      x y z
#    x 3.212660 0.000000 -0.072640 
#    y 0.000000 3.054430 0.000000 
#    z -0.072640 0.000000 3.968930 
# 
# 
# High freq. dielectric constant tensor:
#      x y z
#    x 1.683600 0.000000 -0.004220 
#    y 0.000000 1.666030 0.000000 
#    z -0.004220 0.000000 1.728770 
# 
# From -- ./inp_files/345614.got.cif
#   From: 2010.06.25/outbox.cif.g09.slc.cpg/sg12_173_cif.got.tgz:345614.got - 2010.06.28 00:19:55.
