data_PCOD8095780
_publ_section_title
;
Structure prediction by ZEFSAII (Michael W. Deem and Ramdas Pophale) SiO2 
 PCOD8095780
Probable space group: C 2/M
;
_chemical_formula_sum "Si O2"
_cell_formula_units_Z 56
_cell_length_a 14.813384
_cell_length_b 9.478665
_cell_length_c 24.138428
_cell_angle_alpha 90.000000
_cell_angle_beta 116.757028
_cell_angle_gamma 90.000000
_cell_volume 3026.389365
_symmetry_space_group_name_H-M "C 2/M"
_symmetry_group_IT_number 12
_symmetry_cell_setting 'monoclinic'
loop_
_space_group_symop_operation_xyz
x,y,z
-x,y,-z
-x,-y,-z
x,-y,z
1/2+x,1/2+y,z
1/2-x,1/2+y,-z
1/2-x,1/2-y,-z
1/2+x,1/2-y,z
loop_
_atom_site_type_symbol
_atom_site_label
_atom_site_fract_x
_atom_site_fract_y
_atom_site_fract_z
Si Si1 0.117995 0.658917 0.681135
Si Si2 0.572483 0.839981 0.306894
Si Si3 0.927757 0.841232 0.432896
Si Si4 0.724120 0.157587 0.440111
Si Si5 0.158076 0.167741 0.232213
Si Si6 0.068010 0.166720 0.092657
Si Si7 0.345348 0.332053 0.999655
O O1 0.129054 0.500000 0.661358
O O2 0.063245 0.749918 0.619373
O O3 0.226751 0.718890 0.728656
O O4 0.047470 0.663542 0.715795
O O5 0.628105 0.786868 0.378637
O O6 0.591501 0.736537 0.261587
O O7 0.608745 0.000000 0.303183
O O8 0.813602 0.838442 0.421030
O O9 0.000000 0.775162 0.500000
O O10 0.964552 0.000000 0.429462
O O11 0.750000 0.250000 0.500000
O O12 0.704437 0.000000 0.456949
O O13 0.118553 0.226024 0.162507
O O14 0.147242 0.000000 0.233026
O O15 0.136286 0.216249 0.059188
O O16 0.069133 0.000000 0.091633
O O17 0.950163 0.213727 0.058821
O O18 0.325335 0.500000 0.999121
O O19 0.250000 0.250000 0.000000
#
# Coordination Sequence:
#
# PCOD8095780 Si02
#       7
#     8   8   8   8   8   8   8
#     4  10  21  35  53  76 102 134 173 217 265 317
#     4  10  21  37  53  75 107 138 170 220 278 319
#     4  10  20  34  52  74 100 131 170 216 266 320
#     4  10  20  33  50  72 100 132 167 214 268 322
#     4  10  20  36  56  78 105 142 186 220 255 320
#     4   8  17  34  54  77 110 149 181 213 262 318
#     4   9  17  33  57  82 111 146 181 220 262 307
#
# _framework density 18.503898
#
# number of rings (size 3 to 8) (size 9 to 14) (size 15 to 20)
#    0.000    2.429    1.429    1.714    0.000    3.143 
#    0.000    4.286    0.000    0.000    0.000    0.000 
#    0.000    0.000    0.000    0.000    0.000    0.000 
#
# Total GULP energy -347099.410844 kJ/mol
# GULP energy per Si atom -12396.407530 kJ/mol
# Density = 1.846178 g / cm^3
# Si number density = 18.503898 Si / 1000 Ang^3
#
#
#
# Elastic Constant Matrix: (Units=GPa)
#
#
# Indices 1 2 3 4 5 6 
#
# 1 114.6975 35.4989 52.3888 0.0000 -0.1723 0.0000
# 2 35.4989 48.0819 45.3284 0.0000 -6.8758 0.0000
# 3 52.3888 45.3284 143.5130 0.0000 -8.2001 0.0000
# 4 0.0000 0.0000 0.0000 19.7958 0.0000 -6.5159
# 5 -0.1723 -6.8758 -8.2001 0.0000 24.2034 0.0000
# 6 0.0000 0.0000 0.0000 -6.5159 0.0000 28.3728
#
#
#
# Elastic Compliance Matrix: (Units=1/GPa)
#
#
# Indices 1 2 3 4 5 6 
#
# 1 0.011939 -0.007043 -0.002288 0.000000 -0.002691 0.000000
# 2 -0.007043 0.034466 -0.007912 0.000000 0.007061 0.000000
# 3 -0.002288 -0.007912 0.010373 0.000000 0.001251 0.000000
# 4 0.000000 0.000000 0.000000 0.054647 0.000000 0.012550
# 5 -0.002691 0.007061 0.001251 0.000000 0.043727 0.000000
# 6 0.000000 0.000000 0.000000 0.012550 0.000000 0.038127
#
#
# Mechanical properties :
#
#
# Convention : Reuss Voigt Hill
#
# Bulk Modulus (GPa) = 44.85465 63.63606 54.24536
# Shear Modulus (GPa) = 21.25899 26.01281 23.63590
#
# Velocity S-wave (km/s) = 3.39321 3.75347 3.57788
# Velocity P-wave (km/s) = 6.29644 7.29726 6.81524
#
# Compressibility (1/GPa) = 0.02229423
#
# Stress axis : x y z
#
# Youngs Moduli (GPa) = 83.75767 29.01433 96.40030
#
# Poissons Ratio (x) = 0.20434 0.22053
# Poissons Ratio (y) = 0.58990 0.76268
# Poissons Ratio (z) = 0.19161 0.22955
#
# Static dielectric constant tensor:
#      x y z
#    x 3.430400 0.000000 0.121520 
#    y 0.000000 3.225380 0.000000 
#    z 0.121520 0.000000 3.639790 
# 
# 
# High freq. dielectric constant tensor:
#      x y z
#    x 1.724810 0.000000 0.008500 
#    y 0.000000 1.693940 0.000000 
#    z 0.008500 0.000000 1.716120 
# 
# From -- ./inp_files/360029.got.cif
#   From: 2010.06.25/outbox.cif.g09.slc.cpg/sg12_181_cif.got.tgz:360029.got - 2010.06.28 00:19:55.
