data_PCOD8095107
_publ_section_title
;
Structure prediction by ZEFSAII (Michael W. Deem and Ramdas Pophale) SiO2 
 PCOD8095107
Probable space group: C 2/M
;
_chemical_formula_sum "Si O2"
_cell_formula_units_Z 64
_cell_length_a 23.178844
_cell_length_b 9.457997
_cell_length_c 20.902755
_cell_angle_alpha 90.000000
_cell_angle_beta 121.320485
_cell_angle_gamma 90.000000
_cell_volume 3914.634066
_symmetry_space_group_name_H-M "C 2/M"
_symmetry_group_IT_number 12
_symmetry_cell_setting 'monoclinic'
loop_
_space_group_symop_operation_xyz
x,y,z
-x,y,-z
-x,-y,-z
x,-y,z
1/2+x,1/2+y,z
1/2-x,1/2+y,-z
1/2-x,1/2-y,-z
1/2+x,1/2-y,z
loop_
_atom_site_type_symbol
_atom_site_label
_atom_site_fract_x
_atom_site_fract_y
_atom_site_fract_z
Si Si1 0.180954 0.162170 0.616211
Si Si2 0.188836 0.165514 0.765719
Si Si3 0.757926 0.162314 0.904457
Si Si4 0.060985 0.663450 0.491875
Si Si5 0.559228 0.162765 0.344051
Si Si6 0.059046 0.159635 0.775237
Si Si7 0.788945 0.337246 0.575693
Si Si8 0.161616 0.839872 0.934658
O O1 0.185467 0.219863 0.691017
O O2 0.128026 0.250892 0.545202
O O3 0.253476 0.178881 0.624113
O O4 0.156741 0.000000 0.602298
O O5 0.251610 0.246124 0.836067
O O6 0.119046 0.204880 0.761120
O O7 0.204508 0.000000 0.777964
O O8 0.704123 0.218286 0.924775
O O9 0.742504 0.000000 0.878262
O O10 0.830716 0.177549 0.983463
O O11 0.076053 0.500000 0.515169
O O12 0.040078 0.687996 0.406760
O O13 0.000000 0.721114 0.500000
O O14 0.506407 0.244597 0.269731
O O15 0.634677 0.219669 0.373667
O O16 0.553691 0.000000 0.321617
O O17 0.085102 0.175331 0.863907
O O18 0.037192 0.000000 0.747206
O O19 0.790084 0.500000 0.553241
O O20 0.750000 0.250000 0.500000
O O21 0.186922 0.000000 0.930268
#
# Coordination Sequence:
#
# PCOD8095107 Si02
#       8
#     8   8   8   8   8   8   8   8
#     4  10  20  33  50  68  87 118 157 192 229 273
#     4   9  18  31  44  65  97 123 148 188 229 268
#     4   9  15  24  42  66  91 123 156 182 218 269
#     4  10  20  32  46  66  94 123 147 180 230 278
#     4  10  20  32  45  65  92 117 147 191 233 268
#     4   9  17  29  45  65  92 123 150 180 221 269
#     4  10  20  35  52  68  86 114 154 198 238 273
#     4   8  15  27  41  62  94 125 153 186 219 259
#
# _framework density 16.348911000000001
#
# number of rings (size 3 to 8) (size 9 to 14) (size 15 to 20)
#    0.000    2.625    1.250    1.875    0.000    4.250 
#    0.000    0.000    0.000    0.000    0.000    0.875 
#    0.000    7.000    0.000    0.000    0.000    0.000 
#
# Total GULP energy -396613.888108 kJ/mol
# GULP energy per Si atom -12394.184003 kJ/mol
# Density = 1.631170 g / cm^3
# Si number density = 16.348911 Si / 1000 Ang^3
#
#
#
# Elastic Constant Matrix: (Units=GPa)
#
#
# Indices 1 2 3 4 5 6 
#
# 1 67.7083 22.5650 29.2310 0.0000 17.0397 0.0000
# 2 22.5650 56.2361 44.4786 0.0000 12.7917 0.0000
# 3 29.2310 44.4786 106.5565 0.0000 23.8627 0.0000
# 4 0.0000 0.0000 0.0000 28.6807 0.0000 6.8061
# 5 17.0397 12.7917 23.8627 0.0000 16.5204 0.0000
# 6 0.0000 0.0000 0.0000 6.8061 0.0000 17.4462
#
#
#
# Elastic Compliance Matrix: (Units=1/GPa)
#
#
# Indices 1 2 3 4 5 6 
#
# 1 0.020734 -0.004323 0.000231 0.000000 -0.018372 0.000000
# 2 -0.004323 0.027963 -0.009809 0.000000 -0.003024 0.000000
# 3 0.000231 -0.009809 0.017395 0.000000 -0.017770 0.000000
# 4 0.000000 0.000000 0.000000 0.038424 0.000000 -0.014990
# 5 -0.018372 -0.003024 -0.017770 0.000000 0.107489 0.000000
# 6 0.000000 0.000000 0.000000 -0.014990 0.000000 0.063167
#
#
# Mechanical properties :
#
#
# Convention : Reuss Voigt Hill
#
# Bulk Modulus (GPa) = 26.11695 47.00556 36.56125
# Shear Modulus (GPa) = 15.83594 21.47788 18.65691
#
# Velocity S-wave (km/s) = 3.11565 3.62846 3.38179
# Velocity P-wave (km/s) = 5.38075 6.80942 6.13680
#
# Compressibility (1/GPa) = 0.03828932
#
# Stress axis : x y z
#
# Youngs Moduli (GPa) = 48.23033 35.76150 57.48726
#
# Poissons Ratio (x) = 0.15461 -0.01329
# Poissons Ratio (y) = 0.20852 0.56390
# Poissons Ratio (z) = -0.01115 0.35079
#
# Static dielectric constant tensor:
#      x y z
#    x 2.880540 0.000000 0.001920 
#    y 0.000000 3.104060 0.000000 
#    z 0.001920 0.000000 3.352410 
# 
# 
# High freq. dielectric constant tensor:
#      x y z
#    x 1.584300 0.000000 0.005390 
#    y 0.000000 1.632600 0.000000 
#    z 0.005390 0.000000 1.637950 
# 
# From -- ./inp_files/323682.got.cif
#   From: 2010.06.25/outbox.cif.g09.slc.cpg/sg12_162_cif.got.tgz:323682.got - 2010.06.28 00:19:55.
