data_PCOD8095123
_publ_section_title
;
Structure prediction by ZEFSAII (Michael W. Deem and Ramdas Pophale) SiO2 
 PCOD8095123
Probable space group: C 2/M
;
_chemical_formula_sum "Si O2"
_cell_formula_units_Z 64
_cell_length_a 24.463397
_cell_length_b 8.923726
_cell_length_c 22.418350
_cell_angle_alpha 90.000000
_cell_angle_beta 127.657671
_cell_angle_gamma 90.000000
_cell_volume 3874.481768
_symmetry_space_group_name_H-M "C 2/M"
_symmetry_group_IT_number 12
_symmetry_cell_setting 'monoclinic'
loop_
_space_group_symop_operation_xyz
x,y,z
-x,y,-z
-x,-y,-z
x,-y,z
1/2+x,1/2+y,z
1/2-x,1/2+y,-z
1/2-x,1/2-y,-z
1/2+x,1/2-y,z
loop_
_atom_site_type_symbol
_atom_site_label
_atom_site_fract_x
_atom_site_fract_y
_atom_site_fract_z
Si Si1 0.428549 0.330715 0.987818
Si Si2 0.345602 0.323327 0.432676
Si Si3 0.557309 0.822737 0.406088
Si Si4 0.433906 0.672684 0.714392
Si Si5 0.496762 0.168882 0.135511
Si Si6 0.940911 0.664981 0.411604
Si Si7 0.207429 0.172680 0.309751
Si Si8 0.139162 0.331274 0.159769
O O1 0.404585 0.500000 0.984515
O O2 0.369500 0.248514 0.909942
O O3 0.500000 0.329786 0.000000
O O4 0.436850 0.245218 0.056175
O O5 0.344198 0.500000 0.437548
O O6 0.385098 0.256927 0.515571
O O7 0.381738 0.278645 0.393851
O O8 0.268318 0.261110 0.382895
O O9 0.564906 0.769199 0.344189
O O10 0.479665 0.780840 0.377094
O O11 0.569441 0.000000 0.418799
O O12 0.450066 0.500000 0.711198
O O13 0.492895 0.735466 0.797616
O O14 0.359288 0.692969 0.693772
O O15 0.566627 0.167263 0.144735
O O16 0.474340 0.000000 0.137044
O O17 0.907439 0.500000 0.380577
O O18 0.000000 0.654767 0.500000
O O19 0.194769 0.240734 0.235713
O O20 0.227746 0.000000 0.315712
O O21 0.166250 0.500000 0.167935
#
# Coordination Sequence:
#
# PCOD8095123 Si02
#       8
#     8   8   8   8   8   8   8   8
#     4   9  15  23  37  57  81 111 147 183 219 261
#     4  11  21  32  49  70  90 115 149 189 228 266
#     4  10  20  34  51  68  89 118 149 184 227 272
#     4  10  20  32  46  65  90 121 155 189 224 265
#     4   9  16  26  40  58  83 115 148 183 222 263
#     4   8  16  32  51  69  88 111 141 180 228 274
#     4  10  20  33  46  62  90 125 155 185 224 269
#     4   9  16  26  40  59  83 112 148 186 222 262
#
# _framework density 16.518338
#
# number of rings (size 3 to 8) (size 9 to 14) (size 15 to 20)
#    0.000    2.500    0.000    4.125    0.000    9.250 
#    0.000    0.000    0.000    0.000    0.000    0.000 
#    0.000    1.000    0.000    3.750    0.000    6.125 
#
# Total GULP energy -396746.861576 kJ/mol
# GULP energy per Si atom -12398.339424 kJ/mol
# Density = 1.648074 g / cm^3
# Si number density = 16.518338 Si / 1000 Ang^3
#
#
#
# Elastic Constant Matrix: (Units=GPa)
#
#
# Indices 1 2 3 4 5 6 
#
# 1 31.6994 28.6958 29.3504 0.0000 -7.7426 0.0000
# 2 28.6958 126.8715 47.3474 0.0000 -12.4495 0.0000
# 3 29.3504 47.3474 95.0596 0.0000 -18.4832 0.0000
# 4 0.0000 0.0000 0.0000 34.2312 0.0000 -1.7027
# 5 -7.7426 -12.4495 -18.4832 0.0000 3.4202 0.0000
# 6 0.0000 0.0000 0.0000 -1.7027 0.0000 17.6947
#
#
#
# Elastic Compliance Matrix: (Units=1/GPa)
#
#
# Indices 1 2 3 4 5 6 
#
# 1 0.033402 -0.010620 -0.042595 0.000000 -0.193233 0.000000
# 2 -0.010620 0.009479 -0.011660 0.000000 -0.052548 0.000000
# 3 -0.042595 -0.011660 -0.048805 0.000000 -0.402614 0.000000
# 4 0.000000 0.000000 0.000000 0.029354 0.000000 0.002825
# 5 -0.193233 -0.052548 -0.402614 0.000000 -2.512101 0.000000
# 6 0.000000 0.000000 0.000000 0.002825 0.000000 0.056786
#
#
# Mechanical properties :
#
#
# Convention : Reuss Voigt Hill
#
# Bulk Modulus (GPa) = -7.37061 51.60198 22.11569
# Shear Modulus (GPa) = -2.13005 20.95166 9.41080
#
# Velocity S-wave (km/s) = -1.13680 3.56531 2.38947
# Velocity P-wave (km/s) = 2.48894 6.94662 4.58589
#
# Compressibility (1/GPa) = -0.13567400
#
# Stress axis : x y z
#
# Youngs Moduli (GPa) = 29.93846 105.49720 -20.48977
#
# Poissons Ratio (x) = 1.12038 -0.87277
# Poissons Ratio (y) = 0.31795 -0.23890
# Poissons Ratio (z) = 1.27524 1.23005
#
# Static dielectric constant tensor:
#      x y z
#    x 2.891180 0.000000 -0.112560 
#    y 0.000000 3.306240 0.000000 
#    z -0.112560 0.000000 3.130270 
# 
# 
# High freq. dielectric constant tensor:
#      x y z
#    x 1.581360 0.000000 -0.008770 
#    y 0.000000 1.655710 0.000000 
#    z -0.008770 0.000000 1.632270 
# 
# From -- ./inp_files/324157.got.cif
#   From: 2010.06.25/outbox.cif.g09.slc.cpg/sg12_163_cif.got.tgz:324157.got - 2010.06.28 00:19:55.
