data_PCOD8095891
_publ_section_title
;
Structure prediction by ZEFSAII (Michael W. Deem and Ramdas Pophale) SiO2 
 PCOD8095891
Probable space group: C 2/M
;
_chemical_formula_sum "Si O2"
_cell_formula_units_Z 64
_cell_length_a 14.033187
_cell_length_b 9.442565
_cell_length_c 28.590318
_cell_angle_alpha 90.000000
_cell_angle_beta 103.407108
_cell_angle_gamma 90.000000
_cell_volume 3685.235409
_symmetry_space_group_name_H-M "C 2/M"
_symmetry_group_IT_number 12
_symmetry_cell_setting 'monoclinic'
loop_
_space_group_symop_operation_xyz
x,y,z
-x,y,-z
-x,-y,-z
x,-y,z
1/2+x,1/2+y,z
1/2-x,1/2+y,-z
1/2-x,1/2-y,-z
1/2+x,1/2-y,z
loop_
_atom_site_type_symbol
_atom_site_label
_atom_site_fract_x
_atom_site_fract_y
_atom_site_fract_z
Si Si1 0.490382 0.336738 0.755901
Si Si2 0.103755 0.834852 0.992613
Si Si3 0.345346 0.162693 0.499383
Si Si4 0.654046 0.163543 0.819057
Si Si5 0.267377 0.665213 0.739280
Si Si6 0.602210 0.334649 0.673984
Si Si7 0.463415 0.835980 0.421644
Si Si8 0.706877 0.835903 0.928438
O O1 0.499476 0.500000 0.771081
O O2 0.554631 0.250381 0.800258
O O3 0.378934 0.284757 0.746920
O O4 0.527111 0.308766 0.707693
O O5 0.184506 0.799205 0.041118
O O6 0.100839 0.000000 0.980009
O O7 0.126226 0.752609 0.947442
O O8 0.000000 0.781250 0.000000
O O9 0.250000 0.250000 0.500000
O O10 0.430705 0.201570 0.545420
O O11 0.380584 0.194901 0.450834
O O12 0.316987 0.000000 0.501268
O O13 0.733465 0.198363 0.788207
O O14 0.702298 0.207343 0.873660
O O15 0.624252 0.000000 0.814759
O O16 0.254629 0.500000 0.725200
O O17 0.204597 0.756570 0.695654
O O18 0.622925 0.500000 0.668103
O O19 0.552658 0.268002 0.623127
O O20 0.458997 0.000000 0.405264
O O21 0.682387 0.000000 0.933277
#
# Coordination Sequence:
#
# PCOD8095891 Si02
#       8
#     8   8   8   8   8   8   8   8
#     4   9  19  34  51  72  98 127 162 202 241 284
#     4   9  18  32  50  71  95 126 163 199 236 284
#     4   9  19  35  54  75 100 130 165 203 243 289
#     4   9  18  32  50  71  96 127 161 197 240 290
#     4   9  18  34  53  71  96 131 163 195 242 294
#     4  10  20  33  50  75 102 127 162 207 244 279
#     4   9  19  36  53  71 100 136 166 195 241 298
#     4   9  18  32  48  70  99 126 157 199 243 286
#
# _framework density 17.366598
#
# number of rings (size 3 to 8) (size 9 to 14) (size 15 to 20)
#    0.000    2.875    0.000    1.125    0.000    4.750 
#    0.000    7.500    0.000    0.000    0.000    0.000 
#    0.000    0.000    0.000    0.000    0.000    0.000 
#
# Total GULP energy -396861.104105 kJ/mol
# GULP energy per Si atom -12401.909503 kJ/mol
# Density = 1.732707 g / cm^3
# Si number density = 17.366598 Si / 1000 Ang^3
#
#
#
# Elastic Constant Matrix: (Units=GPa)
#
#
# Indices 1 2 3 4 5 6 
#
# 1 130.2141 51.1405 44.4240 0.0000 14.3712 0.0000
# 2 51.1405 66.2690 53.0787 0.0000 4.4033 0.0000
# 3 44.4240 53.0787 112.2067 0.0000 1.1627 0.0000
# 4 0.0000 0.0000 0.0000 32.6345 0.0000 0.9467
# 5 14.3712 4.4033 1.1627 0.0000 15.9891 0.0000
# 6 0.0000 0.0000 0.0000 0.9467 0.0000 31.8625
#
#
#
# Elastic Compliance Matrix: (Units=1/GPa)
#
#
# Indices 1 2 3 4 5 6 
#
# 1 0.012092 -0.008046 -0.000892 0.000000 -0.008588 0.000000
# 2 -0.008046 0.030211 -0.011102 0.000000 -0.000280 0.000000
# 3 -0.000892 -0.011102 0.014488 0.000000 0.002806 0.000000
# 4 0.000000 0.000000 0.000000 0.030669 0.000000 -0.000911
# 5 -0.008588 -0.000280 0.002806 0.000000 0.070134 0.000000
# 6 0.000000 0.000000 0.000000 -0.000911 0.000000 0.031412
#
#
# Mechanical properties :
#
#
# Convention : Reuss Voigt Hill
#
# Bulk Modulus (GPa) = 59.84774 67.33068 63.58921
# Shear Modulus (GPa) = 21.30765 26.76697 24.03731
#
# Velocity S-wave (km/s) = 3.50656 3.93019 3.72440
# Velocity P-wave (km/s) = 7.13658 7.71035 7.42901
#
# Compressibility (1/GPa) = 0.01670907
#
# Stress axis : x y z
#
# Youngs Moduli (GPa) = 82.69990 33.10083 69.02176
#
# Poissons Ratio (x) = 0.26634 0.06157
# Poissons Ratio (y) = 0.66543 0.76631
# Poissons Ratio (z) = 0.07377 0.36750
#
# Static dielectric constant tensor:
#      x y z
#    x 3.243200 0.000000 0.008430 
#    y 0.000000 3.205780 0.000000 
#    z 0.008430 0.000000 3.235300 
# 
# 
# High freq. dielectric constant tensor:
#      x y z
#    x 1.670730 0.000000 0.001430 
#    y 0.000000 1.669450 0.000000 
#    z 0.001430 0.000000 1.671750 
# 
# From -- ./inp_files/359917.got.cif
#   From: 2010.06.25/outbox.cif.g09.slc.cpg/sg12_180_cif.got.tgz:359917.got - 2010.06.28 00:19:55.
