data_PCOD8095110
_publ_section_title
;
Structure prediction by ZEFSAII (Michael W. Deem and Ramdas Pophale) SiO2 
 PCOD8095110
Probable space group: C 2/M
;
_chemical_formula_sum "Si O2"
_cell_formula_units_Z 64
_cell_length_a 24.339791
_cell_length_b 24.520646
_cell_length_c 17.648799
_cell_angle_alpha 90.000000
_cell_angle_beta 20.513643
_cell_angle_gamma 90.000000
_cell_volume 3691.183983
_symmetry_space_group_name_H-M "C 2/M"
_symmetry_group_IT_number 12
_symmetry_cell_setting 'monoclinic'
loop_
_space_group_symop_operation_xyz
x,y,z
-x,y,-z
-x,-y,-z
x,-y,z
1/2+x,1/2+y,z
1/2-x,1/2+y,-z
1/2-x,1/2-y,-z
1/2+x,1/2-y,z
loop_
_atom_site_type_symbol
_atom_site_label
_atom_site_fract_x
_atom_site_fract_y
_atom_site_fract_z
Si Si1 0.992345 0.846625 0.315601
Si Si2 0.069202 0.250660 0.489625
Si Si3 0.318482 0.809464 0.896376
Si Si4 0.930795 0.249340 0.010380
Si Si5 0.066031 0.561302 0.993506
Si Si6 0.818486 0.809464 0.396371
Si Si7 0.007655 0.653375 0.184397
Si Si8 0.433978 0.561301 0.506480
O O1 0.946792 0.798451 0.431377
O O2 0.871487 0.841980 0.402773
O O3 0.982169 0.903983 0.371221
O O4 0.170512 0.842204 0.053241
O O5 0.249998 0.268827 0.250001
O O6 0.000000 0.229508 0.500000
O O7 0.966408 0.303242 0.648865
O O8 0.371479 0.841976 0.902788
O O9 0.250000 0.750000 0.000000
O O10 0.946798 0.298452 0.931371
O O11 0.000000 0.270489 0.000000
O O12 0.033588 0.196758 0.851139
O O13 0.000057 0.500000 0.090551
O O14 0.250004 0.561329 0.749991
O O15 0.017844 0.596016 0.128762
O O16 0.000000 0.586115 0.000000
O O17 0.750000 0.750000 0.500000
O O18 0.670513 0.842204 0.553241
O O19 0.500000 0.586112 0.500000
O O20 0.499956 0.500000 0.409427
#
# Coordination Sequence:
#
# PCOD8095110 Si02
#       8
#     8   8   8   8   8   8   8   8
#     4  11  19  32  48  66  95 130 158 185 234 280
#     4  11  19  29  45  66  92 122 156 188 226 276
#     4  10  20  32  45  66  94 124 158 195 229 275
#     4  11  19  29  45  66  92 122 156 188 226 276
#     4  10  20  33  49  72  99 126 161 200 231 269
#     4  10  20  32  45  66  94 124 158 195 229 275
#     4  11  19  32  48  66  95 130 158 185 234 280
#     4  10  20  33  49  72  99 126 161 200 231 269
#
# _framework density 17.338609999999999
#
# number of rings (size 3 to 8) (size 9 to 14) (size 15 to 20)
#    0.000    1.500    0.000   10.500    0.000    0.000 
#    0.000    0.000    0.000    0.000    0.000    0.000 
#    0.000   20.000    0.000    0.000    0.000    0.000 
#
# Total GULP energy -396653.608971 kJ/mol
# GULP energy per Si atom -12395.425280 kJ/mol
# Density = 1.729915 g / cm^3
# Si number density = 17.338610 Si / 1000 Ang^3
#
#
#
# Elastic Constant Matrix: (Units=GPa)
#
#
# Indices 1 2 3 4 5 6 
#
# 1 66.3764 6.4801 10.9981 0.0236 -18.2651 -0.0047
# 2 6.4801 57.7561 23.8747 0.0773 3.2268 -0.0237
# 3 10.9981 23.8747 119.4409 0.1220 -7.2729 -0.0515
# 4 0.0236 0.0773 0.1220 21.8725 -0.0283 0.5521
# 5 -18.2651 3.2268 -7.2729 -0.0283 30.8571 0.0158
# 6 -0.0047 -0.0237 -0.0515 0.5521 0.0158 27.2022
#
#
#
# Elastic Compliance Matrix: (Units=1/GPa)
#
#
# Indices 1 2 3 4 5 6 
#
# 1 0.018433 -0.002465 -0.000532 0.000006 0.011044 -0.000006
# 2 -0.002465 0.019464 -0.003933 -0.000050 -0.004422 0.000013
# 3 -0.000532 -0.003933 0.009347 -0.000035 0.002299 0.000014
# 4 0.000006 -0.000050 -0.000035 0.045743 0.000043 -0.000928
# 5 0.011044 -0.004422 0.002299 0.000043 0.039949 -0.000022
# 6 -0.000006 0.000013 0.000014 -0.000928 -0.000022 0.036781
#
#
# Mechanical properties :
#
#
# Convention : Reuss Voigt Hill
#
# Bulk Modulus (GPa) = 29.95422 36.25324 33.10373
# Shear Modulus (GPa) = 25.67984 29.46773 27.57378
#
# Velocity S-wave (km/s) = 3.85265 4.12702 3.99220
# Velocity P-wave (km/s) = 6.09131 6.60788 6.35485
#
# Compressibility (1/GPa) = 0.03338428
#
# Stress axis : x y z
#
# Youngs Moduli (GPa) = 54.24955 51.37817 106.98065
#
# Poissons Ratio (x) = 0.12666 0.05693
# Poissons Ratio (y) = 0.13374 0.42072
# Poissons Ratio (z) = 0.02887 0.20205
#
# Static dielectric constant tensor:
#      x y z
#    x 3.323690 -0.000140 -0.114960 
#    y -0.000140 3.222790 0.000170 
#    z -0.114960 0.000170 3.900980 
# 
# 
# High freq. dielectric constant tensor:
#      x y z
#    x 1.673640 -0.000010 -0.025490 
#    y -0.000010 1.622560 0.000010 
#    z -0.025490 0.000010 1.682920 
# 
# From -- ./inp_files/291070.got.cif
#   From: 2010.06.25/outbox.cif.g09.slc.cpg/sg12_146_cif.got.tgz:291070.got - 2010.06.28 00:19:55.
