data_PCOD8095378
_publ_section_title
;
Structure prediction by ZEFSAII (Michael W. Deem and Ramdas Pophale) SiO2 
 PCOD8095378
Probable space group: C 2/M
;
_chemical_formula_sum "Si O2"
_cell_formula_units_Z 44
_cell_length_a 25.620824
_cell_length_b 10.503477
_cell_length_c 13.664371
_cell_angle_alpha 90.000000
_cell_angle_beta 40.763166
_cell_angle_gamma 90.000000
_cell_volume 2400.960353
_symmetry_space_group_name_H-M "C 2/M"
_symmetry_group_IT_number 12
_symmetry_cell_setting 'monoclinic'
loop_
_space_group_symop_operation_xyz
x,y,z
-x,y,-z
-x,-y,-z
x,-y,z
1/2+x,1/2+y,z
1/2-x,1/2+y,-z
1/2-x,1/2-y,-z
1/2+x,1/2-y,z
loop_
_atom_site_type_symbol
_atom_site_label
_atom_site_fract_x
_atom_site_fract_y
_atom_site_fract_z
Si Si1 0.000000 0.791846 0.000000
Si Si2 0.684766 0.851511 0.403337
Si Si3 0.932324 0.643437 0.272570
Si Si4 0.896302 0.645115 0.882610
Si Si5 0.352230 0.640693 0.092477
Si Si6 0.412122 0.849207 0.641692
O O1 0.053818 0.709803 0.850398
O O2 0.063847 0.873540 0.969902
O O3 0.641174 0.792528 0.561545
O O4 0.779879 0.826742 0.270151
O O5 0.648090 0.793737 0.354811
O O6 0.663283 0.000000 0.436147
O O7 0.911166 0.500000 0.274026
O O8 0.009169 0.651545 0.233387
O O9 0.866034 0.500000 0.947007
O O10 0.879201 0.687694 0.795723
O O11 0.851572 0.747268 0.013998
O O12 0.336405 0.500000 0.067487
O O13 0.500000 0.789516 0.500000
O O14 0.418005 0.000000 0.626752
#
# Coordination Sequence:
#
# PCOD8095378 Si02
#       6
#     4   8   8   8   8   8
#     4  10  20  32  50  68  91 134 171 202 243 296
#     4   9  17  29  48  74 102 128 161 201 241 289
#     4   9  16  29  49  76 101 121 157 211 254 283
#     4   9  17  30  52  78 101 126 159 201 244 287
#     4  10  21  35  49  69  99 136 169 199 238 291
#     4   9  14  25  49  79 102 124 156 197 244 291
#
# _framework density 18.326000000000001
#
# number of rings (size 3 to 8) (size 9 to 14) (size 15 to 20)
#    0.000    2.727    1.818    0.545    0.000    2.182 
#    0.000    0.000    0.000    6.000    0.000    0.000 
#    0.000    0.000    0.000    0.000    0.000    0.000 
#
# Total GULP energy -272600.053747 kJ/mol
# GULP energy per Si atom -12390.911534 kJ/mol
# Density = 1.828429 g / cm^3
# Si number density = 18.326000 Si / 1000 Ang^3
#
#
#
# Elastic Constant Matrix: (Units=GPa)
#
#
# Indices 1 2 3 4 5 6 
#
# 1 54.3653 13.7693 34.0979 0.0000 10.8694 0.0000
# 2 13.7693 66.7218 52.1168 0.0003 12.5897 -0.0002
# 3 34.0979 52.1168 146.7184 0.0000 14.2616 0.0000
# 4 0.0000 0.0003 0.0000 19.2812 0.0000 1.2817
# 5 10.8694 12.5897 14.2616 0.0000 31.6951 0.0000
# 6 0.0000 -0.0002 0.0000 1.2817 0.0000 8.0439
#
#
#
# Elastic Compliance Matrix: (Units=1/GPa)
#
#
# Indices 1 2 3 4 5 6 
#
# 1 0.022443 0.000106 -0.004707 0.000000 -0.005621 0.000000
# 2 0.000106 0.021579 -0.007167 0.000000 -0.005383 0.000001
# 3 -0.004707 -0.007167 0.010480 0.000000 -0.000255 0.000000
# 4 0.000000 0.000000 0.000000 0.052419 0.000000 -0.008353
# 5 -0.005621 -0.005383 -0.000255 0.000000 0.035731 0.000000
# 6 0.000000 0.000001 0.000000 -0.008353 0.000000 0.125649
#
#
# Mechanical properties :
#
#
# Convention : Reuss Voigt Hill
#
# Bulk Modulus (GPa) = 32.29260 51.97482 42.13371
# Shear Modulus (GPa) = 16.54746 22.99214 19.76980
#
# Velocity S-wave (km/s) = 3.00817 3.54590 3.28805
# Velocity P-wave (km/s) = 5.45206 6.72216 6.12014
#
# Compressibility (1/GPa) = 0.03096685
#
# Stress axis : x y z
#
# Youngs Moduli (GPa) = 44.55655 46.34035 95.41784
#
# Poissons Ratio (x) = -0.00490 0.44914
# Poissons Ratio (y) = -0.00471 0.68383
# Poissons Ratio (z) = 0.20973 0.33211
#
# Static dielectric constant tensor:
#      x y z
#    x 3.344870 0.000000 0.090120 
#    y 0.000000 2.979830 0.000000 
#    z 0.090120 0.000000 3.455210 
# 
# 
# High freq. dielectric constant tensor:
#      x y z
#    x 1.703040 0.000000 0.003970 
#    y 0.000000 1.660250 0.000000 
#    z 0.003970 0.000000 1.718390 
# 
# From -- ./inp_files/220903.got.cif
#   From: 2010.06.25/outbox.cif.g09.slc.cpg/sg12_111_cif.got.tgz:220903.got - 2010.06.28 00:19:55.
