data_PCOD8095371
_publ_section_title
;
Structure prediction by ZEFSAII (Michael W. Deem and Ramdas Pophale) SiO2 
 PCOD8095371
Probable space group: C 2/M
;
_chemical_formula_sum "Si O2"
_cell_formula_units_Z 48
_cell_length_a 18.045721
_cell_length_b 22.347096
_cell_length_c 12.403557
_cell_angle_alpha 90.000000
_cell_angle_beta 29.327791
_cell_angle_gamma 90.000000
_cell_volume 2449.994655
_symmetry_space_group_name_H-M "C 2/M"
_symmetry_group_IT_number 12
_symmetry_cell_setting 'monoclinic'
loop_
_space_group_symop_operation_xyz
x,y,z
-x,y,-z
-x,-y,-z
x,-y,z
1/2+x,1/2+y,z
1/2-x,1/2+y,-z
1/2-x,1/2-y,-z
1/2+x,1/2-y,z
loop_
_atom_site_type_symbol
_atom_site_label
_atom_site_fract_x
_atom_site_fract_y
_atom_site_fract_z
Si Si1 0.668854 0.362245 0.268092
Si Si2 0.247472 0.852926 0.930519
Si Si3 0.144275 0.070015 0.882327
Si Si4 0.838744 0.260724 0.652109
Si Si5 0.918097 0.368171 0.423844
Si Si6 0.458465 0.931214 0.930652
O O1 0.500000 0.386544 0.500000
O O2 0.719709 0.307945 0.285622
O O3 0.780680 0.417916 0.141613
O O4 0.679203 0.336984 0.132816
O O5 0.148537 0.904647 0.998827
O O6 0.232088 0.795593 0.871825
O O7 0.422522 0.874143 0.715754
O O8 0.299739 0.086016 0.624933
O O9 0.127691 0.000000 0.913620
O O10 0.000000 0.096298 0.000000
O O11 0.854661 0.299702 0.521112
O O12 0.000000 0.249946 0.500000
O O13 0.941473 0.386084 0.269387
O O14 0.488868 0.000000 0.858741
O O15 0.500000 0.918700 0.000000
#
# Coordination Sequence:
#
# PCOD8095371 Si02
#       6
#     8   8   8   8   8   8
#     4  10  20  34  54  80 108 141 180 224 269 321
#     4   9  18  32  53  77 105 141 180 219 264 327
#     4  10  20  32  49  78 112 142 177 228 283 319
#     4   8  15  31  55  82 106 131 171 225 279 320
#     4   9  18  35  58  80 101 139 188 227 265 322
#     4  10  22  39  56  76 109 152 189 221 264 320
#
# _framework density 19.59188
#
# number of rings (size 3 to 8) (size 9 to 14) (size 15 to 20)
#    0.000    2.667    0.000    2.500    0.000    7.000 
#    0.000    5.833    0.000    0.000    0.000    3.500 
#    0.000    0.000    0.000    0.000    0.000    0.000 
#
# Total GULP energy -297399.023235 kJ/mol
# GULP energy per Si atom -12391.625968 kJ/mol
# Density = 1.954729 g / cm^3
# Si number density = 19.591880 Si / 1000 Ang^3
#
#
#
# Elastic Constant Matrix: (Units=GPa)
#
#
# Indices 1 2 3 4 5 6 
#
# 1 70.4408 32.4929 27.5441 0.0328 12.1600 -0.0065
# 2 32.4929 63.7705 19.5766 0.0162 14.0721 -0.0030
# 3 27.5441 19.5766 94.8263 0.0605 11.2539 -0.0332
# 4 0.0328 0.0162 0.0605 15.7556 -0.0166 7.6254
# 5 12.1600 14.0721 11.2539 -0.0166 26.6976 -0.0054
# 6 -0.0065 -0.0030 -0.0332 7.6254 -0.0054 26.9902
#
#
#
# Elastic Compliance Matrix: (Units=1/GPa)
#
#
# Indices 1 2 3 4 5 6 
#
# 1 0.020064 -0.008385 -0.003723 -0.000025 -0.003149 0.000006
# 2 -0.008385 0.021925 -0.001234 -0.000008 -0.007217 0.000000
# 3 -0.003723 -0.001234 0.012214 -0.000055 -0.002803 0.000029
# 4 -0.000025 -0.000008 -0.000055 0.073523 0.000080 -0.020772
# 5 -0.003149 -0.007217 -0.002803 0.000080 0.043876 -0.000019
# 6 0.000006 0.000000 0.000029 -0.020772 -0.000019 0.042919
#
#
# Mechanical properties :
#
#
# Convention : Reuss Voigt Hill
#
# Bulk Modulus (GPa) = 36.33916 43.14054 39.73985
# Shear Modulus (GPa) = 19.96970 23.85029 21.91000
#
# Velocity S-wave (km/s) = 3.19609 3.49285 3.34776
# Velocity P-wave (km/s) = 5.67524 6.19145 5.93895
#
# Compressibility (1/GPa) = 0.02751853
#
# Stress axis : x y z
#
# Youngs Moduli (GPa) = 49.84128 45.60968 81.87016
#
# Poissons Ratio (x) = 0.38244 0.30480
# Poissons Ratio (y) = 0.41793 0.10105
# Poissons Ratio (z) = 0.18556 0.05629
#
# Static dielectric constant tensor:
#      x y z
#    x 3.496900 -0.000080 0.077630 
#    y -0.000080 3.690980 0.000090 
#    z 0.077630 0.000090 3.612350 
# 
# 
# High freq. dielectric constant tensor:
#      x y z
#    x 1.734640 0.000000 0.007730 
#    y 0.000000 1.759590 0.000000 
#    z 0.007730 0.000000 1.764640 
# 
# From -- ./inp_files/99830.got.cif
#   From: 2010.06.25/outbox.cif.g09.slc.cpg/sg12_50_cif.got.tgz:99830.got - 2010.06.28 00:19:55.
