data_PCOD8095617
_publ_section_title
;
Structure prediction by ZEFSAII (Michael W. Deem and Ramdas Pophale) SiO2 
 PCOD8095617
Probable space group: C 2/M
;
_chemical_formula_sum "Si O2"
_cell_formula_units_Z 48
_cell_length_a 19.397497
_cell_length_b 9.129393
_cell_length_c 15.837327
_cell_angle_alpha 90.000000
_cell_angle_beta 102.771686
_cell_angle_gamma 90.000000
_cell_volume 2735.201472
_symmetry_space_group_name_H-M "C 2/M"
_symmetry_group_IT_number 12
_symmetry_cell_setting 'monoclinic'
loop_
_space_group_symop_operation_xyz
x,y,z
-x,y,-z
-x,-y,-z
x,-y,z
1/2+x,1/2+y,z
1/2-x,1/2+y,-z
1/2-x,1/2-y,-z
1/2+x,1/2-y,z
loop_
_atom_site_type_symbol
_atom_site_label
_atom_site_fract_x
_atom_site_fract_y
_atom_site_fract_z
Si Si1 0.682283 0.826794 0.522032
Si Si2 0.911462 0.829105 0.627392
Si Si3 0.026456 0.825433 0.095843
Si Si4 0.817219 0.327818 0.282792
Si Si5 0.447768 0.329671 0.241036
Si Si6 0.838215 0.173746 0.777476
O O1 0.750000 0.750000 0.500000
O O2 0.610766 0.767245 0.459104
O O3 0.676066 0.782934 0.617977
O O4 0.689599 0.000000 0.511986
O O5 0.863045 0.774361 0.691838
O O6 0.993349 0.799081 0.671393
O O7 0.898666 0.000000 0.604206
O O8 0.106529 0.768787 0.136588
O O9 0.975306 0.773313 0.157548
O O10 0.026192 0.000000 0.092016
O O11 0.000000 0.757749 0.000000
O O12 0.824485 0.500000 0.273523
O O13 0.876670 0.254267 0.242717
O O14 0.741285 0.271000 0.226848
O O15 0.430087 0.500000 0.231801
O O16 0.840752 0.000000 0.776899
#
# Coordination Sequence:
#
# PCOD8095617 Si02
#       6
#     8   8   8   8   8   8
#     4  11  21  32  49  72  97 130 171 209 241 282
#     4   9  17  33  51  68  95 131 170 206 241 283
#     4   8  14  28  53  78  95 120 163 206 240 287
#     4  10  20  33  48  68 100 136 162 195 247 299
#     4   9  19  33  51  74 101 129 160 205 249 286
#     4   8  14  28  48  68  94 129 164 195 239 293
#
# _framework density 17.54898
#
# number of rings (size 3 to 8) (size 9 to 14) (size 15 to 20)
#    0.000    2.833    1.667    2.500    0.000    2.667 
#    0.000    4.167    0.000    0.500    0.000    0.000 
#    0.000    0.000    0.000    0.000    0.000    0.000 
#
# Total GULP energy -297484.942936 kJ/mol
# GULP energy per Si atom -12395.205956 kJ/mol
# Density = 1.750904 g / cm^3
# Si number density = 17.548980 Si / 1000 Ang^3
#
#
#
# Elastic Constant Matrix: (Units=GPa)
#
#
# Indices 1 2 3 4 5 6 
#
# 1 154.3900 33.4316 77.7070 0.0000 6.7234 0.0000
# 2 33.4316 31.5427 33.5424 0.0000 2.1882 0.0000
# 3 77.7070 33.5424 126.3564 0.0000 19.0839 0.0000
# 4 0.0000 0.0000 0.0000 16.0578 0.0000 -3.4317
# 5 6.7234 2.1882 19.0839 0.0000 25.5458 0.0000
# 6 0.0000 0.0000 0.0000 -3.4317 0.0000 30.6684
#
#
#
# Elastic Compliance Matrix: (Units=1/GPa)
#
#
# Indices 1 2 3 4 5 6 
#
# 1 0.010117 -0.005526 -0.004987 0.000000 0.001536 0.000000
# 2 -0.005526 0.047916 -0.010055 0.000000 0.004862 0.000000
# 3 -0.004987 -0.010055 0.015016 0.000000 -0.009044 0.000000
# 4 0.000000 0.000000 0.000000 0.063801 0.000000 0.007139
# 5 0.001536 0.004862 -0.009044 0.000000 0.045081 0.000000
# 6 0.000000 0.000000 0.000000 0.007139 0.000000 0.033406
#
#
# Mechanical properties :
#
#
# Convention : Reuss Voigt Hill
#
# Bulk Modulus (GPa) = 31.33618 66.85013 49.09315
# Shear Modulus (GPa) = 18.71888 25.62826 22.17357
#
# Velocity S-wave (km/s) = 3.26953 3.82564 3.55847
# Velocity P-wave (km/s) = 5.66994 7.59541 6.70218
#
# Compressibility (1/GPa) = 0.03191199
#
# Stress axis : x y z
#
# Youngs Moduli (GPa) = 98.84627 20.86986 66.59584
#
# Poissons Ratio (x) = 0.11534 0.33208
# Poissons Ratio (y) = 0.54627 0.66965
# Poissons Ratio (z) = 0.49290 0.20985
#
# Static dielectric constant tensor:
#      x y z
#    x 3.464970 0.000000 0.275410 
#    y 0.000000 2.890500 0.000000 
#    z 0.275410 0.000000 3.437360 
# 
# 
# High freq. dielectric constant tensor:
#      x y z
#    x 1.685090 0.000000 0.013600 
#    y 0.000000 1.640780 0.000000 
#    z 0.013600 0.000000 1.667930 
# 
# From -- ./inp_files/221708.got.cif
#   From: 2010.06.25/outbox.cif.g09.slc.cpg/sg12_111_cif.got.tgz:221708.got - 2010.06.28 00:19:55.
