data_PCOD8095400
_publ_section_title
;
Structure prediction by ZEFSAII (Michael W. Deem and Ramdas Pophale) SiO2 
 PCOD8095400
Probable space group: C 2/M
;
_chemical_formula_sum "Si O2"
_cell_formula_units_Z 64
_cell_length_a 15.425952
_cell_length_b 9.056358
_cell_length_c 25.555725
_cell_angle_alpha 90.000000
_cell_angle_beta 107.278341
_cell_angle_gamma 90.000000
_cell_volume 3409.097665
_symmetry_space_group_name_H-M "C 2/M"
_symmetry_group_IT_number 12
_symmetry_cell_setting 'monoclinic'
loop_
_space_group_symop_operation_xyz
x,y,z
-x,y,-z
-x,-y,-z
x,-y,z
1/2+x,1/2+y,z
1/2-x,1/2+y,-z
1/2-x,1/2-y,-z
1/2+x,1/2-y,z
loop_
_atom_site_type_symbol
_atom_site_label
_atom_site_fract_x
_atom_site_fract_y
_atom_site_fract_z
Si Si1 0.000661 0.825671 0.941708
Si Si2 0.302087 0.323732 0.057248
Si Si3 0.247914 0.674981 0.744089
Si Si4 0.195007 0.824811 0.130293
Si Si5 0.474977 0.837053 0.555215
Si Si6 0.809379 0.832341 0.552442
Si Si7 0.629075 0.674923 0.327219
Si Si8 0.054509 0.331495 0.675369
O O1 0.091496 0.777088 0.927007
O O2 0.909302 0.772800 0.896079
O O3 0.999735 0.000000 0.946277
O O4 0.000000 0.756597 0.000000
O O5 0.290136 0.500000 0.052512
O O6 0.262031 0.260732 0.103605
O O7 0.250000 0.250000 0.000000
O O8 0.244559 0.500000 0.737898
O O9 0.277077 0.724911 0.806841
O O10 0.322538 0.735043 0.716420
O O11 0.148180 0.739974 0.713137
O O12 0.205652 0.000000 0.123063
O O13 0.500000 0.822179 0.500000
O O14 0.412327 0.698038 0.555332
O O15 0.556808 0.822769 0.611924
O O16 0.429258 0.000000 0.555552
O O17 0.750000 0.750000 0.500000
O O18 0.803174 0.782584 0.612214
O O19 0.782079 0.000000 0.541563
O O20 0.613266 0.500000 0.323666
O O21 0.530721 0.748219 0.314709
O O22 0.047007 0.500000 0.692895
#
# Coordination Sequence:
#
# PCOD8095400 Si02
#       8
#     8   8   8   8   8   8   8   8
#     4   9  17  32  54  78 108 144 176 210 258 315
#     4  11  21  35  57  84 113 145 180 221 271 316
#     4   9  19  35  58  80 102 143 186 218 260 323
#     4  10  20  37  57  80 109 143 185 221 260 318
#     4   9  18  31  51  75 101 135 174 216 271 333
#     4  10  20  32  50  75 106 135 172 223 275 328
#     4   9  19  36  56  77 104 140 183 226 268 323
#     4   9  18  34  54  77 106 137 176 224 274 322
#
# _framework density 18.773295000000001
#
# number of rings (size 3 to 8) (size 9 to 14) (size 15 to 20)
#    0.000    2.500    1.250    0.750    1.750    1.750 
#    0.000    5.000    0.000    0.000    0.000    0.000 
#    0.000    0.000    0.000    0.000    0.000    0.000 
#
# Total GULP energy -396517.229877 kJ/mol
# GULP energy per Si atom -12391.163434 kJ/mol
# Density = 1.873057 g / cm^3
# Si number density = 18.773295 Si / 1000 Ang^3
#
#
#
# Elastic Constant Matrix: (Units=GPa)
#
#
# Indices 1 2 3 4 5 6 
#
# 1 154.0920 35.2449 98.0313 0.0000 0.6809 0.0000
# 2 35.2449 33.9543 40.5991 0.0000 -4.2474 0.0000
# 3 98.0313 40.5991 177.4762 0.0000 0.0827 0.0000
# 4 0.0000 0.0000 0.0000 20.6919 0.0000 -5.2064
# 5 0.6809 -4.2474 0.0827 0.0000 35.6635 0.0000
# 6 0.0000 0.0000 0.0000 -5.2064 0.0000 21.1037
#
#
#
# Elastic Compliance Matrix: (Units=1/GPa)
#
#
# Indices 1 2 3 4 5 6 
#
# 1 0.010747 -0.005737 -0.004624 0.000000 -0.000878 0.000000
# 2 -0.005737 0.044459 -0.007004 0.000000 0.005421 0.000000
# 3 -0.004624 -0.007004 0.009791 0.000000 -0.000769 0.000000
# 4 0.000000 0.000000 0.000000 0.051526 0.000000 0.012712
# 5 -0.000878 0.005421 -0.000769 0.000000 0.028704 0.000000
# 6 0.000000 0.000000 0.000000 0.012712 0.000000 0.050521
#
#
# Mechanical properties :
#
#
# Convention : Reuss Voigt Hill
#
# Bulk Modulus (GPa) = 33.03796 79.25258 56.14527
# Shear Modulus (GPa) = 20.78418 28.26831 24.52624
#
# Velocity S-wave (km/s) = 3.33094 3.88464 3.61840
# Velocity P-wave (km/s) = 5.69475 7.90113 6.88687
#
# Compressibility (1/GPa) = 0.03026821
#
# Stress axis : x y z
#
# Youngs Moduli (GPa) = 93.04784 22.49249 102.13489
#
# Poissons Ratio (x) = 0.12904 0.47222
# Poissons Ratio (y) = 0.53383 0.71535
# Poissons Ratio (z) = 0.43021 0.15754
#
# Static dielectric constant tensor:
#      x y z
#    x 3.379090 0.000000 0.696630 
#    y 0.000000 3.256340 0.000000 
#    z 0.696630 0.000000 4.302390 
# 
# 
# High freq. dielectric constant tensor:
#      x y z
#    x 1.728020 0.000000 0.003470 
#    y 0.000000 1.699940 0.000000 
#    z 0.003470 0.000000 1.738960 
# 
# From -- ./inp_files/359897.got.cif
#   From: 2010.06.25/outbox.cif.g09.slc.cpg/sg12_180_cif.got.tgz:359897.got - 2010.06.28 00:19:55.
