data_PCOD8095464
_publ_section_title
;
Structure prediction by ZEFSAII (Michael W. Deem and Ramdas Pophale) SiO2 
 PCOD8095464
Probable space group: C 2/M
;
_chemical_formula_sum "Si O2"
_cell_formula_units_Z 64
_cell_length_a 25.074807
_cell_length_b 8.992725
_cell_length_c 15.451859
_cell_angle_alpha 90.000000
_cell_angle_beta 69.869031
_cell_angle_gamma 90.000000
_cell_volume 3271.394021
_symmetry_space_group_name_H-M "C 2/M"
_symmetry_group_IT_number 12
_symmetry_cell_setting 'monoclinic'
loop_
_space_group_symop_operation_xyz
x,y,z
-x,y,-z
-x,-y,-z
x,-y,z
1/2+x,1/2+y,z
1/2-x,1/2+y,-z
1/2-x,1/2-y,-z
1/2+x,1/2-y,z
loop_
_atom_site_type_symbol
_atom_site_label
_atom_site_fract_x
_atom_site_fract_y
_atom_site_fract_z
Si Si1 0.282696 0.328830 0.874073
Si Si2 0.708135 0.675039 0.459040
Si Si3 0.420507 0.669045 0.443968
Si Si4 0.660791 0.827418 0.999735
Si Si5 0.188164 0.664782 0.306942
Si Si6 0.512403 0.670596 0.263730
Si Si7 0.442161 0.836507 0.597451
Si Si8 0.957799 0.823184 0.946368
O O1 0.295049 0.500000 0.890184
O O2 0.317321 0.226408 0.920163
O O3 0.309269 0.284366 0.769596
O O4 0.214750 0.298446 0.906923
O O5 0.718438 0.500000 0.444418
O O6 0.750000 0.750000 0.500000
O O7 0.644728 0.714199 0.526191
O O8 0.724233 0.758063 0.361796
O O9 0.426076 0.500000 0.473166
O O10 0.447174 0.689409 0.332664
O O11 0.458305 0.762356 0.493617
O O12 0.605040 0.739798 0.998995
O O13 0.644418 0.000000 0.014680
O O14 0.212401 0.500000 0.269519
O O15 0.124752 0.649619 0.375527
O O16 0.531707 0.500000 0.251321
O O17 0.549274 0.748656 0.317678
O O18 0.520894 0.734651 0.161017
O O19 0.470226 0.000000 0.588986
O O20 0.954731 0.000000 0.949100
O O21 0.000000 0.768224 0.000000
#
# Coordination Sequence:
#
# PCOD8095464 Si02
#       8
#     8   8   8   8   8   8   8   8
#     4  10  20  35  57  86 116 144 182 230 285 341
#     4  10  20  36  55  75 106 144 183 225 271 321
#     4   9  19  35  54  77 107 143 180 218 266 323
#     4  10  21  37  58  83 114 146 182 232 288 340
#     4  10  20  34  53  80 111 144 182 221 270 330
#     4  10  20  35  55  78 106 141 183 223 265 322
#     4  10  20  32  51  82 116 141 172 218 271 325
#     4  10  22  40  59  80 109 149 196 238 280 333
#
# _framework density 19.563527000000001
#
# number of rings (size 3 to 8) (size 9 to 14) (size 15 to 20)
#    0.000    2.125    0.000    3.000    0.000    8.250 
#    2.250    0.000    0.000    0.000    0.000    0.000 
#    0.000    0.000    0.000    0.000    0.000    0.000 
#
# Total GULP energy -396541.186154 kJ/mol
# GULP energy per Si atom -12391.912067 kJ/mol
# Density = 1.951900 g / cm^3
# Si number density = 19.563527 Si / 1000 Ang^3
#
#
#
# Elastic Constant Matrix: (Units=GPa)
#
#
# Indices 1 2 3 4 5 6 
#
# 1 84.9469 29.8492 12.2680 0.0000 4.5555 0.0000
# 2 29.8492 52.8765 21.7869 0.0000 7.4169 0.0000
# 3 12.2680 21.7869 77.6685 0.0000 3.0621 0.0000
# 4 0.0000 0.0000 0.0000 24.6017 0.0000 0.7770
# 5 4.5555 7.4169 3.0621 0.0000 19.1648 0.0000
# 6 0.0000 0.0000 0.0000 0.7770 0.0000 30.4968
#
#
#
# Elastic Compliance Matrix: (Units=1/GPa)
#
#
# Indices 1 2 3 4 5 6 
#
# 1 0.014687 -0.008252 0.000007 0.000000 -0.000299 0.000000
# 2 -0.008252 0.027105 -0.006001 0.000000 -0.007569 0.000000
# 3 0.000007 -0.006001 0.014558 0.000000 -0.000005 0.000000
# 4 0.000000 0.000000 0.000000 0.040680 0.000000 -0.001036
# 5 -0.000299 -0.007569 -0.000005 0.000000 0.055180 0.000000
# 6 0.000000 0.000000 0.000000 -0.001036 0.000000 0.032817
#
#
# Mechanical properties :
#
#
# Convention : Reuss Voigt Hill
#
# Bulk Modulus (GPa) = 35.89832 38.14445 37.02138
# Shear Modulus (GPa) = 22.44124 24.95851 23.69988
#
# Velocity S-wave (km/s) = 3.39055 3.57566 3.48434
# Velocity P-wave (km/s) = 5.80666 6.04874 5.92893
#
# Compressibility (1/GPa) = 0.02785646
#
# Stress axis : x y z
#
# Youngs Moduli (GPa) = 68.08934 36.89423 68.69155
#
# Poissons Ratio (x) = 0.30443 -0.00045
# Poissons Ratio (y) = 0.56184 0.41224
# Poissons Ratio (z) = -0.00045 0.22141
#
# Static dielectric constant tensor:
#      x y z
#    x 3.630620 0.000000 -0.186800 
#    y 0.000000 3.826490 0.000000 
#    z -0.186800 0.000000 3.640320 
# 
# 
# High freq. dielectric constant tensor:
#      x y z
#    x 1.758030 0.000000 -0.011290 
#    y 0.000000 1.767060 0.000000 
#    z -0.011290 0.000000 1.758960 
# 
# From -- ./inp_files/243985.got.cif
#   From: 2010.06.25/outbox.cif.g09.slc.cpg/sg12_122_cif.got.tgz:243985.got - 2010.06.28 00:19:55.
