data_PCOD8095874
_publ_section_title
;
Structure prediction by ZEFSAII (Michael W. Deem and Ramdas Pophale) SiO2 
 PCOD8095874
Probable space group: C 2/M
;
_chemical_formula_sum "Si O2"
_cell_formula_units_Z 48
_cell_length_a 22.029917
_cell_length_b 8.982742
_cell_length_c 15.638705
_cell_angle_alpha 90.000000
_cell_angle_beta 60.516010
_cell_angle_gamma 90.000000
_cell_volume 2693.940421
_symmetry_space_group_name_H-M "C 2/M"
_symmetry_group_IT_number 12
_symmetry_cell_setting 'monoclinic'
loop_
_space_group_symop_operation_xyz
x,y,z
-x,y,-z
-x,-y,-z
x,-y,z
1/2+x,1/2+y,z
1/2-x,1/2+y,-z
1/2-x,1/2-y,-z
1/2+x,1/2-y,z
loop_
_atom_site_type_symbol
_atom_site_label
_atom_site_fract_x
_atom_site_fract_y
_atom_site_fract_z
Si Si1 0.261675 0.828452 0.363839
Si Si2 0.998138 0.174601 0.401691
Si Si3 0.642883 0.172650 0.542419
Si Si4 0.620211 0.172835 0.215062
Si Si5 0.821222 0.826869 0.975271
Si Si6 0.772071 0.831477 0.187549
O O1 0.322530 0.799409 0.389596
O O2 0.193228 0.732983 0.433128
O O3 0.290401 0.779596 0.251709
O O4 0.239245 0.000000 0.377843
O O5 0.928739 0.238440 0.407108
O O6 0.000000 0.213727 0.500000
O O7 0.064163 0.251338 0.313949
O O8 0.001364 0.000000 0.382258
O O9 0.628490 0.000000 0.534308
O O10 0.695082 0.201441 0.205390
O O11 0.602749 0.000000 0.216800
O O12 0.617711 0.247811 0.121939
O O13 0.829395 0.806848 0.072323
O O14 0.817817 0.000000 0.953127
O O15 0.750000 0.750000 0.000000
O O16 0.776395 0.000000 0.218845
#
# Coordination Sequence:
#
# PCOD8095874 Si02
#       6
#     8   8   8   8   8   8
#     4  10  20  33  52  76 100 129 166 207 247 290
#     4  11  23  36  52  75 101 131 167 204 244 294
#     4  10  21  36  52  72 100 133 167 203 247 295
#     4  10  20  33  50  74 104 136 166 201 249 298
#     4   9  17  30  48  72 101 132 167 205 247 293
#     4   9  18  31  50  76 103 132 165 202 247 295
#
# _framework density 17.817765999999999
#
# number of rings (size 3 to 8) (size 9 to 14) (size 15 to 20)
#    0.000    2.167    0.000    4.500    0.000   10.000 
#    0.000    0.000    0.000    1.000    0.000    7.000 
#    0.000    0.000    0.000    0.000    0.000    0.000 
#
# Total GULP energy -297602.949816 kJ/mol
# GULP energy per Si atom -12400.122909 kJ/mol
# Density = 1.777721 g / cm^3
# Si number density = 17.817766 Si / 1000 Ang^3
#
#
#
# Elastic Constant Matrix: (Units=GPa)
#
#
# Indices 1 2 3 4 5 6 
#
# 1 45.1568 41.3573 35.0142 0.0000 -2.7673 0.0000
# 2 41.3573 119.8627 81.8201 0.0000 -2.3928 0.0000
# 3 35.0142 81.8201 145.9725 0.0000 -1.8700 0.0000
# 4 0.0000 0.0000 0.0000 38.3332 0.0000 -1.5617
# 5 -2.7673 -2.3928 -1.8700 0.0000 22.1092 0.0000
# 6 0.0000 0.0000 0.0000 -1.5617 0.0000 27.9072
#
#
#
# Elastic Compliance Matrix: (Units=1/GPa)
#
#
# Indices 1 2 3 4 5 6 
#
# 1 0.033103 -0.009669 -0.002484 0.000000 0.002887 0.000000
# 2 -0.009669 0.016352 -0.006847 0.000000 -0.000020 0.000000
# 3 -0.002484 -0.006847 0.011283 0.000000 -0.000098 0.000000
# 4 0.000000 0.000000 0.000000 0.026147 0.000000 0.001463
# 5 0.002887 -0.000020 -0.000098 0.000000 0.045581 0.000000
# 6 0.000000 0.000000 0.000000 0.001463 0.000000 0.035915
#
#
# Mechanical properties :
#
#
# Convention : Reuss Voigt Hill
#
# Bulk Modulus (GPa) = 43.97624 69.70835 56.84230
# Shear Modulus (GPa) = 23.36889 27.85660 25.61274
#
# Velocity S-wave (km/s) = 3.62546 3.95830 3.79553
# Velocity P-wave (km/s) = 6.50077 7.75233 7.15397
#
# Compressibility (1/GPa) = 0.02273955
#
# Stress axis : x y z
#
# Youngs Moduli (GPa) = 30.20858 61.15359 88.62960
#
# Poissons Ratio (x) = 0.59127 0.22015
# Poissons Ratio (y) = 0.29208 0.60683
# Poissons Ratio (z) = 0.07504 0.41870
#
# Static dielectric constant tensor:
#      x y z
#    x 2.967710 0.000000 0.051980 
#    y 0.000000 3.515590 0.000000 
#    z 0.051980 0.000000 3.646210 
# 
# 
# High freq. dielectric constant tensor:
#      x y z
#    x 1.648280 0.000000 0.004360 
#    y 0.000000 1.708010 0.000000 
#    z 0.004360 0.000000 1.703180 
# 
# From -- ./inp_files/229852.got.cif
#   From: 2010.06.25/outbox.cif.g09.slc.cpg/sg12_115_cif.got.tgz:229852.got - 2010.06.28 00:19:55.
