data_PCOD8095322
_publ_section_title
;
Structure prediction by ZEFSAII (Michael W. Deem and Ramdas Pophale) SiO2 
 PCOD8095322
Probable space group: C 2/M
;
_chemical_formula_sum "Si O2"
_cell_formula_units_Z 40
_cell_length_a 25.641192
_cell_length_b 9.120867
_cell_length_c 18.411346
_cell_angle_alpha 90.000000
_cell_angle_beta 146.744871
_cell_angle_gamma 90.000000
_cell_volume 2361.196050
_symmetry_space_group_name_H-M "C 2/M"
_symmetry_group_IT_number 12
_symmetry_cell_setting 'monoclinic'
loop_
_space_group_symop_operation_xyz
x,y,z
-x,y,-z
-x,-y,-z
x,-y,z
1/2+x,1/2+y,z
1/2-x,1/2+y,-z
1/2-x,1/2-y,-z
1/2+x,1/2-y,z
loop_
_atom_site_type_symbol
_atom_site_label
_atom_site_fract_x
_atom_site_fract_y
_atom_site_fract_z
Si Si1 0.328437 0.327991 0.639832
Si Si2 0.038479 0.672001 0.298990
Si Si3 0.312782 0.829098 0.409210
Si Si4 0.659200 0.827502 0.861879
Si Si5 0.605084 0.825561 0.640922
O O1 0.331521 0.500000 0.626391
O O2 0.250000 0.250000 0.500000
O O3 0.430450 0.255286 0.739606
O O4 0.293637 0.299721 0.682827
O O5 0.054014 0.500000 0.304951
O O6 0.105187 0.733387 0.441839
O O7 0.929979 0.710203 0.190436
O O8 0.324452 0.766412 0.341037
O O9 0.334335 0.000000 0.429220
O O10 0.640273 0.763419 0.759129
O O11 0.677571 0.000000 0.880670
O O12 0.750000 0.750000 0.000000
O O13 0.500000 0.766680 0.500000
O O14 0.603110 0.000000 0.644303
#
# Coordination Sequence:
#
# PCOD8095322 Si02
#       5
#     8   8   8   8   8
#     4   9  16  25  41  67  96 122 148 188 235 277
#     4   9  16  28  45  66  92 122 155 191 229 274
#     4   8  13  23  42  69  93 111 147 196 233 265
#     4  10  20  32  49  71  96 126 157 193 237 284
#     4   9  14  25  48  72  91 117 156 198 235 270
#
# _framework density 16.940567999999999
#
# number of rings (size 3 to 8) (size 9 to 14) (size 15 to 20)
#    0.000    3.000    2.000    1.800    0.000    0.800 
#    0.000    0.000    0.000    7.800    0.000    8.400 
#    0.000    0.000    0.000    0.000    0.000    0.000 
#
# Total GULP energy -247765.384179 kJ/mol
# GULP energy per Si atom -12388.269209 kJ/mol
# Density = 1.690201 g / cm^3
# Si number density = 16.940568 Si / 1000 Ang^3
#
#
#
# Elastic Constant Matrix: (Units=GPa)
#
#
# Indices 1 2 3 4 5 6 
#
# 1 182.8361 50.0019 66.6975 0.0000 10.6094 0.0000
# 2 50.0019 40.7045 25.2898 0.0000 7.6441 0.0000
# 3 66.6975 25.2898 92.5651 0.0000 4.1198 0.0000
# 4 0.0000 0.0000 0.0000 20.5372 0.0000 6.5786
# 5 10.6094 7.6441 4.1198 0.0000 20.2467 0.0000
# 6 0.0000 0.0000 0.0000 6.5786 0.0000 24.5530
#
#
#
# Elastic Compliance Matrix: (Units=1/GPa)
#
#
# Indices 1 2 3 4 5 6 
#
# 1 0.009545 -0.008827 -0.004431 0.000000 -0.000767 0.000000
# 2 -0.008827 0.039732 -0.004070 0.000000 -0.009547 0.000000
# 3 -0.004431 -0.004070 0.015073 0.000000 0.000792 0.000000
# 4 0.000000 0.000000 0.000000 0.053264 0.000000 -0.014271
# 5 -0.000767 -0.009547 0.000792 0.000000 0.053236 0.000000
# 6 0.000000 0.000000 0.000000 -0.014271 0.000000 0.044552
#
#
# Mechanical properties :
#
#
# Convention : Reuss Voigt Hill
#
# Bulk Modulus (GPa) = 33.67837 66.67601 50.17719
# Shear Modulus (GPa) = 19.23399 24.67515 21.95457
#
# Velocity S-wave (km/s) = 3.37320 3.82065 3.60387
# Velocity P-wave (km/s) = 5.92408 7.67511 6.85573
#
# Compressibility (1/GPa) = 0.02969264
#
# Stress axis : x y z
#
# Youngs Moduli (GPa) = 104.77193 25.16834 66.34391
#
# Poissons Ratio (x) = 0.22217 0.29400
# Poissons Ratio (y) = 0.92486 0.27001
# Poissons Ratio (z) = 0.46429 0.10243
#
# Static dielectric constant tensor:
#      x y z
#    x 4.003970 0.000000 -0.001400 
#    y 0.000000 2.923300 0.000000 
#    z -0.001400 0.000000 2.833880 
# 
# 
# High freq. dielectric constant tensor:
#      x y z
#    x 1.682580 0.000000 0.008670 
#    y 0.000000 1.614600 0.000000 
#    z 0.008670 0.000000 1.599910 
# 
# From -- ./inp_files/179659.got.cif
#   From: 2010.06.25/outbox.cif.g09.slc.cpg/sg12_90_cif.got.tgz:179659.got - 2010.06.28 00:19:55.
