data_PCOD8095778
_publ_section_title
;
Structure prediction by ZEFSAII (Michael W. Deem and Ramdas Pophale) SiO2 
 PCOD8095778
Probable space group: C 2/M
;
_chemical_formula_sum "Si O2"
_cell_formula_units_Z 64
_cell_length_a 22.843422
_cell_length_b 8.916370
_cell_length_c 18.853444
_cell_angle_alpha 90.000000
_cell_angle_beta 114.693048
_cell_angle_gamma 90.000000
_cell_volume 3488.936090
_symmetry_space_group_name_H-M "C 2/M"
_symmetry_group_IT_number 12
_symmetry_cell_setting 'monoclinic'
loop_
_space_group_symop_operation_xyz
x,y,z
-x,y,-z
-x,-y,-z
x,-y,z
1/2+x,1/2+y,z
1/2-x,1/2+y,-z
1/2-x,1/2-y,-z
1/2+x,1/2-y,z
loop_
_atom_site_type_symbol
_atom_site_label
_atom_site_fract_x
_atom_site_fract_y
_atom_site_fract_z
Si Si1 0.563510 0.166578 0.868883
Si Si2 0.701536 0.321949 0.273147
Si Si3 0.808499 0.828125 0.068133
Si Si4 0.440064 0.334752 0.808404
Si Si5 0.302325 0.821047 0.577370
Si Si6 0.934628 0.168635 0.637349
Si Si7 0.061294 0.330354 0.698863
Si Si8 0.308869 0.326297 0.235336
O O1 0.623951 0.263083 0.926064
O O2 0.496403 0.228750 0.867087
O O3 0.559603 0.168554 0.782537
O O4 0.572925 0.000000 0.903267
O O5 0.705014 0.500000 0.289684
O O6 0.631195 0.278260 0.205565
O O7 0.713726 0.233977 0.351859
O O8 0.753477 0.272105 0.242413
O O9 0.801656 0.803158 0.148154
O O10 0.807398 0.000000 0.046132
O O11 0.750000 0.750000 0.000000
O O12 0.453080 0.500000 0.845937
O O13 0.442386 0.339991 0.725074
O O14 0.250000 0.750000 0.500000
O O15 0.371829 0.764486 0.585606
O O16 0.300194 0.000000 0.573270
O O17 0.997172 0.250742 0.636021
O O18 0.928912 0.000000 0.603196
O O19 0.065220 0.500000 0.671434
O O20 0.122644 0.236195 0.702900
O O21 0.302998 0.500000 0.254122
#
# Coordination Sequence:
#
# PCOD8095778 Si02
#       8
#     8   8   8   8   8   8   8   8
#     4   9  16  26  44  69  95 123 159 200 243 287
#     4  10  20  34  52  75 102 133 167 205 248 296
#     4  10  20  33  50  72 100 131 165 203 247 295
#     4   8  15  27  44  67  95 124 157 198 243 286
#     4  11  21  34  52  75 103 134 168 206 248 295
#     4   9  16  28  46  70  98 127 162 205 248 290
#     4   9  16  27  45  70  97 127 163 204 246 290
#     4  10  20  33  50  74 102 133 166 205 250 297
#
# _framework density 18.343700999999999
#
# number of rings (size 3 to 8) (size 9 to 14) (size 15 to 20)
#    0.000    2.500    0.000    4.125    0.000    8.000 
#    0.000    0.000    0.000    1.500    0.000   10.500 
#    0.000    0.000    0.000    0.000    0.000    0.000 
#
# Total GULP energy -396738.523218 kJ/mol
# GULP energy per Si atom -12398.078851 kJ/mol
# Density = 1.830195 g / cm^3
# Si number density = 18.343701 Si / 1000 Ang^3
#
#
#
# Elastic Constant Matrix: (Units=GPa)
#
#
# Indices 1 2 3 4 5 6 
#
# 1 123.1466 63.4490 40.5377 0.0000 40.6744 0.0000
# 2 63.4490 159.0297 53.8068 0.0000 28.9452 0.0000
# 3 40.5377 53.8068 58.4544 0.0000 32.4076 0.0000
# 4 0.0000 0.0000 0.0000 26.9838 0.0000 9.5646
# 5 40.6744 28.9452 32.4076 0.0000 29.3121 0.0000
# 6 0.0000 0.0000 0.0000 9.5646 0.0000 34.6733
#
#
#
# Elastic Compliance Matrix: (Units=1/GPa)
#
#
# Indices 1 2 3 4 5 6 
#
# 1 0.016978 -0.004275 0.007446 0.000000 -0.027570 0.000000
# 2 -0.004275 0.010215 -0.010682 0.000000 0.007656 0.000000
# 3 0.007446 -0.010682 0.055954 0.000000 -0.061647 0.000000
# 4 0.000000 0.000000 0.000000 0.041075 0.000000 -0.011331
# 5 -0.027570 0.007656 -0.061647 0.000000 0.132970 0.000000
# 6 0.000000 0.000000 0.000000 -0.011331 0.000000 0.031966
#
#
# Mechanical properties :
#
#
# Convention : Reuss Voigt Hill
#
# Bulk Modulus (GPa) = 14.67901 72.91307 43.79604
# Shear Modulus (GPa) = 15.29576 30.38300 22.83938
#
# Velocity S-wave (km/s) = 2.89077 4.07420 3.53240
# Velocity P-wave (km/s) = 4.37740 7.87190 6.36900
#
# Compressibility (1/GPa) = 0.06812448
#
# Stress axis : x y z
#
# Youngs Moduli (GPa) = 58.89907 97.89914 17.87193
#
# Poissons Ratio (x) = 0.41853 -0.13308
# Poissons Ratio (y) = 0.25180 0.19091
# Poissons Ratio (z) = -0.43857 1.04576
#
# Static dielectric constant tensor:
#      x y z
#    x 3.528410 0.000000 0.381610 
#    y 0.000000 3.643030 0.000000 
#    z 0.381610 0.000000 3.057670 
# 
# 
# High freq. dielectric constant tensor:
#      x y z
#    x 1.707810 0.000000 0.040530 
#    y 0.000000 1.729980 0.000000 
#    z 0.040530 0.000000 1.666950 
# 
# From -- ./inp_files/345574.got.cif
#   From: 2010.06.25/outbox.cif.g09.slc.cpg/sg12_173_cif.got.tgz:345574.got - 2010.06.28 00:19:55.
