data_PCOD8095546
_publ_section_title
;
Structure prediction by ZEFSAII (Michael W. Deem and Ramdas Pophale) SiO2 
 PCOD8095546
Probable space group: C 2/M
;
_chemical_formula_sum "Si O2"
_cell_formula_units_Z 40
_cell_length_a 9.165038
_cell_length_b 25.949145
_cell_length_c 13.098480
_cell_angle_alpha 90.000000
_cell_angle_beta 30.140510
_cell_angle_gamma 90.000000
_cell_volume 1564.183627
_symmetry_space_group_name_H-M "C 2/M"
_symmetry_group_IT_number 12
_symmetry_cell_setting 'monoclinic'
loop_
_space_group_symop_operation_xyz
x,y,z
-x,y,-z
-x,-y,-z
x,-y,z
1/2+x,1/2+y,z
1/2-x,1/2+y,-z
1/2-x,1/2-y,-z
1/2+x,1/2-y,z
loop_
_atom_site_type_symbol
_atom_site_label
_atom_site_fract_x
_atom_site_fract_y
_atom_site_fract_z
Si Si1 0.265979 0.895943 0.058414
Si Si2 0.525054 0.205787 0.275844
Si Si3 0.039079 0.800636 0.804906
Si Si4 0.927105 0.000000 0.875680
Si Si5 0.794793 0.400007 0.382707
Si Si6 0.036277 0.500000 0.313080
O O1 0.989458 0.857467 0.227535
O O2 0.133046 0.951832 0.162623
O O3 0.500000 0.878041 0.000000
O O4 0.414267 0.899528 0.859600
O O5 0.700865 0.204880 0.273821
O O6 0.382886 0.262044 0.337843
O O7 0.294441 0.158764 0.425862
O O8 0.730358 0.204447 0.050274
O O9 0.261641 0.000000 0.709062
O O10 0.721617 0.000000 0.097957
O O11 0.500000 0.410471 0.500000
O O12 0.838008 0.447711 0.435473
#
# Coordination Sequence:
#
# PCOD8095546 Si02
#       6
#     8   8   8   4   8   4
#     4  10  20  32  55  80 108 136 172 222 267 310
#     4   9  18  31  51  75 102 135 179 221 254 308
#     4   9  18  30  52  76 100 134 180 219 262 302
#     4   9  17  32  53  83 106 129 176 228 261 299
#     4  10  20  34  53  79 108 139 175 214 262 320
#     4   9  17  32  57  77 104 139 176 216 263 311
#
# _framework density 25.572445999999999
#
# number of rings (size 3 to 8) (size 9 to 14) (size 15 to 20)
#    0.000    2.600    0.000    1.800    8.400    4.800 
#    0.000    1.000    0.000    4.800    0.000    0.000 
#    0.000    0.000    0.000    0.000    0.000    0.000 
#
# Total GULP energy -247784.330987 kJ/mol
# GULP energy per Si atom -12389.216549 kJ/mol
# Density = 2.551424 g / cm^3
# Si number density = 25.572446 Si / 1000 Ang^3
#
#
#
# Elastic Constant Matrix: (Units=GPa)
#
#
# Indices 1 2 3 4 5 6 
#
# 1 81.5317 55.4293 15.8639 0.0000 -40.0892 0.0000
# 2 55.4293 248.9545 30.2791 0.0000 -42.2431 0.0000
# 3 15.8639 30.2791 60.5414 0.0001 -16.2459 -0.0001
# 4 0.0000 0.0000 0.0001 66.8854 0.0000 -46.5163
# 5 -40.0892 -42.2431 -16.2459 0.0000 53.1094 0.0000
# 6 0.0000 0.0000 -0.0001 -46.5163 0.0000 39.6012
#
#
#
# Elastic Compliance Matrix: (Units=1/GPa)
#
#
# Indices 1 2 3 4 5 6 
#
# 1 0.020558 -0.002195 -0.000646 0.000000 0.013574 0.000000
# 2 -0.002195 0.004998 -0.001419 0.000000 0.001884 0.000000
# 3 -0.000646 -0.001419 0.018480 0.000000 0.004036 0.000000
# 4 0.000000 0.000000 0.000000 0.081656 0.000000 0.095914
# 5 0.013574 0.001884 0.004036 0.000000 0.031809 0.000000
# 6 0.000000 0.000000 0.000000 0.095914 0.000000 0.137914
#
#
# Mechanical properties :
#
#
# Convention : Reuss Voigt Hill
#
# Bulk Modulus (GPa) = 28.15755 66.01914 47.08835
# Shear Modulus (GPa) = 15.83416 51.21622 33.52519
#
# Velocity S-wave (km/s) = 2.49105 4.48011 3.62469
# Velocity P-wave (km/s) = 4.39415 7.25496 5.99762
#
# Compressibility (1/GPa) = 0.03551446
#
# Stress axis : x y z
#
# Youngs Moduli (GPa) = 48.64342 200.08631 54.11333
#
# Poissons Ratio (x) = 0.43924 0.03498
# Poissons Ratio (y) = 0.10679 0.07677
# Poissons Ratio (z) = 0.03144 0.28388
#
# Static dielectric constant tensor:
#      x y z
#    x 4.232560 0.000000 0.057520 
#    y 0.000000 5.545480 0.000000 
#    z 0.057520 0.000000 4.323520 
# 
# 
# High freq. dielectric constant tensor:
#      x y z
#    x 2.009870 0.000000 0.007280 
#    y 0.000000 2.046590 0.000000 
#    z 0.007280 0.000000 2.019900 
# 
# From -- ./inp_files/259643.got.cif
#   From: 2010.06.25/outbox.cif.g09.slc.cpg/sg12_130_cif.got.tgz:259643.got - 2010.06.28 00:19:55.
