data_PCOD8095462
_publ_section_title
;
Structure prediction by ZEFSAII (Michael W. Deem and Ramdas Pophale) SiO2 
 PCOD8095462
Probable space group: C 2/M
;
_chemical_formula_sum "Si O2"
_cell_formula_units_Z 64
_cell_length_a 11.435777
_cell_length_b 22.669431
_cell_length_c 19.385187
_cell_angle_alpha 90.000000
_cell_angle_beta 137.113511
_cell_angle_gamma 90.000000
_cell_volume 3420.071010
_symmetry_space_group_name_H-M "C 2/M"
_symmetry_group_IT_number 12
_symmetry_cell_setting 'monoclinic'
loop_
_space_group_symop_operation_xyz
x,y,z
-x,y,-z
-x,-y,-z
x,-y,z
1/2+x,1/2+y,z
1/2-x,1/2+y,-z
1/2-x,1/2-y,-z
1/2+x,1/2-y,z
loop_
_atom_site_type_symbol
_atom_site_label
_atom_site_fract_x
_atom_site_fract_y
_atom_site_fract_z
Si Si1 0.090314 0.664184 0.602818
Si Si2 0.867228 0.136980 0.153031
Si Si3 0.834432 0.931833 0.646374
Si Si4 0.906172 0.565488 0.032679
Si Si5 0.678900 0.858953 0.209886
Si Si6 0.899189 0.755590 0.754151
Si Si7 0.195110 0.302118 0.427523
Si Si8 0.520185 0.606395 0.435799
O O1 0.169537 0.604784 0.601977
O O2 0.228886 0.707067 0.696059
O O3 0.000000 0.698374 0.500000
O O4 0.946009 0.653436 0.598953
O O5 0.762241 0.107290 0.044822
O O6 0.740372 0.151477 0.159704
O O7 0.006305 0.089807 0.239407
O O8 0.944320 0.199823 0.164474
O O9 0.878912 0.924931 0.583709
O O10 0.797901 0.000000 0.645671
O O11 0.848505 0.500000 0.030323
O O12 0.000000 0.562506 0.000000
O O13 0.035898 0.589400 0.147653
O O14 0.584244 0.798178 0.186650
O O15 0.831492 0.874064 0.328670
O O16 0.895205 0.728353 0.676334
O O17 0.250000 0.250000 0.500000
O O18 0.367832 0.338497 0.488264
O O19 0.500000 0.569112 0.500000
#
# Coordination Sequence:
#
# PCOD8095462 Si02
#       8
#     8   8   8   8   8   8   8   8
#     4  11  20  33  49  79 102 144 196 218 264 325
#     4   9  19  35  54  83 104 134 183 223 285 331
#     4  10  21  37  55  75 106 142 186 241 274 317
#     4   9  18  35  58  76 101 137 179 231 279 329
#     4  10  20  32  51  82 110 142 179 220 274 330
#     4  11  20  31  52  79 115 142 173 230 270 332
#     4  12  20  31  51  74 110 153 185 214 264 328
#     4  11  21  34  50  77 111 146 186 218 268 333
#
# _framework density 18.713062000000001
#
# number of rings (size 3 to 8) (size 9 to 14) (size 15 to 20)
#    0.000    1.625    3.750    3.375    0.000    4.000 
#    0.000    0.000    0.000    0.750    0.000    0.000 
#    0.000   10.000    0.000    0.000    0.000    0.000 
#
# Total GULP energy -396489.844763 kJ/mol
# GULP energy per Si atom -12390.307649 kJ/mol
# Density = 1.867047 g / cm^3
# Si number density = 18.713062 Si / 1000 Ang^3
#
#
#
# Elastic Constant Matrix: (Units=GPa)
#
#
# Indices 1 2 3 4 5 6 
#
# 1 71.4865 39.0579 43.6403 0.0000 8.3221 0.0000
# 2 39.0579 125.0332 56.3294 0.0000 4.5812 0.0000
# 3 43.6403 56.3294 99.6595 -0.0001 15.4382 0.0000
# 4 0.0000 0.0000 -0.0001 12.1028 0.0000 -5.2355
# 5 8.3221 4.5812 15.4382 0.0000 16.1528 0.0000
# 6 0.0000 0.0000 0.0000 -5.2355 0.0000 15.9848
#
#
#
# Elastic Compliance Matrix: (Units=1/GPa)
#
#
# Indices 1 2 3 4 5 6 
#
# 1 0.020081 -0.003246 -0.006454 0.000000 -0.003257 0.000000
# 2 -0.003246 0.011401 -0.005611 0.000000 0.003802 0.000000
# 3 -0.006454 -0.005611 0.017924 0.000000 -0.012214 0.000000
# 4 0.000000 0.000000 0.000000 0.096264 0.000000 0.031529
# 5 -0.003257 0.003802 -0.012214 0.000000 0.074182 0.000000
# 6 0.000000 0.000000 0.000000 0.031529 0.000000 0.072886
#
#
# Mechanical properties :
#
#
# Convention : Reuss Voigt Hill
#
# Bulk Modulus (GPa) = 53.23999 63.80381 58.52190
# Shear Modulus (GPa) = 15.16881 19.32485 17.24683
#
# Velocity S-wave (km/s) = 2.85019 3.21704 3.03916
# Velocity P-wave (km/s) = 6.27247 6.92597 6.60730
#
# Compressibility (1/GPa) = 0.01878287
#
# Stress axis : x y z
#
# Youngs Moduli (GPa) = 49.79719 87.71496 55.79010
#
# Poissons Ratio (x) = 0.28471 0.36009
# Poissons Ratio (y) = 0.16164 0.31306
# Poissons Ratio (z) = 0.32141 0.49221
#
# Static dielectric constant tensor:
#      x y z
#    x 3.503580 0.000000 0.217940 
#    y 0.000000 3.414490 0.000000 
#    z 0.217940 0.000000 3.522120 
# 
# 
# High freq. dielectric constant tensor:
#      x y z
#    x 1.710610 0.000000 0.014550 
#    y 0.000000 1.716330 0.000000 
#    z 0.014550 0.000000 1.720740 
# 
# From -- ./inp_files/306810.got.cif
#   From: 2010.06.25/outbox.cif.g09.slc.cpg/sg12_154_cif.got.tgz:306810.got - 2010.06.28 00:19:55.
