data_PCOD8095143
_publ_section_title
;
Structure prediction by ZEFSAII (Michael W. Deem and Ramdas Pophale) SiO2 
 PCOD8095143
Probable space group: C 2/M
;
_chemical_formula_sum "Si O2"
_cell_formula_units_Z 32
_cell_length_a 5.151605
_cell_length_b 27.391425
_cell_length_c 13.344473
_cell_angle_alpha 90.000000
_cell_angle_beta 76.370872
_cell_angle_gamma 90.000000
_cell_volume 1830.012162
_symmetry_space_group_name_H-M "C 2/M"
_symmetry_group_IT_number 12
_symmetry_cell_setting 'monoclinic'
loop_
_space_group_symop_operation_xyz
x,y,z
-x,y,-z
-x,-y,-z
x,-y,z
1/2+x,1/2+y,z
1/2-x,1/2+y,-z
1/2-x,1/2-y,-z
1/2+x,1/2-y,z
loop_
_atom_site_type_symbol
_atom_site_label
_atom_site_fract_x
_atom_site_fract_y
_atom_site_fract_z
Si Si1 0.367996 0.557898 0.738851
Si Si2 0.494831 0.272592 0.116993
Si Si3 0.202226 0.877733 0.066954
Si Si4 0.557728 0.942041 0.384642
O O1 0.357476 0.500000 0.753556
O O2 0.276323 0.581010 0.851315
O O3 0.659871 0.576995 0.681936
O O4 0.170272 0.575960 0.669894
O O5 0.683991 0.238805 0.171129
O O6 0.574494 0.328743 0.124858
O O7 0.500000 0.255950 0.000000
O O8 0.500000 0.866813 0.000000
O O9 0.000000 0.897181 0.000000
O O10 0.500000 0.920016 0.500000
O O11 0.562517 0.000000 0.391203
#
# Coordination Sequence:
#
# PCOD8095143 Si02
#       4
#     8   8   8   8
#     4  10  20  32  46  67  95 124 154 185 218 267
#     4   9  16  28  45  63  84 113 150 192 231 257
#     4  11  21  31  45  66  95 129 157 181 214 264
#     4   9  17  31  50  68  87 114 150 196 241 266
#
# _framework density 17.486222999999999
#
# number of rings (size 3 to 8) (size 9 to 14) (size 15 to 20)
#    0.000    2.250    0.000    6.000    0.000    4.000 
#    0.000    0.000    0.000    0.000    0.000    0.000 
#    0.000   20.000    0.000    0.000    0.000    0.000 
#
# Total GULP energy -198325.459553 kJ/mol
# GULP energy per Si atom -12395.341222 kJ/mol
# Density = 1.744642 g / cm^3
# Si number density = 17.486223 Si / 1000 Ang^3
#
#
#
# Elastic Constant Matrix: (Units=GPa)
#
#
# Indices 1 2 3 4 5 6 
#
# 1 144.2957 37.7165 31.8208 0.0000 10.1546 0.0000
# 2 37.7165 49.5569 35.6808 0.0000 7.4016 0.0000
# 3 31.8208 35.6808 68.7518 0.0000 11.9883 0.0000
# 4 0.0000 0.0000 0.0000 1.2011 0.0000 0.4451
# 5 10.1546 7.4016 11.9883 0.0000 25.1509 0.0000
# 6 0.0000 0.0000 0.0000 0.4451 0.0000 15.5488
#
#
#
# Elastic Compliance Matrix: (Units=1/GPa)
#
#
# Indices 1 2 3 4 5 6 
#
# 1 0.008737 -0.005913 -0.000723 0.000000 -0.001442 0.000000
# 2 -0.005913 0.036282 -0.015975 0.000000 -0.000675 0.000000
# 3 -0.000723 -0.015975 0.024321 0.000000 -0.006600 0.000000
# 4 0.000000 0.000000 0.000000 0.841488 0.000000 -0.024089
# 5 -0.001442 -0.000675 -0.006600 0.000000 0.043687 0.000000
# 6 0.000000 0.000000 0.000000 -0.024089 0.000000 0.065003
#
#
# Mechanical properties :
#
#
# Convention : Reuss Voigt Hill
#
# Bulk Modulus (GPa) = 41.46439 52.56007 47.01223
# Shear Modulus (GPa) = 4.66078 18.87256 11.76667
#
# Velocity S-wave (km/s) = 1.63438 3.28881 2.59687
# Velocity P-wave (km/s) = 5.22740 6.67420 5.99460
#
# Compressibility (1/GPa) = 0.02411708
#
# Stress axis : x y z
#
# Youngs Moduli (GPa) = 114.45782 27.56185 41.11598
#
# Poissons Ratio (x) = 0.16298 0.02974
# Poissons Ratio (y) = 0.67680 0.65683
# Poissons Ratio (z) = 0.08280 0.44030
#
# Static dielectric constant tensor:
#      x y z
#    x 3.835990 0.000000 0.055830 
#    y 0.000000 2.848370 0.000000 
#    z 0.055830 0.000000 2.963700 
# 
# 
# High freq. dielectric constant tensor:
#      x y z
#    x 1.712330 0.000000 0.006580 
#    y 0.000000 1.638600 0.000000 
#    z 0.006580 0.000000 1.630800 
# 
# From -- ./inp_files/114766.got.cif
#   From: 2010.06.25/outbox.cif.g09.slc.cpg/sg12_58_cif.got.tgz:114766.got - 2010.06.28 00:19:55.
