data_PCOD8095200
_publ_section_title
;
Structure prediction by ZEFSAII (Michael W. Deem and Ramdas Pophale) SiO2 
 PCOD8095200
Probable space group: C 2/M
;
_chemical_formula_sum "Si O2"
_cell_formula_units_Z 56
_cell_length_a 19.070221
_cell_length_b 9.264835
_cell_length_c 26.497837
_cell_angle_alpha 90.000000
_cell_angle_beta 140.927713
_cell_angle_gamma 90.000000
_cell_volume 2950.879013
_symmetry_space_group_name_H-M "C 2/M"
_symmetry_group_IT_number 12
_symmetry_cell_setting 'monoclinic'
loop_
_space_group_symop_operation_xyz
x,y,z
-x,y,-z
-x,-y,-z
x,-y,z
1/2+x,1/2+y,z
1/2-x,1/2+y,-z
1/2-x,1/2-y,-z
1/2+x,1/2-y,z
loop_
_atom_site_type_symbol
_atom_site_label
_atom_site_fract_x
_atom_site_fract_y
_atom_site_fract_z
Si Si1 0.545654 0.336489 0.474422
Si Si2 0.888165 0.334016 0.906272
Si Si3 0.884707 0.340693 0.325649
Si Si4 0.958200 0.329500 0.747147
Si Si5 0.859275 0.827931 0.787676
Si Si6 0.186530 0.338543 0.827662
Si Si7 0.718371 0.836234 0.432492
O O1 0.500000 0.262889 0.500000
O O2 0.504214 0.500000 0.448611
O O3 0.489575 0.259249 0.395619
O O4 0.677989 0.324178 0.547634
O O5 0.861128 0.500000 0.877481
O O6 0.904300 0.241821 0.864522
O O7 0.788926 0.272615 0.886299
O O8 0.000000 0.320931 0.000000
O O9 0.915832 0.500000 0.361625
O O10 0.771535 0.290044 0.290259
O O11 0.869760 0.337008 0.258006
O O12 0.937331 0.500000 0.744471
O O13 0.923198 0.239406 0.776324
O O14 0.887418 0.277950 0.658348
O O15 0.088856 0.295229 0.812080
O O16 0.878410 0.000000 0.801034
O O17 0.230990 0.500000 0.864604
O O18 0.750000 0.750000 0.500000
O O19 0.696581 0.000000 0.437581
#
# Coordination Sequence:
#
# PCOD8095200 Si02
#       7
#     8   8   8   8   8   8   8
#     4  10  20  32  47  69  96 130 175 222 266 310
#     4  10  21  38  61  87 112 139 173 212 258 318
#     4   9  18  33  51  72  99 133 175 219 264 314
#     4  10  20  36  56  78 109 146 183 225 272 320
#     4  10  21  36  56  82 110 142 180 222 269 319
#     4   9  19  35  56  81 107 138 175 215 262 315
#     4  10  21  35  51  73 104 142 181 225 273 318
#
# _framework density 18.977395999999999
#
# number of rings (size 3 to 8) (size 9 to 14) (size 15 to 20)
#    0.000    2.286    0.000    3.429    0.000    8.286 
#    0.000    0.714    0.000    0.000    0.000    0.000 
#    0.000    0.000    0.000    0.000    0.000    0.000 
#
# Total GULP energy -347142.372919 kJ/mol
# GULP energy per Si atom -12397.941890 kJ/mol
# Density = 1.893420 g / cm^3
# Si number density = 18.977396 Si / 1000 Ang^3
#
#
#
# Elastic Constant Matrix: (Units=GPa)
#
#
# Indices 1 2 3 4 5 6 
#
# 1 101.2642 43.7921 23.5140 0.0000 6.8745 0.0000
# 2 43.7921 89.7971 45.9259 0.0000 3.7353 0.0001
# 3 23.5140 45.9259 76.9928 0.0000 9.6756 0.0000
# 4 0.0000 0.0000 0.0000 29.9139 0.0000 0.1647
# 5 6.8745 3.7353 9.6756 0.0000 21.3905 0.0000
# 6 0.0000 0.0001 0.0000 0.1647 0.0000 32.9347
#
#
#
# Elastic Compliance Matrix: (Units=1/GPa)
#
#
# Indices 1 2 3 4 5 6 
#
# 1 0.012707 -0.006162 0.000183 0.000000 -0.003091 0.000000
# 2 -0.006162 0.019066 -0.009883 0.000000 0.003122 0.000000
# 3 0.000183 -0.009883 0.019740 0.000000 -0.007262 0.000000
# 4 0.000000 0.000000 0.000000 0.033430 0.000000 -0.000167
# 5 -0.003091 0.003122 -0.007262 0.000000 0.050483 0.000000
# 6 0.000000 0.000000 0.000000 -0.000167 0.000000 0.030364
#
#
# Mechanical properties :
#
#
# Convention : Reuss Voigt Hill
#
# Bulk Modulus (GPa) = 50.53224 54.94646 52.73935
# Shear Modulus (GPa) = 24.49639 27.16929 25.83284
#
# Velocity S-wave (km/s) = 3.59669 3.78784 3.69350
# Velocity P-wave (km/s) = 6.62825 6.93879 6.78530
#
# Compressibility (1/GPa) = 0.01978935
#
# Stress axis : x y z
#
# Youngs Moduli (GPa) = 78.69487 52.44862 50.65804
#
# Poissons Ratio (x) = 0.32320 -0.00929
# Poissons Ratio (y) = 0.48494 0.50067
# Poissons Ratio (z) = -0.01443 0.51836
#
# Static dielectric constant tensor:
#      x y z
#    x 3.628470 0.000000 0.176600 
#    y 0.000000 3.544810 0.000000 
#    z 0.176600 0.000000 3.295910 
# 
# 
# High freq. dielectric constant tensor:
#      x y z
#    x 1.744310 0.000000 0.011570 
#    y 0.000000 1.735390 0.000000 
#    z 0.011570 0.000000 1.721350 
# 
# From -- ./inp_files/363134.got.cif
#   From: 2010.06.25/outbox.cif.g09.slc.cpg/sg12_182_cif.got.tgz:363134.got - 2010.06.28 00:19:55.
