data_PCOD8095768
_publ_section_title
;
Structure prediction by ZEFSAII (Michael W. Deem and Ramdas Pophale) SiO2 
 PCOD8095768
Probable space group: C 2/M
;
_chemical_formula_sum "Si O2"
_cell_formula_units_Z 48
_cell_length_a 22.041872
_cell_length_b 12.725873
_cell_length_c 12.508076
_cell_angle_alpha 90.000000
_cell_angle_beta 54.027127
_cell_angle_gamma 90.000000
_cell_volume 2839.445475
_symmetry_space_group_name_H-M "C 2/M"
_symmetry_group_IT_number 12
_symmetry_cell_setting 'monoclinic'
loop_
_space_group_symop_operation_xyz
x,y,z
-x,y,-z
-x,-y,-z
x,-y,z
1/2+x,1/2+y,z
1/2-x,1/2+y,-z
1/2-x,1/2-y,-z
1/2+x,1/2-y,z
loop_
_atom_site_type_symbol
_atom_site_label
_atom_site_fract_x
_atom_site_fract_y
_atom_site_fract_z
Si Si1 0.083942 0.121498 0.879612
Si Si2 0.550187 0.258519 0.349475
Si Si3 0.570571 0.620722 0.650525
Si Si4 0.171028 0.623532 0.120388
Si Si5 0.670909 0.620759 0.349475
Si Si6 0.292525 0.254972 0.120389
O O1 0.096418 0.149483 0.742629
O O2 0.138689 0.191903 0.892028
O O3 0.101837 0.000000 0.884054
O O4 0.000000 0.149767 0.000000
O O5 0.500000 0.217935 0.500000
O O6 0.499706 0.307656 0.308539
O O7 0.594781 0.159315 0.257371
O O8 0.607246 0.348823 0.329438
O O9 0.543931 0.500000 0.670558
O O10 0.641032 0.641034 0.500000
O O11 0.169407 0.500000 0.107967
O O12 0.242944 0.655215 0.115953
O O13 0.175118 0.675120 0.000000
O O14 0.692048 0.500000 0.308541
O O15 0.744266 0.691198 0.257371
#
# Coordination Sequence:
#
# PCOD8095768 Si02
#       6
#     8   8   8   8   8   8
#     4  10  20  33  50  71  95 124 158 197 239 282
#     4   9  17  30  50  75 100 126 157 194 234 275
#     4   9  17  30  50  75 100 126 157 194 234 275
#     4  10  20  33  50  71  95 124 158 197 239 282
#     4   9  17  30  50  75 100 126 157 194 234 275
#     4  10  20  33  50  71  95 124 158 197 239 282
#
# _framework density 16.904710000000001
#
# number of rings (size 3 to 8) (size 9 to 14) (size 15 to 20)
#    0.000    2.500    0.000    2.500    0.000    3.000 
#    0.000    5.000    0.000    9.000    0.000    0.000 
#    0.000    0.000    0.000    0.000    0.000    0.000 
#
# Total GULP energy -297656.583663 kJ/mol
# GULP energy per Si atom -12402.357653 kJ/mol
# Density = 1.686623 g / cm^3
# Si number density = 16.904710 Si / 1000 Ang^3
#
#
#
# Elastic Constant Matrix: (Units=GPa)
#
#
# Indices 1 2 3 4 5 6 
#
# 1 118.6377 77.2943 66.5094 0.0000 2.4171 0.0000
# 2 77.2943 118.7604 66.3734 0.0000 -2.1587 0.0000
# 3 66.5094 66.3734 118.1904 0.0000 -0.1075 0.0000
# 4 0.0000 0.0000 0.0000 22.0875 0.0000 -2.3284
# 5 2.4171 -2.1587 -0.1075 0.0000 22.2220 0.0000
# 6 0.0000 0.0000 0.0000 -2.3284 0.0000 20.8337
#
#
#
# Elastic Compliance Matrix: (Units=1/GPa)
#
#
# Indices 1 2 3 4 5 6 
#
# 1 0.016373 -0.008093 -0.004671 0.000000 -0.002590 0.000000
# 2 -0.008093 0.016302 -0.004599 0.000000 0.002442 0.000000
# 3 -0.004671 -0.004599 0.013672 0.000000 0.000128 0.000000
# 4 0.000000 0.000000 0.000000 0.045814 0.000000 0.005120
# 5 -0.002590 0.002442 0.000128 0.000000 0.045520 0.000000
# 6 0.000000 0.000000 0.000000 0.005120 0.000000 0.048571
#
#
# Mechanical properties :
#
#
# Convention : Reuss Voigt Hill
#
# Bulk Modulus (GPa) = 86.04359 86.21584 86.12972
# Shear Modulus (GPa) = 22.23690 22.72274 22.47982
#
# Velocity S-wave (km/s) = 3.63082 3.67026 3.65059
# Velocity P-wave (km/s) = 8.28171 8.31101 8.29638
#
# Compressibility (1/GPa) = 0.01162202
#
# Stress axis : x y z
#
# Youngs Moduli (GPa) = 61.07609 61.34305 73.14112
#
# Poissons Ratio (x) = 0.49642 0.34167
# Poissons Ratio (y) = 0.49426 0.33635
# Poissons Ratio (z) = 0.28531 0.28209
#
# Static dielectric constant tensor:
#      x y z
#    x 2.976650 0.000000 -0.007290 
#    y 0.000000 2.976560 0.000000 
#    z -0.007290 0.000000 3.490660 
# 
# 
# High freq. dielectric constant tensor:
#      x y z
#    x 1.638500 0.000000 -0.000460 
#    y 0.000000 1.638490 0.000000 
#    z -0.000460 0.000000 1.671220 
# 
# From -- ./inp_files/164676.got.cif
#   From: 2010.06.25/outbox.cif.g09.slc.cpg/sg12_83_cif.got.tgz:164676.got - 2010.06.28 00:19:55.
