data_PCOD8095303
_publ_section_title
;
Structure prediction by ZEFSAII (Michael W. Deem and Ramdas Pophale) SiO2 
 PCOD8095303
Probable space group: C 2/M
;
_chemical_formula_sum "Si O2"
_cell_formula_units_Z 64
_cell_length_a 12.331935
_cell_length_b 22.390281
_cell_length_c 16.618796
_cell_angle_alpha 90.000000
_cell_angle_beta 127.032986
_cell_angle_gamma 90.000000
_cell_volume 3663.113882
_symmetry_space_group_name_H-M "C 2/M"
_symmetry_group_IT_number 12
_symmetry_cell_setting 'monoclinic'
loop_
_space_group_symop_operation_xyz
x,y,z
-x,y,-z
-x,-y,-z
x,-y,z
1/2+x,1/2+y,z
1/2-x,1/2+y,-z
1/2-x,1/2-y,-z
1/2+x,1/2-y,z
loop_
_atom_site_type_symbol
_atom_site_label
_atom_site_fract_x
_atom_site_fract_y
_atom_site_fract_z
Si Si1 0.631560 0.787018 0.113044
Si Si2 0.572424 0.240426 0.266326
Si Si3 0.221706 0.669840 0.590555
Si Si4 0.597303 0.567268 0.269290
Si Si5 0.371057 0.345373 0.140842
Si Si6 0.154357 0.159543 0.053022
Si Si7 0.011513 0.343907 0.634728
Si Si8 0.197649 0.566037 0.783020
O O1 0.608392 0.792162 0.198414
O O2 0.745782 0.836635 0.145495
O O3 0.685477 0.720981 0.114086
O O4 0.500000 0.801366 0.000000
O O5 0.699310 0.266877 0.374411
O O6 0.486358 0.297362 0.205568
O O7 0.489212 0.195626 0.285206
O O8 0.321046 0.612370 0.636280
O O9 0.135801 0.658602 0.471622
O O10 0.126643 0.678503 0.625582
O O11 0.591315 0.500000 0.303361
O O12 0.442413 0.590139 0.185700
O O13 0.675436 0.565775 0.220213
O O14 0.315021 0.333741 0.026918
O O15 0.261034 0.109661 0.127014
O O16 0.000000 0.138885 0.000000
O O17 0.057096 0.411084 0.679363
O O18 0.169234 0.500000 0.803980
#
# Coordination Sequence:
#
# PCOD8095303 Si02
#       8
#     8   8   8   8   8   8   8   8
#     4  11  22  32  49  78 104 137 168 203 248 305
#     4  11  19  33  52  76 104 135 168 204 247 301
#     4   9  19  34  51  80 104 131 167 204 255 303
#     4   9  18  33  53  74  98 129 168 211 250 297
#     4  11  20  32  51  72 104 133 169 205 251 294
#     4  11  18  32  49  74 103 136 167 203 250 297
#     4  10  20  33  53  74 108 137 160 207 257 302
#     4  10  20  32  48  75 104 132 169 207 251 302
#
# _framework density 17.471474000000001
#
# number of rings (size 3 to 8) (size 9 to 14) (size 15 to 20)
#    0.000    1.750    3.750    3.750    1.750    1.250 
#    0.000    2.500    0.000    1.125    0.000    0.875 
#    0.000    0.000    0.000    0.000    0.000    0.000 
#
# Total GULP energy -396655.912928 kJ/mol
# GULP energy per Si atom -12395.497279 kJ/mol
# Density = 1.743171 g / cm^3
# Si number density = 17.471474 Si / 1000 Ang^3
#
#
#
# Elastic Constant Matrix: (Units=GPa)
#
#
# Indices 1 2 3 4 5 6 
#
# 1 60.4962 35.6320 28.0529 0.0000 0.3774 0.0000
# 2 35.6320 88.9036 35.9021 0.0000 4.4055 0.0000
# 3 28.0529 35.9021 87.8282 0.0000 3.4243 0.0000
# 4 0.0000 0.0000 0.0000 15.8778 0.0000 3.1975
# 5 0.3774 4.4055 3.4243 0.0000 25.1530 0.0000
# 6 0.0000 0.0000 0.0000 3.1975 0.0000 15.1512
#
#
#
# Elastic Compliance Matrix: (Units=1/GPa)
#
#
# Indices 1 2 3 4 5 6 
#
# 1 0.022960 -0.007538 -0.004313 0.000000 0.001563 0.000000
# 2 -0.007538 0.016013 -0.004055 0.000000 -0.002140 0.000000
# 3 -0.004313 -0.004055 0.014468 0.000000 -0.001195 0.000000
# 4 0.000000 0.000000 0.000000 0.065776 0.000000 -0.013881
# 5 0.001563 -0.002140 -0.001195 0.000000 0.040271 0.000000
# 6 0.000000 0.000000 0.000000 -0.013881 0.000000 0.068931
#
#
# Mechanical properties :
#
#
# Convention : Reuss Voigt Hill
#
# Bulk Modulus (GPa) = 46.23430 48.48912 47.36171
# Shear Modulus (GPa) = 18.69583 20.41246 19.55414
#
# Velocity S-wave (km/s) = 3.27475 3.42179 3.34908
# Velocity P-wave (km/s) = 6.38896 6.58977 6.49015
#
# Compressibility (1/GPa) = 0.02162896
#
# Stress axis : x y z
#
# Youngs Moduli (GPa) = 43.55373 62.45062 69.12040
#
# Poissons Ratio (x) = 0.47075 0.29813
# Poissons Ratio (y) = 0.32830 0.28025
# Poissons Ratio (z) = 0.18786 0.25321
#
# Static dielectric constant tensor:
#      x y z
#    x 3.107730 0.000000 0.131440 
#    y 0.000000 3.277880 0.000000 
#    z 0.131440 0.000000 3.416820 
# 
# 
# High freq. dielectric constant tensor:
#      x y z
#    x 1.651960 0.000000 0.009340 
#    y 0.000000 1.654220 0.000000 
#    z 0.009340 0.000000 1.684380 
# 
# From -- ./inp_files/265537.got.cif
#   From: 2010.06.25/outbox.cif.g09.slc.cpg/sg12_133_cif.got.tgz:265537.got - 2010.06.28 00:19:55.
