data_PCOD8095228
_publ_section_title
;
Structure prediction by ZEFSAII (Michael W. Deem and Ramdas Pophale) SiO2 
 PCOD8095228
Probable space group: C 2/M
;
_chemical_formula_sum "Si O2"
_cell_formula_units_Z 36
_cell_length_a 18.593418
_cell_length_b 10.435586
_cell_length_c 11.079324
_cell_angle_alpha 90.000000
_cell_angle_beta 63.806278
_cell_angle_gamma 90.000000
_cell_volume 1928.991294
_symmetry_space_group_name_H-M "C 2/M"
_symmetry_group_IT_number 12
_symmetry_cell_setting 'monoclinic'
loop_
_space_group_symop_operation_xyz
x,y,z
-x,y,-z
-x,-y,-z
x,-y,z
1/2+x,1/2+y,z
1/2-x,1/2+y,-z
1/2-x,1/2-y,-z
1/2+x,1/2-y,z
loop_
_atom_site_type_symbol
_atom_site_label
_atom_site_fract_x
_atom_site_fract_y
_atom_site_fract_z
Si Si1 0.384390 0.852200 0.908831
Si Si2 0.846520 0.858751 0.745459
Si Si3 0.000000 0.210083 0.500000
Si Si4 0.942376 0.354739 0.313045
Si Si5 0.677095 0.148057 0.789065
O O1 0.344911 0.756521 0.841420
O O2 0.479894 0.842256 0.829418
O O3 0.356589 0.000000 0.905114
O O4 0.356001 0.799047 0.059046
O O5 0.772705 0.829884 0.708574
O O6 0.930238 0.872801 0.612702
O O7 0.831831 0.000000 0.816655
O O8 0.954635 0.292556 0.433523
O O9 0.921558 0.500000 0.359612
O O10 0.869252 0.288721 0.291184
O O11 0.652660 0.000000 0.803789
#
# Coordination Sequence:
#
# PCOD8095228 Si02
#       5
#     8   8   4   8   8
#     4   9  17  31  53  77  98 122 155 198 245 289
#     4  10  20  33  50  70  98 134 163 193 235 285
#     4  10  20  32  48  66  95 134 169 196 231 280
#     4   9  17  30  50  75  99 123 157 202 244 283
#     4   9  17  30  50  75  99 124 157 198 244 288
#
# _framework density 18.662604000000002
#
# number of rings (size 3 to 8) (size 9 to 14) (size 15 to 20)
#    0.000    2.667    0.000    2.000    0.000    4.444 
#    0.000    0.000    0.000   18.667    0.000    0.000 
#    0.000    0.000    0.000    0.000    0.000    0.000 
#
# Total GULP energy -223022.137181 kJ/mol
# GULP energy per Si atom -12390.118732 kJ/mol
# Density = 1.862013 g / cm^3
# Si number density = 18.662604 Si / 1000 Ang^3
#
#
#
# Elastic Constant Matrix: (Units=GPa)
#
#
# Indices 1 2 3 4 5 6 
#
# 1 148.9411 49.6183 42.8791 0.0000 25.9172 0.0000
# 2 49.6183 73.8574 22.5309 0.0000 16.2272 0.0000
# 3 42.8791 22.5309 72.5910 0.0000 16.8019 0.0000
# 4 0.0000 0.0000 0.0000 9.9417 0.0000 1.1358
# 5 25.9172 16.2272 16.8019 0.0000 26.9582 0.0000
# 6 0.0000 0.0000 0.0000 1.1358 0.0000 20.7471
#
#
#
# Elastic Compliance Matrix: (Units=1/GPa)
#
#
# Indices 1 2 3 4 5 6 
#
# 1 0.010083 -0.004693 -0.003400 0.000000 -0.004749 0.000000
# 2 -0.004693 0.018416 -0.001662 0.000000 -0.005538 0.000000
# 3 -0.003400 -0.001662 0.017893 0.000000 -0.006883 0.000000
# 4 0.000000 0.000000 0.000000 0.101219 0.000000 -0.005541
# 5 -0.004749 -0.005538 -0.006883 0.000000 0.049284 0.000000
# 6 0.000000 0.000000 0.000000 -0.005541 0.000000 0.048503
#
#
# Mechanical properties :
#
#
# Convention : Reuss Voigt Hill
#
# Bulk Modulus (GPa) = 37.19969 58.38290 47.79129
# Shear Modulus (GPa) = 18.25694 23.55350 20.90522
#
# Velocity S-wave (km/s) = 3.13111 3.55642 3.35052
# Velocity P-wave (km/s) = 5.74872 6.94373 6.37429
#
# Compressibility (1/GPa) = 0.02688195
#
# Stress axis : x y z
#
# Youngs Moduli (GPa) = 99.17927 54.30009 55.88736
#
# Poissons Ratio (x) = 0.25483 0.19001
# Poissons Ratio (y) = 0.46545 0.09289
# Poissons Ratio (z) = 0.33720 0.09025
#
# Static dielectric constant tensor:
#      x y z
#    x 3.647260 0.000000 0.022660 
#    y 0.000000 3.203850 0.000000 
#    z 0.022660 0.000000 3.361400 
# 
# 
# High freq. dielectric constant tensor:
#      x y z
#    x 1.738940 0.000000 -0.005610 
#    y 0.000000 1.693530 0.000000 
#    z -0.005610 0.000000 1.713390 
# 
# From -- ./inp_files/70853.got.cif
#   From: 2010.06.25/outbox.cif.g09.slc.cpg/sg12_36_cif.got.tgz:70853.got - 2010.06.28 00:19:55.
