data_PCOD8095433
_publ_section_title
;
Structure prediction by ZEFSAII (Michael W. Deem and Ramdas Pophale) SiO2 
 PCOD8095433
Probable space group: C 2/M
;
_chemical_formula_sum "Si O2"
_cell_formula_units_Z 48
_cell_length_a 7.864587
_cell_length_b 18.371820
_cell_length_c 18.384071
_cell_angle_alpha 90.000000
_cell_angle_beta 112.719308
_cell_angle_gamma 90.000000
_cell_volume 2450.150988
_symmetry_space_group_name_H-M "C 2/M"
_symmetry_group_IT_number 12
_symmetry_cell_setting 'monoclinic'
loop_
_space_group_symop_operation_xyz
x,y,z
-x,y,-z
-x,-y,-z
x,-y,z
1/2+x,1/2+y,z
1/2-x,1/2+y,-z
1/2-x,1/2-y,-z
1/2+x,1/2-y,z
loop_
_atom_site_type_symbol
_atom_site_label
_atom_site_fract_x
_atom_site_fract_y
_atom_site_fract_z
Si Si1 0.575114 0.086500 0.306074
Si Si2 0.523319 0.296837 0.917574
Si Si3 0.635129 0.913519 0.584824
Si Si4 0.148114 0.346654 0.857954
Si Si5 0.293509 0.080888 0.989895
Si Si6 0.482225 0.413531 0.415227
O O1 0.445252 0.112925 0.351145
O O2 0.505983 0.125199 0.222061
O O3 0.786284 0.112788 0.351005
O O4 0.564126 0.000000 0.295299
O O5 0.333887 0.321946 0.847302
O O6 0.577751 0.220732 0.893193
O O7 0.673020 0.359667 0.926863
O O8 0.500000 0.285653 0.000000
O O9 0.500000 0.882691 0.500000
O O10 0.844902 0.885138 0.605175
O O11 0.633221 0.000000 0.581502
O O12 0.211521 0.410015 0.923716
O O13 0.219963 0.000000 0.958639
O O14 0.500000 0.092025 0.000000
O O15 0.500000 0.382613 0.500000
O O16 0.486207 0.500000 0.418707
#
# Coordination Sequence:
#
# PCOD8095433 Si02
#       6
#     8   8   8   8   8   8
#     4  10  20  32  50  83 119 148 184 237 289 327
#     4  10  21  38  61  79 104 150 194 223 267 343
#     4   9  15  27  48  75 111 150 188 227 275 340
#     4  11  21  37  56  80 113 148 186 231 281 333
#     4  10  20  36  60  87 112 141 182 231 278 331
#     4   9  15  27  49  75 110 152 186 226 279 337
#
# _framework density 19.590629
#
# number of rings (size 3 to 8) (size 9 to 14) (size 15 to 20)
#    0.000    2.167    1.667    4.000    0.000    3.667 
#    6.000    0.000    0.000    0.000    0.000    3.500 
#    0.000    0.000    0.000    0.000    0.000    1.000 
#
# Total GULP energy -297480.748930 kJ/mol
# GULP energy per Si atom -12395.031205 kJ/mol
# Density = 1.954604 g / cm^3
# Si number density = 19.590629 Si / 1000 Ang^3
#
#
#
# Elastic Constant Matrix: (Units=GPa)
#
#
# Indices 1 2 3 4 5 6 
#
# 1 142.2755 34.2365 39.2952 0.0000 16.7357 0.0000
# 2 34.2365 67.7737 31.5553 0.0000 2.7705 0.0000
# 3 39.2952 31.5553 95.0478 0.0000 21.6706 0.0000
# 4 0.0000 0.0000 0.0000 35.3712 0.0000 3.7069
# 5 16.7357 2.7705 21.6706 0.0000 32.0118 0.0000
# 6 0.0000 0.0000 0.0000 3.7069 0.0000 13.0152
#
#
#
# Elastic Compliance Matrix: (Units=1/GPa)
#
#
# Indices 1 2 3 4 5 6 
#
# 1 0.008705 -0.003456 -0.001753 0.000000 -0.003065 0.000000
# 2 -0.003456 0.019048 -0.005831 0.000000 0.004106 0.000000
# 3 -0.001753 -0.005831 0.015204 0.000000 -0.008872 0.000000
# 4 0.000000 0.000000 0.000000 0.029141 0.000000 -0.008300
# 5 -0.003065 0.004106 -0.008872 0.000000 0.038492 0.000000
# 6 0.000000 0.000000 0.000000 -0.008300 0.000000 0.079197
#
#
# Mechanical properties :
#
#
# Convention : Reuss Voigt Hill
#
# Bulk Modulus (GPa) = 47.89804 57.25233 52.57519
# Shear Modulus (GPa) = 22.84923 29.41364 26.13143
#
# Velocity S-wave (km/s) = 3.41887 3.87901 3.65619
# Velocity P-wave (km/s) = 6.33146 7.02496 6.68721
#
# Compressibility (1/GPa) = 0.02087768
#
# Stress axis : x y z
#
# Youngs Moduli (GPa) = 114.87809 52.49908 65.77149
#
# Poissons Ratio (x) = 0.18144 0.11527
# Poissons Ratio (y) = 0.39703 0.38352
# Poissons Ratio (z) = 0.20133 0.30613
#
# Static dielectric constant tensor:
#      x y z
#    x 4.126610 0.000000 0.238870 
#    y 0.000000 3.233210 0.000000 
#    z 0.238870 0.000000 3.493430 
# 
# 
# High freq. dielectric constant tensor:
#      x y z
#    x 1.786280 0.000000 0.011630 
#    y 0.000000 1.724450 0.000000 
#    z 0.011630 0.000000 1.741520 
# 
# From -- ./inp_files/256707.got.cif
#   From: 2010.06.25/outbox.cif.g09.slc.cpg/sg12_129_cif.got.tgz:256707.got - 2010.06.28 00:19:55.
