data_PCOD8095870
_publ_section_title
;
Structure prediction by ZEFSAII (Michael W. Deem and Ramdas Pophale) SiO2 
 PCOD8095870
Probable space group: C 2/M
;
_chemical_formula_sum "Si O2"
_cell_formula_units_Z 64
_cell_length_a 28.261057
_cell_length_b 8.962481
_cell_length_c 15.965773
_cell_angle_alpha 90.000000
_cell_angle_beta 61.223103
_cell_angle_gamma 90.000000
_cell_volume 3544.532374
_symmetry_space_group_name_H-M "C 2/M"
_symmetry_group_IT_number 12
_symmetry_cell_setting 'monoclinic'
loop_
_space_group_symop_operation_xyz
x,y,z
-x,y,-z
-x,-y,-z
x,-y,z
1/2+x,1/2+y,z
1/2-x,1/2+y,-z
1/2-x,1/2-y,-z
1/2+x,1/2-y,z
loop_
_atom_site_type_symbol
_atom_site_label
_atom_site_fract_x
_atom_site_fract_y
_atom_site_fract_z
Si Si1 0.050145 0.674637 0.512050
Si Si2 0.293457 0.327386 0.847670
Si Si3 0.675873 0.826411 0.012352
Si Si4 0.415255 0.673463 0.355423
Si Si5 0.831510 0.675037 0.648066
Si Si6 0.204286 0.825598 0.484101
Si Si7 0.542002 0.823511 0.845263
Si Si8 0.926372 0.323717 0.000857
O O1 0.044629 0.500000 0.533588
O O2 0.048115 0.753769 0.603663
O O3 0.105391 0.714387 0.416873
O O4 0.000000 0.734138 0.500000
O O5 0.307760 0.500000 0.821045
O O6 0.324110 0.269672 0.903549
O O7 0.313374 0.230961 0.753437
O O8 0.229679 0.302426 0.912559
O O9 0.626881 0.761474 0.998780
O O10 0.668237 0.000000 0.042591
O O11 0.427767 0.500000 0.344970
O O12 0.352615 0.708627 0.423930
O O13 0.429740 0.740550 0.254188
O O14 0.821015 0.500000 0.649289
O O15 0.795391 0.756589 0.609017
O O16 0.250000 0.750000 0.500000
O O17 0.216320 0.000000 0.466286
O O18 0.479119 0.776206 0.903231
O O19 0.548420 0.000000 0.827605
O O20 0.570667 0.766241 0.906104
O O21 0.924182 0.500000 0.007205
#
# Coordination Sequence:
#
# PCOD8095870 Si02
#       8
#     8   8   8   8   8   8   8   8
#     4   9  19  36  56  76  98 131 176 215 248 296
#     4  10  20  33  50  74 103 134 169 210 254 300
#     4   9  18  34  53  72  98 133 171 209 250 299
#     4  10  21  35  51  76 108 136 164 205 258 307
#     4  10  20  35  55  77 103 135 170 212 258 302
#     4  10  21  37  55  76 104 136 171 211 253 302
#     4   9  17  32  54  76  99 129 167 209 249 295
#     4   8  16  32  53  75  97 127 170 212 247 290
#
# _framework density 18.055978
#
# number of rings (size 3 to 8) (size 9 to 14) (size 15 to 20)
#    0.000    2.625    0.000    2.250    0.000    4.750 
#    0.000    8.750    0.000    0.000    0.000    0.000 
#    0.000    0.000    0.000    0.000    0.000    0.000 
#
# Total GULP energy -396841.808200 kJ/mol
# GULP energy per Si atom -12401.306506 kJ/mol
# Density = 1.801488 g / cm^3
# Si number density = 18.055978 Si / 1000 Ang^3
#
#
#
# Elastic Constant Matrix: (Units=GPa)
#
#
# Indices 1 2 3 4 5 6 
#
# 1 148.1376 45.6211 50.8951 0.0000 20.2200 0.0000
# 2 45.6211 60.4007 41.6109 0.0000 5.3164 0.0000
# 3 50.8951 41.6109 116.6788 0.0000 9.5572 0.0000
# 4 0.0000 0.0000 0.0000 33.0366 0.0000 1.5166
# 5 20.2200 5.3164 9.5572 0.0000 15.6322 0.0000
# 6 0.0000 0.0000 0.0000 1.5166 0.0000 24.4061
#
#
#
# Elastic Compliance Matrix: (Units=1/GPa)
#
#
# Indices 1 2 3 4 5 6 
#
# 1 0.010600 -0.005943 -0.001628 0.000000 -0.010694 0.000000
# 2 -0.005943 0.025400 -0.006725 0.000000 0.003161 0.000000
# 3 -0.001628 -0.006725 0.011916 0.000000 -0.002892 0.000000
# 4 0.000000 0.000000 0.000000 0.030356 0.000000 -0.001886
# 5 -0.010694 0.003161 -0.002892 0.000000 0.078496 0.000000
# 6 0.000000 0.000000 0.000000 -0.001886 0.000000 0.041091
#
#
# Mechanical properties :
#
#
# Convention : Reuss Voigt Hill
#
# Bulk Modulus (GPa) = 51.75128 66.83015 59.29071
# Shear Modulus (GPa) = 21.46923 27.08765 24.27844
#
# Velocity S-wave (km/s) = 3.45198 3.87745 3.67089
# Velocity P-wave (km/s) = 6.67922 7.55905 7.13272
#
# Compressibility (1/GPa) = 0.01932319
#
# Stress axis : x y z
#
# Youngs Moduli (GPa) = 94.34105 39.37068 83.92197
#
# Poissons Ratio (x) = 0.23399 0.13664
# Poissons Ratio (y) = 0.56069 0.56435
# Poissons Ratio (z) = 0.15360 0.26476
#
# Static dielectric constant tensor:
#      x y z
#    x 3.695510 0.000000 0.118750 
#    y 0.000000 3.253510 0.000000 
#    z 0.118750 0.000000 3.340040 
# 
# 
# High freq. dielectric constant tensor:
#      x y z
#    x 1.703460 0.000000 0.005960 
#    y 0.000000 1.691970 0.000000 
#    z 0.005960 0.000000 1.702170 
# 
# From -- ./inp_files/243735.got.cif
#   From: 2010.06.25/outbox.cif.g09.slc.cpg/sg12_122_cif.got.tgz:243735.got - 2010.06.28 00:19:55.
