data_PCOD8095980
_publ_section_title
;
Structure prediction by ZEFSAII (Michael W. Deem and Ramdas Pophale) SiO2 
 PCOD8095980
Probable space group: C 2/M
;
_chemical_formula_sum "Si O2"
_cell_formula_units_Z 56
_cell_length_a 20.459563
_cell_length_b 9.315982
_cell_length_c 20.987264
_cell_angle_alpha 90.000000
_cell_angle_beta 132.364130
_cell_angle_gamma 90.000000
_cell_volume 2955.651117
_symmetry_space_group_name_H-M "C 2/M"
_symmetry_group_IT_number 12
_symmetry_cell_setting 'monoclinic'
loop_
_space_group_symop_operation_xyz
x,y,z
-x,y,-z
-x,-y,-z
x,-y,z
1/2+x,1/2+y,z
1/2-x,1/2+y,-z
1/2-x,1/2-y,-z
1/2+x,1/2-y,z
loop_
_atom_site_type_symbol
_atom_site_label
_atom_site_fract_x
_atom_site_fract_y
_atom_site_fract_z
Si Si1 0.082841 0.831897 0.727448
Si Si2 0.546008 0.331724 0.940342
Si Si3 0.189053 0.670542 0.698660
Si Si4 0.632933 0.329477 0.123383
Si Si5 0.881369 0.166185 0.599336
Si Si6 0.284220 0.167884 0.428653
Si Si7 0.829063 0.831911 0.085885
O O1 0.105405 0.744786 0.677989
O O2 0.150092 0.783669 0.828249
O O3 0.982573 0.796048 0.683268
O O4 0.093157 0.000000 0.720408
O O5 0.539455 0.500000 0.947763
O O6 0.447245 0.269904 0.884846
O O7 0.581727 0.293469 0.894341
O O8 0.614331 0.274166 0.039277
O O9 0.178571 0.500000 0.697419
O O10 0.275199 0.733628 0.791166
O O11 0.197702 0.719808 0.631269
O O12 0.639815 0.500000 0.132673
O O13 0.816802 0.205091 0.616358
O O14 0.854383 0.253831 0.519311
O O15 0.871359 0.000000 0.575199
O O16 0.301883 0.000000 0.446421
O O17 0.807620 0.000000 0.067659
O O18 0.750000 0.750000 0.000000
#
# Coordination Sequence:
#
# PCOD8095980 Si02
#       7
#     8   8   8   8   8   8   8
#     4  10  22  36  52  77 109 144 177 212 259 319
#     4   8  14  25  44  70  96 126 166 211 253 296
#     4  10  20  33  53  79 106 136 171 221 269 308
#     4   8  14  25  44  72 100 124 161 212 259 297
#     4   9  19  37  57  78 106 139 175 215 263 320
#     4   9  19  35  57  82 105 133 173 223 270 310
#     4  10  20  33  51  74 104 140 176 215 258 307
#
# _framework density 18.946755
#
# number of rings (size 3 to 8) (size 9 to 14) (size 15 to 20)
#    0.000    2.857    0.000    1.714    2.000    3.429 
#    0.000    2.857    0.000    0.857    0.000    4.000 
#    0.000    0.000    0.000    0.000    0.000    0.000 
#
# Total GULP energy -347033.293242 kJ/mol
# GULP energy per Si atom -12394.046187 kJ/mol
# Density = 1.890363 g / cm^3
# Si number density = 18.946755 Si / 1000 Ang^3
#
#
#
# Elastic Constant Matrix: (Units=GPa)
#
#
# Indices 1 2 3 4 5 6 
#
# 1 113.7292 35.7359 55.4640 0.0000 -15.5256 0.0000
# 2 35.7359 30.9031 33.4798 0.0000 -4.3175 0.0000
# 3 55.4640 33.4798 95.0378 0.0000 -4.6143 0.0000
# 4 0.0000 0.0000 0.0000 25.3444 0.0000 0.0577
# 5 -15.5256 -4.3175 -4.6143 0.0000 33.5644 0.0000
# 6 0.0000 0.0000 0.0000 0.0577 0.0000 24.5487
#
#
#
# Elastic Compliance Matrix: (Units=1/GPa)
#
#
# Indices 1 2 3 4 5 6 
#
# 1 0.015563 -0.012490 -0.004441 0.000000 0.004982 0.000000
# 2 -0.012490 0.062957 -0.014876 0.000000 0.000276 0.000000
# 3 -0.004441 -0.014876 0.018284 0.000000 -0.001454 0.000000
# 4 0.000000 0.000000 0.000000 0.039457 0.000000 -0.000093
# 5 0.004982 0.000276 -0.001454 0.000000 0.031933 0.000000
# 6 0.000000 0.000000 0.000000 -0.000093 0.000000 0.040735
#
#
# Mechanical properties :
#
#
# Convention : Reuss Voigt Hill
#
# Bulk Modulus (GPa) = 30.12898 54.33661 42.23279
# Shear Modulus (GPa) = 17.63002 24.35755 20.99379
#
# Velocity S-wave (km/s) = 3.05373 3.58939 3.33234
# Velocity P-wave (km/s) = 5.32636 6.77636 6.09464
#
# Compressibility (1/GPa) = 0.03319064
#
# Stress axis : x y z
#
# Youngs Moduli (GPa) = 64.25406 15.88376 54.69343
#
# Poissons Ratio (x) = 0.19839 0.24289
# Poissons Ratio (y) = 0.80253 0.81362
# Poissons Ratio (z) = 0.28534 0.23629
#
# Static dielectric constant tensor:
#      x y z
#    x 3.892900 0.000000 0.052300 
#    y 0.000000 3.051030 0.000000 
#    z 0.052300 0.000000 3.508360 
# 
# 
# High freq. dielectric constant tensor:
#      x y z
#    x 1.750070 0.000000 -0.000080 
#    y 0.000000 1.691470 0.000000 
#    z -0.000080 0.000000 1.733670 
# 
# From -- ./inp_files/277088.got.cif
#   From: 2010.06.25/outbox.cif.g09.slc.cpg/sg12_139_cif.got.tgz:277088.got - 2010.06.28 00:19:55.
