data_PCOD8095676
_publ_section_title
;
Structure prediction by ZEFSAII (Michael W. Deem and Ramdas Pophale) SiO2 
 PCOD8095676
Probable space group: C 2/M
;
_chemical_formula_sum "Si O2"
_cell_formula_units_Z 56
_cell_length_a 27.782312
_cell_length_b 8.986565
_cell_length_c 12.688858
_cell_angle_alpha 90.000000
_cell_angle_beta 75.763077
_cell_angle_gamma 90.000000
_cell_volume 3070.697666
_symmetry_space_group_name_H-M "C 2/M"
_symmetry_group_IT_number 12
_symmetry_cell_setting 'monoclinic'
loop_
_space_group_symop_operation_xyz
x,y,z
-x,y,-z
-x,-y,-z
x,-y,z
1/2+x,1/2+y,z
1/2-x,1/2+y,-z
1/2-x,1/2-y,-z
1/2+x,1/2-y,z
loop_
_atom_site_type_symbol
_atom_site_label
_atom_site_fract_x
_atom_site_fract_y
_atom_site_fract_z
Si Si1 0.020973 0.828308 0.377835
Si Si2 0.368417 0.328883 0.739250
Si Si3 0.498930 0.826335 0.180928
Si Si4 0.298379 0.324347 0.599163
Si Si5 0.096920 0.822596 0.058310
Si Si6 0.110162 0.326486 0.841057
Si Si7 0.313714 0.174739 0.376999
O O1 0.079873 0.805215 0.348780
O O2 0.995757 0.727109 0.302882
O O3 0.000000 0.773174 0.500000
O O4 0.007306 0.000000 0.362456
O O5 0.355212 0.500000 0.760124
O O6 0.325297 0.257292 0.689371
O O7 0.372544 0.262098 0.855555
O O8 0.540786 0.738485 0.093727
O O9 0.446409 0.791436 0.156587
O O10 0.511726 0.000000 0.169653
O O11 0.306699 0.500000 0.586734
O O12 0.323826 0.254250 0.482372
O O13 0.240598 0.281466 0.637540
O O14 0.094217 0.000000 0.059312
O O15 0.124135 0.762133 0.939771
O O16 0.119359 0.500000 0.856511
O O17 0.145931 0.268472 0.728904
O O18 0.318423 0.000000 0.393719
#
# Coordination Sequence:
#
# PCOD8095676 Si02
#       7
#     8   8   8   8   8   8   8
#     4   9  18  31  47  71 103 132 165 208 245 288
#     4   8  16  31  50  72  97 128 162 201 251 292
#     4  10  20  33  49  70 100 137 169 200 246 299
#     4   9  17  33  56  75  97 130 165 201 249 301
#     4  10  20  35  53  74 100 129 169 212 246 292
#     4  10  21  35  50  71 104 136 165 204 251 296
#     4   9  19  34  51  75 103 129 161 205 249 293
#
# _framework density 18.236896999999999
#
# number of rings (size 3 to 8) (size 9 to 14) (size 15 to 20)
#    0.000    2.714    0.000    2.143    2.000    3.714 
#    0.000    4.286    0.000    0.000    0.000    0.000 
#    0.000    0.000    0.000    0.000    0.000    0.000 
#
# Total GULP energy -347152.605012 kJ/mol
# GULP energy per Si atom -12398.307322 kJ/mol
# Density = 1.819539 g / cm^3
# Si number density = 18.236897 Si / 1000 Ang^3
#
#
#
# Elastic Constant Matrix: (Units=GPa)
#
#
# Indices 1 2 3 4 5 6 
#
# 1 84.6687 32.3005 60.7241 0.0000 20.9490 0.0000
# 2 32.3005 42.0167 39.5850 0.0000 3.6380 0.0000
# 3 60.7241 39.5850 138.4086 0.0000 7.8669 0.0000
# 4 0.0000 0.0000 0.0000 33.9205 0.0000 1.2144
# 5 20.9490 3.6380 7.8669 0.0000 24.6984 0.0000
# 6 0.0000 0.0000 0.0000 1.2144 0.0000 18.8195
#
#
#
# Elastic Compliance Matrix: (Units=1/GPa)
#
#
# Indices 1 2 3 4 5 6 
#
# 1 0.025600 -0.011649 -0.006888 0.000000 -0.017804 0.000000
# 2 -0.011649 0.037964 -0.006101 0.000000 0.006232 0.000000
# 3 -0.006888 -0.006101 0.011823 0.000000 0.002975 0.000000
# 4 0.000000 0.000000 0.000000 0.029549 0.000000 -0.001907
# 5 -0.017804 0.006232 0.002975 0.000000 0.053724 0.000000
# 6 0.000000 0.000000 0.000000 -0.001907 0.000000 0.053259
#
#
# Mechanical properties :
#
#
# Convention : Reuss Voigt Hill
#
# Bulk Modulus (GPa) = 38.29926 58.92370 48.61148
# Shear Modulus (GPa) = 18.52552 24.31998 21.42275
#
# Velocity S-wave (km/s) = 3.19066 3.65575 3.43110
# Velocity P-wave (km/s) = 5.88390 7.08517 6.51230
#
# Compressibility (1/GPa) = 0.02611016
#
# Stress axis : x y z
#
# Youngs Moduli (GPa) = 39.06278 26.34086 84.58317
#
# Poissons Ratio (x) = 0.30685 0.58259
# Poissons Ratio (y) = 0.45505 0.51605
# Poissons Ratio (z) = 0.26906 0.16071
#
# Static dielectric constant tensor:
#      x y z
#    x 3.425520 0.000000 0.179280 
#    y 0.000000 3.187080 0.000000 
#    z 0.179280 0.000000 3.595710 
# 
# 
# High freq. dielectric constant tensor:
#      x y z
#    x 1.696870 0.000000 0.010730 
#    y 0.000000 1.688630 0.000000 
#    z 0.010730 0.000000 1.714700 
# 
# From -- ./inp_files/186423.got.cif
#   From: 2010.06.25/outbox.cif.g09.slc.cpg/sg12_94_cif.got.tgz:186423.got - 2010.06.28 00:19:55.
