data_PCOD8095177
_publ_section_title
;
Structure prediction by ZEFSAII (Michael W. Deem and Ramdas Pophale) SiO2 
 PCOD8095177
Probable space group: C 2/M
;
_chemical_formula_sum "Si O2"
_cell_formula_units_Z 56
_cell_length_a 19.491953
_cell_length_b 9.219735
_cell_length_c 30.905483
_cell_angle_alpha 90.000000
_cell_angle_beta 143.711732
_cell_angle_gamma 90.000000
_cell_volume 3287.150727
_symmetry_space_group_name_H-M "C 2/M"
_symmetry_group_IT_number 12
_symmetry_cell_setting 'monoclinic'
loop_
_space_group_symop_operation_xyz
x,y,z
-x,y,-z
-x,-y,-z
x,-y,z
1/2+x,1/2+y,z
1/2-x,1/2+y,-z
1/2-x,1/2-y,-z
1/2+x,1/2-y,z
loop_
_atom_site_type_symbol
_atom_site_label
_atom_site_fract_x
_atom_site_fract_y
_atom_site_fract_z
Si Si1 0.588683 0.163129 0.505455
Si Si2 0.630374 0.669427 0.945450
Si Si3 0.924437 0.166652 0.782085
Si Si4 0.513149 0.833192 0.055145
Si Si5 0.762326 0.663909 0.645028
Si Si6 0.079925 0.839693 0.630243
Si Si7 0.791988 0.664579 0.784994
O O1 0.500000 0.170653 0.500000
O O2 0.704261 0.253377 0.574991
O O3 0.524786 0.228040 0.430521
O O4 0.625830 0.000000 0.513626
O O5 0.650233 0.500000 0.965076
O O6 0.558257 0.690348 0.863926
O O7 0.565246 0.738165 0.953177
O O8 0.750000 0.750000 0.000000
O O9 0.884750 0.260661 0.720227
O O10 0.850315 0.213194 0.785686
O O11 0.897413 0.000000 0.757691
O O12 0.650077 0.821434 0.138088
O O13 0.470747 0.000000 0.036297
O O14 0.500000 0.772705 0.000000
O O15 0.787515 0.500000 0.643438
O O16 0.675875 0.672589 0.641478
O O17 0.151668 0.809781 0.711616
O O18 0.024451 0.000000 0.601998
O O19 0.816411 0.500000 0.779380
#
# Coordination Sequence:
#
# PCOD8095177 Si02
#       7
#     8   8   8   8   8   8   8
#     4   9  15  20  27  41  62  89 123 162 199 236
#     4  10  20  32  47  66  89 117 149 186 225 266
#     4   9  16  25  37  54  74  98 131 170 209 248
#     4   9  17  30  48  68  90 117 149 184 223 268
#     4   9  15  22  32  45  64  93 126 160 199 244
#     4   8  13  20  29  42  63  92 126 161 196 238
#     4   8  14  24  37  53  74 102 134 167 205 250
#
# _framework density 17.03603
#
# number of rings (size 3 to 8) (size 9 to 14) (size 15 to 20)
#    0.000    3.143    0.000    2.571    0.000    7.143 
#    0.000    0.000    0.000    0.000    0.000    0.000 
#    0.000    0.000    0.000    1.286    0.000   15.429 
#
# Total GULP energy -346871.657983 kJ/mol
# GULP energy per Si atom -12388.273499 kJ/mol
# Density = 1.699726 g / cm^3
# Si number density = 17.036030 Si / 1000 Ang^3
#
#
#
# Elastic Constant Matrix: (Units=GPa)
#
#
# Indices 1 2 3 4 5 6 
#
# 1 22.1958 21.1164 31.5518 0.0000 -2.1647 0.0000
# 2 21.1164 131.8491 85.5654 0.0000 3.2682 0.0000
# 3 31.5518 85.5654 173.6608 0.0000 -7.3492 0.0000
# 4 0.0000 0.0000 0.0000 32.4808 0.0000 2.0119
# 5 -2.1647 3.2682 -7.3492 0.0000 11.4679 0.0000
# 6 0.0000 0.0000 0.0000 2.0119 0.0000 9.8168
#
#
#
# Elastic Compliance Matrix: (Units=1/GPa)
#
#
# Indices 1 2 3 4 5 6 
#
# 1 0.062623 -0.004458 -0.008868 0.000000 0.007409 0.000000
# 2 -0.004458 0.012022 -0.005442 0.000000 -0.007755 0.000000
# 3 -0.008868 -0.005442 0.010325 0.000000 0.006494 0.000000
# 4 0.000000 0.000000 0.000000 0.031183 0.000000 -0.006391
# 5 0.007409 -0.007755 0.006494 0.000000 0.094970 0.000000
# 6 0.000000 0.000000 0.000000 -0.006391 0.000000 0.103176
#
#
# Mechanical properties :
#
#
# Convention : Reuss Voigt Hill
#
# Bulk Modulus (GPa) = 21.08118 67.13034 44.10576
# Shear Modulus (GPa) = 13.59999 23.38456 18.49227
#
# Velocity S-wave (km/s) = 2.82850 3.70895 3.29824
# Velocity P-wave (km/s) = 4.80297 7.60475 6.36006
#
# Compressibility (1/GPa) = 0.04743567
#
# Stress axis : x y z
#
# Youngs Moduli (GPa) = 15.96850 83.17989 96.84782
#
# Poissons Ratio (x) = 0.37085 0.85880
# Poissons Ratio (y) = 0.07119 0.52701
# Poissons Ratio (z) = 0.14160 0.45264
#
# Static dielectric constant tensor:
#      x y z
#    x 2.330530 0.000000 -0.076980 
#    y 0.000000 3.322650 0.000000 
#    z -0.076980 0.000000 3.836240 
# 
# 
# High freq. dielectric constant tensor:
#      x y z
#    x 1.547110 0.000000 -0.005070 
#    y 0.000000 1.670170 0.000000 
#    z -0.005070 0.000000 1.689080 
# 
# From -- ./inp_files/318841.got.cif
#   From: 2010.06.25/outbox.cif.g09.slc.cpg/sg12_160_cif.got.tgz:318841.got - 2010.06.28 00:19:55.
