data_PCOD8095510
_publ_section_title
;
Structure prediction by ZEFSAII (Michael W. Deem and Ramdas Pophale) SiO2 
 PCOD8095510
Probable space group: C 2/M
;
_chemical_formula_sum "Si O2"
_cell_formula_units_Z 48
_cell_length_a 19.360351
_cell_length_b 9.464068
_cell_length_c 18.823723
_cell_angle_alpha 90.000000
_cell_angle_beta 44.452366
_cell_angle_gamma 90.000000
_cell_volume 2415.408999
_symmetry_space_group_name_H-M "C 2/M"
_symmetry_group_IT_number 12
_symmetry_cell_setting 'monoclinic'
loop_
_space_group_symop_operation_xyz
x,y,z
-x,y,-z
-x,-y,-z
x,-y,z
1/2+x,1/2+y,z
1/2-x,1/2+y,-z
1/2-x,1/2-y,-z
1/2+x,1/2-y,z
loop_
_atom_site_type_symbol
_atom_site_label
_atom_site_fract_x
_atom_site_fract_y
_atom_site_fract_z
Si Si1 0.107483 0.338619 0.893999
Si Si2 0.285979 0.837094 0.325602
Si Si3 0.314628 0.340228 0.048325
Si Si4 0.080105 0.332842 0.646576
Si Si5 0.596461 0.832479 0.474136
Si Si6 0.104240 0.339556 0.131872
O O1 0.127660 0.500000 0.901517
O O2 0.125102 0.318283 0.796758
O O3 0.185727 0.237773 0.875768
O O4 0.000000 0.290800 0.000000
O O5 0.327551 0.786479 0.371856
O O6 0.192572 0.743004 0.370951
O O7 0.252237 0.000000 0.353320
O O8 0.352652 0.500000 0.028029
O O9 0.204281 0.335284 0.101984
O O10 0.389539 0.257642 0.941825
O O11 0.073908 0.500000 0.647163
O O12 0.087346 0.273468 0.561432
O O13 0.979840 0.275819 0.755595
O O14 0.500000 0.788836 0.500000
O O15 0.612667 0.000000 0.459214
O O16 0.079580 0.500000 0.125315
#
# Coordination Sequence:
#
# PCOD8095510 Si02
#       6
#     8   8   8   8   8   8
#     4  10  21  37  57  79 109 154 197 229 277 344
#     4  10  21  37  59  84 112 149 193 238 279 327
#     4  10  20  32  52  83 115 145 185 239 287 327
#     4   9  18  36  60  82 107 148 196 229 273 343
#     4  10  22  38  60  86 114 148 187 233 288 346
#     4   9  18  34  56  78 109 152 191 227 275 343
#
# _framework density 19.872409999999999
#
# number of rings (size 3 to 8) (size 9 to 14) (size 15 to 20)
#    0.000    2.333    0.000    2.000    2.333    4.667 
#    0.000    3.333    0.000    0.000    0.000    0.000 
#    0.000    0.000    0.000    0.000    0.000    0.000 
#
# Total GULP energy -297589.469545 kJ/mol
# GULP energy per Si atom -12399.561231 kJ/mol
# Density = 1.982718 g / cm^3
# Si number density = 19.872410 Si / 1000 Ang^3
#
#
#
# Elastic Constant Matrix: (Units=GPa)
#
#
# Indices 1 2 3 4 5 6 
#
# 1 107.4450 41.0937 48.0675 0.0000 13.9481 0.0000
# 2 41.0937 67.1593 30.8411 -0.0001 1.4941 0.0002
# 3 48.0675 30.8411 106.6204 0.0000 -6.6541 0.0000
# 4 0.0000 -0.0001 0.0000 24.8468 0.0000 -0.8842
# 5 13.9481 1.4941 -6.6541 0.0000 30.2460 0.0000
# 6 0.0000 0.0002 0.0000 -0.8842 0.0000 26.3585
#
#
#
# Elastic Compliance Matrix: (Units=1/GPa)
#
#
# Indices 1 2 3 4 5 6 
#
# 1 0.015355 -0.006702 -0.005480 0.000000 -0.007955 0.000000
# 2 -0.006702 0.020212 -0.002732 0.000000 0.001491 0.000000
# 3 -0.005480 -0.002732 0.012985 0.000000 0.005519 0.000000
# 4 0.000000 0.000000 0.000000 0.040295 0.000000 0.001352
# 5 -0.007955 0.001491 0.005519 0.000000 0.037871 0.000000
# 6 0.000000 0.000000 0.000000 0.001352 0.000000 0.037984
#
#
# Mechanical properties :
#
#
# Convention : Reuss Voigt Hill
#
# Bulk Modulus (GPa) = 53.41032 57.91436 55.66234
# Shear Modulus (GPa) = 24.90406 27.03843 25.97124
#
# Velocity S-wave (km/s) = 3.54389 3.69263 3.61903
# Velocity P-wave (km/s) = 6.60913 6.88383 6.74788
#
# Compressibility (1/GPa) = 0.01872297
#
# Stress axis : x y z
#
# Youngs Moduli (GPa) = 65.12678 49.47525 77.01485
#
# Poissons Ratio (x) = 0.33156 0.42207
# Poissons Ratio (y) = 0.43645 0.21042
# Poissons Ratio (z) = 0.35691 0.13518
#
# Static dielectric constant tensor:
#      x y z
#    x 3.663360 0.000000 0.156710 
#    y 0.000000 3.447630 0.000000 
#    z 0.156710 0.000000 3.669210 
# 
# 
# High freq. dielectric constant tensor:
#      x y z
#    x 1.781680 0.000000 0.004380 
#    y 0.000000 1.750340 0.000000 
#    z 0.004380 0.000000 1.776770 
# 
# From -- ./inp_files/319568.got.cif
#   From: 2010.06.25/outbox.cif.g09.slc.cpg/sg12_160_cif.got.tgz:319568.got - 2010.06.28 00:19:55.
