data_PCOD8095840
_publ_section_title
;
Structure prediction by ZEFSAII (Michael W. Deem and Ramdas Pophale) SiO2 
 PCOD8095840
Probable space group: C 2/M
;
_chemical_formula_sum "Si O2"
_cell_formula_units_Z 64
_cell_length_a 14.034959
_cell_length_b 9.438635
_cell_length_c 31.529094
_cell_angle_alpha 90.000000
_cell_angle_beta 117.970905
_cell_angle_gamma 90.000000
_cell_volume 3688.790135
_symmetry_space_group_name_H-M "C 2/M"
_symmetry_group_IT_number 12
_symmetry_cell_setting 'monoclinic'
loop_
_space_group_symop_operation_xyz
x,y,z
-x,y,-z
-x,-y,-z
x,-y,z
1/2+x,1/2+y,z
1/2-x,1/2+y,-z
1/2-x,1/2-y,-z
1/2+x,1/2-y,z
loop_
_atom_site_type_symbol
_atom_site_label
_atom_site_fract_x
_atom_site_fract_y
_atom_site_fract_z
Si Si1 0.018558 0.663753 0.872134
Si Si2 0.210356 0.836664 0.872715
Si Si3 0.280452 0.839693 0.792721
Si Si4 0.533747 0.836263 0.383067
Si Si5 0.466807 0.664174 0.446735
Si Si6 0.297435 0.165218 0.301301
Si Si7 0.730653 0.164384 0.365795
Si Si8 0.942586 0.331145 0.946174
O O1 0.051634 0.500000 0.879331
O O2 0.907626 0.686712 0.823831
O O3 0.006397 0.721326 0.917771
O O4 0.109786 0.749197 0.867542
O O5 0.221284 0.815189 0.824851
O O6 0.318540 0.779812 0.918599
O O7 0.190901 0.000000 0.879909
O O8 0.231781 0.727183 0.750306
O O9 0.259343 0.000000 0.772261
O O10 0.537155 0.748744 0.427210
O O11 0.423781 0.806945 0.334846
O O12 0.631975 0.784942 0.374311
O O13 0.546276 0.000000 0.397899
O O14 0.500000 0.719120 0.500000
O O15 0.495535 0.500000 0.447058
O O16 0.340099 0.693310 0.414415
O O17 0.227155 0.243544 0.322417
O O18 0.268641 0.000000 0.296516
O O19 0.719196 0.000000 0.350675
O O20 0.943004 0.500000 0.946079
O O21 0.000000 0.268314 0.000000
#
# Coordination Sequence:
#
# PCOD8095840 Si02
#       8
#     8   8   8   8   8   8   8   8
#     4   9  18  32  50  71  95 125 160 196 235 283
#     4   9  18  32  50  72  97 126 161 199 237 281
#     4   9  19  35  50  66  94 130 160 187 234 295
#     4   9  19  34  50  70  96 126 159 194 236 285
#     4   9  18  32  50  73  99 127 161 198 234 276
#     4  10  20  33  50  73  96 119 157 204 239 274
#     4   9  18  34  52  69  97 133 160 189 237 290
#     4   8  15  30  50  70  96 131 164 192 232 289
#
# _framework density 17.349862999999999
#
# number of rings (size 3 to 8) (size 9 to 14) (size 15 to 20)
#    0.000    3.000    0.000    1.875    0.000    4.250 
#    0.000    5.625    0.000    0.750    0.000    0.000 
#    0.000    0.000    0.000    0.000    0.000    0.000 
#
# Total GULP energy -396811.522343 kJ/mol
# GULP energy per Si atom -12400.360073 kJ/mol
# Density = 1.731037 g / cm^3
# Si number density = 17.349863 Si / 1000 Ang^3
#
#
#
# Elastic Constant Matrix: (Units=GPa)
#
#
# Indices 1 2 3 4 5 6 
#
# 1 137.3579 54.2894 41.1274 0.0000 -9.0589 0.0000
# 2 54.2894 66.7685 47.7927 0.0000 -5.7554 0.0000
# 3 41.1274 47.7927 107.1316 0.0000 -8.1952 0.0000
# 4 0.0000 0.0000 0.0000 24.6830 0.0000 -2.8304
# 5 -9.0589 -5.7554 -8.1952 0.0000 11.7868 0.0000
# 6 0.0000 0.0000 0.0000 -2.8304 0.0000 30.6047
#
#
#
# Elastic Compliance Matrix: (Units=1/GPa)
#
#
# Indices 1 2 3 4 5 6 
#
# 1 0.010928 -0.008448 -0.000105 0.000000 0.004200 0.000000
# 2 -0.008448 0.028727 -0.009501 0.000000 0.000928 0.000000
# 3 -0.000105 -0.009501 0.013997 0.000000 0.005012 0.000000
# 4 0.000000 0.000000 0.000000 0.040948 0.000000 0.003787
# 5 0.004200 0.000928 0.005012 0.000000 0.092007 0.000000
# 6 0.000000 0.000000 0.000000 0.003787 0.000000 0.033025
#
#
# Mechanical properties :
#
#
# Convention : Reuss Voigt Hill
#
# Bulk Modulus (GPa) = 57.00354 66.40855 61.70605
# Shear Modulus (GPa) = 19.11401 24.61813 21.86607
#
# Velocity S-wave (km/s) = 3.32276 3.77095 3.55392
# Velocity P-wave (km/s) = 6.90273 7.57095 7.24455
#
# Compressibility (1/GPa) = 0.01754277
#
# Stress axis : x y z
#
# Youngs Moduli (GPa) = 91.51021 34.81000 71.44541
#
# Poissons Ratio (x) = 0.29408 0.00750
# Poissons Ratio (y) = 0.77309 0.67883
# Poissons Ratio (z) = 0.00961 0.33074
#
# Static dielectric constant tensor:
#      x y z
#    x 3.209860 0.000000 -0.016400 
#    y 0.000000 3.077770 0.000000 
#    z -0.016400 0.000000 3.307320 
# 
# 
# High freq. dielectric constant tensor:
#      x y z
#    x 1.672170 0.000000 -0.002300 
#    y 0.000000 1.655850 0.000000 
#    z -0.002300 0.000000 1.672070 
# 
# From -- ./inp_files/375099.got.cif
#   From: 2010.06.25/outbox.cif.g09.slc.cpg/sg12_188_cif.got.tgz:375099.got - 2010.06.28 00:19:55.
