data_PCOD8095843
_publ_section_title
;
Structure prediction by ZEFSAII (Michael W. Deem and Ramdas Pophale) SiO2 
 PCOD8095843
Probable space group: C 2/M
;
_chemical_formula_sum "Si O2"
_cell_formula_units_Z 40
_cell_length_a 14.237866
_cell_length_b 9.356251
_cell_length_c 26.609541
_cell_angle_alpha 90.000000
_cell_angle_beta 141.624487
_cell_angle_gamma 90.000000
_cell_volume 2200.618725
_symmetry_space_group_name_H-M "C 2/M"
_symmetry_group_IT_number 12
_symmetry_cell_setting 'monoclinic'
loop_
_space_group_symop_operation_xyz
x,y,z
-x,y,-z
-x,-y,-z
x,-y,z
1/2+x,1/2+y,z
1/2-x,1/2+y,-z
1/2-x,1/2-y,-z
1/2+x,1/2-y,z
loop_
_atom_site_type_symbol
_atom_site_label
_atom_site_fract_x
_atom_site_fract_y
_atom_site_fract_z
Si Si1 0.081697 0.166114 0.379612
Si Si2 0.517617 0.665849 0.910705
Si Si3 0.267181 0.836944 0.933408
Si Si4 0.624441 0.333365 0.512422
Si Si5 0.272775 0.666328 0.198499
O O1 0.219444 0.251178 0.412175
O O2 0.064690 0.200603 0.431491
O O3 0.928967 0.216984 0.288669
O O4 0.113023 0.000000 0.383311
O O5 0.492092 0.500000 0.911517
O O6 0.620825 0.692603 0.905642
O O7 0.359340 0.741007 0.831817
O O8 0.593650 0.737554 0.991570
O O9 0.219072 0.799798 0.857022
O O10 0.322997 0.000000 0.962319
O O11 0.500000 0.278566 0.500000
O O12 0.657047 0.500000 0.533867
O O13 0.241839 0.500000 0.196455
#
# Coordination Sequence:
#
# PCOD8095843 Si02
#       5
#     8   8   8   8   8
#     4   9  19  34  51  74 100 127 163 199 234 288
#     4  10  20  33  50  73  98 126 165 207 242 282
#     4   9  19  35  51  68  96 133 166 198 242 291
#     4   9  18  34  54  74  99 129 158 195 244 289
#     4  10  20  34  51  71  99 132 162 197 243 290
#
# _framework density 18.176707
#
# number of rings (size 3 to 8) (size 9 to 14) (size 15 to 20)
#    0.000    2.600    0.000    1.200    0.000    6.800 
#    0.000    0.000    0.000    0.000    0.000    0.000 
#    0.000    0.000    0.000    0.000    0.000    0.000 
#
# Total GULP energy -248078.360371 kJ/mol
# GULP energy per Si atom -12403.918019 kJ/mol
# Density = 1.813534 g / cm^3
# Si number density = 18.176707 Si / 1000 Ang^3
#
#
#
# Elastic Constant Matrix: (Units=GPa)
#
#
# Indices 1 2 3 4 5 6 
#
# 1 90.9580 41.7967 53.7024 0.0000 19.8103 0.0000
# 2 41.7967 71.2157 61.1660 0.0000 17.4692 0.0000
# 3 53.7024 61.1660 152.2327 0.0000 22.7504 0.0000
# 4 0.0000 0.0000 0.0000 33.2319 0.0000 9.4173
# 5 19.8103 17.4692 22.7504 0.0000 24.2609 0.0000
# 6 0.0000 0.0000 0.0000 9.4173 0.0000 27.6052
#
#
#
# Elastic Compliance Matrix: (Units=1/GPa)
#
#
# Indices 1 2 3 4 5 6 
#
# 1 0.016723 -0.005990 -0.002438 0.000000 -0.007056 0.000000
# 2 -0.005990 0.025232 -0.007025 0.000000 -0.006690 0.000000
# 3 -0.002438 -0.007025 0.010697 0.000000 -0.002982 0.000000
# 4 0.000000 0.000000 0.000000 0.033312 0.000000 -0.011364
# 5 -0.007056 -0.006690 -0.002982 0.000000 0.054593 0.000000
# 6 0.000000 0.000000 0.000000 -0.011364 0.000000 0.040102
#
#
# Mechanical properties :
#
#
# Convention : Reuss Voigt Hill
#
# Bulk Modulus (GPa) = 45.98621 69.74851 57.86736
# Shear Modulus (GPa) = 22.85046 27.53571 25.19308
#
# Velocity S-wave (km/s) = 3.54945 3.89638 3.72695
# Velocity P-wave (km/s) = 6.49250 7.66147 7.10108
#
# Compressibility (1/GPa) = 0.02174565
#
# Stress axis : x y z
#
# Youngs Moduli (GPa) = 59.79918 39.63179 93.48119
#
# Poissons Ratio (x) = 0.23739 0.22791
# Poissons Ratio (y) = 0.35818 0.65675
# Poissons Ratio (z) = 0.14579 0.27843
#
# Static dielectric constant tensor:
#      x y z
#    x 3.398990 0.000000 0.042020 
#    y 0.000000 3.336730 0.000000 
#    z 0.042020 0.000000 3.369870 
# 
# 
# High freq. dielectric constant tensor:
#      x y z
#    x 1.708250 0.000000 0.005060 
#    y 0.000000 1.701170 0.000000 
#    z 0.005060 0.000000 1.701960 
# 
# From -- ./inp_files/211345.got.cif
#   From: 2010.06.25/outbox.cif.g09.slc.cpg/sg12_106_cif.got.tgz:211345.got - 2010.06.28 00:19:55.
