data_PCOD8095714
_publ_section_title
;
Structure prediction by ZEFSAII (Michael W. Deem and Ramdas Pophale) SiO2 
 PCOD8095714
Probable space group: C 2/M
;
_chemical_formula_sum "Si O2"
_cell_formula_units_Z 48
_cell_length_a 14.961298
_cell_length_b 9.254956
_cell_length_c 20.206992
_cell_angle_alpha 90.000000
_cell_angle_beta 111.062175
_cell_angle_gamma 90.000000
_cell_volume 2611.053910
_symmetry_space_group_name_H-M "C 2/M"
_symmetry_group_IT_number 12
_symmetry_cell_setting 'monoclinic'
loop_
_space_group_symop_operation_xyz
x,y,z
-x,y,-z
-x,-y,-z
x,-y,z
1/2+x,1/2+y,z
1/2-x,1/2+y,-z
1/2-x,1/2-y,-z
1/2+x,1/2-y,z
loop_
_atom_site_type_symbol
_atom_site_label
_atom_site_fract_x
_atom_site_fract_y
_atom_site_fract_z
Si Si1 0.632716 0.829122 0.089432
Si Si2 0.182462 0.669172 0.830592
Si Si3 0.576106 0.829049 0.930965
Si Si4 0.886585 0.333051 0.564430
Si Si5 0.595091 0.167040 0.667923
Si Si6 0.688287 0.331046 0.577053
O O1 0.716789 0.749153 0.150663
O O2 0.533520 0.774992 0.095651
O O3 0.646054 0.000000 0.100564
O O4 0.633030 0.781976 0.012200
O O5 0.202254 0.500000 0.844267
O O6 0.127743 0.734656 0.879936
O O7 0.117669 0.702358 0.749854
O O8 0.573151 0.000000 0.926713
O O9 0.884394 0.500000 0.542094
O O10 0.799276 0.297769 0.590651
O O11 0.879981 0.238600 0.496514
O O12 0.984335 0.291919 0.627365
O O13 0.664887 0.262147 0.641400
O O14 0.614260 0.000000 0.656178
O O15 0.666738 0.500000 0.573711
#
# Coordination Sequence:
#
# PCOD8095714 Si02
#       6
#     8   8   8   8   8   8
#     4   9  17  32  54  76  97 127 168 210 249 291
#     4  10  20  33  49  72 102 134 166 202 246 295
#     4   8  16  32  53  74  98 131 168 203 245 300
#     4   9  19  36  55  74  99 133 167 198 243 302
#     4  10  21  35  50  70 101 139 169 195 240 303
#     4  10  20  34  55  80 100 123 164 214 251 282
#
# _framework density 18.383382000000001
#
# number of rings (size 3 to 8) (size 9 to 14) (size 15 to 20)
#    0.000    2.667    0.000    2.500    0.000    5.333 
#    0.000    5.833    0.000    0.000    0.000    0.000 
#    0.000    0.000    0.000    0.000    0.000    0.000 
#
# Total GULP energy -297629.197934 kJ/mol
# GULP energy per Si atom -12401.216581 kJ/mol
# Density = 1.834154 g / cm^3
# Si number density = 18.383382 Si / 1000 Ang^3
#
#
#
# Elastic Constant Matrix: (Units=GPa)
#
#
# Indices 1 2 3 4 5 6 
#
# 1 87.1282 33.4027 46.4021 0.0000 7.2335 0.0000
# 2 33.4027 49.5517 36.1425 0.0000 1.2448 0.0000
# 3 46.4021 36.1425 88.9338 0.0000 8.7627 0.0000
# 4 0.0000 0.0000 0.0000 25.7802 0.0000 0.6436
# 5 7.2335 1.2448 8.7627 0.0000 26.8283 0.0000
# 6 0.0000 0.0000 0.0000 0.6436 0.0000 29.5941
#
#
#
# Elastic Compliance Matrix: (Units=1/GPa)
#
#
# Indices 1 2 3 4 5 6 
#
# 1 0.017750 -0.007571 -0.005938 0.000000 -0.002495 0.000000
# 2 -0.007571 0.032084 -0.009447 0.000000 0.003638 0.000000
# 3 -0.005938 -0.009447 0.018579 0.000000 -0.004029 0.000000
# 4 0.000000 0.000000 0.000000 0.038810 0.000000 -0.000844
# 5 -0.002495 0.003638 -0.004029 0.000000 0.039094 0.000000
# 6 0.000000 0.000000 0.000000 -0.000844 0.000000 0.033809
#
#
# Mechanical properties :
#
#
# Convention : Reuss Voigt Hill
#
# Bulk Modulus (GPa) = 44.44536 50.83426 47.63981
# Shear Modulus (GPa) = 21.40982 23.75163 22.58072
#
# Velocity S-wave (km/s) = 3.41637 3.59836 3.50855
# Velocity P-wave (km/s) = 6.30805 6.70646 6.51030
#
# Compressibility (1/GPa) = 0.02249954
#
# Stress axis : x y z
#
# Youngs Moduli (GPa) = 56.33940 31.16858 53.82437
#
# Poissons Ratio (x) = 0.23597 0.31963
# Poissons Ratio (y) = 0.42654 0.50848
# Poissons Ratio (z) = 0.33457 0.29445
#
# Static dielectric constant tensor:
#      x y z
#    x 3.588360 0.000000 -0.110630 
#    y 0.000000 3.161130 0.000000 
#    z -0.110630 0.000000 3.388250 
# 
# 
# High freq. dielectric constant tensor:
#      x y z
#    x 1.722600 0.000000 0.000740 
#    y 0.000000 1.691660 0.000000 
#    z 0.000740 0.000000 1.708710 
# 
# From -- ./inp_files/308257.got.cif
#   From: 2010.06.25/outbox.cif.g09.slc.cpg/sg12_155_cif.got.tgz:308257.got - 2010.06.28 00:19:55.
