data_PCOD8095721
_publ_section_title
;
Structure prediction by ZEFSAII (Michael W. Deem and Ramdas Pophale) SiO2 
 PCOD8095721
Probable space group: C 2/M
;
_chemical_formula_sum "Si O2"
_cell_formula_units_Z 56
_cell_length_a 21.531638
_cell_length_b 8.997447
_cell_length_c 20.196157
_cell_angle_alpha 90.000000
_cell_angle_beta 51.606962
_cell_angle_gamma 90.000000
_cell_volume 3066.571863
_symmetry_space_group_name_H-M "C 2/M"
_symmetry_group_IT_number 12
_symmetry_cell_setting 'monoclinic'
loop_
_space_group_symop_operation_xyz
x,y,z
-x,y,-z
-x,-y,-z
x,-y,z
1/2+x,1/2+y,z
1/2-x,1/2+y,-z
1/2-x,1/2-y,-z
1/2+x,1/2-y,z
loop_
_atom_site_type_symbol
_atom_site_label
_atom_site_fract_x
_atom_site_fract_y
_atom_site_fract_z
Si Si1 0.975022 0.172220 0.589739
Si Si2 0.720923 0.673630 0.613636
Si Si3 0.735644 0.821265 0.937487
Si Si4 0.332832 0.168125 0.758995
Si Si5 0.857740 0.170687 0.466396
Si Si6 0.587741 0.173141 0.949583
Si Si7 0.176066 0.165599 0.784436
O O1 0.906767 0.261430 0.671940
O O2 0.000000 0.231384 0.500000
O O3 0.049664 0.196849 0.587734
O O4 0.949437 0.000000 0.601026
O O5 0.735271 0.500000 0.600981
O O6 0.807893 0.746992 0.556381
O O7 0.668220 0.734053 0.587834
O O8 0.672847 0.716478 0.710802
O O9 0.803817 0.762122 0.842354
O O10 0.647687 0.770033 0.968527
O O11 0.741665 0.000000 0.937434
O O12 0.750000 0.750000 0.000000
O O13 0.266104 0.164431 0.747810
O O14 0.353301 0.000000 0.768916
O O15 0.835236 0.000000 0.488083
O O16 0.627455 0.208885 0.853766
O O17 0.577576 0.000000 0.966512
O O18 0.500000 0.247070 0.000000
O O19 0.139398 0.000000 0.819111
#
# Coordination Sequence:
#
# PCOD8095721 Si02
#       7
#     8   8   8   8   8   8   8
#     4  10  20  33  49  72 104 140 176 216 262 311
#     4   9  17  31  49  69  96 128 165 208 253 300
#     4  10  20  37  60  82 109 144 179 219 270 324
#     4  10  20  34  53  77 104 135 176 219 259 314
#     4   9  18  31  47  68  98 131 167 209 251 301
#     4   9  19  36  56  79 107 135 169 216 262 312
#     4   9  18  32  51  74  99 129 167 209 254 306
#
# _framework density 18.261434000000001
#
# number of rings (size 3 to 8) (size 9 to 14) (size 15 to 20)
#    0.000    2.571    0.000    1.714    0.000    2.857 
#    2.571    0.000    0.000    0.000    0.000    0.000 
#    0.000    0.000    0.000    0.000    0.000    0.000 
#
# Total GULP energy -346964.032974 kJ/mol
# GULP energy per Si atom -12391.572606 kJ/mol
# Density = 1.821987 g / cm^3
# Si number density = 18.261434 Si / 1000 Ang^3
#
#
#
# Elastic Constant Matrix: (Units=GPa)
#
#
# Indices 1 2 3 4 5 6 
#
# 1 84.9146 35.1720 69.2835 0.0000 3.2505 0.0001
# 2 35.1720 50.2973 45.2231 0.0000 0.4929 0.0002
# 3 69.2835 45.2231 118.4299 0.0001 -1.5256 0.0000
# 4 0.0000 0.0000 0.0001 34.4686 0.0000 1.2283
# 5 3.2505 0.4929 -1.5256 0.0000 26.3281 -0.0001
# 6 0.0001 0.0002 0.0000 1.2283 -0.0001 20.5250
#
#
#
# Elastic Compliance Matrix: (Units=1/GPa)
#
#
# Indices 1 2 3 4 5 6 
#
# 1 0.024087 -0.006241 -0.011754 0.000000 -0.003538 0.000000
# 2 -0.006241 0.031934 -0.008547 0.000000 -0.000323 0.000000
# 3 -0.011754 -0.008547 0.018618 0.000000 0.002690 0.000000
# 4 0.000000 0.000000 0.000000 0.029074 0.000000 -0.001740
# 5 -0.003538 -0.000323 0.002690 0.000000 0.038581 0.000000
# 6 0.000000 0.000000 0.000000 -0.001740 0.000000 0.048825
#
#
# Mechanical properties :
#
#
# Convention : Reuss Voigt Hill
#
# Bulk Modulus (GPa) = 46.39171 61.44435 53.91803
# Shear Modulus (GPa) = 19.88946 23.19523 21.54234
#
# Velocity S-wave (km/s) = 3.30381 3.56782 3.43835
# Velocity P-wave (km/s) = 6.32557 7.11987 6.73444
#
# Compressibility (1/GPa) = 0.02155557
#
# Stress axis : x y z
#
# Youngs Moduli (GPa) = 41.51580 31.31445 53.71004
#
# Poissons Ratio (x) = 0.19543 0.63130
# Poissons Ratio (y) = 0.25910 0.45908
# Poissons Ratio (z) = 0.48797 0.26765
#
# Static dielectric constant tensor:
#      x y z
#    x 3.716330 0.000000 0.088380 
#    y 0.000000 3.357580 0.000000 
#    z 0.088380 0.000000 3.357460 
# 
# 
# High freq. dielectric constant tensor:
#      x y z
#    x 1.708350 0.000000 0.004210 
#    y 0.000000 1.703140 0.000000 
#    z 0.004210 0.000000 1.704230 
# 
# From -- ./inp_files/319694.got.cif
#   From: 2010.06.25/outbox.cif.g09.slc.cpg/sg12_160_cif.got.tgz:319694.got - 2010.06.28 00:19:55.
