data_PCOD8095826
_publ_section_title
;
Structure prediction by ZEFSAII (Michael W. Deem and Ramdas Pophale) SiO2 
 PCOD8095826
Probable space group: C 2/M
;
_chemical_formula_sum "Si O2"
_cell_formula_units_Z 64
_cell_length_a 18.915532
_cell_length_b 20.148227
_cell_length_c 10.261475
_cell_angle_alpha 90.000000
_cell_angle_beta 89.662365
_cell_angle_gamma 90.000000
_cell_volume 3910.728320
_symmetry_space_group_name_H-M "C 2/M"
_symmetry_group_IT_number 12
_symmetry_cell_setting 'monoclinic'
loop_
_space_group_symop_operation_xyz
x,y,z
-x,y,-z
-x,-y,-z
x,-y,z
1/2+x,1/2+y,z
1/2-x,1/2+y,-z
1/2-x,1/2-y,-z
1/2+x,1/2-y,z
loop_
_atom_site_type_symbol
_atom_site_label
_atom_site_fract_x
_atom_site_fract_y
_atom_site_fract_z
Si Si1 0.332870 0.077968 0.482793
Si Si2 0.218112 0.832471 0.383369
Si Si3 0.834736 0.578003 0.786905
Si Si4 0.662567 0.281514 0.129526
Si Si5 0.838924 0.222960 0.371389
Si Si6 0.046745 0.673192 0.128768
Si Si7 0.719830 0.668028 0.873311
Si Si8 0.048907 0.329657 0.622069
O O1 0.259762 0.099277 0.413278
O O2 0.334161 0.101348 0.634660
O O3 0.397601 0.109691 0.402863
O O4 0.340846 0.000000 0.472386
O O5 0.173370 0.832035 0.250262
O O6 0.161601 0.821054 0.498531
O O7 0.274677 0.774024 0.377809
O O8 0.845949 0.500000 0.798753
O O9 0.896270 0.614041 0.867583
O O10 0.760476 0.598018 0.855885
O O11 0.586260 0.244882 0.135762
O O12 0.722162 0.225692 0.128669
O O13 0.671616 0.328020 0.002646
O O14 0.833158 0.175761 0.246750
O O15 0.912416 0.260219 0.359627
O O16 0.995673 0.658054 0.248952
O O17 0.000000 0.669129 0.000000
O O18 0.000000 0.322504 0.500000
#
# Coordination Sequence:
#
# PCOD8095826 Si02
#       8
#     8   8   8   8   8   8   8   8
#     4  10  20  33  50  73 102 136 171 209 243 283
#     4   9  16  29  48  70  91 121 160 214 258 288
#     4  10  20  34  51  71 101 137 173 208 240 285
#     4   9  18  30  49  69  96 123 157 211 263 292
#     4   9  16  26  47  67  91 120 164 207 250 289
#     4  11  22  35  48  71 106 140 170 201 239 289
#     4   9  16  31  49  70  90 124 162 208 259 295
#     4  11  20  31  48  72  99 138 174 201 231 292
#
# _framework density 16.365238000000002
#
# number of rings (size 3 to 8) (size 9 to 14) (size 15 to 20)
#    0.000    2.250    2.500    1.500    3.500    4.000 
#    0.000    1.875    0.000    0.000    0.000    0.000 
#    0.000   20.000    0.000    0.000    0.000    0.000 
#
# Total GULP energy -396662.389738 kJ/mol
# GULP energy per Si atom -12395.699679 kJ/mol
# Density = 1.632799 g / cm^3
# Si number density = 16.365238 Si / 1000 Ang^3
#
#
#
# Elastic Constant Matrix: (Units=GPa)
#
#
# Indices 1 2 3 4 5 6 
#
# 1 49.4435 60.7459 38.4352 0.0000 -1.3327 0.0000
# 2 60.7459 37.5737 37.9141 0.0000 23.5162 0.0000
# 3 38.4352 37.9141 130.0606 0.0000 8.7328 0.0000
# 4 0.0000 0.0000 0.0000 21.1591 0.0000 0.5448
# 5 -1.3327 23.5162 8.7328 0.0000 7.6295 0.0000
# 6 0.0000 0.0000 0.0000 0.5448 0.0000 20.7364
#
#
#
# Elastic Compliance Matrix: (Units=1/GPa)
#
#
# Indices 1 2 3 4 5 6 
#
# 1 0.007134 0.012155 -0.003488 0.000000 -0.032226 0.000000
# 2 0.012155 -0.007133 -0.003392 0.000000 0.027992 0.000000
# 3 -0.003488 -0.003392 0.009800 0.000000 -0.001371 0.000000
# 4 0.000000 0.000000 0.000000 0.047293 0.000000 -0.001243
# 5 -0.032226 0.027992 -0.001371 0.000000 0.040732 0.000000
# 6 0.000000 0.000000 0.000000 -0.001243 0.000000 0.048257
#
#
# Mechanical properties :
#
#
# Convention : Reuss Voigt Hill
#
# Bulk Modulus (GPa) = 49.13608 54.58536 51.86072
# Shear Modulus (GPa) = 35.13277 15.23719 25.18498
#
# Velocity S-wave (km/s) = 4.63838 3.05465 3.92718
# Velocity P-wave (km/s) = 7.66654 6.77260 7.23339
#
# Compressibility (1/GPa) = 0.02035164
#
# Stress axis : x y z
#
# Youngs Moduli (GPa) = 140.17101 -140.19319 102.03721
#
# Poissons Ratio (x) = 1.70405 0.35588
# Poissons Ratio (y) = -1.70378 0.34613
# Poissons Ratio (z) = 0.48888 -0.47556
#
# Static dielectric constant tensor:
#      x y z
#    x 3.056150 0.000000 0.032060 
#    y 0.000000 2.812740 0.000000 
#    z 0.032060 0.000000 3.314140 
# 
# 
# High freq. dielectric constant tensor:
#      x y z
#    x 1.613320 0.000000 0.000520 
#    y 0.000000 1.592710 0.000000 
#    z 0.000520 0.000000 1.645300 
# 
# From -- ./inp_files/89163.got.cif
#   From: 2010.06.25/outbox.cif.g09.slc.cpg/sg12_45_cif.got.tgz:89163.got - 2010.06.28 00:19:55.
