data_PCOD8095299
_publ_section_title
;
Structure prediction by ZEFSAII (Michael W. Deem and Ramdas Pophale) SiO2 
 PCOD8095299
Probable space group: C 2/M
;
_chemical_formula_sum "Si O2"
_cell_formula_units_Z 64
_cell_length_a 19.675603
_cell_length_b 9.112467
_cell_length_c 24.857595
_cell_angle_alpha 90.000000
_cell_angle_beta 53.555614
_cell_angle_gamma 90.000000
_cell_volume 3585.200613
_symmetry_space_group_name_H-M "C 2/M"
_symmetry_group_IT_number 12
_symmetry_cell_setting 'monoclinic'
loop_
_space_group_symop_operation_xyz
x,y,z
-x,y,-z
-x,-y,-z
x,-y,z
1/2+x,1/2+y,z
1/2-x,1/2+y,-z
1/2-x,1/2-y,-z
1/2+x,1/2-y,z
loop_
_atom_site_type_symbol
_atom_site_label
_atom_site_fract_x
_atom_site_fract_y
_atom_site_fract_z
Si Si1 0.954076 0.171903 0.799902
Si Si2 0.162218 0.170020 0.045311
Si Si3 0.864081 0.164606 0.573128
Si Si4 0.594400 0.829317 0.798374
Si Si5 0.474131 0.168229 0.952656
Si Si6 0.475198 0.664657 0.426084
Si Si7 0.073428 0.330222 0.296708
Si Si8 0.233150 0.669721 0.297500
O O1 0.880650 0.203631 0.877351
O O2 0.920173 0.237806 0.760505
O O3 0.040665 0.249949 0.777102
O O4 0.972287 0.000000 0.785005
O O5 0.103566 0.228496 0.025321
O O6 0.177692 0.000000 0.028756
O O7 0.250000 0.250000 0.000000
O O8 0.892882 0.214622 0.499471
O O9 0.794751 0.275002 0.630020
O O10 0.945189 0.165537 0.572538
O O11 0.826064 0.000000 0.588915
O O12 0.552408 0.804168 0.876154
O O13 0.686687 0.760615 0.759682
O O14 0.600963 0.000000 0.780429
O O15 0.443806 0.000000 0.963861
O O16 0.500000 0.213813 0.000000
O O17 0.461318 0.500000 0.409943
O O18 0.492000 0.775413 0.369030
O O19 0.060017 0.500000 0.289333
O O20 0.159396 0.302839 0.289010
O O21 0.257139 0.500000 0.290798
#
# Coordination Sequence:
#
# PCOD8095299 Si02
#       8
#     8   8   8   8   8   8   8   8
#     4  10  21  37  55  74 100 135 172 208 250 301
#     4  10  21  36  55  78 103 133 168 207 251 299
#     4   8  14  26  45  69  97 130 168 207 250 298
#     4  10  20  35  55  75 100 135 170 206 250 302
#     4   9  19  36  56  78 103 131 166 207 251 300
#     4   8  14  26  45  69  98 131 166 207 252 297
#     4  10  20  32  49  76 106 135 170 211 252 296
#     4  10  20  32  48  74 106 135 168 211 252 295
#
# _framework density 17.851161999999999
#
# number of rings (size 3 to 8) (size 9 to 14) (size 15 to 20)
#    0.000    2.625    0.000    2.625    0.000    5.250 
#    0.000    6.250    0.000    0.750    0.000    0.000 
#    0.000    0.000    0.000    0.000    0.000    0.000 
#
# Total GULP energy -396774.267462 kJ/mol
# GULP energy per Si atom -12399.195858 kJ/mol
# Density = 1.781053 g / cm^3
# Si number density = 17.851162 Si / 1000 Ang^3
#
#
#
# Elastic Constant Matrix: (Units=GPa)
#
#
# Indices 1 2 3 4 5 6 
#
# 1 69.5098 59.2621 62.4570 -0.0001 -0.1122 -0.0002
# 2 59.2621 120.6710 70.6710 -0.0002 0.8009 -0.0004
# 3 62.4570 70.6710 104.8811 0.0000 -0.2064 -0.0001
# 4 -0.0001 -0.0002 0.0000 32.1536 0.0000 -1.8142
# 5 -0.1122 0.8009 -0.2064 0.0000 19.1760 -0.0001
# 6 -0.0002 -0.0004 -0.0001 -1.8142 -0.0001 30.8402
#
#
#
# Elastic Compliance Matrix: (Units=1/GPa)
#
#
# Indices 1 2 3 4 5 6 
#
# 1 0.035367 -0.008321 -0.015453 0.000000 0.000388 0.000000
# 2 -0.008321 0.015655 -0.005595 0.000000 -0.000763 0.000000
# 3 -0.015453 -0.005595 0.022508 0.000000 0.000386 0.000000
# 4 0.000000 0.000000 0.000000 0.031204 0.000000 0.001836
# 5 0.000388 -0.000763 0.000386 0.000000 0.052187 0.000000
# 6 0.000000 0.000000 0.000000 0.001836 0.000000 0.032533
#
#
# Mechanical properties :
#
#
# Convention : Reuss Voigt Hill
#
# Bulk Modulus (GPa) = 67.60888 75.53801 71.57345
# Shear Modulus (GPa) = 19.75316 23.27874 21.51595
#
# Velocity S-wave (km/s) = 3.33009 3.61508 3.47550
# Velocity P-wave (km/s) = 7.26236 7.73514 7.50247
#
# Compressibility (1/GPa) = 0.01479096
#
# Stress axis : x y z
#
# Youngs Moduli (GPa) = 28.27514 63.87554 44.42865
#
# Poissons Ratio (x) = 0.53152 0.68657
# Poissons Ratio (y) = 0.23528 0.24859
# Poissons Ratio (z) = 0.43694 0.35740
#
# Static dielectric constant tensor:
#      x y z
#    x 3.088050 0.000000 -0.010540 
#    y 0.000000 3.451570 0.000000 
#    z -0.010540 0.000000 3.557540 
# 
# 
# High freq. dielectric constant tensor:
#      x y z
#    x 1.659480 0.000000 -0.000520 
#    y 0.000000 1.700800 0.000000 
#    z -0.000520 0.000000 1.699290 
# 
# From -- ./inp_files/345983.got.cif
#   From: 2010.06.25/outbox.cif.g09.slc.cpg/sg12_173_cif.got.tgz:345983.got - 2010.06.28 00:19:55.
