data_PCOD8095907
_publ_section_title
;
Structure prediction by ZEFSAII (Michael W. Deem and Ramdas Pophale) SiO2 
 PCOD8095907
Probable space group: C 2/M
;
_chemical_formula_sum "Si O2"
_cell_formula_units_Z 60
_cell_length_a 28.831123
_cell_length_b 12.703125
_cell_length_c 23.240817
_cell_angle_alpha 90.000000
_cell_angle_beta 156.351868
_cell_angle_gamma 90.000000
_cell_volume 3414.258684
_symmetry_space_group_name_H-M "C 2/M"
_symmetry_group_IT_number 12
_symmetry_cell_setting 'monoclinic'
loop_
_space_group_symop_operation_xyz
x,y,z
-x,y,-z
-x,-y,-z
x,-y,z
1/2+x,1/2+y,z
1/2-x,1/2+y,-z
1/2-x,1/2-y,-z
1/2+x,1/2-y,z
loop_
_atom_site_type_symbol
_atom_site_label
_atom_site_fract_x
_atom_site_fract_y
_atom_site_fract_z
Si Si1 0.681399 0.623795 0.905531
Si Si2 0.101013 0.877175 0.935947
Si Si3 0.071672 0.620809 0.776571
Si Si4 0.152362 0.875341 0.345432
Si Si5 0.355874 0.740659 0.546260
Si Si6 0.500000 0.262733 0.500000
Si Si7 0.516761 0.624582 0.401967
Si Si8 0.659485 0.121360 0.749752
O O1 0.702568 0.500000 0.924943
O O2 0.599079 0.650787 0.866054
O O3 0.607582 0.664757 0.766375
O O4 0.811184 0.672164 0.061604
O O5 0.977895 0.844868 0.823537
O O6 0.122158 0.000000 0.965409
O O7 0.212703 0.828007 0.094527
O O8 0.058567 0.500000 0.779942
O O9 0.080476 0.630755 0.717321
O O10 0.963095 0.681261 0.679490
O O11 0.242627 0.813599 0.407760
O O12 0.167763 0.839423 0.428716
O O13 0.173607 0.000000 0.365478
O O14 0.376862 0.672346 0.513034
O O15 0.467459 0.338595 0.515297
O O16 0.606781 0.188251 0.637854
O O17 0.522892 0.500000 0.405236
O O18 0.664990 0.000000 0.736324
#
# Coordination Sequence:
#
# PCOD8095907 Si02
#       8
#     8   8   8   8   8   4   8   8
#     4   8  15  29  51  74 103 136 162 202 260 309
#     4   8  14  29  52  76 103 133 161 203 259 310
#     4   9  17  31  50  79 109 131 162 207 262 318
#     4  10  20  33  50  76 107 136 171 208 251 311
#     4  11  20  31  51  76 105 142 170 204 259 301
#     4  12  22  34  50  78 104 142 178 206 250 300
#     4  11  22  36  50  72 105 141 178 213 247 299
#     4   9  18  32  52  78 107 132 163 210 260 310
#
# _framework density 17.573360999999998
#
# number of rings (size 3 to 8) (size 9 to 14) (size 15 to 20)
#    0.000    2.400    2.667    2.800    0.000    1.600 
#    0.000    0.000    0.000    0.800    0.000    6.533 
#    0.000    0.000    0.000    0.000    0.000    0.000 
#
# Total GULP energy -371825.972921 kJ/mol
# GULP energy per Si atom -12394.199097 kJ/mol
# Density = 1.753336 g / cm^3
# Si number density = 17.573361 Si / 1000 Ang^3
#
#
#
# Elastic Constant Matrix: (Units=GPa)
#
#
# Indices 1 2 3 4 5 6 
#
# 1 78.2311 32.9593 48.4349 0.0000 -0.0087 0.0000
# 2 32.9593 60.5113 43.4575 0.0000 5.0363 0.0000
# 3 48.4349 43.4575 82.6841 0.0000 3.9184 0.0000
# 4 0.0000 0.0000 0.0000 27.4082 0.0000 2.4388
# 5 -0.0087 5.0363 3.9184 0.0000 29.6004 0.0000
# 6 0.0000 0.0000 0.0000 2.4388 0.0000 29.7725
#
#
#
# Elastic Compliance Matrix: (Units=1/GPa)
#
#
# Indices 1 2 3 4 5 6 
#
# 1 0.020800 -0.004306 -0.010019 0.000000 0.002065 0.000000
# 2 -0.004306 0.027651 -0.011862 0.000000 -0.003136 0.000000
# 3 -0.010019 -0.011862 0.024254 0.000000 -0.001195 0.000000
# 4 0.000000 0.000000 0.000000 0.036753 0.000000 -0.003011
# 5 0.002065 -0.003136 -0.001195 0.000000 0.034476 0.000000
# 6 0.000000 0.000000 0.000000 -0.003011 0.000000 0.033835
#
#
# Mechanical properties :
#
#
# Convention : Reuss Voigt Hill
#
# Bulk Modulus (GPa) = 49.18468 52.34777 50.76622
# Shear Modulus (GPa) = 21.10412 23.79455 22.44933
#
# Velocity S-wave (km/s) = 3.46918 3.68368 3.57804
# Velocity P-wave (km/s) = 6.64048 6.92427 6.78386
#
# Compressibility (1/GPa) = 0.02033153
#
# Stress axis : x y z
#
# Youngs Moduli (GPa) = 48.07698 36.16483 41.22949
#
# Poissons Ratio (x) = 0.15572 0.41308
# Poissons Ratio (y) = 0.20701 0.48907
# Poissons Ratio (z) = 0.48169 0.42899
#
# Static dielectric constant tensor:
#      x y z
#    x 2.958310 0.000000 0.162200 
#    y 0.000000 3.461590 0.000000 
#    z 0.162200 0.000000 3.437670 
# 
# 
# High freq. dielectric constant tensor:
#      x y z
#    x 1.634110 0.000000 0.012970 
#    y 0.000000 1.703510 0.000000 
#    z 0.012970 0.000000 1.674310 
# 
# From -- ./inp_files/354177.got.cif
#   From: 2010.06.25/outbox.cif.g09.slc.cpg/sg12_178_cif.got.tgz:354177.got - 2010.06.28 00:19:55.
