data_PCOD8095282
_publ_section_title
;
Structure prediction by ZEFSAII (Michael W. Deem and Ramdas Pophale) SiO2 
 PCOD8095282
Probable space group: C 2/M
;
_chemical_formula_sum "Si O2"
_cell_formula_units_Z 48
_cell_length_a 19.518377
_cell_length_b 9.094597
_cell_length_c 15.974557
_cell_angle_alpha 90.000000
_cell_angle_beta 107.223756
_cell_angle_gamma 90.000000
_cell_volume 2708.508136
_symmetry_space_group_name_H-M "C 2/M"
_symmetry_group_IT_number 12
_symmetry_cell_setting 'monoclinic'
loop_
_space_group_symop_operation_xyz
x,y,z
-x,y,-z
-x,-y,-z
x,-y,z
1/2+x,1/2+y,z
1/2-x,1/2+y,-z
1/2-x,1/2-y,-z
1/2+x,1/2-y,z
loop_
_atom_site_type_symbol
_atom_site_label
_atom_site_fract_x
_atom_site_fract_y
_atom_site_fract_z
Si Si1 0.890403 0.329716 0.743170
Si Si2 0.098871 0.826308 0.596690
Si Si3 0.944980 0.826003 0.599345
Si Si4 0.223475 0.172130 0.073253
Si Si5 0.267015 0.328744 0.251065
Si Si6 0.566867 0.671190 0.079563
O O1 0.910086 0.500000 0.747295
O O2 0.909742 0.256422 0.663233
O O3 0.806333 0.302268 0.726063
O O4 0.935915 0.258387 0.834525
O O5 0.095063 0.770519 0.499493
O O6 0.169329 0.764503 0.668088
O O7 0.028370 0.779383 0.622916
O O8 0.102147 0.000000 0.593947
O O9 0.936800 0.000000 0.609162
O O10 0.268698 0.237361 0.166307
O O11 0.139309 0.206108 0.054898
O O12 0.238824 0.000000 0.072344
O O13 0.250000 0.250000 0.000000
O O14 0.278172 0.500000 0.233125
O O15 0.560902 0.500000 0.099504
O O16 0.500000 0.724629 0.000000
#
# Coordination Sequence:
#
# PCOD8095282 Si02
#       6
#     8   8   8   8   8   8
#     4  10  20  32  48  73 103 130 155 193 247 294
#     4   8  16  32  53  73  93 126 169 204 234 275
#     4   9  17  32  53  73  95 126 166 205 236 276
#     4  10  20  34  52  74  99 126 159 199 242 287
#     4   9  18  34  52  70  97 130 163 198 237 285
#     4   9  19  36  55  72  92 125 168 204 233 277
#
# _framework density 17.721931999999999
#
# number of rings (size 3 to 8) (size 9 to 14) (size 15 to 20)
#    0.000    2.833    0.000    2.000    0.000    3.667 
#    0.000   10.000    0.000    0.000    0.000    0.000 
#    0.000    0.000    0.000    0.000    0.000    0.000 
#
# Total GULP energy -297600.931684 kJ/mol
# GULP energy per Si atom -12400.038820 kJ/mol
# Density = 1.768160 g / cm^3
# Si number density = 17.721932 Si / 1000 Ang^3
#
#
#
# Elastic Constant Matrix: (Units=GPa)
#
#
# Indices 1 2 3 4 5 6 
#
# 1 87.6938 45.8453 95.1865 0.0000 3.7999 0.0000
# 2 45.8453 70.1795 69.0956 0.0000 -8.3158 0.0000
# 3 95.1865 69.0956 171.5542 0.0000 2.6201 0.0000
# 4 0.0000 0.0000 0.0000 30.2632 0.0000 -6.1204
# 5 3.7999 -8.3158 2.6201 0.0000 43.1344 0.0000
# 6 0.0000 0.0000 0.0000 -6.1204 0.0000 26.2110
#
#
#
# Elastic Compliance Matrix: (Units=1/GPa)
#
#
# Indices 1 2 3 4 5 6 
#
# 1 0.030159 -0.005998 -0.014273 0.000000 -0.002946 0.000000
# 2 -0.005998 0.025999 -0.007235 0.000000 0.005980 0.000000
# 3 -0.014273 -0.007235 0.016680 0.000000 -0.001151 0.000000
# 4 0.000000 0.000000 0.000000 0.034681 0.000000 0.008098
# 5 -0.002946 0.005980 -0.001151 0.000000 0.024666 0.000000
# 6 0.000000 0.000000 0.000000 0.008098 0.000000 0.040043
#
#
# Mechanical properties :
#
#
# Convention : Reuss Voigt Hill
#
# Bulk Modulus (GPa) = 56.09676 83.29802 69.69739
# Shear Modulus (GPa) = 21.44249 27.87506 24.65877
#
# Velocity S-wave (km/s) = 3.48219 3.97030 3.73423
# Velocity P-wave (km/s) = 6.92027 8.25364 7.61619
#
# Compressibility (1/GPa) = 0.01782634
#
# Stress axis : x y z
#
# Youngs Moduli (GPa) = 33.15733 38.46275 59.95314
#
# Poissons Ratio (x) = 0.23072 0.85570
# Poissons Ratio (y) = 0.19889 0.43374
# Poissons Ratio (z) = 0.47325 0.27826
#
# Static dielectric constant tensor:
#      x y z
#    x 3.402460 0.000000 0.265710 
#    y 0.000000 3.149600 0.000000 
#    z 0.265710 0.000000 3.638630 
# 
# 
# High freq. dielectric constant tensor:
#      x y z
#    x 1.684240 0.000000 0.001300 
#    y 0.000000 1.670940 0.000000 
#    z 0.001300 0.000000 1.694910 
# 
# From -- ./inp_files/229883.got.cif
#   From: 2010.06.25/outbox.cif.g09.slc.cpg/sg12_115_cif.got.tgz:229883.got - 2010.06.28 00:19:55.
