data_PCOD8095839
_publ_section_title
;
Structure prediction by ZEFSAII (Michael W. Deem and Ramdas Pophale) SiO2 
 PCOD8095839
Probable space group: C 2/M
;
_chemical_formula_sum "Si O2"
_cell_formula_units_Z 56
_cell_length_a 29.700395
_cell_length_b 9.143291
_cell_length_c 20.042814
_cell_angle_alpha 90.000000
_cell_angle_beta 32.302885
_cell_angle_gamma 90.000000
_cell_volume 2908.611899
_symmetry_space_group_name_H-M "C 2/M"
_symmetry_group_IT_number 12
_symmetry_cell_setting 'monoclinic'
loop_
_space_group_symop_operation_xyz
x,y,z
-x,y,-z
-x,-y,-z
x,-y,z
1/2+x,1/2+y,z
1/2-x,1/2+y,-z
1/2-x,1/2-y,-z
1/2+x,1/2-y,z
loop_
_atom_site_type_symbol
_atom_site_label
_atom_site_fract_x
_atom_site_fract_y
_atom_site_fract_z
Si Si1 0.046495 0.672632 0.293176
Si Si2 0.667153 0.671661 0.632173
Si Si3 0.354923 0.671281 0.060246
Si Si4 0.093778 0.174009 0.864761
Si Si5 0.993122 0.169256 0.786841
Si Si6 0.180568 0.671945 0.232544
Si Si7 0.070490 0.837590 0.467318
O O1 0.034585 0.500000 0.309688
O O2 0.130997 0.721081 0.227706
O O3 0.051468 0.729752 0.212112
O O4 0.963686 0.747418 0.427300
O O5 0.686824 0.500000 0.612829
O O6 0.750000 0.750000 0.500000
O O7 0.636763 0.734569 0.742623
O O8 0.591687 0.701902 0.674167
O O9 0.346918 0.500000 0.076840
O O10 0.349970 0.729920 0.142665
O O11 0.278165 0.722999 0.108189
O O12 0.444642 0.711338 0.915626
O O13 0.089148 0.000000 0.862966
O O14 0.000000 0.232794 0.000000
O O15 0.978248 0.000000 0.786272
O O16 0.167850 0.500000 0.258377
O O17 0.148047 0.750207 0.339813
O O18 0.000000 0.849284 0.500000
O O19 0.098079 0.000000 0.456153
#
# Coordination Sequence:
#
# PCOD8095839 Si02
#       7
#     8   8   8   8   8   8   8
#     4  10  20  33  50  73 107 147 182 221 271 323
#     4  10  21  36  57  86 116 142 176 228 281 334
#     4   9  17  31  54  80 105 137 181 226 269 324
#     4   9  15  30  57  83 103 133 180 224 266 322
#     4  10  20  35  54  77 106 143 184 225 270 323
#     4   9  18  32  50  77 109 140 178 225 271 319
#     4   9  17  31  51  73  99 136 180 223 269 322
#
# _framework density 19.253170000000001
#
# number of rings (size 3 to 8) (size 9 to 14) (size 15 to 20)
#    0.000    2.571    1.429    0.857    0.000    4.571 
#    0.000    2.143    0.000    1.286    0.000    0.000 
#    0.000    0.000    0.000    0.000    0.000    0.000 
#
# Total GULP energy -346943.363361 kJ/mol
# GULP energy per Si atom -12390.834406 kJ/mol
# Density = 1.920935 g / cm^3
# Si number density = 19.253170 Si / 1000 Ang^3
#
#
#
# Elastic Constant Matrix: (Units=GPa)
#
#
# Indices 1 2 3 4 5 6 
#
# 1 117.6614 30.6354 55.4623 0.0025 2.5537 -0.0035
# 2 30.6354 43.5314 23.3329 -0.0018 -6.0506 -0.0033
# 3 55.4623 23.3329 116.1879 -0.0029 -9.8589 -0.0071
# 4 0.0025 -0.0018 -0.0029 23.5528 -0.0066 3.5419
# 5 2.5537 -6.0506 -9.8589 -0.0066 26.5005 0.0037
# 6 -0.0035 -0.0033 -0.0071 3.5419 0.0037 22.6946
#
#
#
# Elastic Compliance Matrix: (Units=1/GPa)
#
#
# Indices 1 2 3 4 5 6 
#
# 1 0.012825 -0.006933 -0.005131 -0.000004 -0.004728 0.000001
# 2 -0.006933 0.029925 -0.002131 0.000005 0.006708 0.000001
# 3 -0.005131 -0.002131 0.011859 0.000003 0.004420 0.000001
# 4 -0.000004 0.000005 0.000003 0.043478 0.000014 -0.006785
# 5 -0.004728 0.006708 0.004420 0.000014 0.041367 -0.000007
# 6 0.000001 0.000001 0.000001 -0.006785 -0.000007 0.045122
#
#
# Mechanical properties :
#
#
# Convention : Reuss Voigt Hill
#
# Bulk Modulus (GPa) = 38.13885 55.13799 46.63842
# Shear Modulus (GPa) = 22.55233 25.74626 24.14929
#
# Velocity S-wave (km/s) = 3.42622 3.66081 3.54546
# Velocity P-wave (km/s) = 5.95853 6.82417 6.40599
#
# Compressibility (1/GPa) = 0.02621999
#
# Stress axis : x y z
#
# Youngs Moduli (GPa) = 77.97106 33.41641 84.32354
#
# Poissons Ratio (x) = 0.23166 0.43267
# Poissons Ratio (y) = 0.54055 0.17971
# Poissons Ratio (z) = 0.40008 0.07122
#
# Static dielectric constant tensor:
#      x y z
#    x 3.692030 -0.000020 -0.092700 
#    y -0.000020 3.242210 0.000080 
#    z -0.092700 0.000080 3.724210 
# 
# 
# High freq. dielectric constant tensor:
#      x y z
#    x 1.751800 0.000000 0.001220 
#    y 0.000000 1.710610 0.000000 
#    z 0.001220 0.000000 1.746730 
# 
# From -- ./inp_files/281738.got.cif
#   From: 2010.06.25/outbox.cif.g09.slc.cpg/sg12_141_cif.got.tgz:281738.got - 2010.06.28 00:19:55.
