data_PCOD8095723
_publ_section_title
;
Structure prediction by ZEFSAII (Michael W. Deem and Ramdas Pophale) SiO2 
 PCOD8095723
Probable space group: C 2/M
;
_chemical_formula_sum "Si O2"
_cell_formula_units_Z 60
_cell_length_a 26.765127
_cell_length_b 9.152588
_cell_length_c 27.228244
_cell_angle_alpha 90.000000
_cell_angle_beta 151.283133
_cell_angle_gamma 90.000000
_cell_volume 3204.864721
_symmetry_space_group_name_H-M "C 2/M"
_symmetry_group_IT_number 12
_symmetry_cell_setting 'monoclinic'
loop_
_space_group_symop_operation_xyz
x,y,z
-x,y,-z
-x,-y,-z
x,-y,z
1/2+x,1/2+y,z
1/2-x,1/2+y,-z
1/2-x,1/2-y,-z
1/2+x,1/2-y,z
loop_
_atom_site_type_symbol
_atom_site_label
_atom_site_fract_x
_atom_site_fract_y
_atom_site_fract_z
Si Si1 0.385987 0.669267 0.767016
Si Si2 0.537987 0.836947 0.639269
Si Si3 0.119973 0.169145 0.432567
Si Si4 0.863995 0.331281 0.651590
Si Si5 0.276008 0.339494 0.315814
Si Si6 0.000000 0.742447 0.500000
Si Si7 0.244636 0.830408 0.814937
Si Si8 0.947766 0.830458 0.005611
O O1 0.375999 0.500000 0.744765
O O2 0.415424 0.759149 0.743831
O O3 0.274821 0.719737 0.692642
O O4 0.474587 0.700390 0.883006
O O5 0.441021 0.746210 0.576054
O O6 0.528053 0.853584 0.571761
O O7 0.642602 0.753878 0.745548
O O8 0.539706 0.000000 0.663026
O O9 0.090718 0.247608 0.356448
O O10 0.240602 0.188485 0.548687
O O11 0.088312 0.000000 0.401735
O O12 0.896497 0.500000 0.676120
O O13 0.236921 0.500000 0.298661
O O14 0.400729 0.341749 0.427304
O O15 0.239960 0.306351 0.229614
O O16 0.344844 0.762902 0.928034
O O17 0.232703 0.000000 0.818497
O O18 0.916710 0.000000 0.974967
O O19 0.000000 0.777480 0.000000
#
# Coordination Sequence:
#
# PCOD8095723 Si02
#       8
#     8   8   8   8   8   4   8   8
#     4  11  22  34  54  81 111 144 182 229 278 327
#     4  11  22  36  55  79 110 148 186 225 271 328
#     4  10  21  38  59  82 112 147 185 228 274 326
#     4  10  21  37  58  84 112 144 184 230 277 326
#     4  10  20  33  49  72 106 145 183 224 270 321
#     4  10  22  34  50  78 110 148 186 224 262 320
#     4  10  21  35  53  77 106 143 186 227 271 326
#     4  10  20  36  55  78 110 148 185 228 278 330
#
# _framework density 18.721540000000001
#
# number of rings (size 3 to 8) (size 9 to 14) (size 15 to 20)
#    0.000    1.733    1.333    3.200    0.000    9.333 
#    0.000    0.000    0.000    0.800    0.000    0.000 
#    0.000    0.000    0.000    0.000    0.000    0.000 
#
# Total GULP energy -372087.767090 kJ/mol
# GULP energy per Si atom -12402.925570 kJ/mol
# Density = 1.867893 g / cm^3
# Si number density = 18.721540 Si / 1000 Ang^3
#
#
#
# Elastic Constant Matrix: (Units=GPa)
#
#
# Indices 1 2 3 4 5 6 
#
# 1 73.2063 47.0393 30.6474 0.0000 -3.6356 0.0000
# 2 47.0393 132.5935 41.6236 0.0000 -3.1318 -0.0001
# 3 30.6474 41.6236 83.7440 0.0000 -1.6994 0.0000
# 4 0.0000 0.0000 0.0000 28.1630 0.0000 1.3203
# 5 -3.6356 -3.1318 -1.6994 0.0000 27.6354 0.0000
# 6 0.0000 -0.0001 0.0000 1.3203 0.0000 30.1123
#
#
#
# Elastic Compliance Matrix: (Units=1/GPa)
#
#
# Indices 1 2 3 4 5 6 
#
# 1 0.018958 -0.005355 -0.004243 0.000000 0.001626 0.000000
# 2 -0.005355 0.010464 -0.003235 0.000000 0.000282 0.000000
# 3 -0.004243 -0.003235 0.015102 0.000000 0.000004 0.000000
# 4 0.000000 0.000000 0.000000 0.035581 0.000000 -0.001560
# 5 0.001626 0.000282 0.000004 0.000000 0.036432 0.000000
# 6 0.000000 0.000000 0.000000 -0.001560 0.000000 0.033277
#
#
# Mechanical properties :
#
#
# Convention : Reuss Voigt Hill
#
# Bulk Modulus (GPa) = 53.03185 58.68493 55.85839
# Shear Modulus (GPa) = 27.50762 28.53104 28.01933
#
# Velocity S-wave (km/s) = 3.83731 3.90804 3.87284
# Velocity P-wave (km/s) = 6.92975 7.19569 7.06397
#
# Compressibility (1/GPa) = 0.01885659
#
# Stress axis : x y z
#
# Youngs Moduli (GPa) = 52.74744 95.56564 66.21521
#
# Poissons Ratio (x) = 0.51177 0.28097
# Poissons Ratio (y) = 0.28247 0.21423
# Poissons Ratio (z) = 0.22383 0.30920
#
# Static dielectric constant tensor:
#      x y z
#    x 3.299920 0.000000 -0.044410 
#    y 0.000000 3.469350 0.000000 
#    z -0.044410 0.000000 3.318410 
# 
# 
# High freq. dielectric constant tensor:
#      x y z
#    x 1.709180 0.000000 -0.001640 
#    y 0.000000 1.738820 0.000000 
#    z -0.001640 0.000000 1.714410 
# 
# From -- ./inp_files/368913.got.cif
#   From: 2010.06.25/outbox.cif.g09.slc.cpg/sg12_185_cif.got.tgz:368913.got - 2010.06.28 00:19:55.
