data_PCOD8095711
_publ_section_title
;
Structure prediction by ZEFSAII (Michael W. Deem and Ramdas Pophale) SiO2 
 PCOD8095711
Probable space group: C 2/M
;
_chemical_formula_sum "Si O2"
_cell_formula_units_Z 48
_cell_length_a 18.782031
_cell_length_b 9.243194
_cell_length_c 15.185161
_cell_angle_alpha 90.000000
_cell_angle_beta 89.024314
_cell_angle_gamma 90.000000
_cell_volume 2635.852172
_symmetry_space_group_name_H-M "C 2/M"
_symmetry_group_IT_number 12
_symmetry_cell_setting 'monoclinic'
loop_
_space_group_symop_operation_xyz
x,y,z
-x,y,-z
-x,-y,-z
x,-y,z
1/2+x,1/2+y,z
1/2-x,1/2+y,-z
1/2-x,1/2-y,-z
1/2+x,1/2-y,z
loop_
_atom_site_type_symbol
_atom_site_label
_atom_site_fract_x
_atom_site_fract_y
_atom_site_fract_z
Si Si1 0.575834 0.171615 0.256813
Si Si2 0.179215 0.330042 0.105096
Si Si3 0.171330 0.831633 0.597649
Si Si4 0.415296 0.168281 0.253668
Si Si5 0.836254 0.331967 0.577118
Si Si6 0.320186 0.165800 0.093798
O O1 0.618700 0.232359 0.171441
O O2 0.495366 0.230171 0.256188
O O3 0.613663 0.224183 0.345355
O O4 0.575376 0.000000 0.252261
O O5 0.188372 0.500000 0.118686
O O6 0.254378 0.260079 0.129281
O O7 0.157192 0.289598 0.005722
O O8 0.133362 0.759116 0.680466
O O9 0.142763 0.759744 0.508760
O O10 0.255164 0.803986 0.607226
O O11 0.152559 0.000000 0.595232
O O12 0.387778 0.191708 0.154861
O O13 0.411799 0.000000 0.281061
O O14 0.849343 0.500000 0.555283
O O15 0.295058 0.000000 0.096295
#
# Coordination Sequence:
#
# PCOD8095711 Si02
#       6
#     8   8   8   8   8   8
#     4   9  18  32  51  73  97 130 167 199 237 287
#     4   9  17  32  53  74  98 129 165 202 238 283
#     4  10  20  34  53  75  97 125 162 203 246 289
#     4  10  20  33  49  72 102 132 162 198 241 289
#     4   9  18  34  54  73  94 125 165 204 241 285
#     4   9  18  31  50  76 101 127 161 202 245 284
#
# _framework density 18.210429999999999
#
# number of rings (size 3 to 8) (size 9 to 14) (size 15 to 20)
#    0.000    2.667    0.000    1.500    0.000    4.000 
#    0.000    9.167    0.000    0.000    0.000    5.833 
#    0.000    0.000    0.000    0.000    0.000    0.000 
#
# Total GULP energy -297631.141797 kJ/mol
# GULP energy per Si atom -12401.297575 kJ/mol
# Density = 1.816898 g / cm^3
# Si number density = 18.210430 Si / 1000 Ang^3
#
#
#
# Elastic Constant Matrix: (Units=GPa)
#
#
# Indices 1 2 3 4 5 6 
#
# 1 89.8016 30.9900 56.0570 0.0000 20.5480 0.0000
# 2 30.9900 48.8537 37.0987 0.0000 2.9010 0.0000
# 3 56.0570 37.0987 109.0525 0.0000 16.5211 0.0000
# 4 0.0000 0.0000 0.0000 23.9987 0.0000 -5.4176
# 5 20.5480 2.9010 16.5211 0.0000 23.4826 0.0000
# 6 0.0000 0.0000 0.0000 -5.4176 0.0000 18.3307
#
#
#
# Elastic Compliance Matrix: (Units=1/GPa)
#
#
# Indices 1 2 3 4 5 6 
#
# 1 0.020411 -0.007670 -0.005955 0.000000 -0.012723 0.000000
# 2 -0.007670 0.030752 -0.007791 0.000000 0.008393 0.000000
# 3 -0.005955 -0.007791 0.015610 0.000000 -0.004809 0.000000
# 4 0.000000 0.000000 0.000000 0.044648 0.000000 0.013195
# 5 -0.012723 0.008393 -0.004809 0.000000 0.056064 0.000000
# 6 0.000000 0.000000 0.000000 0.013195 0.000000 0.058453
#
#
# Mechanical properties :
#
#
# Convention : Reuss Voigt Hill
#
# Bulk Modulus (GPa) = 41.76795 55.11101 48.43948
# Shear Modulus (GPa) = 18.06678 21.39986 19.73332
#
# Velocity S-wave (km/s) = 3.15320 3.43175 3.29542
# Velocity P-wave (km/s) = 6.02021 6.78467 6.41384
#
# Compressibility (1/GPa) = 0.02394180
#
# Stress axis : x y z
#
# Youngs Moduli (GPa) = 48.99250 32.51795 64.06130
#
# Poissons Ratio (x) = 0.24940 0.38152
# Poissons Ratio (y) = 0.37576 0.49908
# Poissons Ratio (z) = 0.29177 0.25334
#
# Static dielectric constant tensor:
#      x y z
#    x 3.429450 0.000000 0.049530 
#    y 0.000000 3.189640 0.000000 
#    z 0.049530 0.000000 3.521070 
# 
# 
# High freq. dielectric constant tensor:
#      x y z
#    x 1.699120 0.000000 0.003120 
#    y 0.000000 1.683590 0.000000 
#    z 0.003120 0.000000 1.719020 
# 
# From -- ./inp_files/221627.got.cif
#   From: 2010.06.25/outbox.cif.g09.slc.cpg/sg12_111_cif.got.tgz:221627.got - 2010.06.28 00:19:55.
