data_PCOD8095170
_publ_section_title
;
Structure prediction by ZEFSAII (Michael W. Deem and Ramdas Pophale) SiO2 
 PCOD8095170
Probable space group: C 2/M
;
_chemical_formula_sum "Si O2"
_cell_formula_units_Z 56
_cell_length_a 27.993692
_cell_length_b 9.009715
_cell_length_c 13.979533
_cell_angle_alpha 90.000000
_cell_angle_beta 61.220438
_cell_angle_gamma 90.000000
_cell_volume 3090.332077
_symmetry_space_group_name_H-M "C 2/M"
_symmetry_group_IT_number 12
_symmetry_cell_setting 'monoclinic'
loop_
_space_group_symop_operation_xyz
x,y,z
-x,y,-z
-x,-y,-z
x,-y,z
1/2+x,1/2+y,z
1/2-x,1/2+y,-z
1/2-x,1/2-y,-z
1/2+x,1/2-y,z
loop_
_atom_site_type_symbol
_atom_site_label
_atom_site_fract_x
_atom_site_fract_y
_atom_site_fract_z
Si Si1 0.782682 0.173487 0.606304
Si Si2 0.967574 0.164898 0.434026
Si Si3 0.126668 0.674779 0.376999
Si Si4 0.069204 0.824925 0.846257
Si Si5 0.051701 0.175428 0.074285
Si Si6 0.436630 0.174433 0.751333
Si Si7 0.822188 0.173836 0.358262
O O1 0.814167 0.253576 0.663059
O O2 0.814429 0.209442 0.477274
O O3 0.722001 0.238007 0.661477
O O4 0.779872 0.000000 0.630251
O O5 0.913025 0.257363 0.504375
O O6 0.000000 0.148865 0.500000
O O7 0.004779 0.249892 0.322370
O O8 0.952535 0.000000 0.408923
O O9 0.129040 0.500000 0.389930
O O10 0.106630 0.716279 0.289598
O O11 0.118328 0.767407 0.731791
O O12 0.010981 0.765902 0.865574
O O13 0.065764 0.000000 0.846063
O O14 0.079306 0.778307 0.947067
O O15 0.084215 0.261030 0.127307
O O16 0.055616 0.000000 0.088721
O O17 0.445331 0.000000 0.747284
O O18 0.814721 0.000000 0.344238
#
# Coordination Sequence:
#
# PCOD8095170 Si02
#       7
#     8   8   8   8   8   8   8
#     4  10  20  32  50  77 102 128 170 209 243 296
#     4   9  17  29  45  66  93 128 168 203 237 284
#     4  10  20  33  48  68 101 137 166 202 250 300
#     4   8  16  32  53  76  99 129 167 207 251 298
#     4   9  17  31  53  77 100 129 169 208 244 294
#     4  10  20  32  46  70 103 136 166 201 249 300
#     4   9  18  34  53  72 100 133 164 203 254 301
#
# _framework density 18.121029
#
# number of rings (size 3 to 8) (size 9 to 14) (size 15 to 20)
#    0.000    2.714    0.000    2.571    2.000    4.000 
#    0.000    2.857    0.000    0.857    0.000    0.000 
#    0.000    0.000    0.000    0.000    0.000    0.000 
#
# Total GULP energy -347129.575807 kJ/mol
# GULP energy per Si atom -12397.484850 kJ/mol
# Density = 1.807979 g / cm^3
# Si number density = 18.121029 Si / 1000 Ang^3
#
#
#
# Elastic Constant Matrix: (Units=GPa)
#
#
# Indices 1 2 3 4 5 6 
#
# 1 76.0772 34.3264 20.8830 0.0000 6.2051 0.0000
# 2 34.3264 71.5151 16.8714 0.0000 8.6236 0.0000
# 3 20.8830 16.8714 65.2897 0.0000 2.8115 0.0000
# 4 0.0000 0.0000 0.0000 20.4077 0.0000 0.4194
# 5 6.2051 8.6236 2.8115 0.0000 28.3863 0.0000
# 6 0.0000 0.0000 0.0000 0.4194 0.0000 27.9302
#
#
#
# Elastic Compliance Matrix: (Units=1/GPa)
#
#
# Indices 1 2 3 4 5 6 
#
# 1 0.017605 -0.007440 -0.003656 0.000000 -0.001226 0.000000
# 2 -0.007440 0.018541 -0.002249 0.000000 -0.003784 0.000000
# 3 -0.003656 -0.002249 0.017076 0.000000 -0.000209 0.000000
# 4 0.000000 0.000000 0.000000 0.049016 0.000000 -0.000736
# 5 -0.001226 -0.003784 -0.000209 0.000000 0.036666 0.000000
# 6 0.000000 0.000000 0.000000 -0.000736 0.000000 0.035815
#
#
# Mechanical properties :
#
#
# Convention : Reuss Voigt Hill
#
# Bulk Modulus (GPa) = 37.68848 39.67150 38.67999
# Shear Modulus (GPa) = 23.78110 24.73160 24.25635
#
# Velocity S-wave (km/s) = 3.62656 3.69833 3.66262
# Velocity P-wave (km/s) = 6.19510 6.33852 6.26722
#
# Compressibility (1/GPa) = 0.02653331
#
# Stress axis : x y z
#
# Youngs Moduli (GPa) = 56.80228 53.93507 58.56296
#
# Poissons Ratio (x) = 0.40127 0.21408
# Poissons Ratio (y) = 0.42260 0.13168
# Poissons Ratio (z) = 0.20765 0.12127
#
# Static dielectric constant tensor:
#      x y z
#    x 3.354950 0.000000 -0.009010 
#    y 0.000000 3.223310 0.000000 
#    z -0.009010 0.000000 3.388410 
# 
# 
# High freq. dielectric constant tensor:
#      x y z
#    x 1.694310 0.000000 0.014760 
#    y 0.000000 1.693600 0.000000 
#    z 0.014760 0.000000 1.680320 
# 
# From -- ./inp_files/248141.got.cif
#   From: 2010.06.25/outbox.cif.g09.slc.cpg/sg12_125_cif.got.tgz:248141.got - 2010.06.28 00:19:55.
