data_PCOD8095619
_publ_section_title
;
Structure prediction by ZEFSAII (Michael W. Deem and Ramdas Pophale) SiO2 
 PCOD8095619
Probable space group: C 2/M
;
_chemical_formula_sum "Si O2"
_cell_formula_units_Z 48
_cell_length_a 24.065301
_cell_length_b 8.514604
_cell_length_c 15.264722
_cell_angle_alpha 90.000000
_cell_angle_beta 59.291031
_cell_angle_gamma 90.000000
_cell_volume 2689.231079
_symmetry_space_group_name_H-M "C 2/M"
_symmetry_group_IT_number 12
_symmetry_cell_setting 'monoclinic'
loop_
_space_group_symop_operation_xyz
x,y,z
-x,y,-z
-x,-y,-z
x,-y,z
1/2+x,1/2+y,z
1/2-x,1/2+y,-z
1/2-x,1/2-y,-z
1/2+x,1/2-y,z
loop_
_atom_site_type_symbol
_atom_site_label
_atom_site_fract_x
_atom_site_fract_y
_atom_site_fract_z
Si Si1 0.980331 0.682124 0.788951
Si Si2 0.819829 0.315220 0.772115
Si Si3 0.459898 0.184342 0.611878
Si Si4 0.846377 0.181743 0.934771
Si Si5 0.809814 0.682753 0.143500
Si Si6 0.443284 0.183464 0.107370
O O1 0.958545 0.500000 0.813400
O O2 0.995513 0.724658 0.675454
O O3 0.041863 0.714928 0.801828
O O4 0.922891 0.789545 0.870119
O O5 0.823981 0.500000 0.782726
O O6 0.813144 0.233197 0.871539
O O7 0.755937 0.266965 0.768526
O O8 0.885657 0.253950 0.672245
O O9 0.500000 0.264768 0.500000
O O10 0.458436 0.000000 0.597379
O O11 0.832197 0.000000 0.965265
O O12 0.816170 0.286399 0.035409
O O13 0.802624 0.500000 0.169200
O O14 0.872855 0.755988 0.141961
O O15 0.439281 0.000000 0.088673
O O16 0.500000 0.256349 0.000000
#
# Coordination Sequence:
#
# PCOD8095619 Si02
#       6
#     8   8   8   8   8   8
#     4   9  16  30  50  71  95 125 161 198 232 273
#     4  10  20  33  48  68  95 123 157 196 239 284
#     4   8  15  29  52  76  92 112 151 202 246 280
#     4  11  20  30  45  68  98 128 160 193 234 280
#     4  11  20  31  47  66  95 130 163 194 229 275
#     4   9  16  28  47  68  93 128 166 193 222 269
#
# _framework density 17.848966999999998
#
# number of rings (size 3 to 8) (size 9 to 14) (size 15 to 20)
#    0.000    2.333    1.667    4.000    0.000    0.000 
#    0.000    2.500    0.000   13.500    0.000    0.000 
#    0.000    0.000    0.000    0.000    0.000    0.833 
#
# Total GULP energy -297452.657171 kJ/mol
# GULP energy per Si atom -12393.860715 kJ/mol
# Density = 1.780834 g / cm^3
# Si number density = 17.848967 Si / 1000 Ang^3
#
#
#
# Elastic Constant Matrix: (Units=GPa)
#
#
# Indices 1 2 3 4 5 6 
#
# 1 145.9486 15.5239 72.0306 0.0000 -21.3439 -0.0001
# 2 15.5239 31.3438 2.1183 -0.0001 1.1682 -0.0005
# 3 72.0306 2.1183 103.5277 0.0000 -0.8652 0.0000
# 4 0.0000 -0.0001 0.0000 11.7152 0.0000 -6.4370
# 5 -21.3439 1.1682 -0.8652 0.0000 19.0632 0.0000
# 6 -0.0001 -0.0005 0.0000 -6.4370 0.0000 20.7234
#
#
#
# Elastic Compliance Matrix: (Units=1/GPa)
#
#
# Indices 1 2 3 4 5 6 
#
# 1 0.015216 -0.007475 -0.010292 0.000000 0.017028 0.000000
# 2 -0.007475 0.035696 0.004384 0.000001 -0.010358 0.000001
# 3 -0.010292 0.004384 0.016638 0.000000 -0.011036 0.000000
# 4 0.000000 0.000001 0.000000 0.102925 0.000000 0.031970
# 5 0.017028 -0.010358 -0.011036 0.000000 0.071656 0.000000
# 6 0.000000 0.000001 0.000000 0.031970 0.000000 0.058185
#
#
# Mechanical properties :
#
#
# Convention : Reuss Voigt Hill
#
# Bulk Modulus (GPa) = 24.51900 51.12953 37.82426
# Shear Modulus (GPa) = 14.67666 23.04353 18.86009
#
# Velocity S-wave (km/s) = 2.87064 3.59699 3.25414
# Velocity P-wave (km/s) = 4.97535 6.77930 5.94614
#
# Compressibility (1/GPa) = 0.04078470
#
# Stress axis : x y z
#
# Youngs Moduli (GPa) = 65.71894 28.01407 60.10387
#
# Poissons Ratio (x) = 0.20942 0.61857
# Poissons Ratio (y) = 0.49127 -0.26350
# Poissons Ratio (z) = 0.67636 -0.12282
#
# Static dielectric constant tensor:
#      x y z
#    x 3.575780 0.000000 -0.174710 
#    y 0.000000 2.991290 0.000000 
#    z -0.174710 0.000000 3.369230 
# 
# 
# High freq. dielectric constant tensor:
#      x y z
#    x 1.696810 0.000000 -0.014030 
#    y 0.000000 1.661740 0.000000 
#    z -0.014030 0.000000 1.656300 
# 
# From -- ./inp_files/229828.got.cif
#   From: 2010.06.25/outbox.cif.g09.slc.cpg/sg12_115_cif.got.tgz:229828.got - 2010.06.28 00:19:55.
