data_PCOD8095918
_publ_section_title
;
Structure prediction by ZEFSAII (Michael W. Deem and Ramdas Pophale) SiO2 
 PCOD8095918
Probable space group: C 2/M
;
_chemical_formula_sum "Si O2"
_cell_formula_units_Z 64
_cell_length_a 9.520830
_cell_length_b 27.746593
_cell_length_c 19.216513
_cell_angle_alpha 90.000000
_cell_angle_beta 138.666805
_cell_angle_gamma 90.000000
_cell_volume 3352.666309
_symmetry_space_group_name_H-M "C 2/M"
_symmetry_group_IT_number 12
_symmetry_cell_setting 'monoclinic'
loop_
_space_group_symop_operation_xyz
x,y,z
-x,y,-z
-x,-y,-z
x,-y,z
1/2+x,1/2+y,z
1/2-x,1/2+y,-z
1/2-x,1/2-y,-z
1/2+x,1/2-y,z
loop_
_atom_site_type_symbol
_atom_site_label
_atom_site_fract_x
_atom_site_fract_y
_atom_site_fract_z
Si Si1 0.427540 0.056354 0.394524
Si Si2 0.765501 0.056692 0.408162
Si Si3 0.071726 0.119186 0.194934
Si Si4 0.878257 0.445529 0.796337
Si Si5 0.319550 0.695524 0.873067
Si Si6 0.132176 0.945745 0.986921
Si Si7 0.453081 0.776589 0.108395
Si Si8 0.333296 0.866817 0.884250
O O1 0.500000 0.064323 0.500000
O O2 0.618971 0.074627 0.416758
O O3 0.229865 0.091446 0.305434
O O4 0.369012 0.000000 0.358945
O O5 0.657726 0.071403 0.295776
O O6 0.000000 0.080568 0.500000
O O7 0.788595 0.000000 0.423280
O O8 0.197693 0.148190 0.181684
O O9 0.916278 0.080026 0.102931
O O10 0.894652 0.151905 0.169685
O O11 0.790898 0.500000 0.776277
O O12 0.760819 0.407726 0.802363
O O13 0.124980 0.442336 0.902997
O O14 0.358403 0.738116 0.831275
O O15 0.098398 0.707171 0.831278
O O16 0.500000 0.689982 0.000000
O O17 0.051794 0.000000 0.947699
O O18 0.000000 0.920745 0.000000
O O19 0.526296 0.823665 0.094496
O O20 0.250000 0.750000 0.000000
O O21 0.500000 0.890932 0.000000
#
# Coordination Sequence:
#
# PCOD8095918 Si02
#       8
#     8   8   8   8   8   8   8   8
#     4  10  23  41  60  85 118 160 212 262 306 355
#     4   9  19  37  60  80 108 153 208 259 301 348
#     4  12  23  35  57  85 118 158 197 249 304 359
#     4  10  22  35  52  81 119 160 201 246 294 353
#     4  10  20  35  57  83 114 149 189 236 295 360
#     4  10  20  33  50  76 115 157 195 235 292 362
#     4  10  21  37  58  82 118 159 195 240 289 357
#     4  12  23  36  54  85 124 161 201 240 290 360
#
# _framework density 19.089285
#
# number of rings (size 3 to 8) (size 9 to 14) (size 15 to 20)
#    0.000    1.625    1.250    4.875    5.250    3.250 
#    0.000    0.000    0.000    0.000    0.000    4.375 
#    0.000    0.000    0.000    0.000    0.000    0.000 
#
# Total GULP energy -396564.738155 kJ/mol
# GULP energy per Si atom -12392.648067 kJ/mol
# Density = 1.904584 g / cm^3
# Si number density = 19.089285 Si / 1000 Ang^3
#
#
#
# Elastic Constant Matrix: (Units=GPa)
#
#
# Indices 1 2 3 4 5 6 
#
# 1 138.2292 44.0379 44.4447 0.0014 -1.4174 -0.0002
# 2 44.0379 77.0402 37.7989 0.0007 -8.6426 -0.0002
# 3 44.4447 37.7989 90.8234 0.0178 -8.2112 -0.0032
# 4 0.0014 0.0007 0.0178 4.4422 0.0045 0.5243
# 5 -1.4174 -8.6426 -8.2112 0.0045 25.8945 -0.0008
# 6 -0.0002 -0.0002 -0.0032 0.5243 -0.0008 37.0114
#
#
#
# Elastic Compliance Matrix: (Units=1/GPa)
#
#
# Indices 1 2 3 4 5 6 
#
# 1 0.009531 -0.004128 -0.003113 0.000012 -0.001843 0.000000
# 2 -0.004128 0.018392 -0.005251 0.000015 0.004248 -0.000001
# 3 -0.003113 -0.005251 0.014974 -0.000061 0.002826 0.000002
# 4 0.000012 0.000015 -0.000061 0.225492 -0.000053 -0.003195
# 5 -0.001843 0.004248 0.002826 -0.000053 0.040831 0.000002
# 6 0.000000 -0.000001 0.000002 -0.003195 0.000002 0.027064
#
#
# Mechanical properties :
#
#
# Convention : Reuss Voigt Hill
#
# Bulk Modulus (GPa) = 55.81741 62.07285 58.94513
# Shear Modulus (GPa) = 13.61508 25.45703 19.53605
#
# Velocity S-wave (km/s) = 2.67354 3.65578 3.20254
# Velocity P-wave (km/s) = 6.23170 7.09981 6.67987
#
# Compressibility (1/GPa) = 0.01791556
#
# Stress axis : x y z
#
# Youngs Moduli (GPa) = 104.91604 54.37004 66.78078
#
# Poissons Ratio (x) = 0.22443 0.20789
# Poissons Ratio (y) = 0.43307 0.35064
# Poissons Ratio (z) = 0.32660 0.28548
#
# Static dielectric constant tensor:
#      x y z
#    x 3.991060 0.000000 -0.039890 
#    y 0.000000 3.482820 0.000000 
#    z -0.039890 0.000000 3.203700 
# 
# 
# High freq. dielectric constant tensor:
#      x y z
#    x 1.766710 0.000000 -0.004580 
#    y 0.000000 1.725260 0.000000 
#    z -0.004580 0.000000 1.697960 
# 
# From -- ./inp_files/260371.got.cif
#   From: 2010.06.25/outbox.cif.g09.slc.cpg/sg12_131_cif.got.tgz:260371.got - 2010.06.28 00:19:55.
