data_PCOD8095214
_publ_section_title
;
Structure prediction by ZEFSAII (Michael W. Deem and Ramdas Pophale) SiO2 
 PCOD8095214
Probable space group: C 2/M
;
_chemical_formula_sum "Si O2"
_cell_formula_units_Z 56
_cell_length_a 9.107825
_cell_length_b 19.237514
_cell_length_c 17.954469
_cell_angle_alpha 90.000000
_cell_angle_beta 89.999959
_cell_angle_gamma 90.000000
_cell_volume 3145.836824
_symmetry_space_group_name_H-M "C 2/M"
_symmetry_group_IT_number 12
_symmetry_cell_setting 'monoclinic'
loop_
_space_group_symop_operation_xyz
x,y,z
-x,y,-z
-x,-y,-z
x,-y,z
1/2+x,1/2+y,z
1/2-x,1/2+y,-z
1/2-x,1/2-y,-z
1/2+x,1/2-y,z
loop_
_atom_site_type_symbol
_atom_site_label
_atom_site_fract_x
_atom_site_fract_y
_atom_site_fract_z
Si Si1 0.171055 0.179807 0.413373
Si Si2 0.825600 0.923817 0.000000
Si Si3 0.335111 0.583061 0.840576
Si Si4 0.335112 0.583061 0.159425
Si Si5 0.331676 0.917847 0.696239
Si Si6 0.331676 0.917847 0.303760
Si Si7 0.328943 0.320193 0.413373
O O1 0.238038 0.114897 0.369948
O O2 0.249999 0.250000 0.386504
O O3 0.200868 0.166029 0.500000
O O4 0.999999 0.186644 0.395420
O O5 0.781056 0.886337 0.921607
O O6 0.751852 0.000000 0.000000
O O7 0.781056 0.886337 0.078393
O O8 0.000000 0.931818 0.000000
O O9 0.333607 0.500000 0.846022
O O10 0.499999 0.608904 0.821974
O O11 0.227252 0.609658 0.775908
O O12 0.333607 0.500000 0.153979
O O13 0.227254 0.609659 0.224093
O O14 0.500000 0.895120 0.688563
O O15 0.238040 0.885104 0.630051
O O16 0.311550 0.000000 0.689804
O O17 0.311549 0.000000 0.310197
#
# Coordination Sequence:
#
# PCOD8095214 Si02
#       7
#     8   8   8   8   8   8   8
#     4  10  21  37  56  75  95 122 158 199 242 290
#     4   7  10  18  35  59  86 119 158 197 236 277
#     4   8  13  23  40  62  90 124 161 199 238 280
#     4   8  13  23  40  62  90 124 161 199 238 280
#     4  10  20  32  47  71 103 134 163 198 240 283
#     4  10  20  32  47  71 103 134 163 198 240 283
#     4  10  21  37  56  75  95 122 158 199 242 290
#
# _framework density 17.801306
#
# number of rings (size 3 to 8) (size 9 to 14) (size 15 to 20)
#    0.000    3.000    0.000    3.429    0.000    4.000 
#    0.000    3.571    0.000    4.286    0.000    1.000 
#    0.000    0.000    0.000    0.000    0.000    0.000 
#
# Total GULP energy -346969.812181 kJ/mol
# GULP energy per Si atom -12391.779006 kJ/mol
# Density = 1.776079 g / cm^3
# Si number density = 17.801306 Si / 1000 Ang^3
#
#
#
# Elastic Constant Matrix: (Units=GPa)
#
#
# Indices 1 2 3 4 5 6 
#
# 1 106.2141 31.3528 66.9873 0.0000 0.0004 0.0000
# 2 31.3528 29.3907 36.9956 0.0000 0.0003 0.0000
# 3 66.9873 36.9956 119.6801 0.0000 0.0005 0.0000
# 4 0.0000 0.0000 0.0000 2.7603 0.0000 -0.0001
# 5 0.0004 0.0003 0.0005 0.0000 23.7176 0.0000
# 6 0.0000 0.0000 0.0000 -0.0001 0.0000 23.4158
#
#
#
# Elastic Compliance Matrix: (Units=1/GPa)
#
#
# Indices 1 2 3 4 5 6 
#
# 1 0.016024 -0.009501 -0.006032 0.000000 0.000000 0.000000
# 2 -0.009501 0.061329 -0.013640 0.000000 0.000000 0.000000
# 3 -0.006032 -0.013640 0.015948 0.000000 0.000000 0.000000
# 4 0.000000 0.000000 0.000000 0.362283 0.000000 0.000002
# 5 0.000000 0.000000 0.000000 0.000000 0.042163 0.000000
# 6 0.000000 0.000000 0.000000 0.000002 0.000000 0.042706
#
#
# Mechanical properties :
#
#
# Convention : Reuss Voigt Hill
#
# Bulk Modulus (GPa) = 28.60811 58.43961 43.52386
# Shear Modulus (GPa) = 8.19067 17.97534 13.08301
#
# Velocity S-wave (km/s) = 2.14736 3.18115 2.71393
# Velocity P-wave (km/s) = 4.71740 6.81124 5.85862
#
# Compressibility (1/GPa) = 0.03495512
#
# Stress axis : x y z
#
# Youngs Moduli (GPa) = 62.40794 16.30546 62.70266
#
# Poissons Ratio (x) = 0.15491 0.37821
# Poissons Ratio (y) = 0.59292 0.85529
# Poissons Ratio (z) = 0.37644 0.22241
#
# Static dielectric constant tensor:
#      x y z
#    x 3.287090 0.000000 0.000000 
#    y 0.000000 2.779010 0.000000 
#    z 0.000000 0.000000 3.742710 
# 
# 
# High freq. dielectric constant tensor:
#      x y z
#    x 1.682280 0.000000 0.000000 
#    y 0.000000 1.628130 0.000000 
#    z 0.000000 0.000000 1.710160 
# 
# From -- ./inp_files/257633.got.cif
#   From: 2010.06.25/outbox.cif.g09.slc.cpg/sg12_129_cif.got.tgz:257633.got - 2010.06.28 00:19:55.
