data_PCOD8095668
_publ_section_title
;
Structure prediction by ZEFSAII (Michael W. Deem and Ramdas Pophale) SiO2 
 PCOD8095668
Probable space group: C 2/M
;
_chemical_formula_sum "Si O2"
_cell_formula_units_Z 56
_cell_length_a 18.200536
_cell_length_b 9.399696
_cell_length_c 29.179865
_cell_angle_alpha 90.000000
_cell_angle_beta 38.780580
_cell_angle_gamma 90.000000
_cell_volume 3126.735553
_symmetry_space_group_name_H-M "C 2/M"
_symmetry_group_IT_number 12
_symmetry_cell_setting 'monoclinic'
loop_
_space_group_symop_operation_xyz
x,y,z
-x,y,-z
-x,-y,-z
x,-y,z
1/2+x,1/2+y,z
1/2-x,1/2+y,-z
1/2-x,1/2-y,-z
1/2+x,1/2-y,z
loop_
_atom_site_type_symbol
_atom_site_label
_atom_site_fract_x
_atom_site_fract_y
_atom_site_fract_z
Si Si1 0.786391 0.668087 0.701303
Si Si2 0.207837 0.666564 0.564471
Si Si3 0.479392 0.335121 0.158668
Si Si4 0.633983 0.665388 0.425827
Si Si5 0.676941 0.661758 0.000405
Si Si6 0.132110 0.666918 0.157555
Si Si7 0.443161 0.831587 0.707926
O O1 0.801293 0.500000 0.687375
O O2 0.655248 0.710228 0.780119
O O3 0.816671 0.742557 0.639321
O O4 0.872247 0.728919 0.698906
O O5 0.210657 0.500000 0.551794
O O6 0.250000 0.750000 0.500000
O O7 0.292326 0.705383 0.565208
O O8 0.077395 0.718735 0.640301
O O9 0.490306 0.500000 0.167558
O O10 0.539407 0.308570 0.078747
O O11 0.542361 0.243745 0.167099
O O12 0.500000 0.707198 0.500000
O O13 0.647213 0.500000 0.406794
O O14 0.706058 0.500000 0.997638
O O15 0.750000 0.750000 0.000000
O O16 0.730232 0.695540 0.923830
O O17 0.101201 0.500000 0.171090
O O18 0.114137 0.728023 0.217355
O O19 0.433238 0.000000 0.712344
#
# Coordination Sequence:
#
# PCOD8095668 Si02
#       7
#     8   8   8   8   8   8   8
#     4  10  20  33  49  69  96 129 159 190 231 279
#     4  10  20  34  52  72  95 122 152 190 232 275
#     4   9  17  29  45  69  98 122 152 197 239 273
#     4  10  21  36  53  74  98 122 153 196 238 274
#     4   8  14  25  43  67  92 119 153 192 233 276
#     4   9  16  29  50  70  90 123 162 194 231 281
#     4   9  18  32  48  68  94 123 157 193 228 273
#
# _framework density 17.910053999999999
#
# number of rings (size 3 to 8) (size 9 to 14) (size 15 to 20)
#    0.000    2.714    0.000    1.714    0.000    2.571 
#    0.000    2.143    0.000    4.286    0.000    0.000 
#    0.000   12.571    0.000    0.000    0.000    0.000 
#
# Total GULP energy -346972.377607 kJ/mol
# GULP energy per Si atom -12391.870629 kJ/mol
# Density = 1.786929 g / cm^3
# Si number density = 17.910054 Si / 1000 Ang^3
#
#
#
# Elastic Constant Matrix: (Units=GPa)
#
#
# Indices 1 2 3 4 5 6 
#
# 1 125.5777 34.3287 90.6624 0.0001 -1.0053 -0.0003
# 2 34.3287 32.9043 46.9909 0.0002 2.4654 -0.0002
# 3 90.6624 46.9909 194.4301 0.0000 4.5753 -0.0002
# 4 0.0001 0.0002 0.0000 24.8022 0.0001 4.1836
# 5 -1.0053 2.4654 4.5753 0.0001 30.6248 0.0003
# 6 -0.0003 -0.0002 -0.0002 4.1836 0.0003 17.7008
#
#
#
# Elastic Compliance Matrix: (Units=1/GPa)
#
#
# Indices 1 2 3 4 5 6 
#
# 1 0.013220 -0.007726 -0.004337 0.000000 0.001704 0.000000
# 2 -0.007726 0.051055 -0.008665 0.000000 -0.003069 0.000000
# 3 -0.004337 -0.008665 0.009279 0.000000 -0.000831 0.000000
# 4 0.000000 0.000000 0.000000 0.041993 0.000000 -0.009925
# 5 0.001704 -0.003069 -0.000831 0.000000 0.033081 -0.000001
# 6 0.000000 0.000000 0.000000 -0.009925 -0.000001 0.058840
#
#
# Mechanical properties :
#
#
# Convention : Reuss Voigt Hill
#
# Bulk Modulus (GPa) = 31.15329 77.43068 54.29198
# Shear Modulus (GPa) = 19.25855 26.68756 22.97306
#
# Velocity S-wave (km/s) = 3.28272 3.86435 3.58535
# Velocity P-wave (km/s) = 5.63919 7.95223 6.89341
#
# Compressibility (1/GPa) = 0.03209934
#
# Stress axis : x y z
#
# Youngs Moduli (GPa) = 75.64091 19.58654 107.76522
#
# Poissons Ratio (x) = 0.15133 0.46743
# Poissons Ratio (y) = 0.58440 0.93373
# Poissons Ratio (z) = 0.32809 0.16971
#
# Static dielectric constant tensor:
#      x y z
#    x 3.153800 0.000010 -0.114470 
#    y 0.000010 3.143360 0.000000 
#    z -0.114470 0.000000 3.978820 
# 
# 
# High freq. dielectric constant tensor:
#      x y z
#    x 1.672780 0.000000 -0.000810 
#    y 0.000000 1.673720 0.000000 
#    z -0.000810 0.000000 1.721490 
# 
# From -- ./inp_files/313789.got.cif
#   From: 2010.06.25/outbox.cif.g09.slc.cpg/sg12_157_cif.got.tgz:313789.got - 2010.06.28 00:19:55.
