data_PCOD8095981
_publ_section_title
;
Structure prediction by ZEFSAII (Michael W. Deem and Ramdas Pophale) SiO2 
 PCOD8095981
Probable space group: C 2/M
;
_chemical_formula_sum "Si O2"
_cell_formula_units_Z 56
_cell_length_a 18.201138
_cell_length_b 9.291296
_cell_length_c 25.771955
_cell_angle_alpha 90.000000
_cell_angle_beta 134.847098
_cell_angle_gamma 90.000000
_cell_volume 3090.032837
_symmetry_space_group_name_H-M "C 2/M"
_symmetry_group_IT_number 12
_symmetry_cell_setting 'monoclinic'
loop_
_space_group_symop_operation_xyz
x,y,z
-x,y,-z
-x,-y,-z
x,-y,z
1/2+x,1/2+y,z
1/2-x,1/2+y,-z
1/2-x,1/2-y,-z
1/2+x,1/2-y,z
loop_
_atom_site_type_symbol
_atom_site_label
_atom_site_fract_x
_atom_site_fract_y
_atom_site_fract_z
Si Si1 0.241048 0.164733 0.913776
Si Si2 0.390810 0.832123 0.223946
Si Si3 0.432194 0.837372 0.770949
Si Si4 0.052612 0.670976 0.634440
Si Si5 0.889171 0.663479 0.070861
Si Si6 0.270242 0.829968 0.353467
Si Si7 0.177734 0.670594 0.504446
O O1 0.214732 0.256462 0.849300
O O2 0.169365 0.216182 0.925312
O O3 0.216462 0.000000 0.888304
O O4 0.359703 0.183560 0.994904
O O5 0.486420 0.796403 0.233707
O O6 0.417790 0.769682 0.293975
O O7 0.367169 0.000000 0.214662
O O8 0.488377 0.819812 0.855310
O O9 0.335866 0.731984 0.721545
O O10 0.392542 0.000000 0.742881
O O11 0.052411 0.500000 0.634491
O O12 0.134743 0.730170 0.633539
O O13 0.939086 0.726204 0.562224
O O14 0.855973 0.500000 0.071712
O O15 0.287142 0.781699 0.420909
O O16 0.264046 0.000000 0.345663
O O17 0.186842 0.500000 0.500805
O O18 0.250000 0.750000 0.500000
#
# Coordination Sequence:
#
# PCOD8095981 Si02
#       7
#     8   8   8   8   8   8   8
#     4   9  15  24  42  68  95 120 154 202 243 274
#     4   9  17  30  48  68  93 127 162 193 233 288
#     4   9  17  30  48  70  97 127 157 191 238 290
#     4   9  18  34  53  70  94 130 163 190 230 284
#     4   8  15  27  42  63  93 128 160 190 234 290
#     4  10  20  33  51  74  96 122 161 201 232 271
#     4  10  20  35  55  76  98 124 156 195 236 279
#
# _framework density 18.122785
#
# number of rings (size 3 to 8) (size 9 to 14) (size 15 to 20)
#    0.000    2.857    0.000    2.571    0.000    6.286 
#    0.000    2.143    0.000    2.571    0.000    6.000 
#    0.000    0.000    0.000    0.000    0.000    0.000 
#
# Total GULP energy -346993.005253 kJ/mol
# GULP energy per Si atom -12392.607330 kJ/mol
# Density = 1.808154 g / cm^3
# Si number density = 18.122785 Si / 1000 Ang^3
#
#
#
# Elastic Constant Matrix: (Units=GPa)
#
#
# Indices 1 2 3 4 5 6 
#
# 1 91.0709 27.3220 62.0763 0.0000 8.4048 0.0000
# 2 27.3220 40.0590 41.5515 0.0000 5.5107 0.0000
# 3 62.0763 41.5515 164.1808 0.0000 20.9813 0.0000
# 4 0.0000 0.0000 0.0000 30.4111 0.0000 3.6434
# 5 8.4048 5.5107 20.9813 0.0000 9.4258 0.0000
# 6 0.0000 0.0000 0.0000 3.6434 0.0000 19.7003
#
#
#
# Elastic Compliance Matrix: (Units=1/GPa)
#
#
# Indices 1 2 3 4 5 6 
#
# 1 0.015870 -0.006231 -0.004305 0.000000 -0.000925 0.000000
# 2 -0.006231 0.036302 -0.006749 0.000000 -0.000644 0.000000
# 3 -0.004305 -0.006749 0.011784 0.000000 -0.018446 0.000000
# 4 0.000000 0.000000 0.000000 0.033628 0.000000 -0.006219
# 5 -0.000925 -0.000644 -0.018446 0.000000 0.148353 0.000000
# 6 0.000000 0.000000 0.000000 -0.006219 0.000000 0.051911
#
#
# Mechanical properties :
#
#
# Convention : Reuss Voigt Hill
#
# Bulk Modulus (GPa) = 34.03082 61.91226 47.97154
# Shear Modulus (GPa) = 14.61078 22.86483 18.73780
#
# Velocity S-wave (km/s) = 2.84246 3.55584 3.21898
# Velocity P-wave (km/s) = 5.43981 7.14811 6.35165
#
# Compressibility (1/GPa) = 0.02938513
#
# Stress axis : x y z
#
# Youngs Moduli (GPa) = 63.01341 27.54643 84.86085
#
# Poissons Ratio (x) = 0.17164 0.36533
# Poissons Ratio (y) = 0.39264 0.57275
# Poissons Ratio (z) = 0.27128 0.18592
#
# Static dielectric constant tensor:
#      x y z
#    x 3.051040 0.000000 -0.015660 
#    y 0.000000 3.161630 0.000000 
#    z -0.015660 0.000000 3.906510 
# 
# 
# High freq. dielectric constant tensor:
#      x y z
#    x 1.656120 0.000000 0.002190 
#    y 0.000000 1.683880 0.000000 
#    z 0.002190 0.000000 1.731060 
# 
# From -- ./inp_files/342569.got.cif
#   From: 2010.06.25/outbox.cif.g09.slc.cpg/sg12_172_cif.got.tgz:342569.got - 2010.06.28 00:19:55.
