data_PCOD8095986
_publ_section_title
;
Structure prediction by ZEFSAII (Michael W. Deem and Ramdas Pophale) SiO2 
 PCOD8095986
Probable space group: C 2/M
;
_chemical_formula_sum "Si O2"
_cell_formula_units_Z 56
_cell_length_a 19.576404
_cell_length_b 9.285556
_cell_length_c 29.954978
_cell_angle_alpha 90.000000
_cell_angle_beta 36.166406
_cell_angle_gamma 90.000000
_cell_volume 3213.359493
_symmetry_space_group_name_H-M "C 2/M"
_symmetry_group_IT_number 12
_symmetry_cell_setting 'monoclinic'
loop_
_space_group_symop_operation_xyz
x,y,z
-x,y,-z
-x,-y,-z
x,-y,z
1/2+x,1/2+y,z
1/2-x,1/2+y,-z
1/2-x,1/2-y,-z
1/2+x,1/2-y,z
loop_
_atom_site_type_symbol
_atom_site_label
_atom_site_fract_x
_atom_site_fract_y
_atom_site_fract_z
Si Si1 0.223180 0.836220 0.558092
Si Si2 0.523815 0.330799 0.727891
Si Si3 0.607293 0.165963 0.852929
Si Si4 0.759045 0.167342 0.857042
Si Si5 0.421933 0.337492 0.997467
Si Si6 0.868402 0.666337 0.567033
Si Si7 0.328152 0.168951 0.281456
O O1 0.250000 0.750000 0.500000
O O2 0.102611 0.785489 0.644094
O O3 0.326537 0.812132 0.538534
O O4 0.213204 0.000000 0.548339
O O5 0.540097 0.500000 0.729506
O O6 0.393096 0.288995 0.785233
O O7 0.564820 0.243069 0.749560
O O8 0.705417 0.207075 0.837286
O O9 0.490992 0.258773 0.921374
O O10 0.658916 0.200724 0.777592
O O11 0.571276 0.000000 0.876865
O O12 0.742178 0.000000 0.876935
O O13 0.697845 0.255965 0.928995
O O14 0.393859 0.500000 0.997365
O O15 0.500000 0.332656 0.000000
O O16 0.855419 0.500000 0.588622
O O17 0.793801 0.763375 0.639778
O O18 0.000000 0.719290 0.500000
O O19 0.328135 0.000000 0.292209
#
# Coordination Sequence:
#
# PCOD8095986 Si02
#       7
#     8   8   8   8   8   8   8
#     4   9  18  32  50  72  97 126 160 197 238 285
#     4   9  19  35  52  70  97 133 165 194 238 294
#     4   9  18  32  50  73  99 128 163 200 241 290
#     4   9  17  32  53  72  94 128 165 200 240 287
#     4   9  17  29  47  73 101 126 157 201 247 286
#     4   9  19  36  54  71  96 131 166 198 238 290
#     4  10  20  33  51  75 101 128 160 201 244 285
#
# _framework density 17.427244999999999
#
# number of rings (size 3 to 8) (size 9 to 14) (size 15 to 20)
#    0.000    2.857    0.000    1.714    0.000    7.143 
#    0.000    2.143    0.000    0.000    0.000    0.000 
#    0.000    0.000    0.000    0.000    0.000    0.000 
#
# Total GULP energy -347217.742190 kJ/mol
# GULP energy per Si atom -12400.633650 kJ/mol
# Density = 1.738758 g / cm^3
# Si number density = 17.427245 Si / 1000 Ang^3
#
#
#
# Elastic Constant Matrix: (Units=GPa)
#
#
# Indices 1 2 3 4 5 6 
#
# 1 79.0167 48.2692 75.5636 0.0006 -7.0740 -0.0130
# 2 48.2692 83.3865 66.9717 0.0046 1.5647 0.0035
# 3 75.5636 66.9717 135.1299 -0.0006 -11.9543 0.0061
# 4 0.0006 0.0046 -0.0006 32.5000 0.0009 2.6961
# 5 -7.0740 1.5647 -11.9543 0.0009 30.5641 0.0033
# 6 -0.0130 0.0035 0.0061 2.6961 0.0033 24.1027
#
#
#
# Elastic Compliance Matrix: (Units=1/GPa)
#
#
# Indices 1 2 3 4 5 6 
#
# 1 0.029164 -0.006593 -0.012859 -0.000002 0.002058 0.000020
# 2 -0.006593 0.022197 -0.007820 -0.000003 -0.005721 -0.000004
# 3 -0.012859 -0.007820 0.018892 0.000003 0.004814 -0.000012
# 4 -0.000002 -0.000003 0.000003 0.031057 0.000000 -0.003474
# 5 0.002058 -0.005721 0.004814 0.000000 0.035370 -0.000004
# 6 0.000020 -0.000004 -0.000012 -0.003474 -0.000004 0.041878
#
#
# Mechanical properties :
#
#
# Convention : Reuss Voigt Hill
#
# Bulk Modulus (GPa) = 63.65664 75.46024 69.55844
# Shear Modulus (GPa) = 20.97846 24.54861 22.76354
#
# Velocity S-wave (km/s) = 3.47331 3.75725 3.61807
# Velocity P-wave (km/s) = 7.25889 7.88776 7.57985
#
# Compressibility (1/GPa) = 0.01570928
#
# Stress axis : x y z
#
# Youngs Moduli (GPa) = 34.28870 45.05075 52.93140
#
# Poissons Ratio (x) = 0.29703 0.68062
# Poissons Ratio (y) = 0.22607 0.41394
# Poissons Ratio (z) = 0.44090 0.35231
#
# Static dielectric constant tensor:
#      x y z
#    x 3.142060 0.000000 -0.131340 
#    y 0.000000 3.287610 0.000000 
#    z -0.131340 0.000000 3.337430 
# 
# 
# High freq. dielectric constant tensor:
#      x y z
#    x 1.655010 0.000000 -0.003140 
#    y 0.000000 1.674680 0.000000 
#    z -0.003140 0.000000 1.679360 
# 
# From -- ./inp_files/237848.got.cif
#   From: 2010.06.25/outbox.cif.g09.slc.cpg/sg12_119_cif.got.tgz:237848.got - 2010.06.28 00:19:55.
