data_PCOD8095555
_publ_section_title
;
Structure prediction by ZEFSAII (Michael W. Deem and Ramdas Pophale) SiO2 
 PCOD8095555
Probable space group: C 2/M
;
_chemical_formula_sum "Si O2"
_cell_formula_units_Z 40
_cell_length_a 8.512988
_cell_length_b 19.846673
_cell_length_c 13.939136
_cell_angle_alpha 90.000000
_cell_angle_beta 61.603768
_cell_angle_gamma 90.000000
_cell_volume 2071.716070
_symmetry_space_group_name_H-M "C 2/M"
_symmetry_group_IT_number 12
_symmetry_cell_setting 'monoclinic'
loop_
_space_group_symop_operation_xyz
x,y,z
-x,y,-z
-x,-y,-z
x,-y,z
1/2+x,1/2+y,z
1/2-x,1/2+y,-z
1/2-x,1/2-y,-z
1/2+x,1/2-y,z
loop_
_atom_site_type_symbol
_atom_site_label
_atom_site_fract_x
_atom_site_fract_y
_atom_site_fract_z
Si Si1 0.634048 0.683486 0.039764
Si Si2 0.818084 0.825540 0.492638
Si Si3 0.849916 0.809232 0.273465
Si Si4 0.415201 0.077710 0.920804
Si Si5 0.969777 0.338073 0.286094
O O1 0.530668 0.667269 0.168329
O O2 0.500000 0.706233 0.000000
O O3 0.750000 0.750000 0.000000
O O4 0.727977 0.615274 0.979350
O O5 0.750000 0.750000 0.500000
O O6 0.846660 0.850839 0.374919
O O7 0.658911 0.867350 0.591787
O O8 0.000000 0.829657 0.500000
O O9 0.867973 0.729052 0.280903
O O10 0.670177 0.824346 0.265371
O O11 0.533399 0.110040 0.801600
O O12 0.383834 0.000000 0.905443
O O13 0.500000 0.088737 0.000000
#
# Coordination Sequence:
#
# PCOD8095555 Si02
#       5
#     8   8   8   8   8
#     4  12  22  37  61  94 122 155 200 250 301 361
#     4  10  20  32  55  88 121 154 189 246 306 355
#     4  11  20  34  57  93 121 154 191 251 300 348
#     4  11  26  42  60  85 123 166 202 248 305 364
#     4  11  21  37  59  87 124 154 199 245 304 361
#
# _framework density 19.307665
#
# number of rings (size 3 to 8) (size 9 to 14) (size 15 to 20)
#    0.000    1.000    4.000    6.000    5.600    0.400 
#    0.000    0.000    0.000    4.200    0.000    0.000 
#    0.000    0.000    0.000    0.000    0.000    0.000 
#
# Total GULP energy -247799.729391 kJ/mol
# GULP energy per Si atom -12389.986470 kJ/mol
# Density = 1.926372 g / cm^3
# Si number density = 19.307665 Si / 1000 Ang^3
#
#
#
# Elastic Constant Matrix: (Units=GPa)
#
#
# Indices 1 2 3 4 5 6 
#
# 1 117.8454 42.0539 47.6522 0.0000 -0.9435 0.0000
# 2 42.0539 88.9302 58.5516 0.0000 2.3253 0.0000
# 3 47.6522 58.5516 213.8627 0.0000 -10.0149 0.0000
# 4 0.0000 0.0000 0.0000 30.3065 0.0000 21.1930
# 5 -0.9435 2.3253 -10.0149 0.0000 38.4653 0.0000
# 6 0.0000 0.0000 0.0000 21.1930 0.0000 58.4025
#
#
#
# Elastic Compliance Matrix: (Units=1/GPa)
#
#
# Indices 1 2 3 4 5 6 
#
# 1 0.010452 -0.004173 -0.001177 0.000000 0.000202 0.000000
# 2 -0.004173 0.015512 -0.003407 0.000000 -0.001927 0.000000
# 3 -0.001177 -0.003407 0.005952 0.000000 0.001727 0.000000
# 4 0.000000 0.000000 0.000000 0.044217 0.000000 -0.016045
# 5 0.000202 -0.001927 0.001727 0.000000 0.026568 0.000000
# 6 0.000000 0.000000 0.000000 -0.016045 0.000000 0.022945
#
#
# Mechanical properties :
#
#
# Convention : Reuss Voigt Hill
#
# Bulk Modulus (GPa) = 69.43771 79.68374 74.56073
# Shear Modulus (GPa) = 33.79253 43.59356 38.69304
#
# Velocity S-wave (km/s) = 4.18809 4.75683 4.48149
# Velocity P-wave (km/s) = 7.70900 8.45754 8.09193
#
# Compressibility (1/GPa) = 0.01440140
#
# Stress axis : x y z
#
# Youngs Moduli (GPa) = 95.67115 64.46637 168.01486
#
# Poissons Ratio (x) = 0.26903 0.19775
# Poissons Ratio (y) = 0.39925 0.57247
# Poissons Ratio (z) = 0.11260 0.21965
#
# Static dielectric constant tensor:
#      x y z
#    x 3.749440 0.000000 0.068050 
#    y 0.000000 3.077780 0.000000 
#    z 0.068050 0.000000 4.928580 
# 
# 
# High freq. dielectric constant tensor:
#      x y z
#    x 1.764540 0.000000 0.000820 
#    y 0.000000 1.685450 0.000000 
#    z 0.000820 0.000000 1.790600 
# 
# From -- ./inp_files/196391.got.cif
#   From: 2010.06.25/outbox.cif.g09.slc.cpg/sg12_99_cif.got.tgz:196391.got - 2010.06.28 00:19:55.
