data_PCOD8095045
_publ_section_title
;
Structure prediction by ZEFSAII (Michael W. Deem and Ramdas Pophale) SiO2 
 PCOD8095045
Probable space group: C 2/M
;
_chemical_formula_sum "Si O2"
_cell_formula_units_Z 56
_cell_length_a 27.231466
_cell_length_b 12.975203
_cell_length_c 9.481902
_cell_angle_alpha 90.000000
_cell_angle_beta 59.344072
_cell_angle_gamma 90.000000
_cell_volume 2882.057659
_symmetry_space_group_name_H-M "C 2/M"
_symmetry_group_IT_number 12
_symmetry_cell_setting 'monoclinic'
loop_
_space_group_symop_operation_xyz
x,y,z
-x,y,-z
-x,-y,-z
x,-y,z
1/2+x,1/2+y,z
1/2-x,1/2+y,-z
1/2-x,1/2-y,-z
1/2+x,1/2-y,z
loop_
_atom_site_type_symbol
_atom_site_label
_atom_site_fract_x
_atom_site_fract_y
_atom_site_fract_z
Si Si1 0.652686 0.885425 0.981336
Si Si2 0.284567 0.114727 0.555029
Si Si3 0.975028 0.385562 0.893651
Si Si4 0.828802 0.768133 0.270813
Si Si5 0.532672 0.255399 0.590839
Si Si6 0.556764 0.619576 0.826043
Si Si7 0.632057 0.116608 0.326906
O O1 0.687222 0.798714 0.845163
O O2 0.681422 0.000000 0.935151
O O3 0.592318 0.891637 0.990966
O O4 0.645831 0.845441 0.149933
O O5 0.217986 0.142551 0.649590
O O6 0.324177 0.191837 0.409450
O O7 0.307897 0.117883 0.679712
O O8 0.290800 0.000000 0.481776
O O9 0.001593 0.500000 0.838658
O O10 0.990589 0.322576 0.731959
O O11 0.000000 0.333269 0.000000
O O12 0.891729 0.817668 0.175696
O O13 0.500000 0.298927 0.500000
O O14 0.548423 0.347467 0.674809
O O15 0.588813 0.194533 0.463283
O O16 0.573228 0.500000 0.801815
O O17 0.500000 0.639762 0.000000
O O18 0.606288 0.000000 0.360645
#
# Coordination Sequence:
#
# PCOD8095045 Si02
#       7
#     8   8   8   8   8   8   8
#     4  10  20  34  54  84 121 154 189 235 288 349
#     4  10  22  39  62  90 116 151 199 248 295 345
#     4  10  20  31  49  83 121 155 193 234 285 350
#     4  11  21  39  65  87 115 157 199 245 294 347
#     4  12  21  34  59  84 118 160 197 238 292 358
#     4  11  25  43  62  86 117 155 201 250 297 347
#     4  10  21  36  55  87 125 155 187 237 295 351
#
# _framework density 19.430561000000001
#
# number of rings (size 3 to 8) (size 9 to 14) (size 15 to 20)
#    0.000    1.429    2.857    3.429    0.000    1.429 
#    0.000    0.000    0.000    0.429    0.000    0.000 
#    0.000    0.000    0.000    0.000    0.000    0.000 
#
# Total GULP energy -347195.573200 kJ/mol
# GULP energy per Si atom -12399.841900 kJ/mol
# Density = 1.938634 g / cm^3
# Si number density = 19.430561 Si / 1000 Ang^3
#
#
#
# Elastic Constant Matrix: (Units=GPa)
#
#
# Indices 1 2 3 4 5 6 
#
# 1 79.2840 32.3367 34.0736 0.0000 6.1650 0.0000
# 2 32.3367 101.7074 38.5539 0.0000 0.0162 0.0000
# 3 34.0736 38.5539 93.3477 0.0000 14.5639 0.0000
# 4 0.0000 0.0000 0.0000 23.7469 0.0000 11.8738
# 5 6.1650 0.0162 14.5639 0.0000 35.0049 0.0000
# 6 0.0000 0.0000 0.0000 11.8738 0.0000 1.0091
#
#
#
# Elastic Compliance Matrix: (Units=1/GPa)
#
#
# Indices 1 2 3 4 5 6 
#
# 1 0.015919 -0.003462 -0.004217 0.000000 -0.001047 0.000000
# 2 -0.003462 0.012562 -0.004297 0.000000 0.002392 0.000000
# 3 -0.004217 -0.004297 0.014876 0.000000 -0.005445 0.000000
# 4 0.000000 0.000000 0.000000 -0.008623 0.000000 0.101465
# 5 -0.001047 0.002392 -0.005445 0.000000 0.031016 0.000000
# 6 0.000000 0.000000 0.000000 0.101465 0.000000 -0.202924
#
#
# Mechanical properties :
#
#
# Convention : Reuss Voigt Hill
#
# Bulk Modulus (GPa) = 51.53940 53.80751 52.67345
# Shear Modulus (GPa) = -46.83737 23.24384 -11.79677
#
# Velocity S-wave (km/s) = -4.91501 3.46244 -2.46666
# Velocity P-wave (km/s) = 2.37219 6.61339 4.36519
#
# Compressibility (1/GPa) = 0.01940263
#
# Stress axis : x y z
#
# Youngs Moduli (GPa) = 62.81818 79.60760 67.22073
#
# Poissons Ratio (x) = 0.27564 0.28349
# Poissons Ratio (y) = 0.21751 0.28888
# Poissons Ratio (z) = 0.26492 0.34211
#
# Static dielectric constant tensor:
#      x y z
#    x 3.418600 0.000000 0.147590 
#    y 0.000000 3.630920 0.000000 
#    z 0.147590 0.000000 3.506710 
# 
# 
# High freq. dielectric constant tensor:
#      x y z
#    x 1.750630 0.000000 0.012500 
#    y 0.000000 1.754480 0.000000 
#    z 0.012500 0.000000 1.752690 
# 
# From -- ./inp_files/96774.got.cif
#   From: 2010.06.25/outbox.cif.g09.slc.cpg/sg12_49_cif.got.tgz:96774.got - 2010.06.28 00:19:55.
