data_PCOD8095324
_publ_section_title
;
Structure prediction by ZEFSAII (Michael W. Deem and Ramdas Pophale) SiO2 
 PCOD8095324
Probable space group: C 2/M
;
_chemical_formula_sum "Si O2"
_cell_formula_units_Z 56
_cell_length_a 33.465536
_cell_length_b 9.353199
_cell_length_c 12.472054
_cell_angle_alpha 90.000000
_cell_angle_beta 120.119358
_cell_angle_gamma 90.000000
_cell_volume 3376.781637
_symmetry_space_group_name_H-M "C 2/M"
_symmetry_group_IT_number 12
_symmetry_cell_setting 'monoclinic'
loop_
_space_group_symop_operation_xyz
x,y,z
-x,y,-z
-x,-y,-z
x,-y,z
1/2+x,1/2+y,z
1/2-x,1/2+y,-z
1/2-x,1/2-y,-z
1/2+x,1/2-y,z
loop_
_atom_site_type_symbol
_atom_site_label
_atom_site_fract_x
_atom_site_fract_y
_atom_site_fract_z
Si Si1 0.950842 0.832849 0.889295
Si Si2 0.392135 0.166347 0.972619
Si Si3 0.038392 0.164792 0.340183
Si Si4 0.801457 0.836390 0.170552
Si Si5 0.800477 0.334007 0.955605
Si Si6 0.446934 0.830981 0.260416
Si Si7 0.102205 0.836919 0.619699
O O1 0.946762 0.792397 0.759347
O O2 0.945002 0.000000 0.902872
O O3 0.909680 0.753441 0.894446
O O4 0.000000 0.778222 0.000000
O O5 0.420341 0.211591 0.116362
O O6 0.398889 0.000000 0.957035
O O7 0.338118 0.207256 0.916204
O O8 0.082523 0.192211 0.475000
O O9 0.997557 0.263967 0.326869
O O10 0.021821 0.000000 0.321596
O O11 0.751478 0.794831 0.154311
O O12 0.842396 0.810220 0.311256
O O13 0.799923 0.000000 0.130732
O O14 0.812579 0.745655 0.080976
O O15 0.805945 0.500000 0.990339
O O16 0.420109 0.769621 0.325728
O O17 0.451129 0.000000 0.279816
O O18 0.091498 0.000000 0.641052
#
# Coordination Sequence:
#
# PCOD8095324 Si02
#       7
#     8   8   8   8   8   8   8
#     4  10  20  34  52  70  90 124 167 207 239 274
#     4  10  20  32  49  72 100 128 154 195 245 287
#     4  10  21  36  50  68  97 130 165 203 240 280
#     4   9  17  29  49  73  96 125 160 193 233 287
#     4   9  17  31  48  71 100 126 154 194 241 283
#     4  11  21  32  48  73 102 131 160 193 238 291
#     4  10  20  33  50  72  99 131 162 195 238 288
#
# _framework density 16.583838
#
# number of rings (size 3 to 8) (size 9 to 14) (size 15 to 20)
#    0.000    2.143    2.857    0.857    0.000    4.286 
#    0.000    0.000    0.000    0.857    0.000    0.000 
#    0.000    0.000    0.000    0.000    0.000    0.000 
#
# Total GULP energy -347183.152221 kJ/mol
# GULP energy per Si atom -12399.398294 kJ/mol
# Density = 1.654609 g / cm^3
# Si number density = 16.583838 Si / 1000 Ang^3
#
#
#
# Elastic Constant Matrix: (Units=GPa)
#
#
# Indices 1 2 3 4 5 6 
#
# 1 130.6214 41.9945 63.1844 0.0000 12.3888 0.0000
# 2 41.9945 45.1692 33.7288 0.0000 4.7530 0.0000
# 3 63.1844 33.7288 103.7290 0.0000 10.1524 0.0000
# 4 0.0000 0.0000 0.0000 18.9990 0.0000 -4.4931
# 5 12.3888 4.7530 10.1524 0.0000 22.5995 0.0000
# 6 0.0000 0.0000 0.0000 -4.4931 0.0000 26.9997
#
#
#
# Elastic Compliance Matrix: (Units=1/GPa)
#
#
# Indices 1 2 3 4 5 6 
#
# 1 0.012923 -0.007970 -0.004970 0.000000 -0.003176 0.000000
# 2 -0.007970 0.034237 -0.006277 0.000000 -0.000012 0.000000
# 3 -0.004970 -0.006277 0.014971 0.000000 -0.002681 0.000000
# 4 0.000000 0.000000 0.000000 0.054791 0.000000 0.009118
# 5 -0.003176 -0.000012 -0.002681 0.000000 0.047196 0.000000
# 6 0.000000 0.000000 0.000000 0.009118 0.000000 0.038555
#
#
# Mechanical properties :
#
#
# Convention : Reuss Voigt Hill
#
# Bulk Modulus (GPa) = 42.19631 61.92613 52.06122
# Shear Modulus (GPa) = 20.07998 23.09377 21.58687
#
# Velocity S-wave (km/s) = 3.48345 3.73573 3.61180
# Velocity P-wave (km/s) = 6.45591 7.48531 6.98959
#
# Compressibility (1/GPa) = 0.02369875
#
# Stress axis : x y z
#
# Youngs Moduli (GPa) = 77.38128 29.20832 66.79592
#
# Poissons Ratio (x) = 0.23278 0.33194
# Poissons Ratio (y) = 0.61671 0.41926
# Poissons Ratio (z) = 0.38455 0.18333
#
# Static dielectric constant tensor:
#      x y z
#    x 3.273170 0.000000 0.204430 
#    y 0.000000 3.129100 0.000000 
#    z 0.204430 0.000000 3.085390 
# 
# 
# High freq. dielectric constant tensor:
#      x y z
#    x 1.639380 0.000000 0.013100 
#    y 0.000000 1.640620 0.000000 
#    z 0.013100 0.000000 1.619790 
# 
# From -- ./inp_files/186835.got.cif
#   From: 2010.06.25/outbox.cif.g09.slc.cpg/sg12_94_cif.got.tgz:186835.got - 2010.06.28 00:19:55.
