data_PCOD8095855
_publ_section_title
;
Structure prediction by ZEFSAII (Michael W. Deem and Ramdas Pophale) SiO2 
 PCOD8095855
Probable space group: C 2/M
;
_chemical_formula_sum "Si O2"
_cell_formula_units_Z 52
_cell_length_a 17.301102
_cell_length_b 16.786087
_cell_length_c 14.387827
_cell_angle_alpha 90.000000
_cell_angle_beta 43.483632
_cell_angle_gamma 90.000000
_cell_volume 2875.410604
_symmetry_space_group_name_H-M "C 2/M"
_symmetry_group_IT_number 12
_symmetry_cell_setting 'monoclinic'
loop_
_space_group_symop_operation_xyz
x,y,z
-x,y,-z
-x,-y,-z
x,-y,z
1/2+x,1/2+y,z
1/2-x,1/2+y,-z
1/2-x,1/2-y,-z
1/2+x,1/2-y,z
loop_
_atom_site_type_symbol
_atom_site_label
_atom_site_fract_x
_atom_site_fract_y
_atom_site_fract_z
Si Si1 0.121343 0.410036 0.515601
Si Si2 0.000000 0.709933 0.500000
Si Si3 0.661703 0.092630 0.769586
Si Si4 0.671418 0.408784 0.538011
Si Si5 0.971850 0.644129 0.810414
Si Si6 0.546358 0.302758 0.277141
Si Si7 0.760803 0.591755 0.097302
O O1 0.119883 0.500000 0.477156
O O2 0.098936 0.346945 0.453238
O O3 0.241843 0.389578 0.454766
O O4 0.025624 0.403761 0.677751
O O5 0.947494 0.765212 0.625414
O O6 0.770570 0.108397 0.611360
O O7 0.554570 0.141466 0.826697
O O8 0.689481 0.122325 0.848351
O O9 0.627460 0.000000 0.796908
O O10 0.630779 0.500000 0.578703
O O11 0.566937 0.351430 0.638753
O O12 0.950976 0.735614 0.803589
O O13 0.853313 0.603461 0.936965
O O14 0.650978 0.359210 0.167287
O O15 0.725180 0.500000 0.136068
#
# Coordination Sequence:
#
# PCOD8095855 Si02
#       7
#     8   4   8   8   8   8   8
#     4   9  18  34  55  75  97 129 168 205 240 284
#     4  10  21  32  49  76 104 128 160 208 251 284
#     4   9  18  32  53  76  96 125 164 204 242 284
#     4   9  18  34  53  73  99 130 163 197 241 298
#     4  10  20  33  50  74 101 128 163 205 246 286
#     4  11  22  33  48  74 105 133 159 196 248 297
#     4  11  21  34  52  72  99 132 166 201 239 292
#
# _framework density 18.084374
#
# number of rings (size 3 to 8) (size 9 to 14) (size 15 to 20)
#    0.000    2.154    0.000    4.846    0.000    8.000 
#    0.000    3.077    0.000    0.000    0.000    0.000 
#    0.000   24.615    0.000    0.000    0.000    0.000 
#
# Total GULP energy -322475.099775 kJ/mol
# GULP energy per Si atom -12402.888453 kJ/mol
# Density = 1.804321 g / cm^3
# Si number density = 18.084374 Si / 1000 Ang^3
#
#
#
# Elastic Constant Matrix: (Units=GPa)
#
#
# Indices 1 2 3 4 5 6 
#
# 1 94.0050 51.7333 41.3622 0.0000 -12.7382 0.0000
# 2 51.7333 84.5681 27.0071 0.0000 -12.0765 0.0000
# 3 41.3622 27.0071 56.5922 0.0000 -18.4251 0.0000
# 4 0.0000 0.0000 0.0000 30.7278 0.0000 -1.9227
# 5 -12.7382 -12.0765 -18.4251 0.0000 19.1702 0.0000
# 6 0.0000 0.0000 0.0000 -1.9227 0.0000 34.1325
#
#
#
# Elastic Compliance Matrix: (Units=1/GPa)
#
#
# Indices 1 2 3 4 5 6 
#
# 1 0.020357 -0.009243 -0.011584 0.000000 -0.003430 0.000000
# 2 -0.009243 0.018309 -0.000329 0.000000 0.005076 0.000000
# 3 -0.011584 -0.000329 0.034524 0.000000 0.025277 0.000000
# 4 0.000000 0.000000 0.000000 0.032659 0.000000 0.001840
# 5 -0.003430 0.005076 0.025277 0.000000 0.077377 0.000000
# 6 0.000000 0.000000 0.000000 0.001840 0.000000 0.029401
#
#
# Mechanical properties :
#
#
# Convention : Reuss Voigt Hill
#
# Bulk Modulus (GPa) = 32.38732 52.81896 42.60314
# Shear Modulus (GPa) = 18.85139 24.47694 21.66416
#
# Velocity S-wave (km/s) = 3.23214 3.68297 3.46490
# Velocity P-wave (km/s) = 5.64596 6.88157 6.29416
#
# Compressibility (1/GPa) = 0.03087629
#
# Stress axis : x y z
#
# Youngs Moduli (GPa) = 49.12365 54.61713 28.96569
#
# Poissons Ratio (x) = 0.50485 0.33554
# Poissons Ratio (y) = 0.45407 0.00954
# Poissons Ratio (z) = 0.56905 0.01798
#
# Static dielectric constant tensor:
#      x y z
#    x 3.375700 0.000000 0.035620 
#    y 0.000000 3.380900 0.000000 
#    z 0.035620 0.000000 3.176140 
# 
# 
# High freq. dielectric constant tensor:
#      x y z
#    x 1.701550 0.000000 -0.005460 
#    y 0.000000 1.704150 0.000000 
#    z -0.005460 0.000000 1.684190 
# 
# From -- ./inp_files/157753.got.cif
#   From: 2010.06.25/outbox.cif.g09.slc.cpg/sg12_79_cif.got.tgz:157753.got - 2010.06.28 00:19:55.
