data_PCOD8095866
_publ_section_title
;
Structure prediction by ZEFSAII (Michael W. Deem and Ramdas Pophale) SiO2 
 PCOD8095866
Probable space group: C 2/M
;
_chemical_formula_sum "Si O2"
_cell_formula_units_Z 56
_cell_length_a 14.372122
_cell_length_b 8.868869
_cell_length_c 27.929579
_cell_angle_alpha 90.000000
_cell_angle_beta 57.819267
_cell_angle_gamma 90.000000
_cell_volume 3013.109891
_symmetry_space_group_name_H-M "C 2/M"
_symmetry_group_IT_number 12
_symmetry_cell_setting 'monoclinic'
loop_
_space_group_symop_operation_xyz
x,y,z
-x,y,-z
-x,-y,-z
x,-y,z
1/2+x,1/2+y,z
1/2-x,1/2+y,-z
1/2-x,1/2-y,-z
1/2+x,1/2-y,z
loop_
_atom_site_type_symbol
_atom_site_label
_atom_site_fract_x
_atom_site_fract_y
_atom_site_fract_z
Si Si1 0.328886 0.821067 0.052020
Si Si2 0.742302 0.821535 0.651643
Si Si3 0.090519 0.177493 0.141300
Si Si4 0.812663 0.325297 0.439709
Si Si5 0.944578 0.679436 0.652215
Si Si6 0.011551 0.821185 0.730412
Si Si7 0.485687 0.822059 0.927932
O O1 0.209609 0.752031 0.095867
O O2 0.409948 0.762487 0.071162
O O3 0.325453 0.000000 0.055350
O O4 0.375289 0.771665 0.987216
O O5 0.746707 0.783874 0.593935
O O6 0.847462 0.747774 0.647410
O O7 0.632117 0.749847 0.703417
O O8 0.740597 0.000000 0.661404
O O9 0.006286 0.245746 0.126068
O O10 0.055900 0.223823 0.203951
O O11 0.090340 0.000000 0.135599
O O12 0.806290 0.500000 0.451151
O O13 0.750000 0.250000 0.500000
O O14 0.939942 0.273994 0.403910
O O15 0.932085 0.500000 0.659667
O O16 0.942984 0.749730 0.705613
O O17 0.022039 0.000000 0.720416
O O18 0.489151 0.000000 0.920369
#
# Coordination Sequence:
#
# PCOD8095866 Si02
#       7
#     8   8   8   8   8   8   8
#     4   8  16  32  50  70  99 133 167 205 253 313
#     4  10  21  38  58  80 107 143 182 221 267 316
#     4  10  20  33  50  74 103 131 165 212 264 310
#     4   9  20  36  55  82 114 144 177 217 259 306
#     4  10  21  38  58  81 109 143 181 221 265 314
#     4  10  21  36  53  76 106 142 181 224 269 314
#     4   9  17  31  52  73  96 132 172 206 250 309
#
# _framework density 18.585449000000001
#
# number of rings (size 3 to 8) (size 9 to 14) (size 15 to 20)
#    0.000    2.571    0.000    3.429    0.000    6.286 
#    0.000    6.429    0.000    0.000    0.000    0.000 
#    0.000    0.000    0.000    0.000    0.000    0.000 
#
# Total GULP energy -347142.237259 kJ/mol
# GULP energy per Si atom -12397.937045 kJ/mol
# Density = 1.854315 g / cm^3
# Si number density = 18.585449 Si / 1000 Ang^3
#
#
#
# Elastic Constant Matrix: (Units=GPa)
#
#
# Indices 1 2 3 4 5 6 
#
# 1 120.5524 40.0384 52.7725 0.0000 11.9044 0.0000
# 2 40.0384 56.5317 49.7942 0.0000 6.7918 0.0000
# 3 52.7725 49.7942 118.8164 0.0000 12.1437 0.0000
# 4 0.0000 0.0000 0.0000 29.8715 0.0000 4.7437
# 5 11.9044 6.7918 12.1437 0.0000 19.9481 0.0000
# 6 0.0000 0.0000 0.0000 4.7437 0.0000 32.3879
#
#
#
# Elastic Compliance Matrix: (Units=1/GPa)
#
#
# Indices 1 2 3 4 5 6 
#
# 1 0.011575 -0.005649 -0.002415 0.000000 -0.003515 0.000000
# 2 -0.005649 0.030919 -0.010362 0.000000 -0.000848 0.000000
# 3 -0.002415 -0.010362 0.014207 0.000000 -0.003680 0.000000
# 4 0.000000 0.000000 0.000000 0.034274 0.000000 -0.005020
# 5 -0.003515 -0.000848 -0.003680 0.000000 0.054756 0.000000
# 6 0.000000 0.000000 0.000000 -0.005020 0.000000 0.031611
#
#
# Mechanical properties :
#
#
# Convention : Reuss Voigt Hill
#
# Bulk Modulus (GPa) = 50.37652 64.56784 57.47218
# Shear Modulus (GPa) = 22.64373 26.66120 24.65246
#
# Velocity S-wave (km/s) = 3.49429 3.79161 3.64598
# Velocity P-wave (km/s) = 6.59122 7.34745 6.97958
#
# Compressibility (1/GPa) = 0.01985052
#
# Stress axis : x y z
#
# Youngs Moduli (GPa) = 86.38980 32.34239 70.38572
#
# Poissons Ratio (x) = 0.18271 0.16995
# Poissons Ratio (y) = 0.48804 0.72933
# Poissons Ratio (z) = 0.20859 0.33513
#
# Static dielectric constant tensor:
#      x y z
#    x 3.638550 0.000000 -0.180860 
#    y 0.000000 3.266280 0.000000 
#    z -0.180860 0.000000 3.990540 
# 
# 
# High freq. dielectric constant tensor:
#      x y z
#    x 1.728010 0.000000 0.003950 
#    y 0.000000 1.711480 0.000000 
#    z 0.003950 0.000000 1.722920 
# 
# From -- ./inp_files/359642.got.cif
#   From: 2010.06.25/outbox.cif.g09.slc.cpg/sg12_180_cif.got.tgz:359642.got - 2010.06.28 00:19:55.
