data_PCOD8095436
_publ_section_title
;
Structure prediction by ZEFSAII (Michael W. Deem and Ramdas Pophale) SiO2 
 PCOD8095436
Probable space group: C 2/M
;
_chemical_formula_sum "Si O2"
_cell_formula_units_Z 64
_cell_length_a 15.550873
_cell_length_b 8.949244
_cell_length_c 30.930770
_cell_angle_alpha 90.000000
_cell_angle_beta 50.061387
_cell_angle_gamma 90.000000
_cell_volume 3300.470346
_symmetry_space_group_name_H-M "C 2/M"
_symmetry_group_IT_number 12
_symmetry_cell_setting 'monoclinic'
loop_
_space_group_symop_operation_xyz
x,y,z
-x,y,-z
-x,-y,-z
x,-y,z
1/2+x,1/2+y,z
1/2-x,1/2+y,-z
1/2-x,1/2-y,-z
1/2+x,1/2-y,z
loop_
_atom_site_type_symbol
_atom_site_label
_atom_site_fract_x
_atom_site_fract_y
_atom_site_fract_z
Si Si1 0.737919 0.170724 0.180566
Si Si2 0.160328 0.677158 0.379060
Si Si3 0.808521 0.176524 0.250094
Si Si4 0.441433 0.322515 0.821887
Si Si5 0.736639 0.827069 0.571720
Si Si6 0.213551 0.830778 0.054507
Si Si7 0.575336 0.672957 0.560726
Si Si8 0.875449 0.834675 0.056596
O O1 0.764391 0.243632 0.218801
O O2 0.633505 0.252674 0.191865
O O3 0.853598 0.181050 0.115123
O O4 0.700152 0.000000 0.198615
O O5 0.147866 0.500000 0.388472
O O6 0.221650 0.722672 0.315068
O O7 0.235071 0.739930 0.393798
O O8 0.038798 0.751257 0.417879
O O9 0.931782 0.238681 0.222659
O O10 0.819609 0.000000 0.241632
O O11 0.432623 0.500000 0.819490
O O12 0.397871 0.274738 0.884148
O O13 0.624921 0.755266 0.586920
O O14 0.840354 0.808591 0.506130
O O15 0.712227 0.000000 0.589834
O O16 0.312872 0.804699 0.056053
O O17 0.199434 0.000000 0.045751
O O18 0.250000 0.750000 0.000000
O O19 0.554589 0.500000 0.578749
O O20 0.830202 0.000000 0.056910
O O21 0.000000 0.818726 0.000000
#
# Coordination Sequence:
#
# PCOD8095436 Si02
#       8
#     8   8   8   8   8   8   8   8
#     4   9  18  35  56  76 104 137 177 224 268 322
#     4  11  22  36  56  85 118 151 191 236 282 334
#     4   9  20  37  57  79 105 147 190 224 269 328
#     4   9  19  37  57  75 103 140 179 221 271 326
#     4  10  21  38  60  86 117 153 192 234 282 333
#     4  10  20  32  51  76 104 134 168 215 269 325
#     4  10  21  38  60  86 117 153 191 233 283 336
#     4   9  18  31  52  78 101 131 171 212 265 328
#
# _framework density 19.391175
#
# number of rings (size 3 to 8) (size 9 to 14) (size 15 to 20)
#    0.000    2.375    0.000    1.875    1.750    4.750 
#    0.000    5.625    0.000    0.000    0.000    0.000 
#    0.000    0.000    0.000    0.000    0.000    0.000 
#
# Total GULP energy -396602.937998 kJ/mol
# GULP energy per Si atom -12393.841812 kJ/mol
# Density = 1.934704 g / cm^3
# Si number density = 19.391175 Si / 1000 Ang^3
#
#
#
# Elastic Constant Matrix: (Units=GPa)
#
#
# Indices 1 2 3 4 5 6 
#
# 1 95.8837 27.2848 30.5180 -0.0001 16.9668 0.0003
# 2 27.2848 61.1543 29.2986 -0.0001 5.4529 0.0004
# 3 30.5180 29.2986 62.6637 -0.0001 16.0379 0.0001
# 4 -0.0001 -0.0001 -0.0001 22.2869 0.0000 1.5867
# 5 16.9668 5.4529 16.0379 0.0000 29.9425 0.0000
# 6 0.0003 0.0004 0.0001 1.5867 0.0000 33.4041
#
#
#
# Elastic Compliance Matrix: (Units=1/GPa)
#
#
# Indices 1 2 3 4 5 6 
#
# 1 0.013553 -0.003938 -0.003450 0.000000 -0.005115 0.000000
# 2 -0.003938 0.022289 -0.009312 0.000000 0.003160 0.000000
# 3 -0.003450 -0.009312 0.024403 0.000000 -0.009420 0.000000
# 4 0.000000 0.000000 0.000000 0.045022 0.000000 -0.002139
# 5 -0.005115 0.003160 -0.009420 0.000000 0.040766 0.000000
# 6 0.000000 0.000000 0.000000 -0.002139 0.000000 0.030038
#
#
# Mechanical properties :
#
#
# Convention : Reuss Voigt Hill
#
# Bulk Modulus (GPa) = 37.25158 43.76717 40.50938
# Shear Modulus (GPa) = 22.89174 25.96670 24.42922
#
# Velocity S-wave (km/s) = 3.43960 3.66334 3.55323
# Velocity P-wave (km/s) = 5.91834 6.36499 6.14572
#
# Compressibility (1/GPa) = 0.02684450
#
# Stress axis : x y z
#
# Youngs Moduli (GPa) = 73.78405 44.86603 40.97775
#
# Poissons Ratio (x) = 0.17667 0.14139
# Poissons Ratio (y) = 0.29054 0.38159
# Poissons Ratio (z) = 0.25458 0.41780
#
# Static dielectric constant tensor:
#      x y z
#    x 3.807720 0.000000 -0.333100 
#    y 0.000000 3.524430 0.000000 
#    z -0.333100 0.000000 2.514130 
# 
# 
# High freq. dielectric constant tensor:
#      x y z
#    x 1.753380 0.000000 0.003790 
#    y 0.000000 1.744370 0.000000 
#    z 0.003790 0.000000 1.760300 
# 
# From -- ./inp_files/375461.got.cif
#   From: 2010.06.25/outbox.cif.g09.slc.cpg/sg12_188_cif.got.tgz:375461.got - 2010.06.28 00:19:55.
