data_PCOD8095188
_publ_section_title
;
Structure prediction by ZEFSAII (Michael W. Deem and Ramdas Pophale) SiO2 
 PCOD8095188
Probable space group: C 2/M
;
_chemical_formula_sum "Si O2"
_cell_formula_units_Z 56
_cell_length_a 18.857853
_cell_length_b 10.055178
_cell_length_c 20.353121
_cell_angle_alpha 90.000000
_cell_angle_beta 59.073058
_cell_angle_gamma 90.000000
_cell_volume 3310.631760
_symmetry_space_group_name_H-M "C 2/M"
_symmetry_group_IT_number 12
_symmetry_cell_setting 'monoclinic'
loop_
_space_group_symop_operation_xyz
x,y,z
-x,y,-z
-x,-y,-z
x,-y,z
1/2+x,1/2+y,z
1/2-x,1/2+y,-z
1/2-x,1/2-y,-z
1/2+x,1/2-y,z
loop_
_atom_site_type_symbol
_atom_site_label
_atom_site_fract_x
_atom_site_fract_y
_atom_site_fract_z
Si Si1 0.114905 0.155279 0.757137
Si Si2 0.820655 0.853335 0.953999
Si Si3 0.975844 0.346579 0.585652
Si Si4 0.972636 0.845887 0.330842
Si Si5 0.206644 0.652005 0.282210
Si Si6 0.494544 0.342205 0.928119
Si Si7 0.159030 0.857423 0.207802
O O1 0.085730 0.209971 0.699958
O O2 0.212732 0.185321 0.713014
O O3 0.065556 0.215093 0.844336
O O4 0.094570 0.000000 0.766356
O O5 0.906180 0.797455 0.942053
O O6 0.823362 0.866982 0.875905
O O7 0.801522 0.000000 0.993559
O O8 0.750000 0.750000 0.000000
O O9 0.993844 0.500000 0.596133
O O10 0.877698 0.315015 0.638551
O O11 0.000000 0.316063 0.500000
O O12 0.033353 0.250587 0.602857
O O13 0.063313 0.827114 0.260017
O O14 0.952775 0.000000 0.359583
O O15 0.208840 0.500000 0.257574
O O16 0.213330 0.741860 0.214238
O O17 0.503092 0.500000 0.926776
O O18 0.500000 0.283798 0.000000
O O19 0.180643 0.000000 0.230999
#
# Coordination Sequence:
#
# PCOD8095188 Si02
#       7
#     8   8   8   8   8   8   8
#     4   9  16  29  48  71  96 121 158 206 241 271
#     4  10  20  32  47  68  94 123 158 198 243 286
#     4   9  18  33  50  71 102 131 153 185 234 289
#     4   9  16  30  52  72  92 121 159 199 237 277
#     4   9  18  30  50  75  93 119 162 198 229 275
#     4   9  17  29  46  69  95 124 159 200 245 281
#     4   9  17  31  47  65  93 125 154 193 243 285
#
# _framework density 16.915201
#
# number of rings (size 3 to 8) (size 9 to 14) (size 15 to 20)
#    0.000    2.857    1.429    0.000    2.000    0.857 
#    0.000    1.429    0.000    1.286    0.000    0.000 
#    0.000    0.000    0.000    0.000    0.000    0.000 
#
# Total GULP energy -346954.932481 kJ/mol
# GULP energy per Si atom -12391.247589 kJ/mol
# Density = 1.687670 g / cm^3
# Si number density = 16.915201 Si / 1000 Ang^3
#
#
#
# Elastic Constant Matrix: (Units=GPa)
#
#
# Indices 1 2 3 4 5 6 
#
# 1 125.1461 54.2168 51.8436 0.0001 13.0102 0.0000
# 2 54.2168 61.0932 32.2334 0.0004 7.3875 -0.0001
# 3 51.8436 32.2334 78.0800 0.0000 13.3754 0.0000
# 4 0.0001 0.0004 0.0000 -176.9862 0.0000 -20.0196
# 5 13.0102 7.3875 13.3754 0.0000 21.5706 0.0000
# 6 0.0000 -0.0001 0.0000 -20.0196 0.0000 19.7148
#
#
#
# Elastic Compliance Matrix: (Units=1/GPa)
#
#
# Indices 1 2 3 4 5 6 
#
# 1 0.014756 -0.010048 -0.005275 0.000000 -0.002188 0.000000
# 2 -0.010048 0.027847 -0.004732 0.000000 -0.000543 0.000000
# 3 -0.005275 -0.004732 0.019513 0.000000 -0.007298 0.000000
# 4 0.000000 0.000000 0.000000 -0.005068 0.000000 -0.005146
# 5 -0.002188 -0.000543 -0.007298 0.000000 0.052390 0.000000
# 6 0.000000 0.000000 0.000000 -0.005146 0.000000 0.045497
#
#
# Mechanical properties :
#
#
# Convention : Reuss Voigt Hill
#
# Bulk Modulus (GPa) = 45.43759 60.10076 52.76918
# Shear Modulus (GPa) = 24.70583 -18.73845 2.98369
#
# Velocity S-wave (km/s) = 3.82589 -3.33195 1.32956
# Velocity P-wave (km/s) = 6.81446 4.56127 5.79836
#
# Compressibility (1/GPa) = 0.02200821
#
# Stress axis : x y z
#
# Youngs Moduli (GPa) = 67.76733 35.91024 51.24667
#
# Poissons Ratio (x) = 0.36081 0.27034
# Poissons Ratio (y) = 0.68090 0.24248
# Poissons Ratio (z) = 0.35749 0.16991
#
# Static dielectric constant tensor:
#      x y z
#    x 3.289680 0.000000 0.101270 
#    y 0.000000 3.186770 0.000000 
#    z 0.101270 0.000000 3.027710 
# 
# 
# High freq. dielectric constant tensor:
#      x y z
#    x 1.653440 0.000000 0.005020 
#    y 0.000000 1.624920 0.000000 
#    z 0.005020 0.000000 1.642260 
# 
# From -- ./inp_files/268875.got.cif
#   From: 2010.06.25/outbox.cif.g09.slc.cpg/sg12_135_cif.got.tgz:268875.got - 2010.06.28 00:19:55.
