data_PCOD8095592
_publ_section_title
;
Structure prediction by ZEFSAII (Michael W. Deem and Ramdas Pophale) SiO2 
 PCOD8095592
Probable space group: C 2/M
;
_chemical_formula_sum "Si O2"
_cell_formula_units_Z 64
_cell_length_a 24.153013
_cell_length_b 9.338496
_cell_length_c 19.998061
_cell_angle_alpha 90.000000
_cell_angle_beta 57.639822
_cell_angle_gamma 90.000000
_cell_volume 3810.120442
_symmetry_space_group_name_H-M "C 2/M"
_symmetry_group_IT_number 12
_symmetry_cell_setting 'monoclinic'
loop_
_space_group_symop_operation_xyz
x,y,z
-x,y,-z
-x,-y,-z
x,-y,z
1/2+x,1/2+y,z
1/2-x,1/2+y,-z
1/2-x,1/2-y,-z
1/2+x,1/2-y,z
loop_
_atom_site_type_symbol
_atom_site_label
_atom_site_fract_x
_atom_site_fract_y
_atom_site_fract_z
Si Si1 0.108246 0.663174 0.677931
Si Si2 0.345168 0.333157 0.619452
Si Si3 0.480050 0.666991 0.779433
Si Si4 0.041515 0.168311 0.064460
Si Si5 0.460172 0.666968 0.644962
Si Si6 0.599090 0.669451 0.893456
Si Si7 0.802104 0.665212 0.259705
Si Si8 0.908514 0.332606 0.461595
O O1 0.085115 0.500000 0.701219
O O2 0.050087 0.760880 0.741174
O O3 0.171394 0.697249 0.682521
O O4 0.123734 0.694781 0.590208
O O5 0.349164 0.500000 0.596967
O O6 0.395979 0.293886 0.645019
O O7 0.273887 0.291553 0.692736
O O8 0.359414 0.238530 0.545518
O O9 0.494477 0.500000 0.772631
O O10 0.437549 0.711921 0.872892
O O11 0.444846 0.708204 0.732480
O O12 0.967529 0.223709 0.099137
O O13 0.038340 0.000000 0.056873
O O14 0.093311 0.222308 0.975183
O O15 0.478850 0.500000 0.625668
O O16 0.520414 0.758982 0.578263
O O17 0.609469 0.500000 0.880427
O O18 0.661451 0.744079 0.820227
O O19 0.811923 0.500000 0.234819
O O20 0.916966 0.500000 0.471839
#
# Coordination Sequence:
#
# PCOD8095592 Si02
#       8
#     8   8   8   8   8   8   8   8
#     4   9  18  31  45  66  95 121 146 184 233 273
#     4  10  21  35  48  65  91 124 158 190 224 266
#     4   9  15  27  49  72  91 116 151 188 226 269
#     4   8  14  25  45  72  97 117 144 186 230 266
#     4   9  18  32  51  71  90 117 155 193 227 266
#     4   9  16  28  46  69  96 122 148 185 226 268
#     4  10  20  33  47  64  94 129 155 183 222 271
#     4  10  20  33  50  71  92 114 148 196 239 273
#
# _framework density 16.797370000000001
#
# number of rings (size 3 to 8) (size 9 to 14) (size 15 to 20)
#    0.000    2.750    1.250    1.500    0.000    3.500 
#    0.000    1.875    0.000    0.750    0.000    0.000 
#    0.000    0.000    0.000    0.000    0.000    0.000 
#
# Total GULP energy -396605.915573 kJ/mol
# GULP energy per Si atom -12393.934862 kJ/mol
# Density = 1.675914 g / cm^3
# Si number density = 16.797370 Si / 1000 Ang^3
#
#
#
# Elastic Constant Matrix: (Units=GPa)
#
#
# Indices 1 2 3 4 5 6 
#
# 1 60.6106 28.7103 57.8376 0.0000 -4.9647 0.0000
# 2 28.7103 46.4364 52.1535 0.0004 -0.6167 -0.0007
# 3 57.8376 52.1535 148.1721 0.0001 6.0457 0.0000
# 4 0.0000 0.0004 0.0001 26.3215 -0.0001 -1.3251
# 5 -4.9647 -0.6167 6.0457 -0.0001 22.3019 0.0000
# 6 0.0000 -0.0007 0.0000 -1.3251 0.0000 16.8130
#
#
#
# Elastic Compliance Matrix: (Units=1/GPa)
#
#
# Indices 1 2 3 4 5 6 
#
# 1 0.029757 -0.007983 -0.009168 0.000000 0.008889 0.000000
# 2 -0.007983 0.038193 -0.010413 0.000000 0.002102 0.000002
# 3 -0.009168 -0.010413 0.014245 0.000000 -0.006191 0.000000
# 4 0.000000 0.000000 0.000000 0.038143 0.000000 0.003006
# 5 0.008889 0.002102 -0.006191 0.000000 0.048554 0.000000
# 6 0.000000 0.000002 0.000000 0.003006 0.000000 0.059715
#
#
# Mechanical properties :
#
#
# Convention : Reuss Voigt Hill
#
# Bulk Modulus (GPa) = 36.94462 59.18024 48.06243
# Shear Modulus (GPa) = 17.07892 20.85513 18.96702
#
# Velocity S-wave (km/s) = 3.19213 3.52742 3.36395
# Velocity P-wave (km/s) = 5.96894 7.20407 6.61539
#
# Compressibility (1/GPa) = 0.02706754
#
# Stress axis : x y z
#
# Youngs Moduli (GPa) = 33.60549 26.18261 70.19798
#
# Poissons Ratio (x) = 0.20901 0.64360
# Poissons Ratio (y) = 0.26827 0.73097
# Poissons Ratio (z) = 0.30811 0.27264
#
# Static dielectric constant tensor:
#      x y z
#    x 3.107290 0.000000 0.316460 
#    y 0.000000 3.050190 0.000000 
#    z 0.316460 0.000000 3.368880 
# 
# 
# High freq. dielectric constant tensor:
#      x y z
#    x 1.627310 0.000000 0.024180 
#    y 0.000000 1.635650 0.000000 
#    z 0.024180 0.000000 1.649480 
# 
# From -- ./inp_files/324154.got.cif
#   From: 2010.06.25/outbox.cif.g09.slc.cpg/sg12_163_cif.got.tgz:324154.got - 2010.06.28 00:19:55.
