data_PCOD8095254
_publ_section_title
;
Structure prediction by ZEFSAII (Michael W. Deem and Ramdas Pophale) SiO2 
 PCOD8095254
Probable space group: C 2/M
;
_chemical_formula_sum "Si O2"
_cell_formula_units_Z 64
_cell_length_a 18.215090
_cell_length_b 9.167869
_cell_length_c 30.731235
_cell_angle_alpha 90.000000
_cell_angle_beta 42.187942
_cell_angle_gamma 90.000000
_cell_volume 3446.415026
_symmetry_space_group_name_H-M "C 2/M"
_symmetry_group_IT_number 12
_symmetry_cell_setting 'monoclinic'
loop_
_space_group_symop_operation_xyz
x,y,z
-x,y,-z
-x,-y,-z
x,-y,z
1/2+x,1/2+y,z
1/2-x,1/2+y,-z
1/2-x,1/2-y,-z
1/2+x,1/2-y,z
loop_
_atom_site_type_symbol
_atom_site_label
_atom_site_fract_x
_atom_site_fract_y
_atom_site_fract_z
Si Si1 0.931162 0.172673 0.687150
Si Si2 0.780134 0.170618 0.942798
Si Si3 0.829916 0.327279 0.571573
Si Si4 0.121152 0.326590 0.937182
Si Si5 0.185282 0.672967 0.813634
Si Si6 0.530286 0.670764 0.814292
Si Si7 0.993530 0.327412 0.573195
Si Si8 0.409988 0.673452 0.307492
O O1 0.806227 0.223732 0.746797
O O2 0.987394 0.245355 0.621187
O O3 0.996793 0.228553 0.700620
O O4 0.939768 0.000000 0.678407
O O5 0.703176 0.232016 0.938120
O O6 0.903652 0.206056 0.875999
O O7 0.760513 0.000000 0.958252
O O8 0.750000 0.250000 0.000000
O O9 0.827640 0.500000 0.574153
O O10 0.893633 0.273917 0.586652
O O11 0.707457 0.262725 0.625686
O O12 0.893332 0.279364 0.499968
O O13 0.121367 0.500000 0.937236
O O14 0.161706 0.269505 0.872623
O O15 0.000000 0.265390 0.000000
O O16 0.172927 0.500000 0.816452
O O17 0.097996 0.743905 0.820345
O O18 0.555438 0.500000 0.807997
O O19 0.564006 0.730784 0.752145
O O20 0.989168 0.500000 0.583109
O O21 0.407858 0.500000 0.308046
#
# Coordination Sequence:
#
# PCOD8095254 Si02
#       8
#     8   8   8   8   8   8   8   8
#     4  10  20  32  48  72 100 129 161 200 247 294
#     4  10  20  34  53  78 105 132 165 202 241 287
#     4   8  15  29  50  72  94 127 167 201 238 290
#     4   9  17  31  52  74  97 130 167 197 232 285
#     4  10  20  34  52  74 100 129 163 204 248 293
#     4  10  20  34  54  77  99 128 167 206 242 286
#     4   9  17  31  51  73  96 125 164 204 241 288
#     4   9  17  31  50  71  98 131 165 201 243 292
#
# _framework density 18.57002
#
# number of rings (size 3 to 8) (size 9 to 14) (size 15 to 20)
#    0.000    2.625    0.000    3.000    0.000    6.500 
#    0.000    2.500    0.000    6.750    0.000    0.000 
#    0.000    0.000    0.000    0.000    0.000    0.000 
#
# Total GULP energy -396783.804123 kJ/mol
# GULP energy per Si atom -12399.493879 kJ/mol
# Density = 1.852775 g / cm^3
# Si number density = 18.570020 Si / 1000 Ang^3
#
#
#
# Elastic Constant Matrix: (Units=GPa)
#
#
# Indices 1 2 3 4 5 6 
#
# 1 169.7593 32.6256 88.4206 0.0001 5.4766 0.0003
# 2 32.6256 19.6000 32.3536 0.0009 0.9765 0.0024
# 3 88.4206 32.3536 156.6853 0.0000 7.5836 0.0001
# 4 0.0001 0.0009 0.0000 25.9044 -0.0001 3.8117
# 5 5.4766 0.9765 7.5836 -0.0001 41.0469 0.0001
# 6 0.0003 0.0024 0.0001 3.8117 0.0001 23.8580
#
#
#
# Elastic Compliance Matrix: (Units=1/GPa)
#
#
# Indices 1 2 3 4 5 6 
#
# 1 0.009634 -0.010734 -0.003199 0.000000 -0.000439 0.000001
# 2 -0.010734 0.089415 -0.012483 -0.000002 0.001611 -0.000009
# 3 -0.003199 -0.012483 0.010827 0.000000 -0.001277 0.000001
# 4 0.000000 -0.000002 0.000000 0.039533 0.000000 -0.006316
# 5 -0.000439 0.001611 -0.001277 0.000000 0.024618 0.000000
# 6 0.000001 -0.000009 0.000001 -0.006316 0.000000 0.042924
#
#
# Mechanical properties :
#
#
# Convention : Reuss Voigt Hill
#
# Bulk Modulus (GPa) = 17.53089 72.53825 45.03457
# Shear Modulus (GPa) = 17.31315 31.00485 24.15900
#
# Velocity S-wave (km/s) = 3.05670 4.09053 3.61081
# Velocity P-wave (km/s) = 4.68175 7.83943 6.45661
#
# Compressibility (1/GPa) = 0.05704218
#
# Stress axis : x y z
#
# Youngs Moduli (GPa) = 103.79868 11.18386 92.36240
#
# Poissons Ratio (x) = 0.12005 0.29546
# Poissons Ratio (y) = 1.11420 1.15301
# Poissons Ratio (z) = 0.33205 0.13961
#
# Static dielectric constant tensor:
#      x y z
#    x 3.560280 0.000000 -0.193600 
#    y 0.000000 2.931710 0.000000 
#    z -0.193600 0.000000 3.610400 
# 
# 
# High freq. dielectric constant tensor:
#      x y z
#    x 1.732690 0.000000 -0.001580 
#    y 0.000000 1.669490 0.000000 
#    z -0.001580 0.000000 1.740760 
# 
# From -- ./inp_files/377989.got.cif
#   From: 2010.06.25/outbox.cif.g09.slc.cpg/sg12_189_cif.got.tgz:377989.got - 2010.06.28 00:19:55.
