data_PCOD8095793
_publ_section_title
;
Structure prediction by ZEFSAII (Michael W. Deem and Ramdas Pophale) SiO2 
 PCOD8095793
Probable space group: C 2/M
;
_chemical_formula_sum "Si O2"
_cell_formula_units_Z 48
_cell_length_a 18.980329
_cell_length_b 9.321539
_cell_length_c 32.302174
_cell_angle_alpha 90.000000
_cell_angle_beta 152.086035
_cell_angle_gamma 90.000000
_cell_volume 2675.492198
_symmetry_space_group_name_H-M "C 2/M"
_symmetry_group_IT_number 12
_symmetry_cell_setting 'monoclinic'
loop_
_space_group_symop_operation_xyz
x,y,z
-x,y,-z
-x,-y,-z
x,-y,z
1/2+x,1/2+y,z
1/2-x,1/2+y,-z
1/2-x,1/2-y,-z
1/2+x,1/2-y,z
loop_
_atom_site_type_symbol
_atom_site_label
_atom_site_fract_x
_atom_site_fract_y
_atom_site_fract_z
Si Si1 0.682131 0.668843 0.925875
Si Si2 0.668402 0.829778 0.080925
Si Si3 0.602318 0.667691 0.435836
Si Si4 0.957768 0.336374 0.431500
Si Si5 0.654190 0.663724 0.231217
Si Si6 0.701257 0.667258 0.765756
O O1 0.711892 0.500000 0.946642
O O2 0.759494 0.729448 0.924159
O O3 0.504920 0.704217 0.831010
O O4 0.750000 0.750000 0.000000
O O5 0.769082 0.778835 0.172154
O O6 0.665490 0.000000 0.077029
O O7 0.500000 0.768997 0.000000
O O8 0.636447 0.500000 0.456467
O O9 0.750000 0.750000 0.500000
O O10 0.553676 0.724871 0.455062
O O11 0.471693 0.702274 0.334756
O O12 0.001036 0.500000 0.442081
O O13 0.780489 0.309326 0.331871
O O14 0.000000 0.302029 0.500000
O O15 0.655416 0.500000 0.216844
O O16 0.684031 0.756770 0.205936
O O17 0.736328 0.500000 0.779484
#
# Coordination Sequence:
#
# PCOD8095793 Si02
#       6
#     8   8   8   8   8   8
#     4  10  20  33  50  72  98 128 162 200 242 289
#     4   9  17  30  50  74  97 124 160 200 239 283
#     4  10  20  33  51  75 103 134 168 207 249 296
#     4   9  18  33  53  75 100 132 168 207 254 304
#     4   9  18  32  50  73 100 128 159 201 250 293
#     4   9  18  33  53  74  96 127 165 202 241 289
#
# _framework density 17.940625000000001
#
# number of rings (size 3 to 8) (size 9 to 14) (size 15 to 20)
#    0.000    2.667    0.000    1.500    0.000    4.333 
#    0.000    5.833    0.000    5.000    0.000    0.000 
#    0.000    0.000    0.000    0.000    0.000    0.000 
#
# Total GULP energy -297590.788307 kJ/mol
# GULP energy per Si atom -12399.616179 kJ/mol
# Density = 1.789979 g / cm^3
# Si number density = 17.940625 Si / 1000 Ang^3
#
#
#
# Elastic Constant Matrix: (Units=GPa)
#
#
# Indices 1 2 3 4 5 6 
#
# 1 161.0743 54.4606 102.1648 0.0000 -0.1534 0.0001
# 2 54.4606 56.2285 51.0081 -0.0002 3.5624 0.0004
# 3 102.1648 51.0081 130.3854 0.0000 -3.4069 0.0001
# 4 0.0000 -0.0002 0.0000 24.3359 0.0000 -1.0942
# 5 -0.1534 3.5624 -3.4069 0.0000 39.8736 0.0000
# 6 0.0001 0.0004 0.0001 -1.0942 0.0000 29.2127
#
#
#
# Elastic Compliance Matrix: (Units=1/GPa)
#
#
# Indices 1 2 3 4 5 6 
#
# 1 0.013294 -0.005286 -0.008354 0.000000 -0.000190 0.000000
# 2 -0.005286 0.030135 -0.007736 0.000000 -0.003374 0.000000
# 3 -0.008354 -0.007736 0.017297 0.000000 0.002137 0.000000
# 4 0.000000 0.000000 0.000000 0.041161 0.000000 0.001542
# 5 -0.000190 -0.003374 0.002137 0.000000 0.025563 0.000000
# 6 0.000000 0.000000 0.000000 0.001542 0.000000 0.034289
#
#
# Mechanical properties :
#
#
# Convention : Reuss Voigt Hill
#
# Bulk Modulus (GPa) = 55.62886 84.77278 70.20082
# Shear Modulus (GPa) = 23.75509 28.02143 25.88826
#
# Velocity S-wave (km/s) = 3.64276 3.95637 3.80280
# Velocity P-wave (km/s) = 6.98337 8.25984 7.64828
#
# Compressibility (1/GPa) = 0.01797628
#
# Stress axis : x y z
#
# Youngs Moduli (GPa) = 75.22367 33.18360 57.81268
#
# Poissons Ratio (x) = 0.17540 0.48294
# Poissons Ratio (y) = 0.39761 0.44723
# Poissons Ratio (z) = 0.62839 0.25670
#
# Static dielectric constant tensor:
#      x y z
#    x 7.382550 0.000010 2.183170 
#    y 0.000010 3.253180 0.000010 
#    z 2.183170 0.000010 4.747690 
# 
# 
# High freq. dielectric constant tensor:
#      x y z
#    x 1.692320 0.000000 0.001700 
#    y 0.000000 1.675780 0.000000 
#    z 0.001700 0.000000 1.707250 
# 
# From -- ./inp_files/274092.got.cif
#   From: 2010.06.25/outbox.cif.g09.slc.cpg/sg12_138_cif.got.tgz:274092.got - 2010.06.28 00:19:55.
