data_PCOD8095526
_publ_section_title
;
Structure prediction by ZEFSAII (Michael W. Deem and Ramdas Pophale) SiO2 
 PCOD8095526
Probable space group: C 2/M
;
_chemical_formula_sum "Si O2"
_cell_formula_units_Z 40
_cell_length_a 24.572297
_cell_length_b 19.677112
_cell_length_c 12.224003
_cell_angle_alpha 90.000000
_cell_angle_beta 20.769400
_cell_angle_gamma 90.000000
_cell_volume 2095.890843
_symmetry_space_group_name_H-M "C 2/M"
_symmetry_group_IT_number 12
_symmetry_cell_setting 'monoclinic'
loop_
_space_group_symop_operation_xyz
x,y,z
-x,y,-z
-x,-y,-z
x,-y,z
1/2+x,1/2+y,z
1/2-x,1/2+y,-z
1/2-x,1/2-y,-z
1/2+x,1/2-y,z
loop_
_atom_site_type_symbol
_atom_site_label
_atom_site_fract_x
_atom_site_fract_y
_atom_site_fract_z
Si Si1 0.648728 0.422056 0.293883
Si Si2 0.823300 0.675378 0.366274
Si Si3 0.322600 0.820388 0.827982
Si Si4 0.629711 0.334781 0.538075
Si Si5 0.280299 0.693416 0.212814
O O1 0.500000 0.411790 0.500000
O O2 0.698852 0.500000 0.209158
O O3 0.613298 0.393982 0.480639
O O4 0.786105 0.380878 0.980041
O O5 0.750000 0.750000 0.500000
O O6 0.720998 0.633177 0.471031
O O7 0.800416 0.651674 0.535261
O O8 0.000000 0.672915 0.000000
O O9 0.500000 0.806609 0.500000
O O10 0.267359 0.842358 0.810751
O O11 0.250000 0.750000 0.000000
O O12 0.726789 0.271794 0.307314
O O13 0.463028 0.307722 0.886913
#
# Coordination Sequence:
#
# PCOD8095526 Si02
#       5
#     8   8   8   8   8
#     4  11  24  42  60  85 122 164 200 243 303 364
#     4  10  20  32  53  86 120 153 187 244 304 351
#     4  12  23  36  62  93 123 152 197 250 300 356
#     4  11  20  35  59  85 122 153 196 243 299 357
#     4  11  20  33  56  91 118 150 191 247 299 345
#
# _framework density 19.084962999999998
#
# number of rings (size 3 to 8) (size 9 to 14) (size 15 to 20)
#    0.000    1.000    4.000    7.200    2.800    0.400 
#    0.000    0.000    0.000    4.200    0.000    0.000 
#    0.000    0.000    0.000    0.000    0.000    0.000 
#
# Total GULP energy -247976.404683 kJ/mol
# GULP energy per Si atom -12398.820234 kJ/mol
# Density = 1.904152 g / cm^3
# Si number density = 19.084963 Si / 1000 Ang^3
#
#
#
# Elastic Constant Matrix: (Units=GPa)
#
#
# Indices 1 2 3 4 5 6 
#
# 1 148.0268 32.8263 56.5356 -0.0002 8.0753 0.0003
# 2 32.8263 87.5911 46.3761 0.0021 8.2750 -0.0011
# 3 56.5356 46.3761 169.1296 0.0035 -8.3187 -0.0018
# 4 -0.0002 0.0021 0.0035 10.0204 -0.0013 0.2378
# 5 8.0753 8.2750 -8.3187 -0.0013 40.1141 0.0011
# 6 0.0003 -0.0011 -0.0018 0.2378 0.0011 13.6097
#
#
#
# Elastic Compliance Matrix: (Units=1/GPa)
#
#
# Indices 1 2 3 4 5 6 
#
# 1 0.008112 -0.001625 -0.002354 0.000001 -0.001786 0.000000
# 2 -0.001625 0.014201 -0.003515 -0.000002 -0.003331 0.000001
# 3 -0.002354 -0.003515 0.007802 -0.000002 0.002817 0.000001
# 4 0.000001 -0.000002 -0.000002 0.099838 0.000003 -0.001744
# 5 -0.001786 -0.003331 0.002817 0.000003 0.026560 -0.000002
# 6 0.000000 0.000001 0.000001 -0.001744 -0.000002 0.073508
#
#
# Mechanical properties :
#
#
# Convention : Reuss Voigt Hill
#
# Bulk Modulus (GPa) = 66.10316 75.13594 70.61955
# Shear Modulus (GPa) = 19.99589 30.68280 25.33935
#
# Velocity S-wave (km/s) = 3.24038 4.01396 3.64773
# Velocity P-wave (km/s) = 6.97936 7.80622 7.40434
#
# Compressibility (1/GPa) = 0.01512787
#
# Stress axis : x y z
#
# Youngs Moduli (GPa) = 123.26787 70.41591 128.17596
#
# Poissons Ratio (x) = 0.11444 0.30172
# Poissons Ratio (y) = 0.20033 0.45049
# Poissons Ratio (z) = 0.29017 0.24749
#
# Static dielectric constant tensor:
#      x y z
#    x 4.529960 0.000000 0.229310 
#    y 0.000000 3.037240 0.000000 
#    z 0.229310 0.000000 3.637690 
# 
# 
# High freq. dielectric constant tensor:
#      x y z
#    x 1.773190 0.000000 0.003180 
#    y 0.000000 1.675160 0.000000 
#    z 0.003180 0.000000 1.758200 
# 
# From -- ./inp_files/120310.got.cif
#   From: 2010.06.25/outbox.cif.g09.slc.cpg/sg12_61_cif.got.tgz:120310.got - 2010.06.28 00:19:55.
