data_PCOD8095554
_publ_section_title
;
Structure prediction by ZEFSAII (Michael W. Deem and Ramdas Pophale) SiO2 
 PCOD8095554
Probable space group: C 2/M
;
_chemical_formula_sum "Si O2"
_cell_formula_units_Z 36
_cell_length_a 22.740037
_cell_length_b 7.790399
_cell_length_c 22.334300
_cell_angle_alpha 90.000000
_cell_angle_beta 152.212124
_cell_angle_gamma 90.000000
_cell_volume 1844.569274
_symmetry_space_group_name_H-M "C 2/M"
_symmetry_group_IT_number 12
_symmetry_cell_setting 'monoclinic'
loop_
_space_group_symop_operation_xyz
x,y,z
-x,y,-z
-x,-y,-z
x,-y,z
1/2+x,1/2+y,z
1/2-x,1/2+y,-z
1/2-x,1/2-y,-z
1/2+x,1/2-y,z
loop_
_atom_site_type_symbol
_atom_site_label
_atom_site_fract_x
_atom_site_fract_y
_atom_site_fract_z
Si Si1 0.809055 0.687567 0.991392
Si Si2 0.777355 0.304445 0.458159
Si Si3 0.819966 0.500000 0.785594
Si Si4 0.817505 0.000000 0.218490
Si Si5 0.438199 0.310959 0.828696
Si Si6 0.598704 0.500000 0.493243
O O1 0.870580 0.500000 0.058801
O O2 0.918274 0.809596 0.065110
O O3 0.750000 0.750000 0.000000
O O4 0.701816 0.667080 0.842471
O O5 0.828295 0.500000 0.499742
O O6 0.750000 0.250000 0.500000
O O7 0.647075 0.280662 0.306061
O O8 0.880099 0.173862 0.524858
O O9 0.793051 0.500000 0.831685
O O10 0.903888 0.667760 0.846869
O O11 0.685558 0.500000 0.630290
O O12 0.949783 0.000000 0.372763
O O13 0.413042 0.500000 0.834025
#
# Coordination Sequence:
#
# PCOD8095554 Si02
#       6
#     8   8   4   4   8   4
#     4  10  22  37  57  86 125 160 192 244 305 353
#     4  10  20  32  55  88 119 155 199 247 302 360
#     4  10  20  44  65  89 118 160 213 244 308 350
#     4  10  24  40  63  85 128 166 199 256 292 366
#     4  10  21  38  61  87 121 157 202 256 293 359
#     4  10  21  38  60  90 118 161 197 252 308 348
#
# _framework density 19.516750999999999
#
# number of rings (size 3 to 8) (size 9 to 14) (size 15 to 20)
#    0.667    1.333    2.222    1.000    3.111    1.778 
#    0.000    5.556    0.000    5.333    0.000    0.000 
#    0.000    0.000    0.000    0.000    0.000    0.000 
#
# Total GULP energy -223071.214564 kJ/mol
# GULP energy per Si atom -12392.845254 kJ/mol
# Density = 1.947233 g / cm^3
# Si number density = 19.516751 Si / 1000 Ang^3
#
#
#
# Elastic Constant Matrix: (Units=GPa)
#
#
# Indices 1 2 3 4 5 6 
#
# 1 119.3532 36.1008 29.9746 0.0000 -1.0053 0.0000
# 2 36.1008 129.2739 20.2033 0.0000 2.8647 0.0000
# 3 29.9746 20.2033 68.3862 0.0000 15.7241 0.0000
# 4 0.0000 0.0000 0.0000 24.6979 0.0000 -1.7447
# 5 -1.0053 2.8647 15.7241 0.0000 27.9664 0.0000
# 6 0.0000 0.0000 0.0000 -1.7447 0.0000 24.0769
#
#
#
# Elastic Compliance Matrix: (Units=1/GPa)
#
#
# Indices 1 2 3 4 5 6 
#
# 1 0.010217 -0.002212 -0.004549 0.000000 0.003152 0.000000
# 2 -0.002212 0.008597 -0.001550 0.000000 -0.000089 0.000000
# 3 -0.004549 -0.001550 0.019611 0.000000 -0.011031 0.000000
# 4 0.000000 0.000000 0.000000 0.040698 0.000000 0.002949
# 5 0.003152 -0.000089 -0.011031 0.000000 0.042082 0.000000
# 6 0.000000 0.000000 0.000000 0.002949 0.000000 0.041747
#
#
# Mechanical properties :
#
#
# Convention : Reuss Voigt Hill
#
# Bulk Modulus (GPa) = 45.86577 54.39673 50.13125
# Shear Modulus (GPa) = 26.76058 30.73054 28.74556
#
# Velocity S-wave (km/s) = 3.70693 3.97239 3.84196
# Velocity P-wave (km/s) = 6.47098 6.99801 6.73965
#
# Compressibility (1/GPa) = 0.02180275
#
# Stress axis : x y z
#
# Youngs Moduli (GPa) = 97.87995 116.31393 50.99131
#
# Poissons Ratio (x) = 0.25728 0.23197
# Poissons Ratio (y) = 0.21650 0.07904
# Poissons Ratio (z) = 0.44528 0.18029
#
# Static dielectric constant tensor:
#      x y z
#    x 3.352390 0.000000 -0.026820 
#    y 0.000000 3.839190 0.000000 
#    z -0.026820 0.000000 3.460270 
# 
# 
# High freq. dielectric constant tensor:
#      x y z
#    x 1.751710 0.000000 -0.004900 
#    y 0.000000 1.763800 0.000000 
#    z -0.004900 0.000000 1.752380 
# 
# From -- ./inp_files/320429.got.cif
#   From: 2010.06.25/outbox.cif.g09.slc.cpg/sg12_161_cif.got.tgz:320429.got - 2010.06.28 00:19:55.
