data_PCOD8095093
_publ_section_title
;
Structure prediction by ZEFSAII (Michael W. Deem and Ramdas Pophale) SiO2 
 PCOD8095093
Probable space group: C 2/M
;
_chemical_formula_sum "Si O2"
_cell_formula_units_Z 40
_cell_length_a 25.457872
_cell_length_b 9.430171
_cell_length_c 12.298915
_cell_angle_alpha 90.000000
_cell_angle_beta 58.695569
_cell_angle_gamma 90.000000
_cell_volume 2522.778878
_symmetry_space_group_name_H-M "C 2/M"
_symmetry_group_IT_number 12
_symmetry_cell_setting 'monoclinic'
loop_
_space_group_symop_operation_xyz
x,y,z
-x,y,-z
-x,-y,-z
x,-y,z
1/2+x,1/2+y,z
1/2-x,1/2+y,-z
1/2-x,1/2-y,-z
1/2+x,1/2-y,z
loop_
_atom_site_type_symbol
_atom_site_label
_atom_site_fract_x
_atom_site_fract_y
_atom_site_fract_z
Si Si1 0.469788 0.665819 0.644849
Si Si2 0.407692 0.166050 0.097132
Si Si3 0.666731 0.663786 0.159862
Si Si4 0.796471 0.664640 0.088204
Si Si5 0.004888 0.668028 0.815992
O O1 0.500000 0.714731 0.500000
O O2 0.480215 0.500000 0.655378
O O3 0.397316 0.703623 0.714319
O O4 0.503209 0.751362 0.704003
O O5 0.335925 0.207780 0.153618
O O6 0.433453 0.220813 0.185361
O O7 0.418291 0.000000 0.089904
O O8 0.447513 0.219711 0.951302
O O9 0.667907 0.500000 0.124053
O O10 0.723783 0.697424 0.181111
O O11 0.674959 0.753282 0.043174
O O12 0.807474 0.500000 0.051146
O O13 0.004307 0.500000 0.793747
#
# Coordination Sequence:
#
# PCOD8095093 Si02
#       5
#     8   8   8   8   8
#     4  10  20  32  43  59  89 122 148 175 205 245
#     4   8  14  25  44  67  89 108 130 175 225 258
#     4   9  17  27  41  63  86 111 144 173 207 254
#     4   9  15  26  45  65  86 109 133 173 222 258
#     4   9  16  28  45  65  86 110 143 176 212 256
#
# _framework density 15.855532
#
# number of rings (size 3 to 8) (size 9 to 14) (size 15 to 20)
#    0.000    3.000    2.000    1.200    0.000    0.400 
#    0.000    3.000    0.000    1.200    0.000    0.000 
#    0.000    0.000    0.000    0.000    0.000    0.000 
#
# Total GULP energy -247772.841594 kJ/mol
# GULP energy per Si atom -12388.642080 kJ/mol
# Density = 1.581944 g / cm^3
# Si number density = 15.855532 Si / 1000 Ang^3
#
#
#
# Elastic Constant Matrix: (Units=GPa)
#
#
# Indices 1 2 3 4 5 6 
#
# 1 177.6208 39.2539 68.8598 0.0000 7.5748 0.0000
# 2 39.2539 31.2708 30.5891 0.0000 4.6309 0.0000
# 3 68.8598 30.5891 90.5219 0.0000 6.5921 0.0000
# 4 0.0000 0.0000 0.0000 18.2724 0.0000 3.8890
# 5 7.5748 4.6309 6.5921 0.0000 23.6934 0.0000
# 6 0.0000 0.0000 0.0000 3.8890 0.0000 19.5924
#
#
#
# Elastic Compliance Matrix: (Units=1/GPa)
#
#
# Indices 1 2 3 4 5 6 
#
# 1 0.008849 -0.006725 -0.004438 0.000000 -0.000280 0.000000
# 2 -0.006725 0.053454 -0.012599 0.000000 -0.004793 0.000000
# 3 -0.004438 -0.012599 0.018779 0.000000 -0.001343 0.000000
# 4 0.000000 0.000000 0.000000 0.057142 0.000000 -0.011342
# 5 -0.000280 -0.004793 -0.001343 0.000000 0.043606 0.000000
# 6 0.000000 0.000000 0.000000 -0.011342 0.000000 0.053292
#
#
# Mechanical properties :
#
#
# Convention : Reuss Voigt Hill
#
# Bulk Modulus (GPa) = 29.79956 64.09103 46.94530
# Shear Modulus (GPa) = 17.01670 23.02569 20.02119
#
# Velocity S-wave (km/s) = 3.27958 3.81493 3.55734
# Velocity P-wave (km/s) = 5.75987 7.74045 6.82241
#
# Compressibility (1/GPa) = 0.03355754
#
# Stress axis : x y z
#
# Youngs Moduli (GPa) = 113.01077 18.70778 53.25227
#
# Poissons Ratio (x) = 0.12580 0.23636
# Poissons Ratio (y) = 0.75995 0.67091
# Poissons Ratio (z) = 0.50159 0.23569
#
# Static dielectric constant tensor:
#      x y z
#    x 3.595720 0.000000 -0.023750 
#    y 0.000000 2.848740 0.000000 
#    z -0.023750 0.000000 2.697430 
# 
# 
# High freq. dielectric constant tensor:
#      x y z
#    x 1.634430 0.000000 0.000370 
#    y 0.000000 1.591290 0.000000 
#    z 0.000370 0.000000 1.558620 
# 
# From -- ./inp_files/83656.got.cif
#   From: 2010.06.25/outbox.cif.g09.slc.cpg/sg12_42_cif.got.tgz:83656.got - 2010.06.28 00:19:55.
