data_PCOD8095240
_publ_section_title
;
Structure prediction by ZEFSAII (Michael W. Deem and Ramdas Pophale) SiO2 
 PCOD8095240
Probable space group: C 2/M
;
_chemical_formula_sum "Si O2"
_cell_formula_units_Z 56
_cell_length_a 28.237237
_cell_length_b 9.392658
_cell_length_c 17.360795
_cell_angle_alpha 90.000000
_cell_angle_beta 136.728377
_cell_angle_gamma 90.000000
_cell_volume 3156.174849
_symmetry_space_group_name_H-M "C 2/M"
_symmetry_group_IT_number 12
_symmetry_cell_setting 'monoclinic'
loop_
_space_group_symop_operation_xyz
x,y,z
-x,y,-z
-x,-y,-z
x,-y,z
1/2+x,1/2+y,z
1/2-x,1/2+y,-z
1/2-x,1/2-y,-z
1/2+x,1/2-y,z
loop_
_atom_site_type_symbol
_atom_site_label
_atom_site_fract_x
_atom_site_fract_y
_atom_site_fract_z
Si Si1 0.427328 0.659174 0.235021
Si Si2 0.439268 0.832324 0.607139
Si Si3 0.811083 0.341862 0.350974
Si Si4 0.668253 0.847786 0.957041
Si Si5 0.695639 0.760676 0.827843
Si Si6 0.226515 0.339175 0.358677
Si Si7 0.145185 0.837940 0.374892
O O1 0.453843 0.500000 0.248978
O O2 0.489302 0.761300 0.335256
O O3 0.391446 0.726264 0.114989
O O4 0.369667 0.654566 0.234958
O O5 0.385375 0.803465 0.474795
O O6 0.415388 0.752298 0.656572
O O7 0.449101 0.000000 0.635177
O O8 0.789691 0.500000 0.353616
O O9 0.817247 0.342701 0.266503
O O10 0.753272 0.230974 0.311114
O O11 0.699436 0.864709 0.906663
O O12 0.635346 0.000000 0.941100
O O13 0.730288 0.817587 0.089984
O O14 0.200728 0.500000 0.311635
O O15 0.164026 0.243778 0.318068
O O16 0.288307 0.341375 0.492418
O O17 0.120680 0.000000 0.328396
#
# Coordination Sequence:
#
# PCOD8095240 Si02
#       7
#     8   8   8   8   8   8   8
#     4  10  20  33  49  70  97 128 165 203 244 289
#     4  10  20  32  48  70  99 132 168 200 238 289
#     4  10  20  33  48  70  99 134 166 198 241 293
#     4   9  18  34  54  71  92 123 164 207 247 286
#     4   9  20  31  53  71  97 122 165 203 246 282
#     4   9  17  28  45  69  95 124 160 200 241 284
#     4   9  16  29  47  66  93 127 161 199 239 284
#
# _framework density 17.742996000000002
#
# number of rings (size 3 to 8) (size 9 to 14) (size 15 to 20)
#    0.857    1.714    0.000    2.571    0.000    6.286 
#    0.000    2.143    0.000    0.000    0.000    1.000 
#    0.000    6.857    0.000    0.000    0.000    0.000 
#
# Total GULP energy -346904.510303 kJ/mol
# GULP energy per Si atom -12389.446797 kJ/mol
# Density = 1.770261 g / cm^3
# Si number density = 17.742996 Si / 1000 Ang^3
#
#
#
# Elastic Constant Matrix: (Units=GPa)
#
#
# Indices 1 2 3 4 5 6 
#
# 1 50.0384 30.0554 35.6435 0.0000 -1.3466 0.0000
# 2 30.0554 140.1468 36.5950 0.0000 3.6212 0.0000
# 3 35.6435 36.5950 63.5795 0.0000 6.0040 0.0000
# 4 0.0000 0.0000 0.0000 14.6559 0.0000 3.9787
# 5 -1.3466 3.6212 6.0040 0.0000 4.1133 0.0000
# 6 0.0000 0.0000 0.0000 3.9787 0.0000 27.7515
#
#
#
# Elastic Compliance Matrix: (Units=1/GPa)
#
#
# Indices 1 2 3 4 5 6 
#
# 1 0.043489 -0.003564 -0.027802 0.000000 0.057957 0.000000
# 2 -0.003564 0.008690 -0.002518 0.000000 -0.005142 0.000000
# 3 -0.027802 -0.002518 0.038756 0.000000 -0.063455 0.000000
# 4 0.000000 0.000000 0.000000 0.070995 0.000000 -0.010179
# 5 0.057957 -0.005142 -0.063455 0.000000 0.359234 0.000000
# 6 0.000000 0.000000 0.000000 -0.010179 0.000000 0.037493
#
#
# Mechanical properties :
#
#
# Convention : Reuss Voigt Hill
#
# Bulk Modulus (GPa) = 43.16576 50.92805 47.04690
# Shear Modulus (GPa) = 7.88458 19.40220 13.64339
#
# Velocity S-wave (km/s) = 2.11031 3.31042 2.77599
# Velocity P-wave (km/s) = 5.50627 6.58615 6.07027
#
# Compressibility (1/GPa) = 0.02316651
#
# Stress axis : x y z
#
# Youngs Moduli (GPa) = 22.99414 115.07273 25.80244
#
# Poissons Ratio (x) = 0.41017 0.71736
# Poissons Ratio (y) = 0.08196 0.06497
# Poissons Ratio (z) = 0.63928 0.28976
#
# Static dielectric constant tensor:
#      x y z
#    x 3.052840 0.000000 0.111170 
#    y 0.000000 3.377660 0.000000 
#    z 0.111170 0.000000 2.913980 
# 
# 
# High freq. dielectric constant tensor:
#      x y z
#    x 1.656710 0.000000 0.010960 
#    y 0.000000 1.700180 0.000000 
#    z 0.010960 0.000000 1.645750 
# 
# From -- ./inp_files/295158.got.cif
#   From: 2010.06.25/outbox.cif.g09.slc.cpg/sg12_148_cif.got.tgz:295158.got - 2010.06.28 00:19:55.
