data_PCOD8095835
_publ_section_title
;
Structure prediction by ZEFSAII (Michael W. Deem and Ramdas Pophale) SiO2 
 PCOD8095835
Probable space group: C 2/M
;
_chemical_formula_sum "Si O2"
_cell_formula_units_Z 64
_cell_length_a 22.634664
_cell_length_b 8.970426
_cell_length_c 17.756653
_cell_angle_alpha 90.000000
_cell_angle_beta 86.352394
_cell_angle_gamma 90.000000
_cell_volume 3598.052923
_symmetry_space_group_name_H-M "C 2/M"
_symmetry_group_IT_number 12
_symmetry_cell_setting 'monoclinic'
loop_
_space_group_symop_operation_xyz
x,y,z
-x,y,-z
-x,-y,-z
x,-y,z
1/2+x,1/2+y,z
1/2-x,1/2+y,-z
1/2-x,1/2-y,-z
1/2+x,1/2-y,z
loop_
_atom_site_type_symbol
_atom_site_label
_atom_site_fract_x
_atom_site_fract_y
_atom_site_fract_z
Si Si1 0.175006 0.832154 0.439931
Si Si2 0.370813 0.829174 0.123179
Si Si3 0.890620 0.829064 0.842773
Si Si4 0.495745 0.169947 0.914577
Si Si5 0.187196 0.827705 0.007869
Si Si6 0.315455 0.832081 0.414080
Si Si7 0.832227 0.325125 0.710454
Si Si8 0.804089 0.175423 0.264182
O O1 0.245470 0.831076 0.430309
O O2 0.153849 0.748087 0.517227
O O3 0.148372 0.749469 0.369590
O O4 0.150409 0.000000 0.444122
O O5 0.440833 0.819368 0.131180
O O6 0.357436 0.755297 0.044117
O O7 0.336743 0.740968 0.189943
O O8 0.348937 0.000000 0.124346
O O9 0.952181 0.775143 0.872263
O O10 0.875868 0.732227 0.771107
O O11 0.897691 0.000000 0.817806
O O12 0.837715 0.810255 0.906372
O O13 0.471856 0.000000 0.916008
O O14 0.500000 0.227422 0.000000
O O15 0.193199 0.000000 0.983530
O O16 0.250000 0.750000 0.000000
O O17 0.332774 0.745185 0.336821
O O18 0.339859 0.000000 0.406536
O O19 0.839854 0.500000 0.700384
O O20 0.764950 0.282150 0.736790
O O21 0.813695 0.000000 0.266569
#
# Coordination Sequence:
#
# PCOD8095835 Si02
#       8
#     8   8   8   8   8   8   8   8
#     4   9  16  27  45  70 102 137 173 211 251 300
#     4  11  22  36  55  76 100 132 171 214 260 308
#     4  11  23  36  53  76 101 131 170 216 261 304
#     4  10  21  39  59  76  96 129 171 216 263 311
#     4  11  23  36  52  75 103 135 169 206 253 309
#     4   9  16  27  45  70 102 139 175 209 249 302
#     4  10  20  33  50  73 105 141 174 210 255 309
#     4  10  20  33  50  75 107 141 174 212 258 306
#
# _framework density 17.787398
#
# number of rings (size 3 to 8) (size 9 to 14) (size 15 to 20)
#    0.000    1.875    1.250    3.375    0.000    9.250 
#    0.000    0.000    0.000    0.000    0.000    0.875 
#    0.000    7.000    0.000    0.000    0.000    0.000 
#
# Total GULP energy -396919.211886 kJ/mol
# GULP energy per Si atom -12403.725371 kJ/mol
# Density = 1.774691 g / cm^3
# Si number density = 17.787398 Si / 1000 Ang^3
#
#
#
# Elastic Constant Matrix: (Units=GPa)
#
#
# Indices 1 2 3 4 5 6 
#
# 1 49.8300 26.9596 15.7683 0.0000 14.4655 0.0000
# 2 26.9596 110.8345 47.3739 0.0000 12.2400 0.0000
# 3 15.7683 47.3739 105.1690 0.0000 24.1765 0.0000
# 4 0.0000 0.0000 0.0000 38.7105 0.0000 4.4672
# 5 14.4655 12.2400 24.1765 0.0000 14.9613 0.0000
# 6 0.0000 0.0000 0.0000 4.4672 0.0000 23.0345
#
#
#
# Elastic Compliance Matrix: (Units=1/GPa)
#
#
# Indices 1 2 3 4 5 6 
#
# 1 0.032033 -0.006565 0.006427 0.000000 -0.035986 0.000000
# 2 -0.006565 0.012543 -0.005992 0.000000 0.005768 0.000000
# 3 0.006427 -0.005992 0.018369 0.000000 -0.030996 0.000000
# 4 0.000000 0.000000 0.000000 0.026424 0.000000 -0.005125
# 5 -0.035986 0.005768 -0.030996 0.000000 0.147001 0.000000
# 6 0.000000 0.000000 0.000000 -0.005125 0.000000 0.044407
#
#
# Mechanical properties :
#
#
# Convention : Reuss Voigt Hill
#
# Bulk Modulus (GPa) = 19.72914 49.55968 34.64441
# Shear Modulus (GPa) = 16.13251 27.05669 21.59460
#
# Velocity S-wave (km/s) = 3.01485 3.90438 3.48809
# Velocity P-wave (km/s) = 4.82025 6.94610 5.97842
#
# Compressibility (1/GPa) = 0.05068644
#
# Stress axis : x y z
#
# Youngs Moduli (GPa) = 31.21782 79.72310 54.43859
#
# Poissons Ratio (x) = 0.52336 -0.34987
# Poissons Ratio (y) = 0.20494 0.32619
# Poissons Ratio (z) = -0.20064 0.47769
#
# Static dielectric constant tensor:
#      x y z
#    x 2.928720 0.000000 0.064880 
#    y 0.000000 3.501780 0.000000 
#    z 0.064880 0.000000 3.370530 
# 
# 
# High freq. dielectric constant tensor:
#      x y z
#    x 1.643960 0.000000 0.007730 
#    y 0.000000 1.707660 0.000000 
#    z 0.007730 0.000000 1.694960 
# 
# From -- ./inp_files/281311.got.cif
#   From: 2010.06.25/outbox.cif.g09.slc.cpg/sg12_141_cif.got.tgz:281311.got - 2010.06.28 00:19:55.
