data_PCOD8095794
_publ_section_title
;
Structure prediction by ZEFSAII (Michael W. Deem and Ramdas Pophale) SiO2 
 PCOD8095794
Probable space group: C 2/M
;
_chemical_formula_sum "Si O2"
_cell_formula_units_Z 48
_cell_length_a 19.513993
_cell_length_b 9.212227
_cell_length_c 18.252380
_cell_angle_alpha 90.000000
_cell_angle_beta 58.559850
_cell_angle_gamma 90.000000
_cell_volume 2799.456598
_symmetry_space_group_name_H-M "C 2/M"
_symmetry_group_IT_number 12
_symmetry_cell_setting 'monoclinic'
loop_
_space_group_symop_operation_xyz
x,y,z
-x,y,-z
-x,-y,-z
x,-y,z
1/2+x,1/2+y,z
1/2-x,1/2+y,-z
1/2-x,1/2-y,-z
1/2+x,1/2-y,z
loop_
_atom_site_type_symbol
_atom_site_label
_atom_site_fract_x
_atom_site_fract_y
_atom_site_fract_z
Si Si1 0.916206 0.670908 0.578801
Si Si2 0.734541 0.164149 0.435610
Si Si3 0.809773 0.837189 0.250991
Si Si4 0.827943 0.832924 0.743134
Si Si5 0.088823 0.833222 0.936193
Si Si6 0.232452 0.329539 0.934752
O O1 0.919067 0.500000 0.588907
O O2 0.845148 0.717963 0.562862
O O3 0.901649 0.741637 0.667419
O O4 0.000000 0.729740 0.500000
O O5 0.750000 0.250000 0.500000
O O6 0.812296 0.181788 0.337956
O O7 0.722027 0.000000 0.467437
O O8 0.753270 0.712415 0.251944
O O9 0.894625 0.823011 0.161286
O O10 0.773529 0.000000 0.255582
O O11 0.810732 0.804471 0.838968
O O12 0.846033 0.000000 0.717504
O O13 0.152151 0.737753 0.945087
O O14 0.095507 0.000000 0.959446
O O15 0.000000 0.771502 0.000000
O O16 0.217674 0.500000 0.955688
O O17 0.250000 0.250000 0.000000
#
# Coordination Sequence:
#
# PCOD8095794 Si02
#       6
#     8   8   8   8   8   8
#     4   9  18  33  51  69  92 124 159 191 228 281
#     4   9  17  29  46  67  90 118 151 186 224 267
#     4   8  15  29  47  66  90 123 158 187 225 281
#     4   9  17  29  47  71  94 119 156 198 236 276
#     4   9  17  31  52  74  96 124 157 195 241 291
#     4  10  20  33  50  72  98 128 163 202 242 287
#
# _framework density 17.146184999999999
#
# number of rings (size 3 to 8) (size 9 to 14) (size 15 to 20)
#    0.000    3.000    0.000    2.000    0.000    5.333 
#    0.000    1.667    0.000    6.000    0.000    0.000 
#    0.000    0.000    0.000    0.000    0.000    0.000 
#
# Total GULP energy -297317.882353 kJ/mol
# GULP energy per Si atom -12388.245098 kJ/mol
# Density = 1.710716 g / cm^3
# Si number density = 17.146185 Si / 1000 Ang^3
#
#
#
# Elastic Constant Matrix: (Units=GPa)
#
#
# Indices 1 2 3 4 5 6 
#
# 1 61.3746 36.2665 67.3508 0.0000 -4.3721 0.0000
# 2 36.2665 71.5996 64.1773 0.0001 3.7187 -0.0001
# 3 67.3508 64.1773 171.5627 0.0000 -8.1215 0.0000
# 4 0.0000 0.0001 0.0000 31.3300 0.0000 3.6706
# 5 -4.3721 3.7187 -8.1215 0.0000 32.1162 0.0000
# 6 0.0000 -0.0001 0.0000 3.6706 0.0000 20.6834
#
#
#
# Elastic Compliance Matrix: (Units=1/GPa)
#
#
# Indices 1 2 3 4 5 6 
#
# 1 0.031141 -0.007641 -0.009235 0.000000 0.002789 0.000000
# 2 -0.007641 0.023541 -0.006057 0.000000 -0.005298 0.000000
# 3 -0.009235 -0.006057 0.011835 0.000000 0.002437 0.000000
# 4 0.000000 0.000000 0.000000 0.032596 0.000000 -0.005785
# 5 0.002789 -0.005298 0.002437 0.000000 0.032746 0.000000
# 6 0.000000 0.000000 0.000000 -0.005785 0.000000 0.049374
#
#
# Mechanical properties :
#
#
# Convention : Reuss Voigt Hill
#
# Bulk Modulus (GPa) = 48.42219 71.12511 59.77365
# Shear Modulus (GPa) = 21.36887 25.94210 23.65548
#
# Velocity S-wave (km/s) = 3.53409 3.89394 3.71837
# Velocity P-wave (km/s) = 6.70486 7.86058 7.30561
#
# Compressibility (1/GPa) = 0.02065169
#
# Stress axis : x y z
#
# Youngs Moduli (GPa) = 32.11179 42.47822 84.49178
#
# Poissons Ratio (x) = 0.32457 0.78028
# Poissons Ratio (y) = 0.24536 0.51181
# Poissons Ratio (z) = 0.29655 0.25731
#
# Static dielectric constant tensor:
#      x y z
#    x 2.800360 0.000000 -0.156990 
#    y 0.000000 3.221740 0.000000 
#    z -0.156990 0.000000 3.743290 
# 
# 
# High freq. dielectric constant tensor:
#      x y z
#    x 1.606510 0.000000 -0.007550 
#    y 0.000000 1.664440 0.000000 
#    z -0.007550 0.000000 1.686100 
# 
# From -- ./inp_files/280051.got.cif
#   From: 2010.06.25/outbox.cif.g09.slc.cpg/sg12_141_cif.got.tgz:280051.got - 2010.06.28 00:19:55.
