data_PCOD8095599
_publ_section_title
;
Structure prediction by ZEFSAII (Michael W. Deem and Ramdas Pophale) SiO2 
 PCOD8095599
Probable space group: C 2/M
;
_chemical_formula_sum "Si O2"
_cell_formula_units_Z 56
_cell_length_a 14.974301
_cell_length_b 9.320723
_cell_length_c 26.117270
_cell_angle_alpha 90.000000
_cell_angle_beta 56.164407
_cell_angle_gamma 90.000000
_cell_volume 3027.862267
_symmetry_space_group_name_H-M "C 2/M"
_symmetry_group_IT_number 12
_symmetry_cell_setting 'monoclinic'
loop_
_space_group_symop_operation_xyz
x,y,z
-x,y,-z
-x,-y,-z
x,-y,z
1/2+x,1/2+y,z
1/2-x,1/2+y,-z
1/2-x,1/2-y,-z
1/2+x,1/2-y,z
loop_
_atom_site_type_symbol
_atom_site_label
_atom_site_fract_x
_atom_site_fract_y
_atom_site_fract_z
Si Si1 0.744313 0.329695 0.376634
Si Si2 0.376983 0.167418 0.853475
Si Si3 0.165010 0.669686 0.922356
Si Si4 0.449321 0.169657 0.939757
Si Si5 0.590943 0.330219 0.508076
Si Si6 0.984027 0.667385 0.288011
Si Si7 0.557720 0.669805 0.358670
O O1 0.748808 0.500000 0.373891
O O2 0.704080 0.276983 0.446748
O O3 0.660833 0.279779 0.359165
O O4 0.862987 0.267927 0.328185
O O5 0.270862 0.250021 0.869534
O O6 0.416056 0.232469 0.895334
O O7 0.470874 0.195958 0.782857
O O8 0.349373 0.000000 0.866730
O O9 0.182814 0.500000 0.912410
O O10 0.068301 0.723466 0.916770
O O11 0.137026 0.716034 0.989641
O O12 0.454202 0.000000 0.935921
O O13 0.500000 0.268024 0.500000
O O14 0.588782 0.500000 0.506565
O O15 0.555280 0.283556 0.576732
O O16 0.985773 0.500000 0.301385
O O17 0.059844 0.749130 0.304117
O O18 0.561729 0.500000 0.347808
#
# Coordination Sequence:
#
# PCOD8095599 Si02
#       7
#     8   8   8   8   8   8   8
#     4   8  15  30  50  69  92 125 160 191 233 292
#     4  10  20  33  47  67  99 133 159 187 229 281
#     4   9  17  32  55  78  95 117 155 200 238 272
#     4   8  16  32  53  75  98 123 153 191 236 283
#     4   7  11  23  46  72  91 111 149 200 243 277
#     4  10  21  33  45  66  97 132 163 188 226 283
#     4   9  17  31  52  73  91 117 159 206 241 274
#
# _framework density 18.494897000000002
#
# number of rings (size 3 to 8) (size 9 to 14) (size 15 to 20)
#    0.000    3.286    0.000    3.000    0.000    2.286 
#    0.000    5.714    0.000    3.857    0.000    0.000 
#    0.000    0.000    0.000    0.000    0.000    0.000 
#
# Total GULP energy -346887.617269 kJ/mol
# GULP energy per Si atom -12388.843474 kJ/mol
# Density = 1.845280 g / cm^3
# Si number density = 18.494897 Si / 1000 Ang^3
#
#
#
# Elastic Constant Matrix: (Units=GPa)
#
#
# Indices 1 2 3 4 5 6 
#
# 1 71.8294 20.8203 34.6338 0.0000 -7.8413 0.0000
# 2 20.8203 25.9036 26.0094 0.0000 -1.5850 0.0001
# 3 34.6338 26.0094 83.8795 0.0000 -10.4453 0.0000
# 4 0.0000 0.0000 0.0000 21.8132 0.0000 -1.1787
# 5 -7.8413 -1.5850 -10.4453 0.0000 31.9265 0.0000
# 6 0.0000 0.0001 0.0000 -1.1787 0.0000 22.8766
#
#
#
# Elastic Compliance Matrix: (Units=1/GPa)
#
#
# Indices 1 2 3 4 5 6 
#
# 1 0.019540 -0.011308 -0.004205 0.000000 0.002862 0.000000
# 2 -0.011308 0.062884 -0.015415 0.000000 -0.004699 0.000000
# 3 -0.004205 -0.015415 0.018988 0.000000 0.004414 0.000000
# 4 0.000000 0.000000 0.000000 0.045972 0.000000 0.002369
# 5 0.002862 -0.004699 0.004414 0.000000 0.033236 0.000000
# 6 0.000000 0.000000 0.000000 0.002369 0.000000 0.043835
#
#
# Mechanical properties :
#
#
# Convention : Reuss Voigt Hill
#
# Bulk Modulus (GPa) = 25.28116 38.28216 31.78166
# Shear Modulus (GPa) = 16.69475 21.99985 19.34730
#
# Velocity S-wave (km/s) = 3.00770 3.45267 3.23784
# Velocity P-wave (km/s) = 5.07549 6.05295 5.58565
#
# Compressibility (1/GPa) = 0.03955515
#
# Stress axis : x y z
#
# Youngs Moduli (GPa) = 51.17837 15.90225 52.66520
#
# Poissons Ratio (x) = 0.17982 0.22147
# Poissons Ratio (y) = 0.57871 0.81185
# Poissons Ratio (z) = 0.21521 0.24514
#
# Static dielectric constant tensor:
#      x y z
#    x 3.489890 0.000000 -0.018970 
#    y 0.000000 2.859000 0.000000 
#    z -0.018970 0.000000 3.677850 
# 
# 
# High freq. dielectric constant tensor:
#      x y z
#    x 1.712910 0.000000 -0.003090 
#    y 0.000000 1.664310 0.000000 
#    z -0.003090 0.000000 1.726400 
# 
# From -- ./inp_files/335120.got.cif
#   From: 2010.06.25/outbox.cif.g09.slc.cpg/sg12_168_cif.got.tgz:335120.got - 2010.06.28 00:19:55.
