data_PCOD8095758
_publ_section_title
;
Structure prediction by ZEFSAII (Michael W. Deem and Ramdas Pophale) SiO2 
 PCOD8095758
Probable space group: C 2/M
;
_chemical_formula_sum "Si O2"
_cell_formula_units_Z 64
_cell_length_a 21.201291
_cell_length_b 13.623224
_cell_length_c 23.991917
_cell_angle_alpha 90.000000
_cell_angle_beta 32.244105
_cell_angle_gamma 90.000000
_cell_volume 3697.123543
_symmetry_space_group_name_H-M "C 2/M"
_symmetry_group_IT_number 12
_symmetry_cell_setting 'monoclinic'
loop_
_space_group_symop_operation_xyz
x,y,z
-x,y,-z
-x,-y,-z
x,-y,z
1/2+x,1/2+y,z
1/2-x,1/2+y,-z
1/2-x,1/2-y,-z
1/2+x,1/2-y,z
loop_
_atom_site_type_symbol
_atom_site_label
_atom_site_fract_x
_atom_site_fract_y
_atom_site_fract_z
Si Si1 0.892748 0.775680 0.619835
Si Si2 0.685844 0.232080 0.988939
Si Si3 0.425792 0.755526 0.761276
Si Si4 0.156765 0.391618 0.266750
Si Si5 0.907742 0.109970 0.022743
Si Si6 0.240166 0.890214 0.368060
Si Si7 0.038988 0.885078 0.600058
Si Si8 0.016662 0.389113 0.178961
O O1 0.839916 0.673228 0.680241
O O2 0.787612 0.825361 0.664559
O O3 0.000000 0.749419 0.500000
O O4 0.933916 0.849478 0.637794
O O5 0.792977 0.208609 0.865733
O O6 0.608618 0.322465 0.020488
O O7 0.750000 0.250000 0.000000
O O8 0.593697 0.142007 0.066798
O O9 0.432090 0.840444 0.710181
O O10 0.519330 0.670991 0.673790
O O11 0.460564 0.806939 0.792285
O O12 0.108096 0.500000 0.317215
O O13 0.285002 0.398505 0.145464
O O14 0.947790 0.000000 0.973490
O O15 0.000000 0.152672 0.000000
O O16 0.167001 0.856727 0.478030
O O17 0.378672 0.885483 0.271870
O O18 0.196524 0.000000 0.387418
O O19 0.027442 0.000000 0.620277
O O20 0.054656 0.500000 0.168106
#
# Coordination Sequence:
#
# PCOD8095758 Si02
#       8
#     8   8   8   8   8   8   8   8
#     4   9  17  29  47  70  95 126 158 194 239 285
#     4   9  19  33  50  74 100 131 167 202 244 296
#     4   9  18  33  50  72  94 125 163 197 239 283
#     4   9  17  29  47  70  95 124 158 194 235 287
#     4   9  18  32  51  74  97 128 165 205 250 293
#     4   9  18  31  48  71  94 124 161 197 241 287
#     4   9  17  31  51  71  94 122 159 202 240 284
#     4  10  20  33  50  70  97 129 160 197 241 288
#
# _framework density 17.310755
#
# number of rings (size 3 to 8) (size 9 to 14) (size 15 to 20)
#    0.000    2.875    0.000    0.750    1.750    5.750 
#    0.000    1.875    0.000    1.125    0.000    0.000 
#    0.000    0.000    0.000    0.000    0.000    0.000 
#
# Total GULP energy -396483.476832 kJ/mol
# GULP energy per Si atom -12390.108651 kJ/mol
# Density = 1.727135 g / cm^3
# Si number density = 17.310755 Si / 1000 Ang^3
#
#
#
# Elastic Constant Matrix: (Units=GPa)
#
#
# Indices 1 2 3 4 5 6 
#
# 1 68.9727 40.8009 20.0586 -0.0002 3.5870 0.0001
# 2 40.8009 109.3609 52.0275 -0.0006 7.8597 0.0002
# 3 20.0586 52.0275 71.2584 -0.0010 3.6945 0.0003
# 4 -0.0002 -0.0006 -0.0010 27.3192 0.0005 4.7115
# 5 3.5870 7.8597 3.6945 0.0005 22.3912 -0.0001
# 6 0.0001 0.0002 0.0003 4.7115 -0.0001 27.7773
#
#
#
# Elastic Compliance Matrix: (Units=1/GPa)
#
#
# Indices 1 2 3 4 5 6 
#
# 1 0.018614 -0.006781 -0.000260 0.000000 -0.000559 0.000000
# 2 -0.006781 0.016720 -0.010138 0.000000 -0.003110 0.000000
# 3 -0.000260 -0.010138 0.021506 0.000001 0.000052 0.000000
# 4 0.000000 0.000000 0.000001 0.037707 -0.000001 -0.006396
# 5 -0.000559 -0.003110 0.000052 -0.000001 0.045833 0.000000
# 6 0.000000 0.000000 0.000000 -0.006396 0.000000 0.037085
#
#
# Mechanical properties :
#
#
# Convention : Reuss Voigt Hill
#
# Bulk Modulus (GPa) = 44.47782 52.81845 48.64814
# Shear Modulus (GPa) = 22.79787 24.61120 23.70453
#
# Velocity S-wave (km/s) = 3.63295 3.77467 3.70449
# Velocity P-wave (km/s) = 6.58387 7.04100 6.81627
#
# Compressibility (1/GPa) = 0.02248312
#
# Stress axis : x y z
#
# Youngs Moduli (GPa) = 53.72178 59.80683 46.49890
#
# Poissons Ratio (x) = 0.40555 0.01208
# Poissons Ratio (y) = 0.36429 0.47141
# Poissons Ratio (z) = 0.01396 0.60632
#
# Static dielectric constant tensor:
#      x y z
#    x 3.118980 0.000000 0.075760 
#    y 0.000000 3.509200 0.000000 
#    z 0.075760 0.000000 3.464750 
# 
# 
# High freq. dielectric constant tensor:
#      x y z
#    x 1.650960 0.000000 0.000420 
#    y 0.000000 1.664530 0.000000 
#    z 0.000420 0.000000 1.669800 
# 
# From -- ./inp_files/367802.got.cif
#   From: 2010.06.25/outbox.cif.g09.slc.cpg/sg12_184_cif.got.tgz:367802.got - 2010.06.28 00:19:55.
