data_PCOD8095547
_publ_section_title
;
Structure prediction by ZEFSAII (Michael W. Deem and Ramdas Pophale) SiO2 
 PCOD8095547
Probable space group: C 2/M
;
_chemical_formula_sum "Si O2"
_cell_formula_units_Z 60
_cell_length_a 11.813169
_cell_length_b 24.977570
_cell_length_c 13.028045
_cell_angle_alpha 90.000000
_cell_angle_beta 52.574734
_cell_angle_gamma 90.000000
_cell_volume 3052.787611
_symmetry_space_group_name_H-M "C 2/M"
_symmetry_group_IT_number 12
_symmetry_cell_setting 'monoclinic'
loop_
_space_group_symop_operation_xyz
x,y,z
-x,y,-z
-x,-y,-z
x,-y,z
1/2+x,1/2+y,z
1/2-x,1/2+y,-z
1/2-x,1/2-y,-z
1/2+x,1/2-y,z
loop_
_atom_site_type_symbol
_atom_site_label
_atom_site_fract_x
_atom_site_fract_y
_atom_site_fract_z
Si Si1 0.129507 0.096340 0.362135
Si Si2 0.089286 0.846207 0.046883
Si Si3 0.845711 0.784338 0.288984
Si Si4 0.000000 0.611803 0.000000
Si Si5 0.717560 0.559366 0.105398
Si Si6 0.617767 0.838693 0.734806
Si Si7 0.512220 0.707106 0.376104
Si Si8 0.152323 0.691733 0.224003
O O1 0.173779 0.055162 0.249990
O O2 0.261864 0.116672 0.360882
O O3 0.080036 0.149403 0.330566
O O4 0.000000 0.071670 0.500000
O O5 0.122225 0.898194 0.097032
O O6 0.998349 0.801516 0.156668
O O7 0.234216 0.817469 0.928806
O O8 0.000000 0.868448 0.000000
O O9 0.815508 0.720861 0.292946
O O10 0.722001 0.818687 0.298984
O O11 0.855506 0.796860 0.406256
O O12 0.883407 0.574667 0.008544
O O13 0.931556 0.649766 0.122566
O O14 0.696512 0.500000 0.069736
O O15 0.489111 0.843522 0.722508
O O16 0.500000 0.728135 0.500000
O O17 0.602735 0.746712 0.253826
#
# Coordination Sequence:
#
# PCOD8095547 Si02
#       8
#     8   8   8   4   8   8   8   8
#     4  10  21  39  55  81 117 149 191 240 282 329
#     4  10  21  35  54  84 118 145 186 237 281 345
#     4  10  20  33  53  82 116 153 188 225 271 341
#     4  10  21  34  56  88 116 140 177 242 296 350
#     4  11  22  39  60  83 109 147 194 246 298 335
#     4  10  20  32  55  81 115 153 183 221 287 340
#     4  10  20  34  52  77 111 153 188 229 272 322
#     4  10  20  35  51  82 115 152 191 216 282 348
#
# _framework density 19.654167999999999
#
# number of rings (size 3 to 8) (size 9 to 14) (size 15 to 20)
#    0.000    1.867    4.000    0.200    2.800    3.200 
#    2.400    0.000    0.000    0.000    0.000    0.000 
#    0.000    4.800    0.000    0.000    0.000    0.000 
#
# Total GULP energy -371657.464660 kJ/mol
# GULP energy per Si atom -12388.582155 kJ/mol
# Density = 1.960943 g / cm^3
# Si number density = 19.654168 Si / 1000 Ang^3
#
#
#
# Elastic Constant Matrix: (Units=GPa)
#
#
# Indices 1 2 3 4 5 6 
#
# 1 138.0776 9.1795 29.1506 0.0000 6.7846 0.0000
# 2 9.1795 55.7537 11.2075 0.0000 7.1938 0.0000
# 3 29.1506 11.2075 56.9241 0.0000 -1.5390 0.0000
# 4 0.0000 0.0000 0.0000 12.3253 0.0000 3.9048
# 5 6.7846 7.1938 -1.5390 0.0000 29.8015 0.0000
# 6 0.0000 0.0000 0.0000 3.9048 0.0000 16.6825
#
#
#
# Elastic Compliance Matrix: (Units=1/GPa)
#
#
# Indices 1 2 3 4 5 6 
#
# 1 0.008252 -0.000245 -0.004233 0.000000 -0.002038 0.000000
# 2 -0.000245 0.019365 -0.003818 0.000000 -0.004816 0.000000
# 3 -0.004233 -0.003818 0.020566 0.000000 0.002947 0.000000
# 4 0.000000 0.000000 0.000000 0.087632 0.000000 -0.020512
# 5 -0.002038 -0.004816 0.002947 0.000000 0.035334 0.000000
# 6 0.000000 0.000000 0.000000 -0.020512 0.000000 0.064744
#
#
# Mechanical properties :
#
#
# Convention : Reuss Voigt Hill
#
# Bulk Modulus (GPa) = 31.65242 38.87007 35.26124
# Shear Modulus (GPa) = 19.01030 25.17639 22.09335
#
# Velocity S-wave (km/s) = 3.11342 3.58295 3.35640
# Velocity P-wave (km/s) = 5.39112 6.07755 5.74460
#
# Compressibility (1/GPa) = 0.03159316
#
# Stress axis : x y z
#
# Youngs Moduli (GPa) = 121.17729 51.63927 48.62342
#
# Poissons Ratio (x) = 0.01264 0.20582
# Poissons Ratio (y) = 0.02967 0.18562
# Poissons Ratio (z) = 0.51293 0.19713
#
# Static dielectric constant tensor:
#      x y z
#    x 4.213410 0.000000 -0.082990 
#    y 0.000000 3.117910 0.000000 
#    z -0.082990 0.000000 3.576790 
# 
# 
# High freq. dielectric constant tensor:
#      x y z
#    x 1.788290 0.000000 -0.007130 
#    y 0.000000 1.716880 0.000000 
#    z -0.007130 0.000000 1.759420 
# 
# From -- ./inp_files/208959.got.cif
#   From: 2010.06.25/outbox.cif.g09.slc.cpg/sg12_105_cif.got.tgz:208959.got - 2010.06.28 00:19:55.
