data_PCOD8095759
_publ_section_title
;
Structure prediction by ZEFSAII (Michael W. Deem and Ramdas Pophale) SiO2 
 PCOD8095759
Probable space group: C 2/M
;
_chemical_formula_sum "Si O2"
_cell_formula_units_Z 40
_cell_length_a 16.527548
_cell_length_b 9.674560
_cell_length_c 22.340649
_cell_angle_alpha 90.000000
_cell_angle_beta 141.074128
_cell_angle_gamma 90.000000
_cell_volume 2244.463025
_symmetry_space_group_name_H-M "C 2/M"
_symmetry_group_IT_number 12
_symmetry_cell_setting 'monoclinic'
loop_
_space_group_symop_operation_xyz
x,y,z
-x,y,-z
-x,-y,-z
x,-y,z
1/2+x,1/2+y,z
1/2-x,1/2+y,-z
1/2-x,1/2-y,-z
1/2+x,1/2-y,z
loop_
_atom_site_type_symbol
_atom_site_label
_atom_site_fract_x
_atom_site_fract_y
_atom_site_fract_z
Si Si1 0.699904 0.000000 0.363416
Si Si2 0.915862 0.000000 0.767805
Si Si3 0.818267 0.284396 0.251471
Si Si4 0.105947 0.000000 0.111553
Si Si5 0.333704 0.500000 0.316062
Si Si6 0.888715 0.000000 0.576778
Si Si7 0.383190 0.000000 0.384439
Si Si8 0.457534 0.730225 0.705273
O O1 0.801724 0.000000 0.367900
O O2 0.615826 0.862860 0.312462
O O3 0.764948 0.000000 0.464997
O O4 0.960239 0.000000 0.861787
O O5 0.979909 0.135094 0.775889
O O6 0.759303 0.000000 0.667729
O O7 0.692377 0.363281 0.156518
O O8 0.894069 0.364650 0.348527
O O9 0.907220 0.275077 0.244514
O O10 0.774187 0.134959 0.250072
O O11 0.000000 0.000000 0.000000
O O12 0.486788 0.500000 0.394340
O O13 0.880839 0.138297 0.612294
O O14 0.500000 0.000000 0.500000
#
# Coordination Sequence:
#
# PCOD8095759 Si02
#       8
#     4   4   8   4   4   4   4   8
#     4  12  18  27  48  75  97 134 187 219 234 282
#     4   9  20  37  53  76 105 138 172 213 263 310
#     4   9  20  37  53  76 105 138 172 213 263 310
#     4  10  20  40  64  80  97 130 170 208 259 332
#     4  10  20  33  50  71 104 138 168 216 261 296
#     4   9  21  33  42  66 106 146 175 204 252 294
#     4  10  20  34  52  74 109 154 194 220 247 296
#     4  10  20  33  50  71 104 138 168 216 261 296
#
# _framework density 17.821636000000002
#
# number of rings (size 3 to 8) (size 9 to 14) (size 15 to 20)
#    0.000    2.400    0.000    5.100    0.000    9.600 
#    0.000    1.500    0.000    0.000    0.000    0.000 
#    0.000    0.000    0.000    0.000    0.000    0.000 
#
# Total GULP energy -247945.409781 kJ/mol
# GULP energy per Si atom -12397.270489 kJ/mol
# Density = 1.778107 g / cm^3
# Si number density = 17.821636 Si / 1000 Ang^3
#
#
#
# Elastic Constant Matrix: (Units=GPa)
#
#
# Indices 1 2 3 4 5 6 
#
# 1 117.7704 42.6592 28.7253 0.0000 -20.4047 0.0000
# 2 42.6592 148.1703 39.5658 0.0000 -7.5848 0.0000
# 3 28.7253 39.5658 114.9658 0.0000 -16.1553 0.0000
# 4 0.0000 0.0000 0.0000 -10.1562 0.0000 -21.4722
# 5 -20.4047 -7.5848 -16.1553 0.0000 15.4943 0.0000
# 6 0.0000 0.0000 0.0000 -21.4722 0.0000 25.5229
#
#
#
# Elastic Compliance Matrix: (Units=1/GPa)
#
#
# Indices 1 2 3 4 5 6 
#
# 1 0.011975 -0.002700 -0.000038 0.000000 0.014408 0.000000
# 2 -0.002700 0.008058 -0.002395 0.000000 -0.002108 0.000000
# 3 -0.000038 -0.002395 0.010967 0.000000 0.010212 0.000000
# 4 0.000000 0.000000 0.000000 -0.035435 0.000000 -0.029811
# 5 0.014408 -0.002108 0.010212 0.000000 0.093130 0.000000
# 6 0.000000 0.000000 0.000000 -0.029811 0.000000 0.014101
#
#
# Mechanical properties :
#
#
# Convention : Reuss Voigt Hill
#
# Bulk Modulus (GPa) = 48.22990 66.97857 57.60423
# Shear Modulus (GPa) = 41.67639 24.16928 32.92283
#
# Velocity S-wave (km/s) = 4.84108 3.68663 4.30275
# Velocity P-wave (km/s) = 7.63998 7.46900 7.55497
#
# Compressibility (1/GPa) = 0.02073403
#
# Stress axis : x y z
#
# Youngs Moduli (GPa) = 83.50950 124.10243 91.18270
#
# Poissons Ratio (x) = 0.33506 0.00348
# Poissons Ratio (y) = 0.22546 0.21836
# Poissons Ratio (z) = 0.00319 0.29719
#
# Static dielectric constant tensor:
#      x y z
#    x 3.499970 0.000000 -0.105240 
#    y 0.000000 3.520630 0.000000 
#    z -0.105240 0.000000 2.732260 
# 
# 
# High freq. dielectric constant tensor:
#      x y z
#    x 1.711220 0.000000 -0.010740 
#    y 0.000000 1.712540 0.000000 
#    z -0.010740 0.000000 1.628260 
# 
# From -- ./inp_files/342089.got.cif
#   From: 2010.06.25/outbox.cif.g09.slc.cpg/sg12_172_cif.got.tgz:342089.got - 2010.06.28 00:19:55.
