data_PCOD8095524
_publ_section_title
;
Structure prediction by ZEFSAII (Michael W. Deem and Ramdas Pophale) SiO2 
 PCOD8095524
Probable space group: C 2/M
;
_chemical_formula_sum "Si O2"
_cell_formula_units_Z 64
_cell_length_a 26.647755
_cell_length_b 19.246457
_cell_length_c 9.454012
_cell_angle_alpha 90.000000
_cell_angle_beta 46.808945
_cell_angle_gamma 90.000000
_cell_volume 3535.086688
_symmetry_space_group_name_H-M "C 2/M"
_symmetry_group_IT_number 12
_symmetry_cell_setting 'monoclinic'
loop_
_space_group_symop_operation_xyz
x,y,z
-x,y,-z
-x,-y,-z
x,-y,z
1/2+x,1/2+y,z
1/2-x,1/2+y,-z
1/2-x,1/2-y,-z
1/2+x,1/2-y,z
loop_
_atom_site_type_symbol
_atom_site_label
_atom_site_fract_x
_atom_site_fract_y
_atom_site_fract_z
Si Si1 0.376846 0.801302 0.581546
Si Si2 0.294718 0.079445 0.632426
Si Si3 0.330564 0.577774 0.911517
Si Si4 0.107829 0.834148 0.996150
Si Si5 0.782258 0.171150 0.756230
Si Si6 0.278751 0.329176 0.445228
Si Si7 0.128956 0.299625 0.094091
Si Si8 0.492581 0.775653 0.853869
O O1 0.359967 0.879682 0.567595
O O2 0.309683 0.750867 0.708248
O O3 0.405205 0.804630 0.685842
O O4 0.435271 0.774531 0.364165
O O5 0.274250 0.118731 0.527689
O O6 0.314576 0.000000 0.559020
O O7 0.237529 0.083676 0.863355
O O8 0.344104 0.500000 0.832466
O O9 0.326592 0.624928 0.778933
O O10 0.392524 0.597991 0.902125
O O11 0.147793 0.838665 0.771307
O O12 0.149620 0.779232 0.014685
O O13 0.031765 0.805432 0.107145
O O14 0.790996 0.143886 0.580083
O O15 0.701314 0.160063 0.948483
O O16 0.250000 0.250000 0.500000
O O17 0.067606 0.323395 0.103562
O O18 0.500000 0.801812 0.000000
#
# Coordination Sequence:
#
# PCOD8095524 Si02
#       8
#     8   8   8   8   8   8   8   8
#     4  12  20  34  61  83 113 148 192 241 279 339
#     4  10  22  35  53  82 118 153 184 225 292 349
#     4  10  20  36  56  83 119 153 182 235 296 345
#     4   9  19  35  52  82 114 145 191 230 287 340
#     4  12  19  31  58  88 110 138 195 243 285 327
#     4  11  18  30  55  84 112 148 185 236 285 331
#     4  10  20  32  53  85 111 138 185 245 276 327
#     4  10  22  35  54  85 116 145 188 242 287 331
#
# _framework density 18.104225
#
# number of rings (size 3 to 8) (size 9 to 14) (size 15 to 20)
#    0.750    0.750    5.000    2.250    1.750    0.500 
#    0.000    0.000    0.000    4.500    0.000    0.000 
#    0.000    0.000    0.000    0.000    0.000    0.000 
#
# Total GULP energy -396438.794083 kJ/mol
# GULP energy per Si atom -12388.712315 kJ/mol
# Density = 1.806302 g / cm^3
# Si number density = 18.104225 Si / 1000 Ang^3
#
#
#
# Elastic Constant Matrix: (Units=GPa)
#
#
# Indices 1 2 3 4 5 6 
#
# 1 88.3256 24.3075 45.4334 0.0000 20.9394 0.0000
# 2 24.3075 83.4336 24.2153 0.0000 11.4323 0.0000
# 3 45.4334 24.2153 101.8166 0.0000 23.6843 0.0000
# 4 0.0000 0.0000 0.0000 14.5795 0.0000 1.0370
# 5 20.9394 11.4323 23.6843 0.0000 39.8704 0.0000
# 6 0.0000 0.0000 0.0000 1.0370 0.0000 23.7867
#
#
#
# Elastic Compliance Matrix: (Units=1/GPa)
#
#
# Indices 1 2 3 4 5 6 
#
# 1 0.015843 -0.002427 -0.005475 0.000000 -0.004372 0.000000
# 2 -0.002427 0.013411 -0.001750 0.000000 -0.001531 0.000000
# 3 -0.005475 -0.001750 0.013803 0.000000 -0.004822 0.000000
# 4 0.000000 0.000000 0.000000 0.068803 0.000000 -0.002999
# 5 -0.004372 -0.001531 -0.004822 0.000000 0.030681 0.000000
# 6 0.000000 0.000000 0.000000 -0.002999 0.000000 0.042171
#
#
# Mechanical properties :
#
#
# Convention : Reuss Voigt Hill
#
# Bulk Modulus (GPa) = 42.10486 51.27646 46.69066
# Shear Modulus (GPa) = 23.59244 27.62196 25.60720
#
# Velocity S-wave (km/s) = 3.61383 3.91028 3.76497
# Velocity P-wave (km/s) = 6.38125 6.98366 6.68924
#
# Compressibility (1/GPa) = 0.02375023
#
# Stress axis : x y z
#
# Youngs Moduli (GPa) = 63.12129 74.56839 72.44999
#
# Poissons Ratio (x) = 0.18101 0.39667
# Poissons Ratio (y) = 0.15322 0.12680
# Poissons Ratio (z) = 0.34559 0.13051
#
# Static dielectric constant tensor:
#      x y z
#    x 3.329210 0.000000 0.251630 
#    y 0.000000 3.148130 0.000000 
#    z 0.251630 0.000000 3.260120 
# 
# 
# High freq. dielectric constant tensor:
#      x y z
#    x 1.702820 0.000000 0.022850 
#    y 0.000000 1.659150 0.000000 
#    z 0.022850 0.000000 1.700060 
# 
# From -- ./inp_files/106389.got.cif
#   From: 2010.06.25/outbox.cif.g09.slc.cpg/sg12_54_cif.got.tgz:106389.got - 2010.06.28 00:19:55.
