data_PCOD8095348
_publ_section_title
;
Structure prediction by ZEFSAII (Michael W. Deem and Ramdas Pophale) SiO2 
 PCOD8095348
Probable space group: C 2/M
;
_chemical_formula_sum "Si O2"
_cell_formula_units_Z 64
_cell_length_a 31.019871
_cell_length_b 8.978850
_cell_length_c 15.687497
_cell_angle_alpha 90.000000
_cell_angle_beta 54.161941
_cell_angle_gamma 90.000000
_cell_volume 3542.102970
_symmetry_space_group_name_H-M "C 2/M"
_symmetry_group_IT_number 12
_symmetry_cell_setting 'monoclinic'
loop_
_space_group_symop_operation_xyz
x,y,z
-x,y,-z
-x,-y,-z
x,-y,z
1/2+x,1/2+y,z
1/2-x,1/2+y,-z
1/2-x,1/2-y,-z
1/2+x,1/2-y,z
loop_
_atom_site_type_symbol
_atom_site_label
_atom_site_fract_x
_atom_site_fract_y
_atom_site_fract_z
Si Si1 0.044452 0.173108 0.766989
Si Si2 0.937865 0.665561 0.084729
Si Si3 0.282014 0.176249 0.658861
Si Si4 0.784159 0.330599 0.390560
Si Si5 0.670613 0.825889 0.058979
Si Si6 0.778676 0.826178 0.841314
Si Si7 0.077604 0.175007 0.067777
Si Si8 0.370717 0.831726 0.420191
O O1 0.071938 0.252725 0.815306
O O2 0.075836 0.231454 0.646487
O O3 0.982103 0.209666 0.831089
O O4 0.053857 0.000000 0.767863
O O5 0.911653 0.500000 0.116056
O O6 0.912365 0.762212 0.038496
O O7 0.000000 0.649960 0.000000
O O8 0.226684 0.246090 0.686409
O O9 0.293057 0.240879 0.738609
O O10 0.331070 0.223960 0.540599
O O11 0.275380 0.000000 0.670306
O O12 0.765140 0.500000 0.401845
O O13 0.750000 0.250000 0.500000
O O14 0.844063 0.322655 0.356514
O O15 0.683048 0.740145 0.131357
O O16 0.615996 0.759832 0.087530
O O17 0.663958 0.000000 0.086382
O O18 0.717275 0.797715 0.936510
O O19 0.790953 0.000000 0.816491
O O20 0.089913 0.000000 0.053212
O O21 0.388036 0.000000 0.420439
#
# Coordination Sequence:
#
# PCOD8095348 Si02
#       8
#     8   8   8   8   8   8   8   8
#     4  10  20  32  49  74 104 139 176 213 253 297
#     4   9  17  30  48  69  96 132 171 209 249 293
#     4  10  20  34  53  77 104 136 173 211 254 304
#     4   9  17  30  47  69  98 132 170 210 250 293
#     4  10  21  37  57  80 104 131 164 203 253 310
#     4  10  21  37  57  80 104 130 163 206 255 306
#     4  10  20  34  52  76 105 135 171 213 255 301
#     4   9  19  33  49  72 104 140 176 212 249 297
#
# _framework density 18.068362
#
# number of rings (size 3 to 8) (size 9 to 14) (size 15 to 20)
#    0.000    2.375    0.000    3.375    0.000    8.500 
#    0.000    1.250    0.000    0.750    0.000    5.250 
#    0.000    0.000    0.000    0.000    0.000    0.000 
#
# Total GULP energy -396691.195398 kJ/mol
# GULP energy per Si atom -12396.599856 kJ/mol
# Density = 1.802724 g / cm^3
# Si number density = 18.068362 Si / 1000 Ang^3
#
#
#
# Elastic Constant Matrix: (Units=GPa)
#
#
# Indices 1 2 3 4 5 6 
#
# 1 74.4539 40.9310 42.5841 0.0000 6.5078 0.0000
# 2 40.9310 109.2653 49.0253 0.0000 -0.5289 0.0001
# 3 42.5841 49.0253 91.0275 0.0000 5.6388 0.0000
# 4 0.0000 0.0000 0.0000 30.4546 0.0000 4.7272
# 5 6.5078 -0.5289 5.6388 0.0000 20.7424 0.0000
# 6 0.0000 0.0001 0.0000 4.7272 0.0000 33.2752
#
#
#
# Elastic Compliance Matrix: (Units=1/GPa)
#
#
# Indices 1 2 3 4 5 6 
#
# 1 0.020178 -0.004582 -0.006685 0.000000 -0.004630 0.000000
# 2 -0.004582 0.013200 -0.005163 0.000000 0.003178 0.000000
# 3 -0.006685 -0.005163 0.017059 0.000000 -0.002672 0.000000
# 4 0.000000 0.000000 0.000000 0.033576 0.000000 -0.004770
# 5 -0.004630 0.003178 -0.002672 0.000000 0.050471 0.000000
# 6 0.000000 0.000000 0.000000 -0.004770 0.000000 0.030730
#
#
# Mechanical properties :
#
#
# Convention : Reuss Voigt Hill
#
# Bulk Modulus (GPa) = 56.88866 59.98082 58.43474
# Shear Modulus (GPa) = 24.51782 26.37486 25.44634
#
# Velocity S-wave (km/s) = 3.68767 3.82478 3.75685
# Velocity P-wave (km/s) = 7.04879 7.26457 7.15749
#
# Compressibility (1/GPa) = 0.01757820
#
# Stress axis : x y z
#
# Youngs Moduli (GPa) = 49.55824 75.75671 58.61925
#
# Poissons Ratio (x) = 0.34709 0.39189
# Poissons Ratio (y) = 0.22706 0.30264
# Poissons Ratio (z) = 0.33131 0.39111
#
# Static dielectric constant tensor:
#      x y z
#    x 3.309520 0.000000 0.017020 
#    y 0.000000 3.598650 0.000000 
#    z 0.017020 0.000000 3.237810 
# 
# 
# High freq. dielectric constant tensor:
#      x y z
#    x 1.679560 0.000000 -0.003380 
#    y 0.000000 1.718130 0.000000 
#    z -0.003380 0.000000 1.688220 
# 
# From -- ./inp_files/249049.got.cif
#   From: 2010.06.25/outbox.cif.g09.slc.cpg/sg12_125_cif.got.tgz:249049.got - 2010.06.28 00:19:55.
