data_PCOD8095099
_publ_section_title
;
Structure prediction by ZEFSAII (Michael W. Deem and Ramdas Pophale) SiO2 
 PCOD8095099
Probable space group: C 2/M
;
_chemical_formula_sum "Si O2"
_cell_formula_units_Z 64
_cell_length_a 26.423526
_cell_length_b 22.266848
_cell_length_c 9.065795
_cell_angle_alpha 90.000000
_cell_angle_beta 133.329295
_cell_angle_gamma 90.000000
_cell_volume 3880.090410
_symmetry_space_group_name_H-M "C 2/M"
_symmetry_group_IT_number 12
_symmetry_cell_setting 'monoclinic'
loop_
_space_group_symop_operation_xyz
x,y,z
-x,y,-z
-x,-y,-z
x,-y,z
1/2+x,1/2+y,z
1/2-x,1/2+y,-z
1/2-x,1/2-y,-z
1/2+x,1/2-y,z
loop_
_atom_site_type_symbol
_atom_site_label
_atom_site_fract_x
_atom_site_fract_y
_atom_site_fract_z
Si Si1 0.571723 0.375248 0.217976
Si Si2 0.928276 0.124751 0.431086
Si Si3 0.201148 0.069484 0.983064
Si Si4 0.716162 0.163180 0.018420
Si Si5 0.645686 0.258355 0.704350
Si Si6 0.716163 0.163178 0.346239
Si Si7 0.645683 0.741644 0.378380
Si Si8 0.701148 0.430515 0.321523
O O1 0.568616 0.384182 0.387231
O O2 0.587200 0.305569 0.207112
O O3 0.631430 0.418169 0.274135
O O4 0.500000 0.395055 0.000000
O O5 0.868573 0.081826 0.248424
O O6 0.912792 0.194429 0.358299
O O7 0.000000 0.104948 0.500000
O O8 0.266698 0.105897 0.048632
O O9 0.220467 0.000000 0.009383
O O10 0.189197 0.089247 0.128391
O O11 0.782308 0.206049 0.156798
O O12 0.695877 0.141313 0.141758
O O13 0.651134 0.200949 0.822550
O O14 0.627480 0.234346 0.504956
O O15 0.651135 0.200949 0.281986
O O16 0.782315 0.206041 0.472472
O O17 0.733298 0.105895 0.481841
O O18 0.720459 0.500000 0.372467
#
# Coordination Sequence:
#
# PCOD8095099 Si02
#       8
#     8   8   8   8   8   8   8   8
#     4  10  20  32  46  63  85 115 148 182 216 251
#     4  10  20  32  46  63  85 115 148 182 216 251
#     4  10  20  32  45  61  84 116 150 182 215 252
#     4   9  16  26  43  64  83 106 136 174 218 257
#     4   8  15  27  42  61  83 107 136 171 214 259
#     4   9  16  26  43  64  83 106 136 174 218 257
#     4   8  15  27  42  61  83 107 136 171 214 259
#     4  10  20  32  45  61  84 116 150 182 215 252
#
# _framework density 16.49446
#
# number of rings (size 3 to 8) (size 9 to 14) (size 15 to 20)
#    0.000    2.750    0.000    3.750    0.000    9.500 
#    0.000    0.000    0.000    0.000    0.000    0.000 
#    0.000    1.000    0.000    3.250    0.000    4.500 
#
# Total GULP energy -396680.720757 kJ/mol
# GULP energy per Si atom -12396.272524 kJ/mol
# Density = 1.645692 g / cm^3
# Si number density = 16.494460 Si / 1000 Ang^3
#
#
#
# Elastic Constant Matrix: (Units=GPa)
#
#
# Indices 1 2 3 4 5 6 
#
# 1 48.6298 30.0872 17.6229 0.0000 -26.1703 0.0000
# 2 30.0872 76.4489 34.9069 0.0000 -16.8452 0.0000
# 3 17.6229 34.9069 63.9784 0.0000 -27.4729 0.0000
# 4 0.0000 0.0000 0.0000 22.4254 0.0000 -5.3980
# 5 -26.1703 -16.8452 -27.4729 0.0000 23.8022 0.0000
# 6 0.0000 0.0000 0.0000 -5.3980 0.0000 20.8790
#
#
#
# Elastic Compliance Matrix: (Units=1/GPa)
#
#
# Indices 1 2 3 4 5 6 
#
# 1 0.104953 -0.032333 0.056421 0.000000 0.157634 0.000000
# 2 -0.032333 0.027469 -0.025772 0.000000 -0.045856 0.000000
# 3 0.056421 -0.025772 0.065341 0.000000 0.119213 0.000000
# 4 0.000000 0.000000 0.000000 0.047552 0.000000 0.012294
# 5 0.157634 -0.045856 0.119213 0.000000 0.320473 0.000000
# 6 0.000000 0.000000 0.000000 0.012294 0.000000 0.051073
#
#
# Mechanical properties :
#
#
# Convention : Reuss Voigt Hill
#
# Bulk Modulus (GPa) = 5.14417 39.36568 22.25492
# Shear Modulus (GPa) = 7.29896 20.51733 13.90815
#
# Velocity S-wave (km/s) = 2.10587 3.53071 2.90694
# Velocity P-wave (km/s) = 3.00640 6.36703 4.97883
#
# Compressibility (1/GPa) = 0.19439479
#
# Stress axis : x y z
#
# Youngs Moduli (GPa) = 9.52808 36.40457 15.30423
#
# Poissons Ratio (x) = 1.17708 -0.86348
# Poissons Ratio (y) = 0.30807 0.39442
# Poissons Ratio (z) = -0.53758 0.93822
#
# Static dielectric constant tensor:
#      x y z
#    x 3.059240 0.000000 -0.298460 
#    y 0.000000 3.030400 0.000000 
#    z -0.298460 0.000000 3.144700 
# 
# 
# High freq. dielectric constant tensor:
#      x y z
#    x 1.613180 0.000000 -0.036020 
#    y 0.000000 1.618070 0.000000 
#    z -0.036020 0.000000 1.623490 
# 
# From -- ./inp_files/106714.got.cif
#   From: 2010.06.25/outbox.cif.g09.slc.cpg/sg12_54_cif.got.tgz:106714.got - 2010.06.28 00:19:55.
