data_PCOD8095692
_publ_section_title
;
Structure prediction by ZEFSAII (Michael W. Deem and Ramdas Pophale) SiO2 
 PCOD8095692
Probable space group: C 2/M
;
_chemical_formula_sum "Si O2"
_cell_formula_units_Z 64
_cell_length_a 28.377190
_cell_length_b 8.831025
_cell_length_c 14.267569
_cell_angle_alpha 90.000000
_cell_angle_beta 87.522949
_cell_angle_gamma 90.000000
_cell_volume 3572.107291
_symmetry_space_group_name_H-M "C 2/M"
_symmetry_group_IT_number 12
_symmetry_cell_setting 'monoclinic'
loop_
_space_group_symop_operation_xyz
x,y,z
-x,y,-z
-x,-y,-z
x,-y,z
1/2+x,1/2+y,z
1/2-x,1/2+y,-z
1/2-x,1/2-y,-z
1/2+x,1/2-y,z
loop_
_atom_site_type_symbol
_atom_site_label
_atom_site_fract_x
_atom_site_fract_y
_atom_site_fract_z
Si Si1 0.551928 0.819390 0.519136
Si Si2 0.528410 0.173890 0.182772
Si Si3 0.674305 0.674319 0.197367
Si Si4 0.858096 0.323099 0.132059
Si Si5 0.597571 0.325294 0.045040
Si Si6 0.067293 0.322071 0.724142
Si Si7 0.105207 0.326632 0.334802
Si Si8 0.760138 0.821747 0.099401
O O1 0.500000 0.754965 0.500000
O O2 0.568646 0.755099 0.618660
O O3 0.589554 0.764494 0.437984
O O4 0.550196 0.000000 0.517556
O O5 0.548682 0.273438 0.095955
O O6 0.477188 0.241969 0.213230
O O7 0.560337 0.190328 0.271746
O O8 0.526148 0.000000 0.149373
O O9 0.688356 0.500000 0.206017
O O10 0.640417 0.703398 0.112430
O O11 0.649026 0.727519 0.294793
O O12 0.721525 0.770540 0.178291
O O13 0.846070 0.500000 0.124323
O O14 0.883954 0.284481 0.227745
O O15 0.810778 0.226524 0.133559
O O16 0.893340 0.277100 0.046022
O O17 0.594128 0.500000 0.016122
O O18 0.058555 0.500000 0.717301
O O19 0.122144 0.500000 0.337727
O O20 0.758996 0.000000 0.086709
O O21 0.750000 0.750000 0.000000
#
# Coordination Sequence:
#
# PCOD8095692 Si02
#       8
#     8   8   8   8   8   8   8   8
#     4   9  14  26  51  82 110 137 175 223 264 303
#     4   9  16  29  49  74 105 139 179 217 256 307
#     4  10  20  34  53  77 107 138 171 215 264 313
#     4  11  22  35  52  75 107 143 178 217 263 314
#     4  10  20  33  49  71 103 141 180 217 259 312
#     4   9  18  31  49  77 109 143 180 219 264 313
#     4   9  16  27  51  82 108 136 173 219 264 305
#     4  12  23  37  58  81 104 132 173 218 265 316
#
# _framework density 17.916595000000001
#
# number of rings (size 3 to 8) (size 9 to 14) (size 15 to 20)
#    0.000    2.125    2.500    2.250    0.000    1.500 
#    0.000    3.750    0.000    3.375    0.000    0.000 
#    0.000    0.000    0.000    0.000    0.000    0.000 
#
# Total GULP energy -396829.107541 kJ/mol
# GULP energy per Si atom -12400.909611 kJ/mol
# Density = 1.787582 g / cm^3
# Si number density = 17.916595 Si / 1000 Ang^3
#
#
#
# Elastic Constant Matrix: (Units=GPa)
#
#
# Indices 1 2 3 4 5 6 
#
# 1 99.8122 41.0808 59.3896 0.0000 -11.5037 0.0000
# 2 41.0808 78.5719 39.0555 0.0000 -4.3262 0.0000
# 3 59.3896 39.0555 116.3020 0.0000 -10.1631 0.0000
# 4 0.0000 0.0000 0.0000 15.6475 0.0000 -4.4614
# 5 -11.5037 -4.3262 -10.1631 0.0000 24.8911 0.0000
# 6 0.0000 0.0000 0.0000 -4.4614 0.0000 24.1640
#
#
#
# Elastic Compliance Matrix: (Units=1/GPa)
#
#
# Indices 1 2 3 4 5 6 
#
# 1 0.016353 -0.005224 -0.006238 0.000000 0.004103 0.000000
# 2 -0.005224 0.016954 -0.003090 0.000000 -0.000729 0.000000
# 3 -0.006238 -0.003090 0.012986 0.000000 0.001882 0.000000
# 4 0.000000 0.000000 0.000000 0.067459 0.000000 0.012455
# 5 0.004103 -0.000729 0.001882 0.000000 0.042713 0.000000
# 6 0.000000 0.000000 0.000000 0.012455 0.000000 0.043684
#
#
# Mechanical properties :
#
#
# Convention : Reuss Voigt Hill
#
# Bulk Modulus (GPa) = 58.17190 63.74865 60.96028
# Shear Modulus (GPa) = 21.27824 23.28453 22.28139
#
# Velocity S-wave (km/s) = 3.44994 3.60892 3.53032
# Velocity P-wave (km/s) = 6.95759 7.28174 7.12151
#
# Compressibility (1/GPa) = 0.01719043
#
# Stress axis : x y z
#
# Youngs Moduli (GPa) = 61.14922 58.98345 77.00699
#
# Poissons Ratio (x) = 0.30810 0.48039
# Poissons Ratio (y) = 0.31942 0.23792
# Poissons Ratio (z) = 0.38146 0.18224
#
# Static dielectric constant tensor:
#      x y z
#    x 3.279490 0.000000 -0.143290 
#    y 0.000000 3.123360 0.000000 
#    z -0.143290 0.000000 3.424580 
# 
# 
# High freq. dielectric constant tensor:
#      x y z
#    x 1.682800 0.000000 -0.017230 
#    y 0.000000 1.673420 0.000000 
#    z -0.017230 0.000000 1.686890 
# 
# From -- ./inp_files/248331.got.cif
#   From: 2010.06.25/outbox.cif.g09.slc.cpg/sg12_125_cif.got.tgz:248331.got - 2010.06.28 00:19:55.
