data_PCOD8095781
_publ_section_title
;
Structure prediction by ZEFSAII (Michael W. Deem and Ramdas Pophale) SiO2 
 PCOD8095781
Probable space group: C 2/M
;
_chemical_formula_sum "Si O2"
_cell_formula_units_Z 56
_cell_length_a 29.402608
_cell_length_b 9.336196
_cell_length_c 21.597203
_cell_angle_alpha 90.000000
_cell_angle_beta 149.053427
_cell_angle_gamma 90.000000
_cell_volume 3048.722989
_symmetry_space_group_name_H-M "C 2/M"
_symmetry_group_IT_number 12
_symmetry_cell_setting 'monoclinic'
loop_
_space_group_symop_operation_xyz
x,y,z
-x,y,-z
-x,-y,-z
x,-y,z
1/2+x,1/2+y,z
1/2-x,1/2+y,-z
1/2-x,1/2-y,-z
1/2+x,1/2-y,z
loop_
_atom_site_type_symbol
_atom_site_label
_atom_site_fract_x
_atom_site_fract_y
_atom_site_fract_z
Si Si1 0.165923 0.665841 0.643186
Si Si2 0.517103 0.163471 0.374583
Si Si3 0.520722 0.669380 0.122701
Si Si4 0.983237 0.666231 0.196374
Si Si5 0.378282 0.665759 0.290933
Si Si6 0.362324 0.669579 0.852764
Si Si7 0.784861 0.664277 0.982808
O O1 0.169813 0.500000 0.668131
O O2 0.112626 0.685141 0.517198
O O3 0.113573 0.752984 0.634499
O O4 0.263893 0.731657 0.747808
O O5 0.527621 0.199536 0.314429
O O6 0.445478 0.268619 0.320124
O O7 0.483533 0.000000 0.344036
O O8 0.523447 0.500000 0.135778
O O9 0.535866 0.745451 0.205985
O O10 0.598457 0.721538 0.167269
O O11 0.426592 0.718248 0.983515
O O12 0.989622 0.500000 0.186685
O O13 0.881771 0.719772 0.077831
O O14 0.402363 0.500000 0.328843
O O15 0.278741 0.686003 0.150063
O O16 0.358336 0.500000 0.846328
O O17 0.789583 0.500000 0.009435
O O18 0.750000 0.750000 0.000000
#
# Coordination Sequence:
#
# PCOD8095781 Si02
#       7
#     8   8   8   8   8   8   8
#     4  10  20  35  55  74  96 135 179 211 246 299
#     4  10  21  36  52  70  99 141 179 206 242 302
#     4   9  17  32  56  80 101 128 162 205 259 307
#     4  10  20  34  50  73 105 134 165 207 250 297
#     4  11  22  34  51  77 104 132 168 215 262 297
#     4   8  16  33  55  79 102 125 164 213 251 296
#     4  10  20  33  50  72 101 133 165 203 248 296
#
# _framework density 18.368347
#
# number of rings (size 3 to 8) (size 9 to 14) (size 15 to 20)
#    0.000    2.286    1.429    2.571    0.000    4.000 
#    0.000    2.857    0.000    0.000    0.000    0.000 
#    0.000    0.000    0.000    0.000    0.000    0.000 
#
# Total GULP energy -347234.302774 kJ/mol
# GULP energy per Si atom -12401.225099 kJ/mol
# Density = 1.832654 g / cm^3
# Si number density = 18.368347 Si / 1000 Ang^3
#
#
#
# Elastic Constant Matrix: (Units=GPa)
#
#
# Indices 1 2 3 4 5 6 
#
# 1 111.5448 45.9921 33.1668 0.0000 -21.3556 0.0000
# 2 45.9921 61.7943 27.5362 0.0000 -10.8156 0.0000
# 3 33.1668 27.5362 74.1233 0.0000 -13.4734 0.0000
# 4 0.0000 0.0000 0.0000 21.0761 0.0000 -6.3134
# 5 -21.3556 -10.8156 -13.4734 0.0000 28.6319 0.0000
# 6 0.0000 0.0000 0.0000 -6.3134 0.0000 31.9696
#
#
#
# Elastic Compliance Matrix: (Units=1/GPa)
#
#
# Indices 1 2 3 4 5 6 
#
# 1 0.014387 -0.008662 -0.002038 0.000000 0.006500 0.000000
# 2 -0.008662 0.025106 -0.005360 0.000000 0.000501 0.000000
# 3 -0.002038 -0.005360 0.017223 0.000000 0.004560 0.000000
# 4 0.000000 0.000000 0.000000 0.050430 0.000000 0.009959
# 5 0.006500 0.000501 0.004560 0.000000 0.042109 0.000000
# 6 0.000000 0.000000 0.000000 0.009959 0.000000 0.033246
#
#
# Mechanical properties :
#
#
# Convention : Reuss Voigt Hill
#
# Bulk Modulus (GPa) = 40.65740 51.20585 45.93162
# Shear Modulus (GPa) = 22.43967 25.71999 24.07983
#
# Velocity S-wave (km/s) = 3.49900 3.74603 3.62462
# Velocity P-wave (km/s) = 6.20537 6.82994 6.52513
#
# Compressibility (1/GPa) = 0.02459577
#
# Stress axis : x y z
#
# Youngs Moduli (GPa) = 69.50750 39.83167 58.06205
#
# Poissons Ratio (x) = 0.34502 0.11834
# Poissons Ratio (y) = 0.60208 0.31119
# Poissons Ratio (z) = 0.14167 0.21348
#
# Static dielectric constant tensor:
#      x y z
#    x 3.395500 0.000000 0.064810 
#    y 0.000000 3.207080 0.000000 
#    z 0.064810 0.000000 3.565900 
# 
# 
# High freq. dielectric constant tensor:
#      x y z
#    x 1.708130 0.000000 -0.007240 
#    y 0.000000 1.693390 0.000000 
#    z -0.007240 0.000000 1.712290 
# 
# From -- ./inp_files/237786.got.cif
#   From: 2010.06.25/outbox.cif.g09.slc.cpg/sg12_119_cif.got.tgz:237786.got - 2010.06.28 00:19:55.
