data_PCOD8095155
_publ_section_title
;
Structure prediction by ZEFSAII (Michael W. Deem and Ramdas Pophale) SiO2 
 PCOD8095155
Probable space group: C 2/M
;
_chemical_formula_sum "Si O2"
_cell_formula_units_Z 56
_cell_length_a 19.462114
_cell_length_b 9.289460
_cell_length_c 17.682084
_cell_angle_alpha 90.000000
_cell_angle_beta 96.696718
_cell_angle_gamma 90.000000
_cell_volume 3174.978062
_symmetry_space_group_name_H-M "C 2/M"
_symmetry_group_IT_number 12
_symmetry_cell_setting 'monoclinic'
loop_
_space_group_symop_operation_xyz
x,y,z
-x,y,-z
-x,-y,-z
x,-y,z
1/2+x,1/2+y,z
1/2-x,1/2+y,-z
1/2-x,1/2-y,-z
1/2+x,1/2-y,z
loop_
_atom_site_type_symbol
_atom_site_label
_atom_site_fract_x
_atom_site_fract_y
_atom_site_fract_z
Si Si1 0.791021 0.165396 0.901307
Si Si2 0.558593 0.834976 0.660321
Si Si3 0.454972 0.831621 0.173718
Si Si4 0.418353 0.659729 0.472003
Si Si5 0.920249 0.164370 0.632522
Si Si6 0.597486 0.665649 0.205455
Si Si7 0.340811 0.666417 0.074867
O O1 0.840407 0.216848 0.839907
O O2 0.724114 0.265895 0.889566
O O3 0.767214 0.000000 0.888225
O O4 0.832497 0.185594 0.984326
O O5 0.583743 0.810698 0.749902
O O6 0.605485 0.758839 0.601576
O O7 0.481886 0.775349 0.647642
O O8 0.557358 0.000000 0.637912
O O9 0.531149 0.764086 0.182219
O O10 0.410067 0.751041 0.105195
O O11 0.461419 0.000000 0.154690
O O12 0.500000 0.676675 0.500000
O O13 0.398878 0.500000 0.443742
O O14 0.380132 0.697787 0.547759
O O15 0.875478 0.180647 0.703664
O O16 0.949403 0.000000 0.630684
O O17 0.577502 0.500000 0.184953
O O18 0.347332 0.500000 0.099145
#
# Coordination Sequence:
#
# PCOD8095155 Si02
#       7
#     8   8   8   8   8   8   8
#     4   9  19  35  53  72  93 119 153 192 231 275
#     4   9  16  24  36  57  85 117 150 184 223 263
#     4  10  20  32  46  68  98 126 155 193 233 272
#     4   8  13  21  34  54  82 115 148 180 216 262
#     4   8  14  24  38  58  85 117 149 180 218 265
#     4   9  17  31  50  70  95 125 155 188 229 277
#     4  10  20  34  52  71  92 121 156 191 230 278
#
# _framework density 17.637917000000002
#
# number of rings (size 3 to 8) (size 9 to 14) (size 15 to 20)
#    0.000    3.000    0.000    2.143    0.000    6.000 
#    0.000    2.857    0.000    0.000    0.000    1.000 
#    0.000    0.000    0.000    0.000    0.000    0.000 
#
# Total GULP energy -346894.473080 kJ/mol
# GULP energy per Si atom -12389.088324 kJ/mol
# Density = 1.759777 g / cm^3
# Si number density = 17.637917 Si / 1000 Ang^3
#
#
#
# Elastic Constant Matrix: (Units=GPa)
#
#
# Indices 1 2 3 4 5 6 
#
# 1 43.7445 22.0191 30.1664 0.0000 -23.7625 0.0000
# 2 22.0191 84.4697 29.3744 0.0000 -12.7132 0.0000
# 3 30.1664 29.3744 72.9320 0.0000 -34.5612 0.0000
# 4 0.0000 0.0000 0.0000 27.4762 0.0000 0.5471
# 5 -23.7625 -12.7132 -34.5612 0.0000 22.7686 0.0000
# 6 0.0000 0.0000 0.0000 0.5471 0.0000 20.4319
#
#
#
# Elastic Compliance Matrix: (Units=1/GPa)
#
#
# Indices 1 2 3 4 5 6 
#
# 1 0.065081 -0.010477 0.023926 0.000000 0.098390 0.000000
# 2 -0.010477 0.015497 -0.010650 0.000000 -0.018447 0.000000
# 3 0.023926 -0.010650 0.060993 0.000000 0.111608 0.000000
# 4 0.000000 0.000000 0.000000 0.036415 0.000000 -0.000975
# 5 0.098390 -0.018447 0.111608 0.000000 0.305718 0.000000
# 6 0.000000 0.000000 0.000000 -0.000975 0.000000 0.048969
#
#
# Mechanical properties :
#
#
# Convention : Reuss Voigt Hill
#
# Bulk Modulus (GPa) = 6.79488 40.47399 23.63444
# Shear Modulus (GPa) = 8.67860 22.10776 15.39318
#
# Velocity S-wave (km/s) = 2.22061 3.54421 2.95741
# Velocity P-wave (km/s) = 3.23042 6.30441 5.00905
#
# Compressibility (1/GPa) = 0.14716961
#
# Stress axis : x y z
#
# Youngs Moduli (GPa) = 15.36553 64.53002 16.39528
#
# Poissons Ratio (x) = 0.67607 -0.39227
# Poissons Ratio (y) = 0.16098 0.17460
# Poissons Ratio (z) = -0.36764 0.68722
#
# Static dielectric constant tensor:
#      x y z
#    x 2.743400 0.000000 -0.316420 
#    y 0.000000 3.357010 0.000000 
#    z -0.316420 0.000000 3.881140 
# 
# 
# High freq. dielectric constant tensor:
#      x y z
#    x 1.616610 0.000000 -0.023100 
#    y 0.000000 1.689080 0.000000 
#    z -0.023100 0.000000 1.699840 
# 
# From -- ./inp_files/280377.got.cif
#   From: 2010.06.25/outbox.cif.g09.slc.cpg/sg12_141_cif.got.tgz:280377.got - 2010.06.28 00:19:55.
