data_PCOD8095956
_publ_section_title
;
Structure prediction by ZEFSAII (Michael W. Deem and Ramdas Pophale) SiO2 
 PCOD8095956
Probable space group: C 2/M
;
_chemical_formula_sum "Si O2"
_cell_formula_units_Z 48
_cell_length_a 27.741039
_cell_length_b 9.177177
_cell_length_c 15.691102
_cell_angle_alpha 90.000000
_cell_angle_beta 135.574572
_cell_angle_gamma 90.000000
_cell_volume 2796.218656
_symmetry_space_group_name_H-M "C 2/M"
_symmetry_group_IT_number 12
_symmetry_cell_setting 'monoclinic'
loop_
_space_group_symop_operation_xyz
x,y,z
-x,y,-z
-x,-y,-z
x,-y,z
1/2+x,1/2+y,z
1/2-x,1/2+y,-z
1/2-x,1/2-y,-z
1/2+x,1/2-y,z
loop_
_atom_site_type_symbol
_atom_site_label
_atom_site_fract_x
_atom_site_fract_y
_atom_site_fract_z
Si Si1 0.237603 0.166054 0.280335
Si Si2 0.013915 0.668748 0.615285
Si Si3 0.682427 0.332670 0.386576
Si Si4 0.720531 0.170138 0.087873
Si Si5 0.620939 0.830964 0.449531
Si Si6 0.645522 0.670449 0.849444
O O1 0.178522 0.180510 0.278868
O O2 0.216278 0.273204 0.178409
O O3 0.312313 0.212639 0.410634
O O4 0.241201 0.000000 0.250985
O O5 0.034327 0.500000 0.653045
O O6 0.074604 0.769975 0.724049
O O7 0.000000 0.705369 0.500000
O O8 0.946247 0.710482 0.582470
O O9 0.687560 0.500000 0.420964
O O10 0.750000 0.250000 0.500000
O O11 0.619132 0.258205 0.357650
O O12 0.795763 0.205586 0.145616
O O13 0.703969 0.000000 0.065408
O O14 0.662444 0.250776 0.959513
O O15 0.623748 0.000000 0.429334
O O16 0.638994 0.500000 0.859200
#
# Coordination Sequence:
#
# PCOD8095956 Si02
#       6
#     8   8   8   8   8   8
#     4   9  17  30  49  73  99 127 161 199 241 287
#     4  10  20  34  52  73 100 133 164 195 236 288
#     4   9  17  29  46  69  98 130 162 199 243 287
#     4  10  20  33  51  73  96 126 163 202 243 286
#     4   9  18  31  48  72 101 132 163 197 240 288
#     4  10  21  35  50  71  99 129 162 200 241 286
#
# _framework density 17.166039999999999
#
# number of rings (size 3 to 8) (size 9 to 14) (size 15 to 20)
#    0.000    2.500    0.000    3.500    0.000    7.667 
#    0.000    0.000    0.000    1.000    0.000    7.000 
#    0.000    0.000    0.000    0.000    0.000    0.000 
#
# Total GULP energy -297579.742443 kJ/mol
# GULP energy per Si atom -12399.155935 kJ/mol
# Density = 1.712697 g / cm^3
# Si number density = 17.166040 Si / 1000 Ang^3
#
#
#
# Elastic Constant Matrix: (Units=GPa)
#
#
# Indices 1 2 3 4 5 6 
#
# 1 112.3323 60.9699 52.7268 0.0000 -13.5361 0.0000
# 2 60.9699 98.3754 56.2299 0.0000 -11.8300 0.0000
# 3 52.7268 56.2299 88.9071 0.0000 -9.5697 0.0000
# 4 0.0000 0.0000 0.0000 33.3096 0.0000 -3.7752
# 5 -13.5361 -11.8300 -9.5697 0.0000 22.9932 0.0000
# 6 0.0000 0.0000 0.0000 -3.7752 0.0000 31.9373
#
#
#
# Elastic Compliance Matrix: (Units=1/GPa)
#
#
# Indices 1 2 3 4 5 6 
#
# 1 0.014794 -0.006168 -0.004477 0.000000 0.003672 0.000000
# 2 -0.006168 0.018887 -0.007990 0.000000 0.002761 0.000000
# 3 -0.004477 -0.007990 0.019085 0.000000 0.001196 0.000000
# 4 0.000000 0.000000 0.000000 0.030429 0.000000 0.003597
# 5 0.003672 0.002761 0.001196 0.000000 0.047571 0.000000
# 6 0.000000 0.000000 0.000000 0.003597 0.000000 0.031737
#
#
# Mechanical properties :
#
#
# Convention : Reuss Voigt Hill
#
# Bulk Modulus (GPa) = 64.53604 71.05202 67.79403
# Shear Modulus (GPa) = 24.39752 26.29390 25.34571
#
# Velocity S-wave (km/s) = 3.77406 3.91799 3.84670
# Velocity P-wave (km/s) = 7.52783 7.87073 7.70119
#
# Compressibility (1/GPa) = 0.01549522
#
# Stress axis : x y z
#
# Youngs Moduli (GPa) = 67.59450 52.94693 52.39682
#
# Poissons Ratio (x) = 0.32658 0.23460
# Poissons Ratio (y) = 0.41693 0.41865
# Poissons Ratio (z) = 0.30265 0.42304
#
# Static dielectric constant tensor:
#      x y z
#    x 3.662490 0.000000 -0.216570 
#    y 0.000000 3.329710 0.000000 
#    z -0.216570 0.000000 3.011490 
# 
# 
# High freq. dielectric constant tensor:
#      x y z
#    x 1.663870 0.000000 -0.017460 
#    y 0.000000 1.672060 0.000000 
#    z -0.017460 0.000000 1.635720 
# 
# From -- ./inp_files/248793.got.cif
#   From: 2010.06.25/outbox.cif.g09.slc.cpg/sg12_125_cif.got.tgz:248793.got - 2010.06.28 00:19:55.
