data_PCOD8095054
_publ_section_title
;
Structure prediction by ZEFSAII (Michael W. Deem and Ramdas Pophale) SiO2 
 PCOD8095054
Probable space group: C 2/M
;
_chemical_formula_sum "Si O2"
_cell_formula_units_Z 64
_cell_length_a 21.995416
_cell_length_b 27.022835
_cell_length_c 11.871118
_cell_angle_alpha 90.000000
_cell_angle_beta 29.478334
_cell_angle_gamma 90.000000
_cell_volume 3472.187264
_symmetry_space_group_name_H-M "C 2/M"
_symmetry_group_IT_number 12
_symmetry_cell_setting 'monoclinic'
loop_
_space_group_symop_operation_xyz
x,y,z
-x,y,-z
-x,-y,-z
x,-y,z
1/2+x,1/2+y,z
1/2-x,1/2+y,-z
1/2-x,1/2-y,-z
1/2+x,1/2-y,z
loop_
_atom_site_type_symbol
_atom_site_label
_atom_site_fract_x
_atom_site_fract_y
_atom_site_fract_z
Si Si1 0.448317 0.656239 0.384918
Si Si2 0.252906 0.805215 0.136788
Si Si3 0.523577 0.444870 0.772927
Si Si4 0.715858 0.846534 0.392070
Si Si5 0.492553 0.194992 0.889252
Si Si6 0.635325 0.287076 0.687641
Si Si7 0.804411 0.054270 0.300129
Si Si8 0.276942 0.308549 0.063275
O O1 0.371586 0.666961 0.622334
O O2 0.471081 0.597260 0.332229
O O3 0.363666 0.676469 0.420028
O O4 0.575633 0.686439 0.184946
O O5 0.282108 0.823050 0.962291
O O6 0.363107 0.818967 0.043115
O O7 0.235144 0.746356 0.165538
O O8 0.514296 0.500000 0.732518
O O9 0.644294 0.442651 0.656173
O O10 0.408093 0.434787 0.039750
O O11 0.597404 0.819795 0.632749
O O12 0.843483 0.822057 0.236319
O O13 0.701525 0.903823 0.450104
O O14 0.720025 0.843949 0.250217
O O15 0.509347 0.254284 0.887015
O O16 0.500000 0.168102 0.000000
O O17 0.750000 0.250000 0.500000
O O18 0.745762 0.000000 0.374914
#
# Coordination Sequence:
#
# PCOD8095054 Si02
#       8
#     8   8   8   8   8   8   8   8
#     4  12  20  37  58  80 116 153 188 237 288 335
#     4  11  24  39  52  80 116 153 189 233 270 341
#     4   9  18  31  54  85 115 145 184 238 296 337
#     4  11  20  35  56  83 108 148 187 228 278 334
#     4  11  22  36  54  80 114 145 186 229 281 332
#     4  10  20  31  51  79 110 145 184 225 273 328
#     4   9  17  31  51  84 116 140 179 234 287 338
#     4  11  24  37  55  78 111 156 197 221 275 335
#
# _framework density 18.432185
#
# number of rings (size 3 to 8) (size 9 to 14) (size 15 to 20)
#    0.000    1.500    3.750    4.875    0.000    0.500 
#    0.000    0.000    0.000    3.375    0.000    0.875 
#    0.000    0.000    0.000    0.000    0.000    0.000 
#
# Total GULP energy -396620.379327 kJ/mol
# GULP energy per Si atom -12394.386854 kJ/mol
# Density = 1.839023 g / cm^3
# Si number density = 18.432185 Si / 1000 Ang^3
#
#
#
# Elastic Constant Matrix: (Units=GPa)
#
#
# Indices 1 2 3 4 5 6 
#
# 1 85.8180 17.2840 28.5640 0.0035 12.8350 -0.0029
# 2 17.2840 102.9960 18.6939 0.0013 4.0318 -0.0007
# 3 28.5640 18.6939 74.5977 0.0060 9.7860 -0.0024
# 4 0.0035 0.0013 0.0060 16.5253 -0.0015 1.3407
# 5 12.8350 4.0318 9.7860 -0.0015 23.4473 0.0008
# 6 -0.0029 -0.0007 -0.0024 1.3407 0.0008 14.3215
#
#
#
# Elastic Compliance Matrix: (Units=1/GPa)
#
#
# Indices 1 2 3 4 5 6 
#
# 1 0.014237 -0.001374 -0.004354 -0.000002 -0.005740 0.000003
# 2 -0.001374 0.010316 -0.002036 0.000000 -0.000172 0.000000
# 3 -0.004354 -0.002036 0.016106 -0.000005 -0.003988 0.000002
# 4 -0.000002 0.000000 -0.000005 0.060976 0.000007 -0.005708
# 5 -0.005740 -0.000172 -0.003988 0.000007 0.047485 -0.000005
# 6 0.000003 0.000000 0.000002 -0.005708 -0.000005 0.070359
#
#
# Mechanical properties :
#
#
# Convention : Reuss Voigt Hill
#
# Bulk Modulus (GPa) = 39.79378 43.61063 41.70221
# Shear Modulus (GPa) = 20.54352 24.11681 22.33017
#
# Velocity S-wave (km/s) = 3.34210 3.62112 3.48440
# Velocity P-wave (km/s) = 6.04393 6.41831 6.23393
#
# Compressibility (1/GPa) = 0.02512955
#
# Stress axis : x y z
#
# Youngs Moduli (GPa) = 70.23943 96.93624 62.08858
#
# Poissons Ratio (x) = 0.13321 0.27034
# Poissons Ratio (y) = 0.09652 0.12644
# Poissons Ratio (z) = 0.30583 0.19741
#
# Static dielectric constant tensor:
#      x y z
#    x 3.485380 -0.000030 0.101940 
#    y -0.000030 3.483690 0.000030 
#    z 0.101940 0.000030 3.178560 
# 
# 
# High freq. dielectric constant tensor:
#      x y z
#    x 1.703640 0.000000 0.012380 
#    y 0.000000 1.694280 0.000000 
#    z 0.012380 0.000000 1.700010 
# 
# From -- ./inp_files/178520.got.cif
#   From: 2010.06.25/outbox.cif.g09.slc.cpg/sg12_90_cif.got.tgz:178520.got - 2010.06.28 00:19:55.
