data_PCOD8095513
_publ_section_title
;
Structure prediction by ZEFSAII (Michael W. Deem and Ramdas Pophale) SiO2 
 PCOD8095513
Probable space group: C 2/M
;
_chemical_formula_sum "Si O2"
_cell_formula_units_Z 64
_cell_length_a 15.738338
_cell_length_b 17.532381
_cell_length_c 13.154801
_cell_angle_alpha 90.000000
_cell_angle_beta 63.776684
_cell_angle_gamma 90.000000
_cell_volume 3256.226160
_symmetry_space_group_name_H-M "C 2/M"
_symmetry_group_IT_number 12
_symmetry_cell_setting 'monoclinic'
loop_
_space_group_symop_operation_xyz
x,y,z
-x,y,-z
-x,-y,-z
x,-y,z
1/2+x,1/2+y,z
1/2-x,1/2+y,-z
1/2-x,1/2-y,-z
1/2+x,1/2-y,z
loop_
_atom_site_type_symbol
_atom_site_label
_atom_site_fract_x
_atom_site_fract_y
_atom_site_fract_z
Si Si1 0.984117 0.915636 0.626225
Si Si2 0.311332 0.412306 0.853424
Si Si3 0.874726 0.792020 0.418421
Si Si4 0.152985 0.310670 0.854559
Si Si5 0.927226 0.586636 0.630004
Si Si6 0.358591 0.272873 0.946654
Si Si7 0.789288 0.283157 0.638916
Si Si8 0.010222 0.326093 0.760500
O O1 0.875352 0.904466 0.717982
O O2 0.000000 0.900998 0.500000
O O3 0.052204 0.858106 0.648511
O O4 0.017877 0.000000 0.638680
O O5 0.302256 0.500000 0.894376
O O6 0.206905 0.380190 0.882221
O O7 0.361469 0.363313 0.917747
O O8 0.861474 0.776932 0.546659
O O9 0.776233 0.815602 0.417379
O O10 0.914470 0.714648 0.351093
O O11 0.229487 0.261383 0.753623
O O12 0.068322 0.347225 0.832284
O O13 0.105359 0.251134 0.960075
O O14 0.888686 0.500000 0.648939
O O15 0.841540 0.646057 0.663773
O O16 0.000000 0.600100 0.500000
O O17 0.975799 0.600422 0.714832
O O18 0.420155 0.227373 0.831078
O O19 0.250000 0.250000 0.000000
#
# Coordination Sequence:
#
# PCOD8095513 Si02
#       8
#     8   8   8   8   8   8   8   8
#     4  10  20  32  52  86 120 153 189 236 299 354
#     4  10  20  36  59  87 121 156 191 244 303 350
#     4  10  20  34  59  83 114 150 192 241 289 347
#     4  10  22  37  60  88 119 152 202 244 286 340
#     4  11  23  38  57  84 120 158 193 237 294 351
#     4  10  20  38  61  86 113 154 198 245 285 343
#     4  10  21  37  56  86 113 153 198 239 289 340
#     4  11  21  38  61  87 112 155 198 243 289 343
#
# _framework density 19.654654000000001
#
# number of rings (size 3 to 8) (size 9 to 14) (size 15 to 20)
#    0.000    1.750    2.500    2.625    1.750    1.000 
#    0.000    5.625    0.000    6.000    0.000    0.000 
#    0.000    0.000    0.000    0.000    0.000    0.000 
#
# Total GULP energy -396604.816169 kJ/mol
# GULP energy per Si atom -12393.900505 kJ/mol
# Density = 1.960992 g / cm^3
# Si number density = 19.654654 Si / 1000 Ang^3
#
#
#
# Elastic Constant Matrix: (Units=GPa)
#
#
# Indices 1 2 3 4 5 6 
#
# 1 84.7238 43.7629 18.2171 0.0000 4.8289 0.0000
# 2 43.7629 110.6197 30.4734 0.0000 7.9097 0.0000
# 3 18.2171 30.4734 84.3604 0.0000 8.8007 0.0000
# 4 0.0000 0.0000 0.0000 24.4775 0.0000 -2.9241
# 5 4.8289 7.9097 8.8007 0.0000 31.4348 0.0000
# 6 0.0000 0.0000 0.0000 -2.9241 0.0000 19.1324
#
#
#
# Elastic Compliance Matrix: (Units=1/GPa)
#
#
# Indices 1 2 3 4 5 6 
#
# 1 0.014955 -0.005555 -0.001163 0.000000 -0.000574 0.000000
# 2 -0.005555 0.012177 -0.003058 0.000000 -0.001355 0.000000
# 3 -0.001163 -0.003058 0.013505 0.000000 -0.002833 0.000000
# 4 0.000000 0.000000 0.000000 0.041614 0.000000 0.006360
# 5 -0.000574 -0.001355 -0.002833 0.000000 0.033034 0.000000
# 6 0.000000 0.000000 0.000000 0.006360 0.000000 0.053239
#
#
# Mechanical properties :
#
#
# Convention : Reuss Voigt Hill
#
# Bulk Modulus (GPa) = 47.42563 51.62339 49.52451
# Shear Modulus (GPa) = 25.62729 27.49230 26.55979
#
# Velocity S-wave (km/s) = 3.61484 3.74407 3.68002
# Velocity P-wave (km/s) = 6.45017 6.70917 6.58094
#
# Compressibility (1/GPa) = 0.02108565
#
# Stress axis : x y z
#
# Youngs Moduli (GPa) = 66.86618 82.12288 74.04602
#
# Poissons Ratio (x) = 0.45620 0.08611
# Poissons Ratio (y) = 0.37145 0.22641
# Poissons Ratio (z) = 0.07776 0.25111
#
# Static dielectric constant tensor:
#      x y z
#    x 3.687760 0.000000 0.095770 
#    y 0.000000 3.530260 0.000000 
#    z 0.095770 0.000000 3.881110 
# 
# 
# High freq. dielectric constant tensor:
#      x y z
#    x 1.759350 0.000000 -0.007850 
#    y 0.000000 1.746520 0.000000 
#    z -0.007850 0.000000 1.776190 
# 
# From -- ./inp_files/225294.got.cif
#   From: 2010.06.25/outbox.cif.g09.slc.cpg/sg12_113_cif.got.tgz:225294.got - 2010.06.28 00:19:55.
