data_PCOD8095558
_publ_section_title
;
Structure prediction by ZEFSAII (Michael W. Deem and Ramdas Pophale) SiO2 
 PCOD8095558
Probable space group: C 2/M
;
_chemical_formula_sum "Si O2"
_cell_formula_units_Z 32
_cell_length_a 21.343783
_cell_length_b 7.885716
_cell_length_c 11.273590
_cell_angle_alpha 90.000000
_cell_angle_beta 110.465264
_cell_angle_gamma 90.000000
_cell_volume 1777.709289
_symmetry_space_group_name_H-M "C 2/M"
_symmetry_group_IT_number 12
_symmetry_cell_setting 'monoclinic'
loop_
_space_group_symop_operation_xyz
x,y,z
-x,y,-z
-x,-y,-z
x,-y,z
1/2+x,1/2+y,z
1/2-x,1/2+y,-z
1/2-x,1/2-y,-z
1/2+x,1/2-y,z
loop_
_atom_site_type_symbol
_atom_site_label
_atom_site_fract_x
_atom_site_fract_y
_atom_site_fract_z
Si Si1 0.584520 0.000000 0.432199
Si Si2 0.296839 0.801920 0.870197
Si Si3 0.149299 0.191445 0.856175
Si Si4 0.069943 0.500000 0.699802
Si Si5 0.192307 0.315716 0.378834
O O1 0.622421 0.831899 0.405450
O O2 0.591009 0.000000 0.577130
O O3 0.509476 0.000000 0.337037
O O4 0.218647 0.764928 0.837425
O O5 0.316190 0.721565 0.753517
O O6 0.314006 0.000000 0.896913
O O7 0.340860 0.702467 0.995662
O O8 0.095448 0.328324 0.777646
O O9 0.125099 0.000000 0.809095
O O10 0.218456 0.500000 0.355760
O O11 0.250000 0.250000 0.500000
#
# Coordination Sequence:
#
# PCOD8095558 Si02
#       5
#     4   8   8   4   8
#     4   9  22  35  57  81 107 152 184 214 289 338
#     4   9  17  32  51  82 109 135 187 227 271 321
#     4  10  20  32  56  83 109 147 181 228 276 321
#     4  11  20  39  55  79 117 147 184 225 272 341
#     4   9  18  33  53  79 105 140 177 225 274 319
#
# _framework density 18.000693999999999
#
# number of rings (size 3 to 8) (size 9 to 14) (size 15 to 20)
#    0.750    1.750    1.250    1.500    1.750    1.000 
#    0.000    6.250    0.000    1.500    0.000    0.000 
#    0.000    0.000    0.000    0.000    0.000    0.000 
#
# Total GULP energy -198229.007556 kJ/mol
# GULP energy per Si atom -12389.312972 kJ/mol
# Density = 1.795972 g / cm^3
# Si number density = 18.000694 Si / 1000 Ang^3
#
#
#
# Elastic Constant Matrix: (Units=GPa)
#
#
# Indices 1 2 3 4 5 6 
#
# 1 116.5746 30.3881 78.5135 0.0000 -5.4642 0.0000
# 2 30.3881 78.4247 48.3429 0.0000 12.4886 0.0000
# 3 78.5135 48.3429 138.0497 0.0000 -6.6034 0.0000
# 4 0.0000 0.0000 0.0000 27.6472 0.0000 5.4839
# 5 -5.4642 12.4886 -6.6034 0.0000 32.0025 0.0000
# 6 0.0000 0.0000 0.0000 5.4839 0.0000 23.6967
#
#
#
# Elastic Compliance Matrix: (Units=1/GPa)
#
#
# Indices 1 2 3 4 5 6 
#
# 1 0.013970 -0.000945 -0.007557 0.000000 0.001195 0.000000
# 2 -0.000945 0.018385 -0.006314 0.000000 -0.008639 0.000000
# 3 -0.007557 -0.006314 0.013947 0.000000 0.004051 0.000000
# 4 0.000000 0.000000 0.000000 0.037910 0.000000 -0.008773
# 5 0.001195 -0.008639 0.004051 0.000000 0.035659 0.000000
# 6 0.000000 0.000000 0.000000 -0.008773 0.000000 0.044230
#
#
# Mechanical properties :
#
#
# Convention : Reuss Voigt Hill
#
# Bulk Modulus (GPa) = 59.98952 71.94865 65.96909
# Shear Modulus (GPa) = 25.08903 28.38960 26.73931
#
# Velocity S-wave (km/s) = 3.73739 3.97563 3.85835
# Velocity P-wave (km/s) = 7.21267 7.81862 7.52175
#
# Compressibility (1/GPa) = 0.01666958
#
# Stress axis : x y z
#
# Youngs Moduli (GPa) = 71.57948 54.39234 71.70133
#
# Poissons Ratio (x) = 0.05140 0.54188
# Poissons Ratio (y) = 0.06764 0.45272
# Poissons Ratio (z) = 0.54096 0.34343
#
# Static dielectric constant tensor:
#      x y z
#    x 3.344610 0.000000 -0.418120 
#    y 0.000000 3.246610 0.000000 
#    z -0.418120 0.000000 3.534930 
# 
# 
# High freq. dielectric constant tensor:
#      x y z
#    x 1.672380 0.000000 -0.021120 
#    y 0.000000 1.680510 0.000000 
#    z -0.021120 0.000000 1.709440 
# 
# From -- ./inp_files/162100.got.cif
#   From: 2010.06.25/outbox.cif.g09.slc.cpg/sg12_82_cif.got.tgz:162100.got - 2010.06.28 00:19:55.
