data_PCOD8095680
_publ_section_title
;
Structure prediction by ZEFSAII (Michael W. Deem and Ramdas Pophale) SiO2 
 PCOD8095680
Probable space group: C 2/M
;
_chemical_formula_sum "Si O2"
_cell_formula_units_Z 48
_cell_length_a 27.815617
_cell_length_b 9.459120
_cell_length_c 11.260879
_cell_angle_alpha 90.000000
_cell_angle_beta 103.748434
_cell_angle_gamma 90.000000
_cell_volume 2877.973748
_symmetry_space_group_name_H-M "C 2/M"
_symmetry_group_IT_number 12
_symmetry_cell_setting 'monoclinic'
loop_
_space_group_symop_operation_xyz
x,y,z
-x,y,-z
-x,-y,-z
x,-y,z
1/2+x,1/2+y,z
1/2-x,1/2+y,-z
1/2-x,1/2-y,-z
1/2+x,1/2-y,z
loop_
_atom_site_type_symbol
_atom_site_label
_atom_site_fract_x
_atom_site_fract_y
_atom_site_fract_z
Si Si1 0.155250 0.660125 0.277196
Si Si2 0.852816 0.664267 0.453925
Si Si3 0.044247 0.335107 0.609698
Si Si4 0.025184 0.164826 0.832061
Si Si5 0.924681 0.164199 0.894292
Si Si6 0.737325 0.663839 0.609449
O O1 0.137230 0.500000 0.249919
O O2 0.144476 0.707579 0.406193
O O3 0.125080 0.754724 0.168032
O O4 0.213746 0.674306 0.279231
O O5 0.838238 0.500000 0.431919
O O6 0.904810 0.699952 0.425620
O O7 0.811021 0.759938 0.362861
O O8 0.038236 0.500000 0.633828
O O9 0.043671 0.253610 0.732357
O O10 0.000000 0.281076 0.500000
O O11 0.969715 0.211162 0.835331
O O12 0.026506 0.000000 0.800760
O O13 0.061990 0.198392 0.962094
O O14 0.914280 0.000000 0.871412
O O15 0.725581 0.500000 0.573508
O O16 0.750000 0.750000 0.500000
#
# Coordination Sequence:
#
# PCOD8095680 Si02
#       6
#     8   8   8   8   8   8
#     4   9  17  29  47  71  95 119 152 192 231 274
#     4   9  18  31  46  68  98 126 153 189 231 275
#     4  10  20  33  49  70  97 126 154 187 229 276
#     4   9  19  34  48  67  95 124 156 191 229 273
#     4   9  18  32  49  68  93 123 154 193 233 270
#     4   9  17  29  45  67  95 124 154 191 233 274
#
# _framework density 16.678401999999998
#
# number of rings (size 3 to 8) (size 9 to 14) (size 15 to 20)
#    0.000    2.833    0.000    3.500    0.000    7.000 
#    0.000    1.667    0.000    1.000    0.000    0.000 
#    0.000    0.000    0.000    0.000    0.000    0.000 
#
# Total GULP energy -297523.887713 kJ/mol
# GULP energy per Si atom -12396.828655 kJ/mol
# Density = 1.664044 g / cm^3
# Si number density = 16.678402 Si / 1000 Ang^3
#
#
#
# Elastic Constant Matrix: (Units=GPa)
#
#
# Indices 1 2 3 4 5 6 
#
# 1 119.1543 61.6583 57.0713 0.0000 14.1062 0.0000
# 2 61.6583 76.8640 49.3970 0.0000 12.6367 0.0000
# 3 57.0713 49.3970 80.1103 0.0000 9.3970 0.0000
# 4 0.0000 0.0000 0.0000 32.2669 0.0000 3.2001
# 5 14.1062 12.6367 9.3970 0.0000 26.7087 0.0000
# 6 0.0000 0.0000 0.0000 3.2001 0.0000 30.4046
#
#
#
# Elastic Compliance Matrix: (Units=1/GPa)
#
#
# Indices 1 2 3 4 5 6 
#
# 1 0.015898 -0.008733 -0.005675 0.000000 -0.002268 0.000000
# 2 -0.008733 0.027231 -0.010012 0.000000 -0.004749 0.000000
# 3 -0.005675 -0.010012 0.022730 0.000000 -0.000263 0.000000
# 4 0.000000 0.000000 0.000000 0.031318 0.000000 -0.003296
# 5 -0.002268 -0.004749 -0.000263 0.000000 0.040978 0.000000
# 6 0.000000 0.000000 0.000000 -0.003296 0.000000 0.033237
#
#
# Mechanical properties :
#
#
# Convention : Reuss Voigt Hill
#
# Bulk Modulus (GPa) = 58.76009 68.04242 63.40126
# Shear Modulus (GPa) = 22.13315 25.07617 23.60466
#
# Velocity S-wave (km/s) = 3.64683 3.88172 3.76611
# Velocity P-wave (km/s) = 7.28287 7.80869 7.55036
#
# Compressibility (1/GPa) = 0.01701835
#
# Stress axis : x y z
#
# Youngs Moduli (GPa) = 62.89978 36.72351 43.99451
#
# Poissons Ratio (x) = 0.32072 0.24967
# Poissons Ratio (y) = 0.54932 0.44047
# Poissons Ratio (z) = 0.35696 0.36768
#
# Static dielectric constant tensor:
#      x y z
#    x 3.430740 0.000000 0.234260 
#    y 0.000000 3.172980 0.000000 
#    z 0.234260 0.000000 2.897840 
# 
# 
# High freq. dielectric constant tensor:
#      x y z
#    x 1.644980 0.000000 0.018250 
#    y 0.000000 1.646180 0.000000 
#    z 0.018250 0.000000 1.614690 
# 
# From -- ./inp_files/179157.got.cif
#   From: 2010.06.25/outbox.cif.g09.slc.cpg/sg12_90_cif.got.tgz:179157.got - 2010.06.28 00:19:55.
