data_PCOD8095016
_publ_section_title
;
Structure prediction by ZEFSAII (Michael W. Deem and Ramdas Pophale) SiO2 
 PCOD8095016
Probable space group: C 2/M
;
_chemical_formula_sum "Si O2"
_cell_formula_units_Z 56
_cell_length_a 18.707260
_cell_length_b 9.458585
_cell_length_c 22.456010
_cell_angle_alpha 90.000000
_cell_angle_beta 128.209815
_cell_angle_gamma 90.000000
_cell_volume 3122.150678
_symmetry_space_group_name_H-M "C 2/M"
_symmetry_group_IT_number 12
_symmetry_cell_setting 'monoclinic'
loop_
_space_group_symop_operation_xyz
x,y,z
-x,y,-z
-x,-y,-z
x,-y,z
1/2+x,1/2+y,z
1/2-x,1/2+y,-z
1/2-x,1/2-y,-z
1/2+x,1/2-y,z
loop_
_atom_site_type_symbol
_atom_site_label
_atom_site_fract_x
_atom_site_fract_y
_atom_site_fract_z
Si Si1 0.046769 0.332531 0.294514
Si Si2 0.243053 0.666294 0.435637
Si Si3 0.240145 0.338525 0.869613
Si Si4 0.910315 0.333791 0.989821
Si Si5 0.919719 0.332457 0.127989
Si Si6 0.603690 0.162162 0.693477
Si Si7 0.401286 0.665550 0.426585
O O1 0.036559 0.500000 0.287844
O O2 0.150945 0.284617 0.354647
O O3 0.004646 0.272241 0.210890
O O4 0.986841 0.279317 0.319860
O O5 0.240846 0.500000 0.448628
O O6 0.250000 0.750000 0.500000
O O7 0.328014 0.707977 0.438609
O O8 0.270263 0.500000 0.895411
O O9 0.327569 0.239710 0.913492
O O10 0.174236 0.287688 0.888980
O O11 0.189893 0.322191 0.780914
O O12 0.890884 0.500000 0.980960
O O13 0.921902 0.270798 0.062462
O O14 0.000000 0.295663 0.000000
O O15 0.927645 0.500000 0.129711
O O16 0.623971 0.254893 0.646477
O O17 0.590155 0.000000 0.666854
O O18 0.500000 0.714204 0.500000
O O19 0.398513 0.500000 0.411478
#
# Coordination Sequence:
#
# PCOD8095016 Si02
#       7
#     8   8   8   8   8   8   8
#     4   8  15  30  51  71  91 122 165 204 237 280
#     4  10  20  33  51  73  97 129 164 197 238 286
#     4   9  18  33  52  71  94 127 163 200 243 289
#     4  10  20  31  47  74 102 128 161 200 241 287
#     4   8  15  30  50  70  94 124 161 203 240 283
#     4   9  18  33  53  74  93 121 165 207 241 285
#     4  10  21  34  48  72 105 134 159 196 249 296
#
# _framework density 17.936354999999999
#
# number of rings (size 3 to 8) (size 9 to 14) (size 15 to 20)
#    0.000    2.857    0.000    3.000    0.000    2.857 
#    0.000    2.857    0.000    2.571    0.000    0.000 
#    0.000    0.000    0.000    0.000    0.000    0.000 
#
# Total GULP energy -347164.665002 kJ/mol
# GULP energy per Si atom -12398.738036 kJ/mol
# Density = 1.789553 g / cm^3
# Si number density = 17.936355 Si / 1000 Ang^3
#
#
#
# Elastic Constant Matrix: (Units=GPa)
#
#
# Indices 1 2 3 4 5 6 
#
# 1 136.2564 46.3967 80.9172 0.0000 5.2780 0.0000
# 2 46.3967 33.4144 41.4899 0.0000 -0.3062 0.0000
# 3 80.9172 41.4899 110.0478 0.0000 4.5927 0.0000
# 4 0.0000 0.0000 0.0000 30.1166 0.0000 -4.0908
# 5 5.2780 -0.3062 4.5927 0.0000 36.4867 0.0000
# 6 0.0000 0.0000 0.0000 -4.0908 0.0000 12.1243
#
#
#
# Elastic Compliance Matrix: (Units=1/GPa)
#
#
# Indices 1 2 3 4 5 6 
#
# 1 0.016086 -0.014572 -0.006264 0.000000 -0.001661 0.000000
# 2 -0.014572 0.069834 -0.015809 0.000000 0.004684 0.000000
# 3 -0.006264 -0.015809 0.019725 0.000000 -0.001709 0.000000
# 4 0.000000 0.000000 0.000000 0.034799 0.000000 0.011741
# 5 -0.001661 0.004684 -0.001709 0.000000 0.027902 0.000000
# 6 0.000000 0.000000 0.000000 0.011741 0.000000 0.086441
#
#
# Mechanical properties :
#
#
# Convention : Reuss Voigt Hill
#
# Bulk Modulus (GPa) = 30.90933 68.59181 49.75057
# Shear Modulus (GPa) = 14.75530 23.13983 18.94756
#
# Velocity S-wave (km/s) = 2.87130 3.59570 3.25372
# Velocity P-wave (km/s) = 5.31626 7.45410 6.47403
#
# Compressibility (1/GPa) = 0.03235269
#
# Stress axis : x y z
#
# Youngs Moduli (GPa) = 62.16777 14.31975 50.69782
#
# Poissons Ratio (x) = 0.20867 0.31759
# Poissons Ratio (y) = 0.90591 0.80149
# Poissons Ratio (z) = 0.38944 0.22638
#
# Static dielectric constant tensor:
#      x y z
#    x 3.380670 0.000000 0.028800 
#    y 0.000000 2.958320 0.000000 
#    z 0.028800 0.000000 3.613500 
# 
# 
# High freq. dielectric constant tensor:
#      x y z
#    x 1.696960 0.000000 0.001240 
#    y 0.000000 1.658740 0.000000 
#    z 0.001240 0.000000 1.705680 
# 
# From -- ./inp_files/321044.got.cif
#   From: 2010.06.25/outbox.cif.g09.slc.cpg/sg12_161_cif.got.tgz:321044.got - 2010.06.28 00:19:55.
