data_PCOD8095025
_publ_section_title
;
Structure prediction by ZEFSAII (Michael W. Deem and Ramdas Pophale) SiO2 
 PCOD8095025
Probable space group: C 2/M
;
_chemical_formula_sum "Si O2"
_cell_formula_units_Z 52
_cell_length_a 19.100941
_cell_length_b 26.534383
_cell_length_c 16.333805
_cell_angle_alpha 90.000000
_cell_angle_beta 158.163090
_cell_angle_gamma 90.000000
_cell_volume 3079.315862
_symmetry_space_group_name_H-M "C 2/M"
_symmetry_group_IT_number 12
_symmetry_cell_setting 'monoclinic'
loop_
_space_group_symop_operation_xyz
x,y,z
-x,y,-z
-x,-y,-z
x,-y,z
1/2+x,1/2+y,z
1/2-x,1/2+y,-z
1/2-x,1/2-y,-z
1/2+x,1/2-y,z
loop_
_atom_site_type_symbol
_atom_site_label
_atom_site_fract_x
_atom_site_fract_y
_atom_site_fract_z
Si Si1 0.000000 0.214992 0.500000
Si Si2 0.678941 0.304722 0.851562
Si Si3 0.951786 0.442666 0.352781
Si Si4 0.697066 0.296738 0.184384
Si Si5 0.442333 0.222773 0.681308
Si Si6 0.858477 0.863146 0.025476
Si Si7 0.234734 0.631005 0.598609
O O1 0.911205 0.178622 0.333454
O O2 0.839428 0.252295 0.358981
O O3 0.552506 0.256299 0.735668
O O4 0.659518 0.347985 0.898814
O O5 0.899217 0.288618 0.076500
O O6 0.915365 0.500000 0.286831
O O7 0.000000 0.438356 0.500000
O O8 0.127088 0.421845 0.490305
O O9 0.766446 0.411254 0.130146
O O10 0.737788 0.346971 0.280797
O O11 0.500000 0.274098 0.000000
O O12 0.698645 0.314290 0.091092
O O13 0.250000 0.250000 0.500000
O O14 0.395399 0.169094 0.592645
O O15 0.071853 0.878865 0.238474
#
# Coordination Sequence:
#
# PCOD8095025 Si02
#       7
#     4   8   8   8   8   8   8
#     4  12  22  32  46  74 110 142 182 220 262 316
#     4  11  23  32  50  74 108 144 181 220 268 314
#     4  11  23  38  56  80 109 140 179 226 272 318
#     4  10  20  31  48  74 105 145 180 212 257 313
#     4  11  20  34  52  78 105 145 186 223 257 323
#     4  11  21  37  53  75 103 146 182 222 260 320
#     4  11  20  34  57  75 110 143 186 215 262 317
#
# _framework density 16.886868
#
# number of rings (size 3 to 8) (size 9 to 14) (size 15 to 20)
#    0.000    1.077    6.154    2.769    2.154    0.615 
#    0.000    1.538    0.000    0.000    0.000    0.538 
#    0.000    1.231    0.000    0.000    0.000    0.000 
#
# Total GULP energy -322260.705903 kJ/mol
# GULP energy per Si atom -12394.642535 kJ/mol
# Density = 1.684843 g / cm^3
# Si number density = 16.886868 Si / 1000 Ang^3
#
#
#
# Elastic Constant Matrix: (Units=GPa)
#
#
# Indices 1 2 3 4 5 6 
#
# 1 73.4834 39.6551 56.4066 0.0001 -2.8687 0.0001
# 2 39.6551 89.9283 49.0878 -0.0001 3.1026 -0.0002
# 3 56.4066 49.0878 136.2828 -0.0010 5.7606 -0.0008
# 4 0.0001 -0.0001 -0.0010 11.3339 0.0001 -10.3200
# 5 -2.8687 3.1026 5.7606 0.0001 36.7245 0.0002
# 6 0.0001 -0.0002 -0.0008 -10.3200 0.0002 8.7293
#
#
#
# Elastic Compliance Matrix: (Units=1/GPa)
#
#
# Indices 1 2 3 4 5 6 
#
# 1 0.022664 -0.006115 -0.007323 0.000025 0.003436 0.000028
# 2 -0.006115 0.015497 -0.002995 -0.000001 -0.001317 -0.000001
# 3 -0.007323 -0.002995 0.011537 -0.000027 -0.002129 -0.000031
# 4 0.000025 -0.000001 -0.000027 -1.153780 0.000017 -1.364033
# 5 0.003436 -0.001317 -0.002129 0.000017 0.027943 0.000019
# 6 0.000028 -0.000001 -0.000031 -1.364033 0.000019 -1.498043
#
#
# Mechanical properties :
#
#
# Convention : Reuss Voigt Hill
#
# Bulk Modulus (GPa) = 59.41226 65.55483 62.48355
# Shear Modulus (GPa) = -1.97184 21.66053 9.84435
#
# Velocity S-wave (km/s) = -1.08176 3.58534 2.41707
# Velocity P-wave (km/s) = 5.80505 7.48625 6.69860
#
# Compressibility (1/GPa) = 0.01683154
#
# Stress axis : x y z
#
# Youngs Moduli (GPa) = 44.12291 64.52907 86.67426
#
# Poissons Ratio (x) = 0.39461 0.63472
# Poissons Ratio (y) = 0.26982 0.25960
# Poissons Ratio (z) = 0.32311 0.19327
#
# Static dielectric constant tensor:
#      x y z
#    x 3.158060 0.000000 -0.031720 
#    y 0.000000 2.820950 0.000000 
#    z -0.031720 0.000000 3.860750 
# 
# 
# High freq. dielectric constant tensor:
#      x y z
#    x 1.638950 0.000000 0.012790 
#    y 0.000000 1.600940 0.000000 
#    z 0.012790 0.000000 1.678910 
# 
# From -- ./inp_files/286295.got.cif
#   From: 2010.06.25/outbox.cif.g09.slc.cpg/sg12_144_cif.got.tgz:286295.got - 2010.06.28 00:19:55.
