data_PCOD8095961
_publ_section_title
;
Structure prediction by ZEFSAII (Michael W. Deem and Ramdas Pophale) SiO2 
 PCOD8095961
Probable space group: C 2/M
;
_chemical_formula_sum "Si O2"
_cell_formula_units_Z 48
_cell_length_a 24.487731
_cell_length_b 8.941636
_cell_length_c 12.468625
_cell_angle_alpha 90.000000
_cell_angle_beta 93.929122
_cell_angle_gamma 90.000000
_cell_volume 2723.717867
_symmetry_space_group_name_H-M "C 2/M"
_symmetry_group_IT_number 12
_symmetry_cell_setting 'monoclinic'
loop_
_space_group_symop_operation_xyz
x,y,z
-x,y,-z
-x,-y,-z
x,-y,z
1/2+x,1/2+y,z
1/2-x,1/2+y,-z
1/2-x,1/2-y,-z
1/2+x,1/2-y,z
loop_
_atom_site_type_symbol
_atom_site_label
_atom_site_fract_x
_atom_site_fract_y
_atom_site_fract_z
Si Si1 0.517064 0.335471 0.125021
Si Si2 0.398760 0.675590 0.140868
Si Si3 0.325770 0.169647 0.299682
Si Si4 0.377903 0.823662 0.913418
Si Si5 0.193258 0.672990 0.468641
Si Si6 0.197471 0.174260 0.260192
O O1 0.536087 0.500000 0.167709
O O2 0.461933 0.282322 0.179278
O O3 0.567147 0.220806 0.145253
O O4 0.500000 0.345837 0.000000
O O5 0.394224 0.500000 0.114598
O O6 0.361776 0.716062 0.236962
O O7 0.378368 0.765478 0.034682
O O8 0.342486 0.190069 0.427445
O O9 0.262065 0.206435 0.272641
O O10 0.337998 0.000000 0.264607
O O11 0.325478 0.751936 0.849215
O O12 0.372022 0.000000 0.913166
O O13 0.202860 0.500000 0.442307
O O14 0.250000 0.750000 0.500000
O O15 0.167453 0.754332 0.361152
O O16 0.183948 0.000000 0.256054
#
# Coordination Sequence:
#
# PCOD8095961 Si02
#       6
#     8   8   8   8   8   8
#     4   8  16  32  50  69  94 125 162 200 238 285
#     4  10  20  33  51  73  99 131 163 198 241 289
#     4   9  19  33  50  73 100 129 161 199 241 286
#     4  11  21  32  50  74  99 129 163 201 245 290
#     4   9  17  31  50  72  97 127 165 203 239 283
#     4  10  20  34  51  72 100 132 164 201 244 289
#
# _framework density 17.622971
#
# number of rings (size 3 to 8) (size 9 to 14) (size 15 to 20)
#    0.000    2.500    0.000    5.000    0.000    8.333 
#    0.000    0.000    0.000    1.000    0.000    7.000 
#    0.000    0.000    0.000    0.000    0.000    0.000 
#
# Total GULP energy -297476.886284 kJ/mol
# GULP energy per Si atom -12394.870262 kJ/mol
# Density = 1.758286 g / cm^3
# Si number density = 17.622971 Si / 1000 Ang^3
#
#
#
# Elastic Constant Matrix: (Units=GPa)
#
#
# Indices 1 2 3 4 5 6 
#
# 1 53.2419 29.1389 23.2806 0.0000 -20.2335 0.0000
# 2 29.1389 111.0592 33.3981 0.0000 -16.4227 0.0000
# 3 23.2806 33.3981 60.2868 0.0000 -20.5316 0.0000
# 4 0.0000 0.0000 0.0000 33.0909 0.0000 -0.8440
# 5 -20.2335 -16.4227 -20.5316 0.0000 14.1259 0.0000
# 6 0.0000 0.0000 0.0000 -0.8440 0.0000 25.9078
#
#
#
# Elastic Compliance Matrix: (Units=1/GPa)
#
#
# Indices 1 2 3 4 5 6 
#
# 1 0.044666 -0.003781 0.010174 0.000000 0.074370 0.000000
# 2 -0.003781 0.011558 -0.004378 0.000000 0.001657 0.000000
# 3 0.010174 -0.004378 0.036265 0.000000 0.062193 0.000000
# 4 0.000000 0.000000 0.000000 0.030245 0.000000 0.000985
# 5 0.074370 0.001657 0.062193 0.000000 0.269641 0.000000
# 6 0.000000 0.000000 0.000000 0.000985 0.000000 0.038631
#
#
# Mechanical properties :
#
#
# Convention : Reuss Voigt Hill
#
# Bulk Modulus (GPa) = 10.36078 44.02478 27.19278
# Shear Modulus (GPa) = 10.88973 23.87627 17.38300
#
# Velocity S-wave (km/s) = 2.48851 3.68481 3.14408
# Velocity P-wave (km/s) = 3.76149 6.56806 5.35202
#
# Compressibility (1/GPa) = 0.09651780
#
# Stress axis : x y z
#
# Youngs Moduli (GPa) = 22.38856 86.51968 27.57481
#
# Poissons Ratio (x) = 0.32717 -0.28056
# Poissons Ratio (y) = 0.08466 0.12074
# Poissons Ratio (z) = -0.22779 0.37882
#
# Static dielectric constant tensor:
#      x y z
#    x 3.346940 0.000000 -0.106170 
#    y 0.000000 3.387250 0.000000 
#    z -0.106170 0.000000 3.386060 
# 
# 
# High freq. dielectric constant tensor:
#      x y z
#    x 1.658870 0.000000 -0.006130 
#    y 0.000000 1.693050 0.000000 
#    z -0.006130 0.000000 1.667420 
# 
# From -- ./inp_files/172266.got.cif
#   From: 2010.06.25/outbox.cif.g09.slc.cpg/sg12_87_cif.got.tgz:172266.got - 2010.06.28 00:19:55.
