data_PCOD8095224
_publ_section_title
;
Structure prediction by ZEFSAII (Michael W. Deem and Ramdas Pophale) SiO2 
 PCOD8095224
Probable space group: C 2/M
;
_chemical_formula_sum "Si O2"
_cell_formula_units_Z 64
_cell_length_a 14.024487
_cell_length_b 24.753347
_cell_length_c 10.938292
_cell_angle_alpha 90.000000
_cell_angle_beta 78.267215
_cell_angle_gamma 90.000000
_cell_volume 3717.923173
_symmetry_space_group_name_H-M "C 2/M"
_symmetry_group_IT_number 12
_symmetry_cell_setting 'monoclinic'
loop_
_space_group_symop_operation_xyz
x,y,z
-x,y,-z
-x,-y,-z
x,-y,z
1/2+x,1/2+y,z
1/2-x,1/2+y,-z
1/2-x,1/2-y,-z
1/2+x,1/2-y,z
loop_
_atom_site_type_symbol
_atom_site_label
_atom_site_fract_x
_atom_site_fract_y
_atom_site_fract_z
Si Si1 0.062959 0.751339 0.661475
Si Si2 0.811096 0.339438 0.268537
Si Si3 0.710522 0.838857 0.206030
Si Si4 0.846801 0.756448 0.615319
Si Si5 0.608418 0.811722 0.990539
Si Si6 0.389382 0.061194 0.379000
Si Si7 0.889669 0.560945 0.664920
Si Si8 0.412291 0.693140 0.099742
O O1 0.093441 0.694411 0.713841
O O2 0.144733 0.759880 0.534249
O O3 0.062068 0.797794 0.764329
O O4 0.955365 0.750453 0.637145
O O5 0.709015 0.310500 0.327686
O O6 0.818719 0.344151 0.119143
O O7 0.816699 0.398671 0.326821
O O8 0.711101 0.796314 0.319712
O O9 0.683904 0.898919 0.251305
O O10 0.817788 0.844609 0.120404
O O11 0.635973 0.818067 0.123943
O O12 0.615034 0.748432 0.960775
O O13 0.500000 0.834386 0.000000
O O14 0.383186 0.072791 0.523595
O O15 0.501606 0.070345 0.311692
O O16 0.356817 0.000000 0.356868
O O17 0.856247 0.500000 0.702352
O O18 0.500000 0.665305 0.000000
#
# Coordination Sequence:
#
# PCOD8095224 Si02
#       8
#     8   8   8   8   8   8   8   8
#     4  10  21  34  46  75 110 135 168 216 264 307
#     4  11  20  32  51  74 107 139 177 212 250 323
#     4  12  20  32  55  75 103 145 178 215 260 312
#     4  11  21  31  51  77 107 138 168 216 266 312
#     4  10  20  32  47  74 106 141 175 208 254 313
#     4   9  18  34  54  77 107 137 169 215 268 314
#     4   9  19  34  54  79 103 134 174 218 264 313
#     4  10  21  33  49  70 106 141 176 210 252 320
#
# _framework density 17.213911
#
# number of rings (size 3 to 8) (size 9 to 14) (size 15 to 20)
#    0.000    1.750    2.500    6.000    3.500    2.000 
#    0.000    0.625    0.000    2.625    0.000    2.625 
#    0.000    0.000    0.000    0.000    0.000    0.000 
#
# Total GULP energy -396704.712091 kJ/mol
# GULP energy per Si atom -12397.022253 kJ/mol
# Density = 1.717473 g / cm^3
# Si number density = 17.213911 Si / 1000 Ang^3
#
#
#
# Elastic Constant Matrix: (Units=GPa)
#
#
# Indices 1 2 3 4 5 6 
#
# 1 59.8583 30.5361 33.3805 0.0000 -19.4708 0.0000
# 2 30.5361 78.0393 35.1952 0.0000 -9.7639 0.0000
# 3 33.3805 35.1952 107.3866 0.0000 -14.8483 0.0000
# 4 0.0000 0.0000 0.0000 19.1884 0.0000 -3.0061
# 5 -19.4708 -9.7639 -14.8483 0.0000 30.4063 0.0000
# 6 0.0000 0.0000 0.0000 -3.0061 0.0000 22.3480
#
#
#
# Elastic Compliance Matrix: (Units=1/GPa)
#
#
# Indices 1 2 3 4 5 6 
#
# 1 0.026823 -0.006957 -0.004281 0.000000 0.012852 0.000000
# 2 -0.006957 0.017035 -0.003518 0.000000 -0.000703 0.000000
# 3 -0.004281 -0.003518 0.012076 0.000000 0.002026 0.000000
# 4 0.000000 0.000000 0.000000 0.053237 0.000000 0.007161
# 5 0.012852 -0.000703 0.002026 0.000000 0.041881 0.000000
# 6 0.000000 0.000000 0.000000 0.007161 0.000000 0.045710
#
#
# Mechanical properties :
#
#
# Convention : Reuss Voigt Hill
#
# Bulk Modulus (GPa) = 37.84605 49.27863 43.56234
# Shear Modulus (GPa) = 21.26938 24.13336 22.70137
#
# Velocity S-wave (km/s) = 3.51891 3.74835 3.63544
# Velocity P-wave (km/s) = 6.20836 6.88642 6.55617
#
# Compressibility (1/GPa) = 0.02642284
#
# Stress axis : x y z
#
# Youngs Moduli (GPa) = 37.28186 58.70330 82.81023
#
# Poissons Ratio (x) = 0.40840 0.35447
# Poissons Ratio (y) = 0.25937 0.29130
# Poissons Ratio (z) = 0.15959 0.20650
#
# Static dielectric constant tensor:
#      x y z
#    x 3.168250 0.000000 -0.076380 
#    y 0.000000 2.875040 0.000000 
#    z -0.076380 0.000000 3.601630 
# 
# 
# High freq. dielectric constant tensor:
#      x y z
#    x 1.657370 0.000000 -0.003260 
#    y 0.000000 1.616870 0.000000 
#    z -0.003260 0.000000 1.681770 
# 
# From -- ./inp_files/148645.got.cif
#   From: 2010.06.25/outbox.cif.g09.slc.cpg/sg12_75_cif.got.tgz:148645.got - 2010.06.28 00:19:55.
