data_PCOD8095127
_publ_section_title
;
Structure prediction by ZEFSAII (Michael W. Deem and Ramdas Pophale) SiO2 
 PCOD8095127
Probable space group: C 2/M
;
_chemical_formula_sum "Si O2"
_cell_formula_units_Z 56
_cell_length_a 24.657775
_cell_length_b 9.377531
_cell_length_c 20.282466
_cell_angle_alpha 90.000000
_cell_angle_beta 133.729445
_cell_angle_gamma 90.000000
_cell_volume 3388.974635
_symmetry_space_group_name_H-M "C 2/M"
_symmetry_group_IT_number 12
_symmetry_cell_setting 'monoclinic'
loop_
_space_group_symop_operation_xyz
x,y,z
-x,y,-z
-x,-y,-z
x,-y,z
1/2+x,1/2+y,z
1/2-x,1/2+y,-z
1/2-x,1/2-y,-z
1/2+x,1/2-y,z
loop_
_atom_site_type_symbol
_atom_site_label
_atom_site_fract_x
_atom_site_fract_y
_atom_site_fract_z
Si Si1 0.559149 0.831354 0.196875
Si Si2 0.794642 0.842708 0.447840
Si Si3 0.860292 0.656499 0.605647
Si Si4 0.683530 0.165745 0.910122
Si Si5 0.587586 0.332229 0.920109
Si Si6 0.209891 0.331394 0.251895
Si Si7 0.723494 0.660241 0.132847
O O1 0.582063 0.786365 0.290654
O O2 0.488840 0.735465 0.116140
O O3 0.625665 0.790009 0.202593
O O4 0.541095 0.000000 0.177752
O O5 0.859150 0.752535 0.538875
O O6 0.721543 0.852147 0.431600
O O7 0.770040 0.775119 0.356810
O O8 0.828337 0.000000 0.465616
O O9 0.885923 0.500000 0.604344
O O10 0.607710 0.246897 0.869094
O O11 0.699722 0.174798 0.845368
O O12 0.681816 0.000000 0.931341
O O13 0.750000 0.250000 0.000000
O O14 0.578736 0.500000 0.897785
O O15 0.651185 0.302434 0.027807
O O16 0.216874 0.500000 0.253402
O O17 0.229810 0.266400 0.198638
O O18 0.715546 0.500000 0.153415
#
# Coordination Sequence:
#
# PCOD8095127 Si02
#       7
#     8   8   8   8   8   8   8
#     4   9  18  31  44  63  92 122 151 181 215 261
#     4   8  14  25  40  60  85 111 143 181 215 251
#     4   8  14  25  41  60  83 112 145 179 215 255
#     4   9  17  31  49  67  86 110 144 187 228 262
#     4  10  20  32  46  66  89 116 151 187 223 261
#     4   9  18  30  44  64  91 122 152 179 213 262
#     4   9  19  32  45  64  89 115 146 184 221 258
#
# _framework density 16.524172
#
# number of rings (size 3 to 8) (size 9 to 14) (size 15 to 20)
#    0.000    3.143    0.000    3.429    0.000    5.714 
#    0.000    5.714    0.000    0.000    0.000    1.000 
#    0.000    8.000    0.000    0.000    0.000    0.000 
#
# Total GULP energy -346962.142036 kJ/mol
# GULP energy per Si atom -12391.505073 kJ/mol
# Density = 1.648656 g / cm^3
# Si number density = 16.524172 Si / 1000 Ang^3
#
#
#
# Elastic Constant Matrix: (Units=GPa)
#
#
# Indices 1 2 3 4 5 6 
#
# 1 51.5229 27.1918 17.5921 0.0000 -19.9904 0.0000
# 2 27.1918 65.8690 22.0598 0.0000 -14.5650 0.0000
# 3 17.5921 22.0598 45.2265 0.0000 -21.0163 0.0000
# 4 0.0000 0.0000 0.0000 29.1426 0.0000 -3.3938
# 5 -19.9904 -14.5650 -21.0163 0.0000 15.1245 0.0000
# 6 0.0000 0.0000 0.0000 -3.3938 0.0000 27.2093
#
#
#
# Elastic Compliance Matrix: (Units=1/GPa)
#
#
# Indices 1 2 3 4 5 6 
#
# 1 0.058744 -0.010351 0.038519 0.000000 0.121200 0.000000
# 2 -0.010351 0.021190 -0.008988 0.000000 -0.005764 0.000000
# 3 0.038519 -0.008988 0.087917 0.000000 0.164422 0.000000
# 4 0.000000 0.000000 0.000000 0.034820 0.000000 0.004343
# 5 0.121200 -0.005764 0.164422 0.000000 0.449233 0.000000
# 6 0.000000 0.000000 0.000000 0.004343 0.000000 0.037294
#
#
# Mechanical properties :
#
#
# Convention : Reuss Voigt Hill
#
# Bulk Modulus (GPa) = 4.84939 32.92284 18.88611
# Shear Modulus (GPa) = 6.94854 20.68028 13.81441
#
# Velocity S-wave (km/s) = 2.05285 3.54152 2.89452
# Velocity P-wave (km/s) = 2.92575 6.05726 4.75660
#
# Compressibility (1/GPa) = 0.20621157
#
# Stress axis : x y z
#
# Youngs Moduli (GPa) = 17.02300 47.19151 11.37433
#
# Poissons Ratio (x) = 0.48848 -0.43813
# Poissons Ratio (y) = 0.17620 0.10223
# Poissons Ratio (z) = -0.65571 0.42416
#
# Static dielectric constant tensor:
#      x y z
#    x 3.115720 0.000000 -0.069000 
#    y 0.000000 3.298150 0.000000 
#    z -0.069000 0.000000 3.044910 
# 
# 
# High freq. dielectric constant tensor:
#      x y z
#    x 1.604980 0.000000 -0.010330 
#    y 0.000000 1.641340 0.000000 
#    z -0.010330 0.000000 1.616730 
# 
# From -- ./inp_files/295056.got.cif
#   From: 2010.06.25/outbox.cif.g09.slc.cpg/sg12_148_cif.got.tgz:295056.got - 2010.06.28 00:19:55.
