data_PCOD8095534
_publ_section_title
;
Structure prediction by ZEFSAII (Michael W. Deem and Ramdas Pophale) SiO2 
 PCOD8095534
Probable space group: C 2/M
;
_chemical_formula_sum "Si O2"
_cell_formula_units_Z 44
_cell_length_a 7.439980
_cell_length_b 26.124378
_cell_length_c 11.938266
_cell_angle_alpha 90.000000
_cell_angle_beta 124.126185
_cell_angle_gamma 90.000000
_cell_volume 1920.819313
_symmetry_space_group_name_H-M "C 2/M"
_symmetry_group_IT_number 12
_symmetry_cell_setting 'monoclinic'
loop_
_space_group_symop_operation_xyz
x,y,z
-x,y,-z
-x,-y,-z
x,-y,z
1/2+x,1/2+y,z
1/2-x,1/2+y,-z
1/2-x,1/2-y,-z
1/2+x,1/2-y,z
loop_
_atom_site_type_symbol
_atom_site_label
_atom_site_fract_x
_atom_site_fract_y
_atom_site_fract_z
Si Si1 0.400981 0.309591 0.286507
Si Si2 0.243503 0.443434 0.915113
Si Si3 0.794676 0.338675 0.994697
Si Si4 0.963381 0.304080 0.264301
Si Si5 0.470426 0.907837 0.616744
Si Si6 0.500000 0.384262 0.500000
O O1 0.410195 0.326606 0.158569
O O2 0.477729 0.251041 0.326966
O O3 0.550395 0.348048 0.409414
O O4 0.167040 0.316793 0.258177
O O5 0.187596 0.500000 0.943327
O O6 0.133320 0.438747 0.754149
O O7 0.500000 0.435964 0.000000
O O8 0.162149 0.399157 0.970097
O O9 0.764018 0.309782 0.104392
O O10 0.000000 0.316015 0.000000
O O11 0.957362 0.347831 0.356485
O O12 0.500000 0.928146 0.500000
O O13 0.222848 0.917372 0.578434
#
# Coordination Sequence:
#
# PCOD8095534 Si02
#       6
#     8   8   8   8   8   4
#     4  10  20  32  54  82 124 162 206 253 295 360
#     4  10  23  43  66  95 119 149 209 265 316 384
#     4   9  19  37  57  83 119 160 203 257 311 361
#     4   9  20  33  52  87 120 162 213 249 293 364
#     4  10  23  41  64  90 129 171 201 256 315 365
#     4  10  24  38  57  92 128 168 215 248 290 390
#
# _framework density 22.906890000000001
#
# number of rings (size 3 to 8) (size 9 to 14) (size 15 to 20)
#    0.000    2.364    0.000    1.636    6.364    3.636 
#    0.000    1.364    0.000    0.000    0.000    0.000 
#    0.000    0.000    0.000    0.000    0.000    0.000 
#
# Total GULP energy -272574.585890 kJ/mol
# GULP energy per Si atom -12389.753904 kJ/mol
# Density = 2.285475 g / cm^3
# Si number density = 22.906890 Si / 1000 Ang^3
#
#
#
# Elastic Constant Matrix: (Units=GPa)
#
#
# Indices 1 2 3 4 5 6 
#
# 1 52.0286 6.5250 28.6900 0.0000 1.4083 0.0000
# 2 6.5250 63.4189 1.2280 0.0000 5.4673 0.0000
# 3 28.6900 1.2280 110.6399 0.0000 12.0668 0.0000
# 4 0.0000 0.0000 0.0000 12.0287 0.0000 -6.8954
# 5 1.4083 5.4673 12.0668 0.0000 26.1153 0.0000
# 6 0.0000 0.0000 0.0000 -6.8954 0.0000 12.0684
#
#
#
# Elastic Compliance Matrix: (Units=1/GPa)
#
#
# Indices 1 2 3 4 5 6 
#
# 1 0.022844 -0.002413 -0.006126 0.000000 0.002104 0.000000
# 2 -0.002413 0.016317 0.000846 0.000000 -0.003677 0.000000
# 3 -0.006126 0.000846 0.011163 0.000000 -0.005005 0.000000
# 4 0.000000 0.000000 0.000000 0.123625 0.000000 0.070635
# 5 0.002104 -0.003677 -0.005005 0.000000 0.041261 0.000000
# 6 0.000000 0.000000 0.000000 0.070635 0.000000 0.123219
#
#
# Mechanical properties :
#
#
# Convention : Reuss Voigt Hill
#
# Bulk Modulus (GPa) = 28.62311 33.21925 30.92118
# Shear Modulus (GPa) = 13.68126 22.68544 18.18335
#
# Velocity S-wave (km/s) = 2.44653 3.15037 2.82049
# Velocity P-wave (km/s) = 4.52805 5.26939 4.91272
#
# Compressibility (1/GPa) = 0.03493681
#
# Stress axis : x y z
#
# Youngs Moduli (GPa) = 43.77490 61.28568 89.57834
#
# Poissons Ratio (x) = 0.14789 0.54879
# Poissons Ratio (y) = 0.10563 -0.07575
# Poissons Ratio (z) = 0.26818 -0.05182
#
# Static dielectric constant tensor:
#      x y z
#    x 3.695730 0.000000 0.061840 
#    y 0.000000 3.906450 0.000000 
#    z 0.061840 0.000000 4.770910 
# 
# 
# High freq. dielectric constant tensor:
#      x y z
#    x 1.879600 0.000000 0.004800 
#    y 0.000000 1.876780 0.000000 
#    z 0.004800 0.000000 1.924590 
# 
# From -- ./inp_files/124479.got.cif
#   From: 2010.06.25/outbox.cif.g09.slc.cpg/sg12_63_cif.got.tgz:124479.got - 2010.06.28 00:19:55.
