data_PCOD8095281
_publ_section_title
;
Structure prediction by ZEFSAII (Michael W. Deem and Ramdas Pophale) SiO2 
 PCOD8095281
Probable space group: C 2/M
;
_chemical_formula_sum "Si O2"
_cell_formula_units_Z 64
_cell_length_a 23.250809
_cell_length_b 8.839529
_cell_length_c 21.872018
_cell_angle_alpha 90.000000
_cell_angle_beta 124.748474
_cell_angle_gamma 90.000000
_cell_volume 3693.595337
_symmetry_space_group_name_H-M "C 2/M"
_symmetry_group_IT_number 12
_symmetry_cell_setting 'monoclinic'
loop_
_space_group_symop_operation_xyz
x,y,z
-x,y,-z
-x,-y,-z
x,-y,z
1/2+x,1/2+y,z
1/2-x,1/2+y,-z
1/2-x,1/2-y,-z
1/2+x,1/2-y,z
loop_
_atom_site_type_symbol
_atom_site_label
_atom_site_fract_x
_atom_site_fract_y
_atom_site_fract_z
Si Si1 0.317221 0.178117 0.874815
Si Si2 0.456788 0.677936 0.146205
Si Si3 0.465003 0.825283 0.275153
Si Si4 0.165984 0.822508 0.738829
Si Si5 0.319263 0.178665 0.015475
Si Si6 0.098720 0.174281 0.576737
Si Si7 0.029863 0.326092 0.436952
Si Si8 0.546064 0.678313 0.084397
O O1 0.241794 0.234716 0.806050
O O2 0.376776 0.252037 0.869238
O O3 0.323190 0.000000 0.871560
O O4 0.328563 0.231258 0.951231
O O5 0.443554 0.500000 0.136591
O O6 0.487788 0.728489 0.230149
O O7 0.383401 0.761645 0.093935
O O8 0.510195 0.728768 0.125813
O O9 0.391443 0.770325 0.258288
O O10 0.528386 0.804232 0.362774
O O11 0.456616 0.000000 0.251657
O O12 0.161347 0.791149 0.662650
O O13 0.154442 0.000000 0.745975
O O14 0.313913 0.000000 0.017589
O O15 0.250000 0.250000 0.000000
O O16 0.101830 0.272237 0.514975
O O17 0.028894 0.217078 0.571170
O O18 0.098084 0.000000 0.557546
O O19 0.013932 0.500000 0.443633
O O20 0.553166 0.500000 0.083418
O O21 0.500000 0.741988 0.000000
#
# Coordination Sequence:
#
# PCOD8095281 Si02
#       8
#     8   8   8   8   8   8   8   8
#     4  10  21  35  52  73  97 127 163 203 246 288
#     4  11  22  36  53  71  96 129 163 205 251 293
#     4  10  20  32  48  73 102 133 166 203 246 294
#     4   9  18  32  48  72 105 135 164 201 244 293
#     4  11  22  34  51  75 101 131 165 198 239 292
#     4   9  15  24  42  66  95 131 166 195 231 284
#     4   9  16  26  41  64  97 130 162 198 237 283
#     4  10  21  38  56  73  93 122 163 208 252 295
#
# _framework density 17.327290999999999
#
# number of rings (size 3 to 8) (size 9 to 14) (size 15 to 20)
#    0.000    2.125    1.250    3.375    0.000    5.250 
#    0.000    0.000    0.000    0.000    0.000    0.875 
#    0.000    0.000    0.000    0.000    0.000    0.000 
#
# Total GULP energy -396683.425564 kJ/mol
# GULP energy per Si atom -12396.357049 kJ/mol
# Density = 1.728785 g / cm^3
# Si number density = 17.327291 Si / 1000 Ang^3
#
#
#
# Elastic Constant Matrix: (Units=GPa)
#
#
# Indices 1 2 3 4 5 6 
#
# 1 88.2547 33.1125 35.0328 0.0000 -15.0302 0.0000
# 2 33.1125 51.0711 30.8261 0.0000 -8.0916 0.0000
# 3 35.0328 30.8261 98.4371 0.0000 -29.9149 0.0000
# 4 0.0000 0.0000 0.0000 28.3655 0.0000 -1.6028
# 5 -15.0302 -8.0916 -29.9149 0.0000 18.1791 0.0000
# 6 0.0000 0.0000 0.0000 -1.6028 0.0000 25.2793
#
#
#
# Elastic Compliance Matrix: (Units=1/GPa)
#
#
# Indices 1 2 3 4 5 6 
#
# 1 0.016363 -0.009030 -0.000212 0.000000 0.009161 0.000000
# 2 -0.009030 0.029232 -0.008512 0.000000 -0.008461 0.000000
# 3 -0.000212 -0.008512 0.023394 0.000000 0.034533 0.000000
# 4 0.000000 0.000000 0.000000 0.035381 0.000000 0.002243
# 5 0.009161 -0.008461 0.034533 0.000000 0.115643 0.000000
# 6 0.000000 0.000000 0.000000 0.002243 0.000000 0.039700
#
#
# Mechanical properties :
#
#
# Convention : Reuss Voigt Hill
#
# Bulk Modulus (GPa) = 29.86630 48.41176 39.13903
# Shear Modulus (GPa) = 16.31952 23.61755 19.96854
#
# Velocity S-wave (km/s) = 3.07227 3.69592 3.39843
# Velocity P-wave (km/s) = 5.46435 6.79804 6.16735
#
# Compressibility (1/GPa) = 0.03348255
#
# Stress axis : x y z
#
# Youngs Moduli (GPa) = 61.11348 34.20863 42.74566
#
# Poissons Ratio (x) = 0.30890 0.00904
# Poissons Ratio (y) = 0.55185 0.36385
# Poissons Ratio (z) = 0.01293 0.29118
#
# Static dielectric constant tensor:
#      x y z
#    x 2.923430 0.000000 -0.251450 
#    y 0.000000 3.249430 0.000000 
#    z -0.251450 0.000000 3.865540 
# 
# 
# High freq. dielectric constant tensor:
#      x y z
#    x 1.623470 0.000000 -0.019650 
#    y 0.000000 1.677500 0.000000 
#    z -0.019650 0.000000 1.683050 
# 
# From -- ./inp_files/346191.got.cif
#   From: 2010.06.25/outbox.cif.g09.slc.cpg/sg12_174_cif.got.tgz:346191.got - 2010.06.28 00:19:55.
