data_PCOD8095572
_publ_section_title
;
Structure prediction by ZEFSAII (Michael W. Deem and Ramdas Pophale) SiO2 
 PCOD8095572
Probable space group: C 2/M
;
_chemical_formula_sum "Si O2"
_cell_formula_units_Z 64
_cell_length_a 12.127842
_cell_length_b 16.767445
_cell_length_c 17.214309
_cell_angle_alpha 90.000000
_cell_angle_beta 99.049345
_cell_angle_gamma 90.000000
_cell_volume 3457.009212
_symmetry_space_group_name_H-M "C 2/M"
_symmetry_group_IT_number 12
_symmetry_cell_setting 'monoclinic'
loop_
_space_group_symop_operation_xyz
x,y,z
-x,y,-z
-x,-y,-z
x,-y,z
1/2+x,1/2+y,z
1/2-x,1/2+y,-z
1/2-x,1/2-y,-z
1/2+x,1/2-y,z
loop_
_atom_site_type_symbol
_atom_site_label
_atom_site_fract_x
_atom_site_fract_y
_atom_site_fract_z
Si Si1 0.778251 0.133507 0.293671
Si Si2 0.474777 0.090198 0.754026
Si Si3 0.907594 0.912913 0.160268
Si Si4 0.686906 0.193280 0.756932
Si Si5 0.024793 0.907624 0.586499
Si Si6 0.729719 0.715850 0.913714
Si Si7 0.420792 0.910474 0.920681
Si Si8 0.384841 0.408350 0.714705
O O1 0.646322 0.119706 0.288790
O O2 0.820336 0.086262 0.222453
O O3 0.811728 0.225473 0.290347
O O4 0.844753 0.102658 0.376690
O O5 0.566856 0.151712 0.733108
O O6 0.489148 0.089931 0.848562
O O7 0.495267 0.000000 0.725265
O O8 0.880953 0.840349 0.098211
O O9 0.031794 0.898356 0.203911
O O10 0.898688 0.000000 0.118625
O O11 0.717898 0.212148 0.850625
O O12 0.773692 0.136054 0.725342
O O13 0.000000 0.866919 0.500000
O O14 0.943414 0.870971 0.644126
O O15 0.995671 0.000000 0.577918
O O16 0.827066 0.655834 0.899913
O O17 0.750000 0.750000 0.000000
O O18 0.371769 0.000000 0.930719
O O19 0.500000 0.884578 0.000000
O O20 0.354199 0.500000 0.697326
#
# Coordination Sequence:
#
# PCOD8095572 Si02
#       8
#     8   8   8   8   8   8   8   8
#     4  10  20  32  59  85 110 142 187 235 279 329
#     4  11  21  36  56  80 110 149 194 231 276 343
#     4   9  17  34  57  76  99 137 187 233 278 333
#     4  11  23  34  55  80 116 150 185 235 283 338
#     4   9  18  35  62  91 114 142 185 234 281 338
#     4  11  22  33  50  77 107 141 184 240 293 331
#     4  10  20  34  52  73 103 142 187 237 287 338
#     4   9  19  36  58  80 110 148 184 225 281 347
#
# _framework density 18.513113000000001
#
# number of rings (size 3 to 8) (size 9 to 14) (size 15 to 20)
#    0.000    2.000    2.500    3.375    5.250    1.000 
#    0.000    2.500    0.000    1.500    0.000    3.500 
#    0.000    0.000    0.000    0.000    0.000    0.000 
#
# Total GULP energy -396629.898973 kJ/mol
# GULP energy per Si atom -12394.684343 kJ/mol
# Density = 1.847098 g / cm^3
# Si number density = 18.513113 Si / 1000 Ang^3
#
#
#
# Elastic Constant Matrix: (Units=GPa)
#
#
# Indices 1 2 3 4 5 6 
#
# 1 107.7955 37.6021 27.4888 0.0000 7.4698 0.0000
# 2 37.6021 86.9013 25.0829 0.0000 -0.9637 0.0000
# 3 27.4888 25.0829 93.7752 0.0000 14.8514 0.0000
# 4 0.0000 0.0000 0.0000 17.3164 0.0000 3.0875
# 5 7.4698 -0.9637 14.8514 0.0000 18.0293 0.0000
# 6 0.0000 0.0000 0.0000 3.0875 0.0000 29.9636
#
#
#
# Elastic Compliance Matrix: (Units=1/GPa)
#
#
# Indices 1 2 3 4 5 6 
#
# 1 0.011532 -0.004580 -0.001564 0.000000 -0.003734 0.000000
# 2 -0.004580 0.014535 -0.003414 0.000000 0.005487 0.000000
# 3 -0.001564 -0.003414 0.013756 0.000000 -0.010866 0.000000
# 4 0.000000 0.000000 0.000000 0.058830 0.000000 -0.006062
# 5 -0.003734 0.005487 -0.010866 0.000000 0.066257 0.000000
# 6 0.000000 0.000000 0.000000 -0.006062 0.000000 0.033998
#
#
# Mechanical properties :
#
#
# Convention : Reuss Voigt Hill
#
# Bulk Modulus (GPa) = 48.29207 52.09108 50.19157
# Shear Modulus (GPa) = 22.22938 26.28173 24.25556
#
# Velocity S-wave (km/s) = 3.46892 3.77188 3.62357
# Velocity P-wave (km/s) = 6.49512 6.86789 6.68410
#
# Compressibility (1/GPa) = 0.02070733
#
# Stress axis : x y z
#
# Youngs Moduli (GPa) = 86.71506 68.79764 72.69319
#
# Poissons Ratio (x) = 0.31508 0.11369
# Poissons Ratio (y) = 0.39714 0.24820
# Poissons Ratio (z) = 0.13562 0.23490
#
# Static dielectric constant tensor:
#      x y z
#    x 3.367780 0.000000 0.228090 
#    y 0.000000 3.715680 0.000000 
#    z 0.228090 0.000000 3.452390 
# 
# 
# High freq. dielectric constant tensor:
#      x y z
#    x 1.709170 0.000000 0.020960 
#    y 0.000000 1.724650 0.000000 
#    z 0.020960 0.000000 1.687420 
# 
# From -- ./inp_files/263943.got.cif
#   From: 2010.06.25/outbox.cif.g09.slc.cpg/sg12_132_cif.got.tgz:263943.got - 2010.06.28 00:19:55.
