data_PCOD8095375
_publ_section_title
;
Structure prediction by ZEFSAII (Michael W. Deem and Ramdas Pophale) SiO2 
 PCOD8095375
Probable space group: C 2/M
;
_chemical_formula_sum "Si O2"
_cell_formula_units_Z 64
_cell_length_a 29.877839
_cell_length_b 14.093431
_cell_length_c 9.416285
_cell_angle_alpha 90.000000
_cell_angle_beta 118.885987
_cell_angle_gamma 90.000000
_cell_volume 3471.703940
_symmetry_space_group_name_H-M "C 2/M"
_symmetry_group_IT_number 12
_symmetry_cell_setting 'monoclinic'
loop_
_space_group_symop_operation_xyz
x,y,z
-x,y,-z
-x,-y,-z
x,-y,z
1/2+x,1/2+y,z
1/2-x,1/2+y,-z
1/2-x,1/2-y,-z
1/2+x,1/2-y,z
loop_
_atom_site_type_symbol
_atom_site_label
_atom_site_fract_x
_atom_site_fract_y
_atom_site_fract_z
Si Si1 0.997784 0.107035 0.836648
Si Si2 0.305622 0.394488 0.908806
Si Si3 0.404365 0.605076 0.189476
Si Si4 0.231316 0.112095 0.697551
Si Si5 0.792134 0.395164 0.053978
Si Si6 0.549031 0.721272 0.489572
Si Si7 0.841550 0.718992 0.368752
Si Si8 0.765503 0.612554 0.438083
O O1 0.965799 0.174271 0.682817
O O2 0.055689 0.105053 0.875845
O O3 0.974496 0.000000 0.799713
O O4 0.000000 0.148470 0.000000
O O5 0.323899 0.500000 0.891535
O O6 0.263631 0.399792 0.964964
O O7 0.280727 0.346110 0.731000
O O8 0.354647 0.339204 0.050343
O O9 0.386975 0.500000 0.205601
O O10 0.427875 0.644820 0.368627
O O11 0.180359 0.173151 0.654901
O O12 0.252754 0.142571 0.577352
O O13 0.217271 0.000000 0.683673
O O14 0.279315 0.137881 0.873775
O O15 0.817717 0.500000 0.095343
O O16 0.827778 0.322346 0.192268
O O17 0.500000 0.767784 0.500000
O O18 0.596609 0.790227 0.526088
O O19 0.818376 0.657444 0.462350
O O20 0.770926 0.500000 0.426547
#
# Coordination Sequence:
#
# PCOD8095375 Si02
#       8
#     8   8   8   8   8   8   8   8
#     4   9  18  32  48  66  92 128 168 207 250 301
#     4   8  14  26  45  68  93 123 159 198 240 291
#     4   9  16  28  46  65  90 128 166 201 247 297
#     4  10  20  32  49  79 112 137 165 204 247 305
#     4   9  18  33  52  74 101 131 168 210 251 300
#     4  10  21  34  47  68  96 128 171 219 254 289
#     4  11  20  33  53  74 101 140 175 207 255 306
#     4   9  19  35  52  74 107 139 171 210 253 306
#
# _framework density 18.434752
#
# number of rings (size 3 to 8) (size 9 to 14) (size 15 to 20)
#    0.000    2.625    0.000    3.000    0.000    5.500 
#    0.000    5.000    0.000    1.500    0.000    0.000 
#    0.000    5.000    0.000    0.000    0.000    0.000 
#
# Total GULP energy -396439.274163 kJ/mol
# GULP energy per Si atom -12388.727318 kJ/mol
# Density = 1.839279 g / cm^3
# Si number density = 18.434752 Si / 1000 Ang^3
#
#
#
# Elastic Constant Matrix: (Units=GPa)
#
#
# Indices 1 2 3 4 5 6 
#
# 1 84.0884 28.4879 61.9757 0.0000 14.5876 0.0000
# 2 28.4879 43.8090 28.6534 0.0000 2.2699 0.0000
# 3 61.9757 28.6534 137.1816 0.0000 -8.7540 0.0000
# 4 0.0000 0.0000 0.0000 21.7002 0.0000 -0.4523
# 5 14.5876 2.2699 -8.7540 0.0000 34.3637 0.0000
# 6 0.0000 0.0000 0.0000 -0.4523 0.0000 22.1694
#
#
#
# Elastic Compliance Matrix: (Units=1/GPa)
#
#
# Indices 1 2 3 4 5 6 
#
# 1 0.024282 -0.008649 -0.009947 0.000000 -0.012270 0.000000
# 2 -0.008649 0.029870 -0.002260 0.000000 0.001122 0.000000
# 3 -0.009947 -0.002260 0.012741 0.000000 0.007618 0.000000
# 4 0.000000 0.000000 0.000000 0.046102 0.000000 0.000940
# 5 -0.012270 0.001122 0.007618 0.000000 0.036176 0.000000
# 6 0.000000 0.000000 0.000000 0.000940 0.000000 0.045126
#
#
# Mechanical properties :
#
#
# Convention : Reuss Voigt Hill
#
# Bulk Modulus (GPa) = 39.70928 55.92368 47.81648
# Shear Modulus (GPa) = 20.45799 25.37746 22.91773
#
# Velocity S-wave (km/s) = 3.33491 3.71429 3.52970
# Velocity P-wave (km/s) = 6.03457 6.98545 6.52735
#
# Compressibility (1/GPa) = 0.02518303
#
# Stress axis : x y z
#
# Youngs Moduli (GPa) = 41.18297 33.47786 78.48383
#
# Poissons Ratio (x) = 0.28954 0.78065
# Poissons Ratio (y) = 0.35617 0.17739
# Poissons Ratio (z) = 0.40963 0.07567
#
# Static dielectric constant tensor:
#      x y z
#    x 3.511500 0.000000 -0.017810 
#    y 0.000000 3.248100 0.000000 
#    z -0.017810 0.000000 3.635940 
# 
# 
# High freq. dielectric constant tensor:
#      x y z
#    x 1.697210 0.000000 -0.012210 
#    y 0.000000 1.684900 0.000000 
#    z -0.012210 0.000000 1.726920 
# 
# From -- ./inp_files/111653.got.cif
#   From: 2010.06.25/outbox.cif.g09.slc.cpg/sg12_56_cif.got.tgz:111653.got - 2010.06.28 00:19:55.
