data_PCOD8095797
_publ_section_title
;
Structure prediction by ZEFSAII (Michael W. Deem and Ramdas Pophale) SiO2 
 PCOD8095797
Probable space group: C 2/M
;
_chemical_formula_sum "Si O2"
_cell_formula_units_Z 56
_cell_length_a 22.532541
_cell_length_b 9.119724
_cell_length_c 14.650731
_cell_angle_alpha 90.000000
_cell_angle_beta 91.488001
_cell_angle_gamma 90.000000
_cell_volume 3009.571629
_symmetry_space_group_name_H-M "C 2/M"
_symmetry_group_IT_number 12
_symmetry_cell_setting 'monoclinic'
loop_
_space_group_symop_operation_xyz
x,y,z
-x,y,-z
-x,-y,-z
x,-y,z
1/2+x,1/2+y,z
1/2-x,1/2+y,-z
1/2-x,1/2-y,-z
1/2+x,1/2-y,z
loop_
_atom_site_type_symbol
_atom_site_label
_atom_site_fract_x
_atom_site_fract_y
_atom_site_fract_z
Si Si1 0.954453 0.835763 0.686297
Si Si2 0.574517 0.173921 0.652986
Si Si3 0.722387 0.163094 0.390544
Si Si4 0.238769 0.327405 0.094179
Si Si5 0.631095 0.664549 0.489143
Si Si6 0.322617 0.671833 0.259296
Si Si7 0.364564 0.836150 0.785026
O O1 0.909007 0.837384 0.601537
O O2 0.919726 0.773569 0.773315
O O3 0.008410 0.730326 0.665133
O O4 0.977341 0.000000 0.708199
O O5 0.598132 0.229330 0.557170
O O6 0.616390 0.237349 0.734806
O O7 0.574484 0.000000 0.654901
O O8 0.697671 0.277181 0.465909
O O9 0.787763 0.203879 0.353991
O O10 0.679553 0.165196 0.301912
O O11 0.722290 0.000000 0.433207
O O12 0.245251 0.500000 0.081627
O O13 0.286552 0.271092 0.170293
O O14 0.172739 0.287387 0.127208
O O15 0.250000 0.250000 0.000000
O O16 0.637359 0.500000 0.529901
O O17 0.335929 0.500000 0.250882
O O18 0.390055 0.000000 0.799337
#
# Coordination Sequence:
#
# PCOD8095797 Si02
#       7
#     8   8   8   8   8   8   8
#     4  10  20  34  52  73  98 132 173 213 251 292
#     4  12  24  34  48  70  98 136 175 212 253 294
#     4   8  15  30  51  71  95 129 167 207 249 293
#     4   9  18  33  57  85 109 132 158 196 246 299
#     4  10  20  33  50  72  98 130 171 216 255 292
#     4   9  19  36  53  72 102 136 167 202 249 301
#     4   8  15  30  51  76 103 130 162 200 244 292
#
# _framework density 18.607299000000001
#
# number of rings (size 3 to 8) (size 9 to 14) (size 15 to 20)
#    0.000    2.571    0.000    4.286    0.000    5.714 
#    0.000    2.857    0.000    0.857    0.000    6.000 
#    0.000    0.000    0.000    0.000    0.000    0.000 
#
# Total GULP energy -347164.822461 kJ/mol
# GULP energy per Si atom -12398.743659 kJ/mol
# Density = 1.856495 g / cm^3
# Si number density = 18.607299 Si / 1000 Ang^3
#
#
#
# Elastic Constant Matrix: (Units=GPa)
#
#
# Indices 1 2 3 4 5 6 
#
# 1 79.0658 40.9679 0.2387 0.0000 -16.3755 0.0000
# 2 40.9679 110.1911 23.7448 0.0000 -12.0965 0.0000
# 3 0.2387 23.7448 50.1491 0.0000 -18.5968 0.0000
# 4 0.0000 0.0000 0.0000 29.6249 0.0000 -5.4548
# 5 -16.3755 -12.0965 -18.5968 0.0000 21.5056 0.0000
# 6 0.0000 0.0000 0.0000 -5.4548 0.0000 32.1586
#
#
#
# Elastic Compliance Matrix: (Units=1/GPa)
#
#
# Indices 1 2 3 4 5 6 
#
# 1 0.021355 -0.008086 0.011880 0.000000 0.021986 0.000000
# 2 -0.008086 0.013244 -0.008469 0.000000 -0.006031 0.000000
# 3 0.011880 -0.008469 0.037510 0.000000 0.036719 0.000000
# 4 0.000000 0.000000 0.000000 0.034844 0.000000 0.005910
# 5 0.021986 -0.006031 0.036719 0.000000 0.091601 0.000000
# 6 0.000000 0.000000 0.000000 0.005910 0.000000 0.032098
#
#
# Mechanical properties :
#
#
# Convention : Reuss Voigt Hill
#
# Bulk Modulus (GPa) = 15.93379 41.03430 28.48404
# Shear Modulus (GPa) = 19.16278 28.28813 23.72546
#
# Velocity S-wave (km/s) = 3.21261 3.90329 3.57467
# Velocity P-wave (km/s) = 4.72683 6.51268 5.69025
#
# Compressibility (1/GPa) = 0.06275972
#
# Stress axis : x y z
#
# Youngs Moduli (GPa) = 46.82729 75.50404 26.65926
#
# Poissons Ratio (x) = 0.61053 -0.31671
# Poissons Ratio (y) = 0.37865 0.22577
# Poissons Ratio (z) = -0.55630 0.63943
#
# Static dielectric constant tensor:
#      x y z
#    x 3.560020 0.000000 -0.132330 
#    y 0.000000 3.547380 0.000000 
#    z -0.132330 0.000000 3.259500 
# 
# 
# High freq. dielectric constant tensor:
#      x y z
#    x 1.726360 0.000000 -0.006540 
#    y 0.000000 1.723020 0.000000 
#    z -0.006540 0.000000 1.693010 
# 
# From -- ./inp_files/230908.got.cif
#   From: 2010.06.25/outbox.cif.g09.slc.cpg/sg12_116_cif.got.tgz:230908.got - 2010.06.28 00:19:55.
