data_PCOD8095604
_publ_section_title
;
Structure prediction by ZEFSAII (Michael W. Deem and Ramdas Pophale) SiO2 
 PCOD8095604
Probable space group: C 2/M
;
_chemical_formula_sum "Si O2"
_cell_formula_units_Z 64
_cell_length_a 24.190975
_cell_length_b 8.848335
_cell_length_c 16.101756
_cell_angle_alpha 90.000000
_cell_angle_beta 98.437587
_cell_angle_gamma 90.000000
_cell_volume 3409.273693
_symmetry_space_group_name_H-M "C 2/M"
_symmetry_group_IT_number 12
_symmetry_cell_setting 'monoclinic'
loop_
_space_group_symop_operation_xyz
x,y,z
-x,y,-z
-x,-y,-z
x,-y,z
1/2+x,1/2+y,z
1/2-x,1/2+y,-z
1/2-x,1/2-y,-z
1/2+x,1/2-y,z
loop_
_atom_site_type_symbol
_atom_site_label
_atom_site_fract_x
_atom_site_fract_y
_atom_site_fract_z
Si Si1 0.290386 0.167137 0.069644
Si Si2 0.724379 0.322631 0.767343
Si Si3 0.350582 0.178477 0.804870
Si Si4 0.481389 0.323110 0.404293
Si Si5 0.600884 0.833546 0.012079
Si Si6 0.445182 0.324764 0.147242
Si Si7 0.944458 0.172933 0.731875
Si Si8 0.884332 0.678702 0.287765
O O1 0.297015 0.281634 0.146390
O O2 0.348438 0.145189 0.038471
O O3 0.268113 0.000000 0.091650
O O4 0.250000 0.250000 0.000000
O O5 0.722115 0.500000 0.749967
O O6 0.787983 0.259782 0.771604
O O7 0.677500 0.241149 0.699730
O O8 0.390307 0.225079 0.737716
O O9 0.346445 0.000000 0.813619
O O10 0.377054 0.243205 0.897102
O O11 0.500000 0.276371 0.500000
O O12 0.466947 0.500000 0.393183
O O13 0.531552 0.280945 0.352750
O O14 0.426206 0.229908 0.369502
O O15 0.557892 0.730478 0.949675
O O16 0.574552 0.000000 0.024322
O O17 0.428923 0.500000 0.149352
O O18 0.509138 0.297015 0.187653
O O19 0.404853 0.237862 0.202458
O O20 0.924917 0.000000 0.728099
O O21 0.881303 0.500000 0.281770
#
# Coordination Sequence:
#
# PCOD8095604 Si02
#       8
#     8   8   8   8   8   8   8   8
#     4  11  20  31  47  70 101 138 185 236 279 315
#     4  11  21  35  52  73 105 144 187 227 268 319
#     4  10  22  37  51  71 104 148 188 223 267 319
#     4   9  19  39  66  91 113 138 167 205 261 324
#     4  10  20  33  47  70 102 139 189 235 275 315
#     4  10  20  34  52  74 103 142 185 229 277 319
#     4   9  20  37  55  79 107 136 175 218 261 319
#     4  11  21  33  53  85 116 139 172 220 272 318
#
# _framework density 18.772327000000001
#
# number of rings (size 3 to 8) (size 9 to 14) (size 15 to 20)
#    0.000    1.875    2.500    3.000    0.000    5.250 
#    0.000    2.500    0.000    0.750    0.000    0.000 
#    0.000    0.000    0.000    0.000    0.000    0.000 
#
# Total GULP energy -396607.999295 kJ/mol
# GULP energy per Si atom -12393.999978 kJ/mol
# Density = 1.872960 g / cm^3
# Si number density = 18.772327 Si / 1000 Ang^3
#
#
#
# Elastic Constant Matrix: (Units=GPa)
#
#
# Indices 1 2 3 4 5 6 
#
# 1 106.3719 40.0466 54.2112 0.0000 4.6490 0.0000
# 2 40.0466 77.0614 31.5544 0.0000 7.9813 0.0000
# 3 54.2112 31.5544 95.3155 0.0000 10.9879 0.0000
# 4 0.0000 0.0000 0.0000 23.2484 0.0000 0.9271
# 5 4.6490 7.9813 10.9879 0.0000 18.2579 0.0000
# 6 0.0000 0.0000 0.0000 0.9271 0.0000 27.8679
#
#
#
# Elastic Compliance Matrix: (Units=1/GPa)
#
#
# Indices 1 2 3 4 5 6 
#
# 1 0.014781 -0.005079 -0.007036 0.000000 0.002691 0.000000
# 2 -0.005079 0.017011 -0.002186 0.000000 -0.004827 0.000000
# 3 -0.007036 -0.002186 0.016011 0.000000 -0.006888 0.000000
# 4 0.000000 0.000000 0.000000 0.043071 0.000000 -0.001433
# 5 0.002691 -0.004827 -0.006888 0.000000 0.060341 0.000000
# 6 0.000000 0.000000 0.000000 -0.001433 0.000000 0.035931
#
#
# Mechanical properties :
#
#
# Convention : Reuss Voigt Hill
#
# Bulk Modulus (GPa) = 52.08003 58.93035 55.50519
# Shear Modulus (GPa) = 22.50734 24.07061 23.28897
#
# Velocity S-wave (km/s) = 3.46636 3.58472 3.52604
# Velocity P-wave (km/s) = 6.61998 6.97093 6.79772
#
# Compressibility (1/GPa) = 0.01920122
#
# Stress axis : x y z
#
# Youngs Moduli (GPa) = 67.65359 58.78419 62.45741
#
# Poissons Ratio (x) = 0.29857 0.43943
# Poissons Ratio (y) = 0.34362 0.13656
# Poissons Ratio (z) = 0.47598 0.12852
#
# Static dielectric constant tensor:
#      x y z
#    x 3.440060 0.000000 0.180530 
#    y 0.000000 3.504020 0.000000 
#    z 0.180530 0.000000 3.263710 
# 
# 
# High freq. dielectric constant tensor:
#      x y z
#    x 1.728620 0.000000 0.017880 
#    y 0.000000 1.727980 0.000000 
#    z 0.017880 0.000000 1.695960 
# 
# From -- ./inp_files/287732.got.cif
#   From: 2010.06.25/outbox.cif.g09.slc.cpg/sg12_144_cif.got.tgz:287732.got - 2010.06.28 00:19:55.
