data_PCOD8095578
_publ_section_title
;
Structure prediction by ZEFSAII (Michael W. Deem and Ramdas Pophale) SiO2 
 PCOD8095578
Probable space group: C 2/M
;
_chemical_formula_sum "Si O2"
_cell_formula_units_Z 44
_cell_length_a 5.259607
_cell_length_b 24.653929
_cell_length_c 19.150602
_cell_angle_alpha 90.000000
_cell_angle_beta 72.038708
_cell_angle_gamma 90.000000
_cell_volume 2362.236709
_symmetry_space_group_name_H-M "C 2/M"
_symmetry_group_IT_number 12
_symmetry_cell_setting 'monoclinic'
loop_
_space_group_symop_operation_xyz
x,y,z
-x,y,-z
-x,-y,-z
x,-y,z
1/2+x,1/2+y,z
1/2-x,1/2+y,-z
1/2-x,1/2-y,-z
1/2+x,1/2-y,z
loop_
_atom_site_type_symbol
_atom_site_label
_atom_site_fract_x
_atom_site_fract_y
_atom_site_fract_z
Si Si1 0.553610 0.563928 0.707371
Si Si2 0.295757 0.935259 0.958582
Si Si3 0.799826 0.500000 0.451581
Si Si4 0.468059 0.936916 0.794490
Si Si5 0.344568 0.226763 0.416717
Si Si6 0.990778 0.391963 0.583260
O O1 0.561434 0.500000 0.685587
O O2 0.253577 0.586481 0.743956
O O3 0.686203 0.601315 0.635491
O O4 0.727946 0.575002 0.761899
O O5 0.389824 0.911455 0.875910
O O6 0.291171 0.000000 0.957425
O O7 0.500000 0.913925 0.000000
O O8 0.000000 0.912855 0.000000
O O9 0.500000 0.500000 0.500000
O O10 0.000000 0.500000 0.500000
O O11 0.851541 0.445670 0.401062
O O12 0.516163 0.000000 0.801659
O O13 0.250000 0.250000 0.500000
O O14 0.637625 0.251359 0.376615
O O15 0.357643 0.162191 0.406573
O O16 0.000000 0.391855 0.500000
#
# Coordination Sequence:
#
# PCOD8095578 Si02
#       6
#     8   8   4   8   8   8
#     4  10  20  33  45  66  94 132 162 201 260 300
#     4   9  15  24  42  65  85 118 164 203 229 265
#     4  10  24  34  50  74  96 122 154 218 268 290
#     4   9  18  31  44  62  97 127 160 201 243 297
#     4  10  21  37  55  73  92 120 158 219 265 311
#     4  11  22  38  55  73  99 127 177 222 260 303
#
# _framework density 18.626415999999999
#
# number of rings (size 3 to 8) (size 9 to 14) (size 15 to 20)
#    0.000    2.182    2.727    1.091    2.545    8.727 
#    0.000    0.000    0.000    0.000    0.000    0.000 
#    0.000    0.000    0.000    0.000    0.000   63.636 
#
# Total GULP energy -272636.477963 kJ/mol
# GULP energy per Si atom -12392.567180 kJ/mol
# Density = 1.858402 g / cm^3
# Si number density = 18.626416 Si / 1000 Ang^3
#
#
#
# Elastic Constant Matrix: (Units=GPa)
#
#
# Indices 1 2 3 4 5 6 
#
# 1 122.2223 28.9640 16.8494 0.0000 -22.7210 0.0000
# 2 28.9640 104.2275 5.5270 0.0000 -9.5960 0.0000
# 3 16.8494 5.5270 86.3119 0.0000 -19.8658 0.0000
# 4 0.0000 0.0000 0.0000 0.6281 0.0000 -2.7151
# 5 -22.7210 -9.5960 -19.8658 0.0000 28.4668 0.0000
# 6 0.0000 0.0000 0.0000 -2.7151 0.0000 14.1201
#
#
#
# Elastic Compliance Matrix: (Units=1/GPa)
#
#
# Indices 1 2 3 4 5 6 
#
# 1 0.010043 -0.002121 -0.000172 0.000000 0.007181 0.000000
# 2 -0.002121 0.010351 0.000196 0.000000 0.001934 0.000000
# 3 -0.000172 0.000196 0.013808 0.000000 0.009565 0.000000
# 4 0.000000 0.000000 0.000000 9.433480 0.000000 1.813891
# 5 0.007181 0.001934 0.009565 0.000000 0.048187 0.000000
# 6 0.000000 0.000000 0.000000 1.813891 0.000000 0.419600
#
#
# Mechanical properties :
#
#
# Convention : Reuss Voigt Hill
#
# Bulk Modulus (GPa) = 33.32212 46.16027 39.74119
# Shear Modulus (GPa) = 0.50253 26.07109 13.28681
#
# Velocity S-wave (km/s) = 0.51998 3.74529 2.67372
# Velocity P-wave (km/s) = 4.27657 6.59840 5.56003
#
# Compressibility (1/GPa) = 0.03001010
#
# Stress axis : x y z
#
# Youngs Moduli (GPa) = 99.57173 96.60593 72.41939
#
# Poissons Ratio (x) = 0.20486 0.01245
# Poissons Ratio (y) = 0.21115 -0.01421
# Poissons Ratio (z) = 0.01712 -0.01895
#
# Static dielectric constant tensor:
#      x y z
#    x 4.094000 0.000000 -0.192430 
#    y 0.000000 166.275840 0.000000 
#    z -0.192430 0.000000 3.422470 
# 
# 
# High freq. dielectric constant tensor:
#      x y z
#    x 1.747760 0.000000 -0.009950 
#    y 0.000000 1.657280 0.000000 
#    z -0.009950 0.000000 1.699390 
# 
# From -- ./inp_files/191902.got.cif
#   From: 2010.06.25/outbox.cif.g09.slc.cpg/sg12_96_cif.got.tgz:191902.got - 2010.06.28 00:19:55.
