data_PCOD8095908
_publ_section_title
;
Structure prediction by ZEFSAII (Michael W. Deem and Ramdas Pophale) SiO2 
 PCOD8095908
Probable space group: C 2/M
;
_chemical_formula_sum "Si O2"
_cell_formula_units_Z 64
_cell_length_a 32.907134
_cell_length_b 9.188310
_cell_length_c 24.980870
_cell_angle_alpha 90.000000
_cell_angle_beta 153.562996
_cell_angle_gamma 90.000000
_cell_volume 3362.804776
_symmetry_space_group_name_H-M "C 2/M"
_symmetry_group_IT_number 12
_symmetry_cell_setting 'monoclinic'
loop_
_space_group_symop_operation_xyz
x,y,z
-x,y,-z
-x,-y,-z
x,-y,z
1/2+x,1/2+y,z
1/2-x,1/2+y,-z
1/2-x,1/2-y,-z
1/2+x,1/2-y,z
loop_
_atom_site_type_symbol
_atom_site_label
_atom_site_fract_x
_atom_site_fract_y
_atom_site_fract_z
Si Si1 0.600119 0.839729 0.116291
Si Si2 0.769608 0.330239 0.867235
Si Si3 0.847253 0.339737 0.701098
Si Si4 0.739657 0.170091 0.730868
Si Si5 0.184051 0.670138 0.548068
Si Si6 0.968845 0.327652 0.135160
Si Si7 0.684841 0.671276 0.881442
Si Si8 0.982253 0.670841 0.273134
O O1 0.637120 0.860953 0.218503
O O2 0.655315 0.719341 0.149006
O O3 0.602131 0.000000 0.089847
O O4 0.500000 0.774649 0.000000
O O5 0.766555 0.500000 0.850994
O O6 0.709287 0.250183 0.749847
O O7 0.720255 0.293823 0.864265
O O8 0.875810 0.275024 0.996085
O O9 0.828573 0.500000 0.653186
O O10 0.756065 0.241185 0.591046
O O11 0.937304 0.265096 0.780591
O O12 0.689585 0.222497 0.617070
O O13 0.728934 0.000000 0.726923
O O14 0.204962 0.500000 0.571154
O O15 0.084880 0.710903 0.410034
O O16 0.974677 0.500000 0.138032
O O17 0.964607 0.278559 0.191701
O O18 0.684799 0.500000 0.893406
O O19 0.583432 0.736474 0.766188
O O20 0.750000 0.750000 0.000000
O O21 0.962245 0.500000 0.257211
#
# Coordination Sequence:
#
# PCOD8095908 Si02
#       8
#     8   8   8   8   8   8   8   8
#     4   9  16  28  47  69  98 141 185 222 267 323
#     4  10  20  36  57  81 109 141 176 218 272 332
#     4   9  17  29  49  75 104 140 184 227 262 310
#     4  10  20  33  50  76 107 141 181 226 270 317
#     4   9  20  37  54  74 109 151 186 220 270 322
#     4   9  17  32  54  80 107 139 180 223 272 324
#     4  11  22  38  61  87 113 139 173 219 273 330
#     4  10  20  38  60  79 106 147 184 223 272 324
#
# _framework density 19.031732999999999
#
# number of rings (size 3 to 8) (size 9 to 14) (size 15 to 20)
#    0.000    2.375    1.250    1.500    0.000    4.750 
#    0.000    4.375    0.000    3.750    0.000    0.000 
#    0.000    0.000    0.000    0.000    0.000    0.000 
#
# Total GULP energy -396537.530133 kJ/mol
# GULP energy per Si atom -12391.797817 kJ/mol
# Density = 1.898842 g / cm^3
# Si number density = 19.031733 Si / 1000 Ang^3
#
#
#
# Elastic Constant Matrix: (Units=GPa)
#
#
# Indices 1 2 3 4 5 6 
#
# 1 93.6028 28.9534 19.4764 0.0000 10.3432 0.0000
# 2 28.9534 42.2979 17.6317 0.0000 6.3596 0.0000
# 3 19.4764 17.6317 67.0838 0.0000 9.8237 0.0000
# 4 0.0000 0.0000 0.0000 26.7897 0.0000 4.0236
# 5 10.3432 6.3596 9.8237 0.0000 33.0344 0.0000
# 6 0.0000 0.0000 0.0000 4.0236 0.0000 30.4193
#
#
#
# Elastic Compliance Matrix: (Units=1/GPa)
#
#
# Indices 1 2 3 4 5 6 
#
# 1 0.013883 -0.008558 -0.001449 0.000000 -0.002268 0.000000
# 2 -0.008558 0.032148 -0.005699 0.000000 -0.001815 0.000000
# 3 -0.001449 -0.005699 0.017354 0.000000 -0.003610 0.000000
# 4 0.000000 0.000000 0.000000 0.038084 0.000000 -0.005037
# 5 -0.002268 -0.001815 -0.003610 0.000000 0.032405 0.000000
# 6 0.000000 0.000000 0.000000 -0.005037 0.000000 0.033540
#
#
# Mechanical properties :
#
#
# Convention : Reuss Voigt Hill
#
# Bulk Modulus (GPa) = 31.27666 37.23415 34.25540
# Shear Modulus (GPa) = 23.86818 27.17689 25.52253
#
# Velocity S-wave (km/s) = 3.54521 3.78296 3.66601
# Velocity P-wave (km/s) = 5.76434 6.21995 5.99647
#
# Compressibility (1/GPa) = 0.03197273
#
# Stress axis : x y z
#
# Youngs Moduli (GPa) = 72.03198 31.10586 57.62353
#
# Poissons Ratio (x) = 0.26620 0.08351
# Poissons Ratio (y) = 0.61643 0.32841
# Poissons Ratio (z) = 0.10439 0.17728
#
# Static dielectric constant tensor:
#      x y z
#    x 3.660860 0.000000 -0.049620 
#    y 0.000000 3.451200 0.000000 
#    z -0.049620 0.000000 3.356030 
# 
# 
# High freq. dielectric constant tensor:
#      x y z
#    x 1.746590 0.000000 -0.003900 
#    y 0.000000 1.715960 0.000000 
#    z -0.003900 0.000000 1.730740 
# 
# From -- ./inp_files/353496.got.cif
#   From: 2010.06.25/outbox.cif.g09.slc.cpg/sg12_177_cif.got.tgz:353496.got - 2010.06.28 00:19:55.
