data_PCOD8095492
_publ_section_title
;
Structure prediction by ZEFSAII (Michael W. Deem and Ramdas Pophale) SiO2 
 PCOD8095492
Probable space group: C 2/M
;
_chemical_formula_sum "Si O2"
_cell_formula_units_Z 48
_cell_length_a 16.958569
_cell_length_b 23.285236
_cell_length_c 6.385761
_cell_angle_alpha 90.000000
_cell_angle_beta 106.519212
_cell_angle_gamma 90.000000
_cell_volume 2417.554697
_symmetry_space_group_name_H-M "C 2/M"
_symmetry_group_IT_number 12
_symmetry_cell_setting 'monoclinic'
loop_
_space_group_symop_operation_xyz
x,y,z
-x,y,-z
-x,-y,-z
x,-y,z
1/2+x,1/2+y,z
1/2-x,1/2+y,-z
1/2-x,1/2-y,-z
1/2+x,1/2-y,z
loop_
_atom_site_type_symbol
_atom_site_label
_atom_site_fract_x
_atom_site_fract_y
_atom_site_fract_z
Si Si1 0.865089 0.859606 0.596734
Si Si2 0.000000 0.681013 0.000000
Si Si3 0.500000 0.600799 0.000000
Si Si4 0.080800 0.258908 0.438868
Si Si5 0.745565 0.066549 0.769411
Si Si6 0.370932 0.562887 0.213310
Si Si7 0.582298 0.870202 0.681571
O O1 0.851884 0.792262 0.530247
O O2 0.784320 0.890972 0.625033
O O3 0.890668 0.891064 0.403757
O O4 0.939903 0.859475 0.817746
O O5 0.056884 0.720212 0.189363
O O6 0.939645 0.641121 0.092766
O O7 0.553832 0.560185 0.892610
O O8 0.117751 0.311906 0.600892
O O9 0.000000 0.235627 0.500000
O O10 0.649267 0.079763 0.717403
O O11 0.757788 0.000000 0.711279
O O12 0.787585 0.078530 0.025325
O O13 0.362853 0.500000 0.310847
O O14 0.500000 0.890576 0.500000
#
# Coordination Sequence:
#
# PCOD8095492 Si02
#       7
#     8   4   4   8   8   8   8
#     4  11  21  35  56  82 114 151 183 220 273 327
#     4   8  17  36  59  81 111 141 173 230 288 332
#     4  10  20  32  52  79 108 149 196 230 262 314
#     4   9  18  33  56  86 114 142 181 224 269 329
#     4  10  23  40  55  80 115 146 185 234 277 324
#     4  10  21  35  51  74 110 152 190 229 271 317
#     4   9  20  38  61  85 107 139 184 232 283 336
#
# _framework density 19.854773000000002
#
# number of rings (size 3 to 8) (size 9 to 14) (size 15 to 20)
#    0.000    2.667    0.000    2.750    0.000   10.333 
#    0.000    2.083    0.000    0.000    0.000    0.000 
#    0.000    0.000    0.000    0.000    0.000    0.000 
#
# Total GULP energy -297528.565231 kJ/mol
# GULP energy per Si atom -12397.023551 kJ/mol
# Density = 1.980958 g / cm^3
# Si number density = 19.854773 Si / 1000 Ang^3
#
#
#
# Elastic Constant Matrix: (Units=GPa)
#
#
# Indices 1 2 3 4 5 6 
#
# 1 99.4425 39.9796 38.4090 0.0000 1.0608 0.0000
# 2 39.9796 68.0241 23.4529 0.0000 -3.0904 0.0000
# 3 38.4090 23.4529 102.4282 0.0000 -16.5958 0.0000
# 4 0.0000 0.0000 0.0000 15.6930 0.0000 -1.0141
# 5 1.0608 -3.0904 -16.5958 0.0000 20.3093 0.0000
# 6 0.0000 0.0000 0.0000 -1.0141 0.0000 33.1786
#
#
#
# Elastic Compliance Matrix: (Units=1/GPa)
#
#
# Indices 1 2 3 4 5 6 
#
# 1 0.014972 -0.007385 -0.004878 0.000000 -0.005892 0.000000
# 2 -0.007385 0.019611 -0.001354 0.000000 0.002263 0.000000
# 3 -0.004878 -0.001354 0.013728 0.000000 0.011266 0.000000
# 4 0.000000 0.000000 0.000000 0.063849 0.000000 0.001952
# 5 -0.005892 0.002263 0.011266 0.000000 0.059097 0.000000
# 6 0.000000 0.000000 0.000000 0.001952 0.000000 0.030200
#
#
# Mechanical properties :
#
#
# Convention : Reuss Voigt Hill
#
# Bulk Modulus (GPa) = 47.44814 52.61976 50.03395
# Shear Modulus (GPa) = 21.21194 25.03975 23.12585
#
# Velocity S-wave (km/s) = 3.27212 3.55511 3.41655
# Velocity P-wave (km/s) = 6.18265 6.58875 6.38893
#
# Compressibility (1/GPa) = 0.02107564
#
# Stress axis : x y z
#
# Youngs Moduli (GPa) = 66.79027 50.99175 72.84620
#
# Poissons Ratio (x) = 0.37660 0.35534
# Poissons Ratio (y) = 0.49328 0.09865
# Poissons Ratio (z) = 0.32580 0.06905
#
# Static dielectric constant tensor:
#      x y z
#    x 3.339610 0.000000 -0.086690 
#    y 0.000000 3.395550 0.000000 
#    z -0.086690 0.000000 3.671840 
# 
# 
# High freq. dielectric constant tensor:
#      x y z
#    x 1.751320 0.000000 -0.008830 
#    y 0.000000 1.764710 0.000000 
#    z -0.008830 0.000000 1.780600 
# 
# From -- ./inp_files/16700.got.cif
#   From: 2010.06.25/outbox.cif.g09.slc.cpg/sg12_9_cif.got.tgz:16700.got - 2010.06.28 00:19:55.
