data_PCOD8095136
_publ_section_title
;
Structure prediction by ZEFSAII (Michael W. Deem and Ramdas Pophale) SiO2 
 PCOD8095136
Probable space group: C 2/M
;
_chemical_formula_sum "Si O2"
_cell_formula_units_Z 64
_cell_length_a 20.350518
_cell_length_b 9.341470
_cell_length_c 23.598705
_cell_angle_alpha 90.000000
_cell_angle_beta 127.795937
_cell_angle_gamma 90.000000
_cell_volume 3544.990284
_symmetry_space_group_name_H-M "C 2/M"
_symmetry_group_IT_number 12
_symmetry_cell_setting 'monoclinic'
loop_
_space_group_symop_operation_xyz
x,y,z
-x,y,-z
-x,-y,-z
x,-y,z
1/2+x,1/2+y,z
1/2-x,1/2+y,-z
1/2-x,1/2-y,-z
1/2+x,1/2-y,z
loop_
_atom_site_type_symbol
_atom_site_label
_atom_site_fract_x
_atom_site_fract_y
_atom_site_fract_z
Si Si1 0.474178 0.830350 0.749906
Si Si2 0.640157 0.670854 0.228602
Si Si3 0.988230 0.328632 0.356450
Si Si4 0.689160 0.663703 0.037183
Si Si5 0.171515 0.670690 0.662427
Si Si6 0.915842 0.655616 0.489855
Si Si7 0.368298 0.832776 0.093994
Si Si8 0.075125 0.834396 0.075980
O O1 0.395715 0.747919 0.734785
O O2 0.488929 0.774146 0.693989
O O3 0.555084 0.783771 0.827661
O O4 0.458567 0.000000 0.743882
O O5 0.633079 0.500000 0.231344
O O6 0.736053 0.719036 0.271796
O O7 0.589982 0.729274 0.146665
O O8 0.989243 0.500000 0.358918
O O9 0.895719 0.274975 0.326273
O O10 0.058931 0.266255 0.437506
O O11 0.679183 0.500000 0.013056
O O12 0.784506 0.713484 0.082873
O O13 0.660832 0.686547 0.086788
O O14 0.628311 0.753161 0.964272
O O15 0.165406 0.500000 0.655145
O O16 0.148808 0.734666 0.587246
O O17 0.878385 0.500000 0.485802
O O18 0.000000 0.633811 0.500000
O O19 0.370559 0.000000 0.082884
O O20 0.052770 0.000000 0.072174
O O21 0.000000 0.761410 0.000000
#
# Coordination Sequence:
#
# PCOD8095136 Si02
#       8
#     8   8   8   8   8   8   8   8
#     4  10  20  32  46  66  96 128 155 184 227 281
#     4  10  20  32  48  69  94 122 154 195 237 272
#     4   8  14  25  45  69  93 122 154 187 228 276
#     4   9  17  30  48  67  87 113 151 194 231 271
#     4   8  14  25  45  71  93 115 152 199 234 263
#     4   7  10  20  39  66  95 117 143 187 235 270
#     4   9  18  30  45  66  91 118 148 187 231 272
#     4   9  17  28  44  65  87 114 150 187 226 268
#
# _framework density 18.053644999999999
#
# number of rings (size 3 to 8) (size 9 to 14) (size 15 to 20)
#    0.000    3.250    0.000    2.250    1.750    1.500 
#    0.000    1.250    0.000    3.000    0.000    0.000 
#    0.000    3.000    0.000    0.000    0.000    0.000 
#
# Total GULP energy -396432.189076 kJ/mol
# GULP energy per Si atom -12388.505909 kJ/mol
# Density = 1.801255 g / cm^3
# Si number density = 18.053645 Si / 1000 Ang^3
#
#
#
# Elastic Constant Matrix: (Units=GPa)
#
#
# Indices 1 2 3 4 5 6 
#
# 1 98.7301 15.7585 62.6002 0.0000 -11.3745 0.0000
# 2 15.7585 12.8067 16.6104 0.0000 -2.8441 0.0000
# 3 62.6002 16.6104 127.1592 0.0000 -8.8620 0.0000
# 4 0.0000 0.0000 0.0000 7.2528 0.0000 -2.8453
# 5 -11.3745 -2.8441 -8.8620 0.0000 27.7422 0.0000
# 6 0.0000 0.0000 0.0000 -2.8453 0.0000 19.8655
#
#
#
# Elastic Compliance Matrix: (Units=1/GPa)
#
#
# Indices 1 2 3 4 5 6 
#
# 1 0.016326 -0.011076 -0.006344 0.000000 0.003532 0.000000
# 2 -0.011076 0.102462 -0.007687 0.000000 0.003507 0.000000
# 3 -0.006344 -0.007687 0.012023 0.000000 0.000451 0.000000
# 4 0.000000 0.000000 0.000000 0.146087 0.000000 0.020923
# 5 0.003532 0.003507 0.000451 0.000000 0.037998 0.000000
# 6 0.000000 0.000000 0.000000 0.020923 0.000000 0.053335
#
#
# Mechanical properties :
#
#
# Convention : Reuss Voigt Hill
#
# Bulk Modulus (GPa) = 12.40756 47.62604 30.01680
# Shear Modulus (GPa) = 11.22811 20.55390 15.89100
#
# Velocity S-wave (km/s) = 2.49656 3.37781 2.97005
# Velocity P-wave (km/s) = 3.89845 6.45371 5.33143
#
# Compressibility (1/GPa) = 0.08059603
#
# Stress axis : x y z
#
# Youngs Moduli (GPa) = 61.25207 9.75973 83.17353
#
# Poissons Ratio (x) = 0.10810 0.52768
# Poissons Ratio (y) = 0.67842 0.63937
# Poissons Ratio (z) = 0.38860 0.07502
#
# Static dielectric constant tensor:
#      x y z
#    x 3.336180 0.000000 -0.022900 
#    y 0.000000 2.740110 0.000000 
#    z -0.022900 0.000000 3.795130 
# 
# 
# High freq. dielectric constant tensor:
#      x y z
#    x 1.693250 0.000000 -0.002100 
#    y 0.000000 1.629750 0.000000 
#    z -0.002100 0.000000 1.711360 
# 
# From -- ./inp_files/321011.got.cif
#   From: 2010.06.25/outbox.cif.g09.slc.cpg/sg12_161_cif.got.tgz:321011.got - 2010.06.28 00:19:55.
