data_PCOD8095018
_publ_section_title
;
Structure prediction by ZEFSAII (Michael W. Deem and Ramdas Pophale) SiO2 
 PCOD8095018
Probable space group: C 2/M
;
_chemical_formula_sum "Si O2"
_cell_formula_units_Z 56
_cell_length_a 19.238888
_cell_length_b 9.260982
_cell_length_c 20.177925
_cell_angle_alpha 90.000000
_cell_angle_beta 119.066054
_cell_angle_gamma 90.000000
_cell_volume 3142.352197
_symmetry_space_group_name_H-M "C 2/M"
_symmetry_group_IT_number 12
_symmetry_cell_setting 'monoclinic'
loop_
_space_group_symop_operation_xyz
x,y,z
-x,y,-z
-x,-y,-z
x,-y,z
1/2+x,1/2+y,z
1/2-x,1/2+y,-z
1/2-x,1/2-y,-z
1/2+x,1/2-y,z
loop_
_atom_site_type_symbol
_atom_site_label
_atom_site_fract_x
_atom_site_fract_y
_atom_site_fract_z
Si Si1 0.742145 0.828209 0.129745
Si Si2 0.486017 0.664705 0.300782
Si Si3 0.076833 0.328753 0.994763
Si Si4 0.701074 0.331791 0.569414
Si Si5 0.173401 0.829300 0.703077
Si Si6 0.632187 0.832339 0.420275
Si Si7 0.604778 0.334602 0.875998
O O1 0.655648 0.770377 0.068741
O O2 0.764994 0.766684 0.213318
O O3 0.808334 0.777884 0.106992
O O4 0.744255 0.000000 0.133653
O O5 0.512016 0.500000 0.327004
O O6 0.416150 0.712322 0.318440
O O7 0.559085 0.770880 0.345100
O O8 0.457250 0.681172 0.212346
O O9 0.079012 0.500000 0.988698
O O10 0.072217 0.262804 0.919896
O O11 0.000000 0.277126 0.000000
O O12 0.678419 0.500000 0.556075
O O13 0.692729 0.266674 0.639516
O O14 0.639569 0.247796 0.494035
O O15 0.790631 0.303199 0.588312
O O16 0.183168 0.000000 0.706495
O O17 0.618867 0.000000 0.428171
O O18 0.610226 0.500000 0.902366
#
# Coordination Sequence:
#
# PCOD8095018 Si02
#       7
#     8   8   8   8   8   8   8
#     4   8  15  30  50  71  95 123 159 200 239 282
#     4   9  18  33  52  72  93 121 161 204 240 279
#     4  10  20  31  47  74 103 128 156 196 242 283
#     4   9  18  33  52  71  93 127 166 197 230 281
#     4   8  15  30  52  72  89 120 167 205 231 274
#     4  10  20  32  48  72 101 130 157 193 242 288
#     4   9  18  33  52  70  92 127 164 197 236 283
#
# _framework density 17.821045000000002
#
# number of rings (size 3 to 8) (size 9 to 14) (size 15 to 20)
#    0.000    3.000    0.000    2.571    0.000    3.143 
#    0.000    6.429    0.000    2.571    0.000    0.000 
#    0.000    0.000    0.000    0.000    0.000    0.000 
#
# Total GULP energy -347158.971262 kJ/mol
# GULP energy per Si atom -12398.534688 kJ/mol
# Density = 1.778048 g / cm^3
# Si number density = 17.821045 Si / 1000 Ang^3
#
#
#
# Elastic Constant Matrix: (Units=GPa)
#
#
# Indices 1 2 3 4 5 6 
#
# 1 101.9762 37.1474 70.9548 0.0000 0.7474 0.0000
# 2 37.1474 40.9996 39.4415 0.0000 2.1968 0.0000
# 3 70.9548 39.4415 110.5122 0.0000 -5.6016 0.0000
# 4 0.0000 0.0000 0.0000 27.3640 0.0000 1.4133
# 5 0.7474 2.1968 -5.6016 0.0000 32.6929 0.0000
# 6 0.0000 0.0000 0.0000 1.4133 0.0000 17.6744
#
#
#
# Elastic Compliance Matrix: (Units=1/GPa)
#
#
# Indices 1 2 3 4 5 6 
#
# 1 0.019596 -0.008366 -0.009675 0.000000 -0.001543 0.000000
# 2 -0.008366 0.041479 -0.009648 0.000000 -0.004249 0.000000
# 3 -0.009675 -0.009648 0.018912 0.000000 0.004110 0.000000
# 4 0.000000 0.000000 0.000000 0.036696 0.000000 -0.002934
# 5 -0.001543 -0.004249 0.004110 0.000000 0.031613 0.000000
# 6 0.000000 0.000000 0.000000 -0.002934 0.000000 0.056814
#
#
# Mechanical properties :
#
#
# Convention : Reuss Voigt Hill
#
# Bulk Modulus (GPa) = 40.63181 60.95282 50.79232
# Shear Modulus (GPa) = 18.60883 22.60923 20.60903
#
# Velocity S-wave (km/s) = 3.23492 3.56572 3.40434
# Velocity P-wave (km/s) = 6.06650 7.15747 6.63445
#
# Compressibility (1/GPa) = 0.02461126
#
# Stress axis : x y z
#
# Youngs Moduli (GPa) = 51.02970 24.10855 52.87647
#
# Poissons Ratio (x) = 0.20168 0.51156
# Poissons Ratio (y) = 0.42690 0.51015
# Poissons Ratio (z) = 0.49369 0.23260
#
# Static dielectric constant tensor:
#      x y z
#    x 3.338780 0.000000 -0.045160 
#    y 0.000000 2.981640 0.000000 
#    z -0.045160 0.000000 3.575990 
# 
# 
# High freq. dielectric constant tensor:
#      x y z
#    x 1.687760 0.000000 0.000790 
#    y 0.000000 1.656220 0.000000 
#    z 0.000790 0.000000 1.699660 
# 
# From -- ./inp_files/275640.got.cif
#   From: 2010.06.25/outbox.cif.g09.slc.cpg/sg12_138_cif.got.tgz:275640.got - 2010.06.28 00:19:55.
