data_PCOD8095306
_publ_section_title
;
Structure prediction by ZEFSAII (Michael W. Deem and Ramdas Pophale) SiO2 
 PCOD8095306
Probable space group: C 2/M
;
_chemical_formula_sum "Si O2"
_cell_formula_units_Z 56
_cell_length_a 18.653999
_cell_length_b 8.813218
_cell_length_c 29.359964
_cell_angle_alpha 90.000000
_cell_angle_beta 142.937354
_cell_angle_gamma 90.000000
_cell_volume 2909.071762
_symmetry_space_group_name_H-M "C 2/M"
_symmetry_group_IT_number 12
_symmetry_cell_setting 'monoclinic'
loop_
_space_group_symop_operation_xyz
x,y,z
-x,y,-z
-x,-y,-z
x,-y,z
1/2+x,1/2+y,z
1/2-x,1/2+y,-z
1/2-x,1/2-y,-z
1/2+x,1/2-y,z
loop_
_atom_site_type_symbol
_atom_site_label
_atom_site_fract_x
_atom_site_fract_y
_atom_site_fract_z
Si Si1 0.499561 0.825337 0.867158
Si Si2 0.660270 0.819592 0.868009
Si Si3 0.215890 0.326751 0.307348
Si Si4 0.536646 0.823217 0.569391
Si Si5 0.041774 0.321881 0.300668
Si Si6 0.426024 0.679619 0.004616
Si Si7 0.120379 0.821087 0.432480
O O1 0.599049 0.760236 0.883161
O O2 0.370743 0.805265 0.779438
O O3 0.524270 0.000000 0.891738
O O4 0.505548 0.727070 0.915454
O O5 0.583104 0.768698 0.785105
O O6 0.792910 0.751748 0.933484
O O7 0.658236 0.000000 0.868394
O O8 0.260946 0.500000 0.332790
O O9 0.325277 0.215623 0.354220
O O10 0.149020 0.284027 0.320331
O O11 0.500000 0.777009 0.500000
O O12 0.455808 0.729572 0.562917
O O13 0.516606 0.000000 0.568828
O O14 0.040778 0.500000 0.311642
O O15 0.054677 0.227658 0.353111
O O16 0.418661 0.500000 0.998920
O O17 0.500000 0.745730 0.000000
O O18 0.250000 0.750000 0.500000
O O19 0.134039 0.000000 0.440570
#
# Coordination Sequence:
#
# PCOD8095306 Si02
#       7
#     8   8   8   8   8   8   8
#     4   9  18  34  55  77 103 139 182 223 266 321
#     4   8  16  33  55  77 105 142 181 221 268 324
#     4   9  19  36  58  83 110 142 181 227 279 332
#     4  11  24  40  59  84 112 143 182 227 274 327
#     4   9  18  36  60  82 109 147 186 226 276 329
#     4  10  20  32  48  75 109 143 181 225 272 320
#     4  12  25  40  59  84 115 148 184 225 269 321
#
# _framework density 19.250126999999999
#
# number of rings (size 3 to 8) (size 9 to 14) (size 15 to 20)
#    0.000    2.286    0.000    4.714    0.000    6.000 
#    0.000    4.286    0.000    0.000    0.000    0.000 
#    0.000    0.000    0.000    0.000    0.000    0.000 
#
# Total GULP energy -347237.758593 kJ/mol
# GULP energy per Si atom -12401.348521 kJ/mol
# Density = 1.920631 g / cm^3
# Si number density = 19.250127 Si / 1000 Ang^3
#
#
#
# Elastic Constant Matrix: (Units=GPa)
#
#
# Indices 1 2 3 4 5 6 
#
# 1 127.8258 45.6973 73.8996 0.0001 -7.0934 -0.0003
# 2 45.6973 65.7520 38.3482 0.0003 -5.1754 -0.0007
# 3 73.8996 38.3482 116.9948 0.0000 -8.7417 -0.0001
# 4 0.0001 0.0003 0.0000 26.4454 0.0000 5.1011
# 5 -7.0934 -5.1754 -8.7417 0.0000 36.3174 0.0001
# 6 -0.0003 -0.0007 -0.0001 5.1011 0.0001 15.6360
#
#
#
# Elastic Compliance Matrix: (Units=1/GPa)
#
#
# Indices 1 2 3 4 5 6 
#
# 1 0.013800 -0.005562 -0.006875 0.000000 0.000248 0.000000
# 2 -0.005562 0.021098 -0.003319 0.000000 0.001121 0.000001
# 3 -0.006875 -0.003319 0.014096 0.000000 0.001577 0.000000
# 4 0.000000 0.000000 0.000000 0.040353 0.000000 -0.013165
# 5 0.000248 0.001121 0.001577 0.000000 0.028123 0.000000
# 6 0.000000 0.000001 0.000000 -0.013165 0.000000 0.068250
#
#
# Mechanical properties :
#
#
# Convention : Reuss Voigt Hill
#
# Bulk Modulus (GPa) = 57.19988 69.60698 63.40343
# Shear Modulus (GPa) = 22.41579 25.85494 24.13536
#
# Velocity S-wave (km/s) = 3.41610 3.66882 3.54471
# Velocity P-wave (km/s) = 6.73337 7.36102 7.05418
#
# Compressibility (1/GPa) = 0.01748255
#
# Stress axis : x y z
#
# Youngs Moduli (GPa) = 72.46442 47.39867 70.94363
#
# Poissons Ratio (x) = 0.26361 0.48775
# Poissons Ratio (y) = 0.40301 0.23543
# Poissons Ratio (z) = 0.49821 0.15730
#
# Static dielectric constant tensor:
#      x y z
#    x 3.641390 0.000000 0.081770 
#    y 0.000000 3.258760 0.000000 
#    z 0.081770 0.000000 3.660970 
# 
# 
# High freq. dielectric constant tensor:
#      x y z
#    x 1.751940 0.000000 -0.000100 
#    y 0.000000 1.728170 0.000000 
#    z -0.000100 0.000000 1.762460 
# 
# From -- ./inp_files/363090.got.cif
#   From: 2010.06.25/outbox.cif.g09.slc.cpg/sg12_182_cif.got.tgz:363090.got - 2010.06.28 00:19:55.
