data_PCOD8095120
_publ_section_title
;
Structure prediction by ZEFSAII (Michael W. Deem and Ramdas Pophale) SiO2 
 PCOD8095120
Probable space group: C 2/M
;
_chemical_formula_sum "Si O2"
_cell_formula_units_Z 56
_cell_length_a 18.142409
_cell_length_b 9.946162
_cell_length_c 20.711453
_cell_angle_alpha 90.000000
_cell_angle_beta 58.733773
_cell_angle_gamma 90.000000
_cell_volume 3194.535626
_symmetry_space_group_name_H-M "C 2/M"
_symmetry_group_IT_number 12
_symmetry_cell_setting 'monoclinic'
loop_
_space_group_symop_operation_xyz
x,y,z
-x,y,-z
-x,-y,-z
x,-y,z
1/2+x,1/2+y,z
1/2-x,1/2+y,-z
1/2-x,1/2-y,-z
1/2+x,1/2-y,z
loop_
_atom_site_type_symbol
_atom_site_label
_atom_site_fract_x
_atom_site_fract_y
_atom_site_fract_z
Si Si1 0.131872 0.349370 0.903931
Si Si2 0.073802 0.158004 0.638381
Si Si3 0.442997 0.849879 0.929752
Si Si4 0.429867 0.154792 0.476661
Si Si5 0.812718 0.150304 0.220240
Si Si6 0.997605 0.147867 0.807411
Si Si7 0.751369 0.659323 0.617539
O O1 0.170509 0.500000 0.882724
O O2 0.196064 0.247439 0.837882
O O3 0.039586 0.347625 0.912070
O O4 0.121343 0.304097 0.983440
O O5 0.040645 0.249161 0.594750
O O6 0.009385 0.187274 0.727138
O O7 0.170148 0.209066 0.612374
O O8 0.073111 0.000000 0.620267
O O9 0.433824 0.751395 0.872517
O O10 0.419221 0.000000 0.917561
O O11 0.500000 0.167279 0.500000
O O12 0.339106 0.210280 0.545309
O O13 0.421734 0.000000 0.456829
O O14 0.910004 0.145140 0.200916
O O15 0.754583 0.210073 0.305318
O O16 0.783123 0.000000 0.213322
O O17 0.955518 0.000000 0.831824
O O18 0.747114 0.500000 0.623536
#
# Coordination Sequence:
#
# PCOD8095120 Si02
#       7
#     8   8   8   8   8   8   8
#     4   8  13  20  29  46  75 106 134 164 198 237
#     4   9  17  30  47  64  84 112 144 178 214 250
#     4   8  13  20  30  46  73 108 136 160 197 241
#     4  10  20  32  46  65  88 112 139 174 215 258
#     4   8  13  22  36  52  72 102 137 169 201 238
#     4   8  14  23  35  53  75 100 134 172 203 235
#     4   8  15  29  46  63  85 112 143 178 213 250
#
# _framework density 17.529934000000001
#
# number of rings (size 3 to 8) (size 9 to 14) (size 15 to 20)
#    0.000    3.571    0.000    3.000    0.000    1.429 
#    0.000    5.714    0.000    0.000    0.000    0.000 
#    0.000    1.143    0.000    2.571    0.000    5.429 
#
# Total GULP energy -346984.462935 kJ/mol
# GULP energy per Si atom -12392.302248 kJ/mol
# Density = 1.749003 g / cm^3
# Si number density = 17.529934 Si / 1000 Ang^3
#
#
#
# Elastic Constant Matrix: (Units=GPa)
#
#
# Indices 1 2 3 4 5 6 
#
# 1 21.1026 18.8440 19.4048 0.0000 8.3479 0.0000
# 2 18.8440 97.1164 84.4281 0.0000 17.3503 0.0001
# 3 19.4048 84.4281 136.1258 0.0000 24.2051 0.0000
# 4 0.0000 0.0000 0.0000 35.0508 0.0000 6.9695
# 5 8.3479 17.3503 24.2051 0.0000 8.0304 0.0000
# 6 0.0000 0.0001 0.0000 6.9695 0.0000 10.3090
#
#
#
# Elastic Compliance Matrix: (Units=1/GPa)
#
#
# Indices 1 2 3 4 5 6 
#
# 1 0.086376 -0.007456 0.011665 0.000000 -0.108843 0.000000
# 2 -0.007456 0.023746 -0.012758 0.000000 -0.005098 0.000000
# 3 0.011665 -0.012758 0.023384 0.000000 -0.055045 0.000000
# 4 0.000000 0.000000 0.000000 0.032961 0.000000 -0.022284
# 5 -0.108843 -0.005098 -0.055045 0.000000 0.414607 0.000001
# 6 0.000000 0.000000 0.000000 -0.022284 0.000001 0.112067
#
#
# Mechanical properties :
#
#
# Convention : Reuss Voigt Hill
#
# Bulk Modulus (GPa) = 8.59049 55.52206 32.05628
# Shear Modulus (GPa) = 6.67520 19.45589 13.06555
#
# Velocity S-wave (km/s) = 1.95350 3.33508 2.73303
# Velocity P-wave (km/s) = 3.16217 6.82436 5.31842
#
# Compressibility (1/GPa) = 0.11640774
#
# Stress axis : x y z
#
# Youngs Moduli (GPa) = 11.57736 42.11262 42.76424
#
# Poissons Ratio (x) = 0.31398 -0.49885
# Poissons Ratio (y) = 0.08632 0.54560
# Poissons Ratio (z) = -0.13505 0.53728
#
# Static dielectric constant tensor:
#      x y z
#    x 2.647220 0.000000 -0.002260 
#    y 0.000000 3.382050 0.000000 
#    z -0.002260 0.000000 3.598270 
# 
# 
# High freq. dielectric constant tensor:
#      x y z
#    x 1.609080 0.000000 0.006860 
#    y 0.000000 1.666080 0.000000 
#    z 0.006860 0.000000 1.689720 
# 
# From -- ./inp_files/319051.got.cif
#   From: 2010.06.25/outbox.cif.g09.slc.cpg/sg12_160_cif.got.tgz:319051.got - 2010.06.28 00:19:55.
