data_PCOD8095837
_publ_section_title
;
Structure prediction by ZEFSAII (Michael W. Deem and Ramdas Pophale) SiO2 
 PCOD8095837
Probable space group: C 2/M
;
_chemical_formula_sum "Si O2"
_cell_formula_units_Z 56
_cell_length_a 21.263712
_cell_length_b 9.144775
_cell_length_c 17.798774
_cell_angle_alpha 90.000000
_cell_angle_beta 54.177814
_cell_angle_gamma 90.000000
_cell_volume 2806.311574
_symmetry_space_group_name_H-M "C 2/M"
_symmetry_group_IT_number 12
_symmetry_cell_setting 'monoclinic'
loop_
_space_group_symop_operation_xyz
x,y,z
-x,y,-z
-x,-y,-z
x,-y,z
1/2+x,1/2+y,z
1/2-x,1/2+y,-z
1/2-x,1/2-y,-z
1/2+x,1/2-y,z
loop_
_atom_site_type_symbol
_atom_site_label
_atom_site_fract_x
_atom_site_fract_y
_atom_site_fract_z
Si Si1 0.184260 0.826199 0.769640
Si Si2 0.679013 0.672543 0.393136
Si Si3 0.461424 0.332832 0.211926
Si Si4 0.443770 0.836915 0.609697
Si Si5 0.932354 0.833483 0.397413
Si Si6 0.257604 0.670677 0.108328
Si Si7 0.133183 0.827927 0.106132
O O1 0.237256 0.747193 0.670095
O O2 0.095545 0.773910 0.814047
O O3 0.208024 0.775053 0.836280
O O4 0.191890 0.000000 0.753764
O O5 0.686113 0.500000 0.378143
O O6 0.630179 0.738558 0.357948
O O7 0.640221 0.716011 0.500325
O O8 0.479830 0.500000 0.181103
O O9 0.412731 0.315954 0.323520
O O10 0.546596 0.258758 0.157020
O O11 0.500000 0.843831 0.500000
O O12 0.490929 0.763324 0.644142
O O13 0.416019 0.000000 0.652067
O O14 0.953945 0.000000 0.403509
O O15 0.239344 0.500000 0.123103
O O16 0.176859 0.751971 0.145874
O O17 0.321978 0.709783 0.001636
O O18 0.131167 0.000000 0.124827
#
# Coordination Sequence:
#
# PCOD8095837 Si02
#       7
#     8   8   8   8   8   8   8
#     4  10  21  36  53  77 110 143 179 222 266 313
#     4  10  20  33  50  73 105 143 182 222 264 314
#     4   9  19  35  55  79 106 141 181 219 264 318
#     4   9  17  30  49  74 101 132 174 222 271 314
#     4   9  18  33  51  74 105 141 181 222 264 312
#     4   9  19  35  56  83 110 135 169 219 270 316
#     4   9  18  35  59  83 106 136 174 214 265 327
#
# _framework density 19.955020000000001
#
# number of rings (size 3 to 8) (size 9 to 14) (size 15 to 20)
#    0.000    2.714    0.000    0.857    2.000    4.000 
#    0.000    4.286    0.000    0.000    0.000    5.000 
#    0.000    0.000    0.000    0.000    0.000    0.000 
#
# Total GULP energy -347080.369679 kJ/mol
# GULP energy per Si atom -12395.727489 kJ/mol
# Density = 1.990960 g / cm^3
# Si number density = 19.955020 Si / 1000 Ang^3
#
#
#
# Elastic Constant Matrix: (Units=GPa)
#
#
# Indices 1 2 3 4 5 6 
#
# 1 180.8476 40.1942 67.3703 0.0000 -9.0406 0.0001
# 2 40.1942 50.7881 22.3166 -0.0002 -2.6232 0.0005
# 3 67.3703 22.3166 71.8978 0.0000 -6.2626 0.0000
# 4 0.0000 -0.0002 0.0000 20.9147 0.0000 -2.8459
# 5 -9.0406 -2.6232 -6.2626 0.0000 26.8726 -0.0001
# 6 0.0001 0.0005 0.0000 -2.8459 -0.0001 26.0001
#
#
#
# Elastic Compliance Matrix: (Units=1/GPa)
#
#
# Indices 1 2 3 4 5 6 
#
# 1 0.009180 -0.004020 -0.007267 0.000000 0.001002 0.000000
# 2 -0.004020 0.024569 -0.003846 0.000000 0.000149 0.000000
# 3 -0.007267 -0.003846 0.022115 0.000000 0.002334 0.000000
# 4 0.000000 0.000000 0.000000 0.048536 0.000000 0.005313
# 5 0.001002 0.000149 0.002334 0.000000 0.038108 0.000000
# 6 0.000000 0.000000 0.000000 0.005313 0.000000 0.039043
#
#
# Mechanical properties :
#
#
# Convention : Reuss Voigt Hill
#
# Bulk Modulus (GPa) = 39.06566 62.58843 50.82705
# Shear Modulus (GPa) = 22.69107 26.33430 24.51269
#
# Velocity S-wave (km/s) = 3.37577 3.63669 3.50865
# Velocity P-wave (km/s) = 5.90032 7.00477 6.47613
#
# Compressibility (1/GPa) = 0.02559793
#
# Stress axis : x y z
#
# Youngs Moduli (GPa) = 108.92849 40.70156 45.21823
#
# Poissons Ratio (x) = 0.16364 0.32860
# Poissons Ratio (y) = 0.43794 0.17390
# Poissons Ratio (z) = 0.79158 0.15653
#
# Static dielectric constant tensor:
#      x y z
#    x 3.793940 0.000000 -0.074970 
#    y 0.000000 3.475260 0.000000 
#    z -0.074970 0.000000 3.608610 
# 
# 
# High freq. dielectric constant tensor:
#      x y z
#    x 1.777950 0.000000 -0.004210 
#    y 0.000000 1.752190 0.000000 
#    z -0.004210 0.000000 1.775980 
# 
# From -- ./inp_files/280994.got.cif
#   From: 2010.06.25/outbox.cif.g09.slc.cpg/sg12_141_cif.got.tgz:280994.got - 2010.06.28 00:19:55.
