data_PCOD8095261
_publ_section_title
;
Structure prediction by ZEFSAII (Michael W. Deem and Ramdas Pophale) SiO2 
 PCOD8095261
Probable space group: C 2/M
;
_chemical_formula_sum "Si O2"
_cell_formula_units_Z 64
_cell_length_a 22.096045
_cell_length_b 8.961361
_cell_length_c 23.784391
_cell_angle_alpha 90.000000
_cell_angle_beta 132.709940
_cell_angle_gamma 90.000000
_cell_volume 3460.571998
_symmetry_space_group_name_H-M "C 2/M"
_symmetry_group_IT_number 12
_symmetry_cell_setting 'monoclinic'
loop_
_space_group_symop_operation_xyz
x,y,z
-x,y,-z
-x,-y,-z
x,-y,z
1/2+x,1/2+y,z
1/2-x,1/2+y,-z
1/2-x,1/2-y,-z
1/2+x,1/2-y,z
loop_
_atom_site_type_symbol
_atom_site_label
_atom_site_fract_x
_atom_site_fract_y
_atom_site_fract_z
Si Si1 0.406136 0.177588 0.456723
Si Si2 0.938022 0.664027 0.010553
Si Si3 0.720994 0.678178 0.540789
Si Si4 0.769194 0.328353 0.858485
Si Si5 0.156376 0.169287 0.300887
Si Si6 0.780252 0.666023 0.283430
Si Si7 0.513563 0.676199 0.850852
Si Si8 0.813927 0.171682 0.080582
O O1 0.500000 0.225849 0.500000
O O2 0.365422 0.255501 0.487069
O O3 0.352829 0.228489 0.369204
O O4 0.399718 0.000000 0.462804
O O5 0.915045 0.500000 0.021350
O O6 0.985554 0.762121 0.085791
O O7 0.854916 0.744043 0.934729
O O8 0.000000 0.641575 0.000000
O O9 0.711019 0.500000 0.527933
O O10 0.750000 0.750000 0.500000
O O11 0.795559 0.716100 0.629532
O O12 0.787198 0.500000 0.856968
O O13 0.730048 0.262531 0.778187
O O14 0.702308 0.301701 0.864396
O O15 0.194950 0.167429 0.263192
O O16 0.064023 0.231850 0.234746
O O17 0.159243 0.000000 0.327930
O O18 0.803593 0.500000 0.278646
O O19 0.507943 0.500000 0.851592
O O20 0.595117 0.735957 0.871667
O O21 0.809987 0.000000 0.061275
O O22 0.750000 0.250000 0.000000
#
# Coordination Sequence:
#
# PCOD8095261 Si02
#       8
#     8   8   8   8   8   8   8   8
#     4   9  19  39  64  88 121 156 188 233 286 342
#     4  10  20  32  48  72 102 135 172 215 265 318
#     4  11  22  38  62  90 120 154 193 235 284 344
#     4  10  20  33  48  70 104 139 174 221 269 318
#     4   9  19  37  57  80 111 142 178 226 278 329
#     4   9  18  33  55  80 105 139 177 217 267 322
#     4  10  20  34  54  76 101 135 178 224 271 320
#     4  10  20  35  52  71  99 140 181 221 272 321
#
# _framework density 18.494053000000001
#
# number of rings (size 3 to 8) (size 9 to 14) (size 15 to 20)
#    0.000    2.250    1.250    2.625    0.000    4.000 
#    2.250    0.000    0.000    0.000    0.000    0.000 
#    0.000    0.000    0.000    0.000    0.000    0.000 
#
# Total GULP energy -396590.282438 kJ/mol
# GULP energy per Si atom -12393.446326 kJ/mol
# Density = 1.845196 g / cm^3
# Si number density = 18.494053 Si / 1000 Ang^3
#
#
#
# Elastic Constant Matrix: (Units=GPa)
#
#
# Indices 1 2 3 4 5 6 
#
# 1 113.9142 38.8293 57.4504 0.0000 13.7676 0.0000
# 2 38.8293 56.9076 36.4038 0.0000 -4.1311 0.0000
# 3 57.4504 36.4038 100.3429 0.0000 9.4904 0.0000
# 4 0.0000 0.0000 0.0000 39.1110 0.0000 -15.2049
# 5 13.7676 -4.1311 9.4904 0.0000 37.1777 0.0000
# 6 0.0000 0.0000 0.0000 -15.2049 0.0000 44.0227
#
#
#
# Elastic Compliance Matrix: (Units=1/GPa)
#
#
# Indices 1 2 3 4 5 6 
#
# 1 0.014313 -0.006703 -0.005319 0.000000 -0.004687 0.000000
# 2 -0.006703 0.026882 -0.006591 0.000000 0.007152 0.000000
# 3 -0.005319 -0.006591 0.015664 0.000000 -0.002761 0.000000
# 4 0.000000 0.000000 0.000000 0.029534 0.000000 0.010201
# 5 -0.004687 0.007152 -0.002761 0.000000 0.030133 0.000000
# 6 0.000000 0.000000 0.000000 0.010201 0.000000 0.026239
#
#
# Mechanical properties :
#
#
# Convention : Reuss Voigt Hill
#
# Bulk Modulus (GPa) = 50.94077 59.61465 55.27771
# Shear Modulus (GPa) = 26.80469 33.29436 30.04953
#
# Velocity S-wave (km/s) = 3.81119 4.24757 4.03528
# Velocity P-wave (km/s) = 6.85354 7.50735 7.18788
#
# Compressibility (1/GPa) = 0.01963064
#
# Stress axis : x y z
#
# Youngs Moduli (GPa) = 69.86812 37.20017 63.84202
#
# Poissons Ratio (x) = 0.24937 0.33960
# Poissons Ratio (y) = 0.46835 0.42078
# Poissons Ratio (z) = 0.37165 0.24519
#
# Static dielectric constant tensor:
#      x y z
#    x 3.689910 0.000000 0.296600 
#    y 0.000000 3.348460 0.000000 
#    z 0.296600 0.000000 3.594980 
# 
# 
# High freq. dielectric constant tensor:
#      x y z
#    x 1.723240 0.000000 0.006990 
#    y 0.000000 1.704140 0.000000 
#    z 0.006990 0.000000 1.714270 
# 
# From -- ./inp_files/346151.got.cif
#   From: 2010.06.25/outbox.cif.g09.slc.cpg/sg12_174_cif.got.tgz:346151.got - 2010.06.28 00:19:55.
