data_PCOD8095163
_publ_section_title
;
Structure prediction by ZEFSAII (Michael W. Deem and Ramdas Pophale) SiO2 
 PCOD8095163
Probable space group: C 2/M
;
_chemical_formula_sum "Si O2"
_cell_formula_units_Z 64
_cell_length_a 30.795598
_cell_length_b 9.066130
_cell_length_c 14.655039
_cell_angle_alpha 90.000000
_cell_angle_beta 117.637968
_cell_angle_gamma 90.000000
_cell_volume 3624.770265
_symmetry_space_group_name_H-M "C 2/M"
_symmetry_group_IT_number 12
_symmetry_cell_setting 'monoclinic'
loop_
_space_group_symop_operation_xyz
x,y,z
-x,y,-z
-x,-y,-z
x,-y,z
1/2+x,1/2+y,z
1/2-x,1/2+y,-z
1/2-x,1/2-y,-z
1/2+x,1/2-y,z
loop_
_atom_site_type_symbol
_atom_site_label
_atom_site_fract_x
_atom_site_fract_y
_atom_site_fract_z
Si Si1 0.414869 0.670860 0.763644
Si Si2 0.302918 0.172362 0.954110
Si Si3 0.605368 0.825388 0.078482
Si Si4 0.029819 0.170998 0.883582
Si Si5 0.886903 0.675041 0.358767
Si Si6 0.467161 0.171087 0.296676
Si Si7 0.295696 0.826234 0.155288
Si Si8 0.919221 0.671390 0.584408
O O1 0.400481 0.500000 0.752987
O O2 0.384973 0.758680 0.811840
O O3 0.472157 0.696939 0.836854
O O4 0.399642 0.734941 0.650502
O O5 0.349960 0.222874 0.942789
O O6 0.255552 0.253275 0.866932
O O7 0.293515 0.000000 0.935081
O O8 0.311219 0.217590 0.067535
O O9 0.599687 0.000000 0.079595
O O10 0.555467 0.756396 0.991044
O O11 0.048801 0.236122 0.806846
O O12 0.043794 0.000000 0.903253
O O13 0.887144 0.500000 0.358412
O O14 0.934103 0.729229 0.347775
O O15 0.837223 0.735557 0.264246
O O16 0.890897 0.730195 0.466989
O O17 0.523355 0.197852 0.377756
O O18 0.456694 0.000000 0.263976
O O19 0.289819 0.000000 0.159323
O O20 0.908672 0.500000 0.593727
#
# Coordination Sequence:
#
# PCOD8095163 Si02
#       8
#     8   8   8   8   8   8   8   8
#     4  10  21  35  48  67  99 132 161 198 240 281
#     4   9  19  34  50  72 100 124 151 192 238 284
#     4  11  21  33  52  73  93 123 163 203 240 282
#     4  10  20  32  46  69 102 133 159 193 237 284
#     4   9  16  28  49  75  99 125 163 205 238 275
#     4   9  16  28  47  71 100 132 164 197 233 277
#     4   9  17  31  51  73  99 128 153 185 235 289
#     4   9  17  30  49  71  96 130 168 201 235 277
#
# _framework density 17.656291
#
# number of rings (size 3 to 8) (size 9 to 14) (size 15 to 20)
#    0.000    2.500    0.000    2.625    0.000    7.500 
#    0.000    4.375    0.000    3.750    0.000    0.000 
#    0.000    0.000    0.000    0.000    0.000    0.000 
#
# Total GULP energy -396849.467707 kJ/mol
# GULP energy per Si atom -12401.545866 kJ/mol
# Density = 1.761610 g / cm^3
# Si number density = 17.656291 Si / 1000 Ang^3
#
#
#
# Elastic Constant Matrix: (Units=GPa)
#
#
# Indices 1 2 3 4 5 6 
#
# 1 66.7507 35.7464 48.1501 0.0000 -12.5264 0.0000
# 2 35.7464 60.8592 41.0202 0.0000 -7.8759 0.0000
# 3 48.1501 41.0202 128.9639 0.0000 -10.2329 0.0000
# 4 0.0000 0.0000 0.0000 21.2022 0.0000 3.0762
# 5 -12.5264 -7.8759 -10.2329 0.0000 24.9315 0.0000
# 6 0.0000 0.0000 0.0000 3.0762 0.0000 19.3653
#
#
#
# Elastic Compliance Matrix: (Units=1/GPa)
#
#
# Indices 1 2 3 4 5 6 
#
# 1 0.026227 -0.010487 -0.005865 0.000000 0.007457 0.000000
# 2 -0.010487 0.025503 -0.004109 0.000000 0.001101 0.000000
# 3 -0.005865 -0.004109 0.011281 0.000000 0.000386 0.000000
# 4 0.000000 0.000000 0.000000 0.048278 0.000000 -0.007669
# 5 0.007457 0.001101 0.000386 0.000000 0.044363 0.000000
# 6 0.000000 0.000000 0.000000 -0.007669 0.000000 0.052857
#
#
# Mechanical properties :
#
#
# Convention : Reuss Voigt Hill
#
# Bulk Modulus (GPa) = 45.26940 56.26747 50.76843
# Shear Modulus (GPa) = 19.47091 21.87695 20.67393
#
# Velocity S-wave (km/s) = 3.32441 3.52383 3.42557
# Velocity P-wave (km/s) = 6.35850 6.96375 6.66800
#
# Compressibility (1/GPa) = 0.02208998
#
# Stress axis : x y z
#
# Youngs Moduli (GPa) = 38.12877 39.21117 88.64111
#
# Poissons Ratio (x) = 0.41119 0.51987
# Poissons Ratio (y) = 0.39984 0.36424
# Poissons Ratio (z) = 0.22362 0.16113
#
# Static dielectric constant tensor:
#      x y z
#    x 3.186410 0.000000 -0.105740 
#    y 0.000000 3.141570 0.000000 
#    z -0.105740 0.000000 3.417490 
# 
# 
# High freq. dielectric constant tensor:
#      x y z
#    x 1.666200 0.000000 -0.012280 
#    y 0.000000 1.670280 0.000000 
#    z -0.012280 0.000000 1.679960 
# 
# From -- ./inp_files/248992.got.cif
#   From: 2010.06.25/outbox.cif.g09.slc.cpg/sg12_125_cif.got.tgz:248992.got - 2010.06.28 00:19:55.
