data_PCOD8095062
_publ_section_title
;
Structure prediction by ZEFSAII (Michael W. Deem and Ramdas Pophale) SiO2 
 PCOD8095062
Probable space group: C 2/M
;
_chemical_formula_sum "Si O2"
_cell_formula_units_Z 56
_cell_length_a 12.119879
_cell_length_b 23.495143
_cell_length_c 10.890339
_cell_angle_alpha 90.000000
_cell_angle_beta 98.036671
_cell_angle_gamma 90.000000
_cell_volume 3070.657622
_symmetry_space_group_name_H-M "C 2/M"
_symmetry_group_IT_number 12
_symmetry_cell_setting 'monoclinic'
loop_
_space_group_symop_operation_xyz
x,y,z
-x,y,-z
-x,-y,-z
x,-y,z
1/2+x,1/2+y,z
1/2-x,1/2+y,-z
1/2-x,1/2-y,-z
1/2+x,1/2-y,z
loop_
_atom_site_type_symbol
_atom_site_label
_atom_site_fract_x
_atom_site_fract_y
_atom_site_fract_z
Si Si1 0.471046 0.715123 0.230909
Si Si2 0.803784 0.844075 0.760616
Si Si3 0.275579 0.685172 0.025963
Si Si4 0.106046 0.672914 0.198027
Si Si5 0.215333 0.763580 0.632113
Si Si6 0.937567 0.563867 0.670792
Si Si7 0.821528 0.563141 0.409098
O O1 0.572634 0.671960 0.263787
O O2 0.387193 0.683940 0.124624
O O3 0.513261 0.776611 0.184617
O O4 0.412976 0.719475 0.357721
O O5 0.723297 0.791909 0.718251
O O6 0.766891 0.898139 0.675981
O O7 0.796441 0.852408 0.906861
O O8 0.164649 0.662410 0.076020
O O9 0.250000 0.750000 0.000000
O O10 0.200564 0.687963 0.311756
O O11 0.057384 0.611226 0.222742
O O12 0.250000 0.750000 0.500000
O O13 0.911470 0.500000 0.717705
O O14 0.843867 0.580870 0.554379
O O15 0.059585 0.564258 0.635084
O O16 0.770277 0.500000 0.396318
#
# Coordination Sequence:
#
# PCOD8095062 Si02
#       7
#     8   8   8   8   8   8   8
#     4  10  20  33  52  76 109 143 178 216 264 329
#     4  11  20  32  56  77 106 142 182 223 264 322
#     4  11  20  35  49  78 110 146 181 214 268 316
#     4  10  20  31  52  77 106 142 178 218 265 324
#     4  10  20  32  47  77 111 135 171 217 274 325
#     4   9  18  35  57  78 106 141 179 226 281 326
#     4   9  19  36  56  80 107 140 183 229 275 323
#
# _framework density 18.237137000000001
#
# number of rings (size 3 to 8) (size 9 to 14) (size 15 to 20)
#    0.000    2.000    4.286    3.000    0.000    3.429 
#    0.000    0.714    0.000    6.857    0.000    9.000 
#    0.000    0.000    0.000    0.000    0.000    0.000 
#
# Total GULP energy -346894.980225 kJ/mol
# GULP energy per Si atom -12389.106437 kJ/mol
# Density = 1.819563 g / cm^3
# Si number density = 18.237137 Si / 1000 Ang^3
#
#
#
# Elastic Constant Matrix: (Units=GPa)
#
#
# Indices 1 2 3 4 5 6 
#
# 1 72.5393 11.6395 34.4805 0.0000 -9.7838 0.0000
# 2 11.6395 75.9940 19.2575 0.0000 6.3212 0.0000
# 3 34.4805 19.2575 88.9585 0.0000 -14.5461 0.0000
# 4 0.0000 0.0000 0.0000 23.6255 0.0000 0.3412
# 5 -9.7838 6.3212 -14.5461 0.0000 29.4377 0.0000
# 6 0.0000 0.0000 0.0000 0.3412 0.0000 23.3501
#
#
#
# Elastic Compliance Matrix: (Units=1/GPa)
#
#
# Indices 1 2 3 4 5 6 
#
# 1 0.017218 -0.001414 -0.005856 0.000000 0.003133 0.000000
# 2 -0.001414 0.014712 -0.003514 0.000000 -0.005366 0.000000
# 3 -0.005856 -0.003514 0.015314 0.000000 0.006376 0.000000
# 4 0.000000 0.000000 0.000000 0.042336 0.000000 -0.000619
# 5 0.003133 -0.005366 0.006376 0.000000 0.039314 0.000000
# 6 0.000000 0.000000 0.000000 -0.000619 0.000000 0.042835
#
#
# Mechanical properties :
#
#
# Convention : Reuss Voigt Hill
#
# Bulk Modulus (GPa) = 38.94469 40.91630 39.93049
# Shear Modulus (GPa) = 24.77006 26.75695 25.76350
#
# Velocity S-wave (km/s) = 3.68940 3.83452 3.76266
# Velocity P-wave (km/s) = 6.28887 6.48761 6.38901
#
# Compressibility (1/GPa) = 0.02567744
#
# Stress axis : x y z
#
# Youngs Moduli (GPa) = 58.07744 67.97015 65.29939
#
# Poissons Ratio (x) = 0.09611 0.38236
# Poissons Ratio (y) = 0.08212 0.22948
# Poissons Ratio (z) = 0.34007 0.23886
#
# Static dielectric constant tensor:
#      x y z
#    x 3.422020 0.000000 0.407990 
#    y 0.000000 3.445450 0.000000 
#    z 0.407990 0.000000 4.212630 
# 
# 
# High freq. dielectric constant tensor:
#      x y z
#    x 1.707910 0.000000 -0.004130 
#    y 0.000000 1.675800 0.000000 
#    z -0.004130 0.000000 1.703940 
# 
# From -- ./inp_files/134862.got.cif
#   From: 2010.06.25/outbox.cif.g09.slc.cpg/sg12_68_cif.got.tgz:134862.got - 2010.06.28 00:19:55.
