data_PCOD8095506
_publ_section_title
;
Structure prediction by ZEFSAII (Michael W. Deem and Ramdas Pophale) SiO2 
 PCOD8095506
Probable space group: C 2/M
;
_chemical_formula_sum "Si O2"
_cell_formula_units_Z 56
_cell_length_a 25.789354
_cell_length_b 9.730746
_cell_length_c 13.117293
_cell_angle_alpha 90.000000
_cell_angle_beta 61.370362
_cell_angle_gamma 90.000000
_cell_volume 2889.311422
_symmetry_space_group_name_H-M "C 2/M"
_symmetry_group_IT_number 12
_symmetry_cell_setting 'monoclinic'
loop_
_space_group_symop_operation_xyz
x,y,z
-x,y,-z
-x,-y,-z
x,-y,z
1/2+x,1/2+y,z
1/2-x,1/2+y,-z
1/2-x,1/2-y,-z
1/2+x,1/2-y,z
loop_
_atom_site_type_symbol
_atom_site_label
_atom_site_fract_x
_atom_site_fract_y
_atom_site_fract_z
Si Si1 0.819756 0.650711 0.767103
Si Si2 0.364495 0.160126 0.942756
Si Si3 0.218842 0.343254 0.798278
Si Si4 0.962057 0.152110 0.776691
Si Si5 0.407409 0.346023 0.394335
Si Si6 0.195266 0.339543 0.588850
Si Si7 0.563551 0.748960 0.416985
O O1 0.791087 0.500000 0.784577
O O2 0.825001 0.693166 0.880624
O O3 0.779073 0.757588 0.745907
O O4 0.884607 0.642059 0.654233
O O5 0.426293 0.240794 0.879923
O O6 0.380421 0.000000 0.934479
O O7 0.328139 0.211637 0.075003
O O8 0.236023 0.500000 0.806416
O O9 0.189692 0.328543 0.715527
O O10 0.942712 0.154366 0.676728
O O11 0.031487 0.185481 0.721847
O O12 0.948462 0.000000 0.831018
O O13 0.384109 0.500000 0.388764
O O14 0.362923 0.226220 0.404619
O O15 0.417756 0.345074 0.505759
O O16 0.201333 0.500000 0.549467
O O17 0.250000 0.250000 0.500000
O O18 0.500000 0.822653 0.500000
#
# Coordination Sequence:
#
# PCOD8095506 Si02
#       7
#     8   8   8   8   8   8   8
#     4  10  20  32  52  83 110 134 170 218 266 308
#     4   9  19  36  55  78 108 138 171 212 260 315
#     4  10  22  39  56  74 102 142 180 213 257 315
#     4   9  18  33  55  83 110 137 172 213 259 312
#     4  10  20  35  55  79 108 141 177 217 260 308
#     4  11  24  40  57  77 103 139 181 221 261 306
#     4   9  18  32  52  79 111 144 174 207 256 318
#
# _framework density 19.381781
#
# number of rings (size 3 to 8) (size 9 to 14) (size 15 to 20)
#    0.000    2.286    0.000    2.143    0.000   10.000 
#    0.000    3.571    0.000    4.286    0.000    0.000 
#    0.000    0.000    0.000    0.000    0.000    0.000 
#
# Total GULP energy -347127.535409 kJ/mol
# GULP energy per Si atom -12397.411979 kJ/mol
# Density = 1.933767 g / cm^3
# Si number density = 19.381781 Si / 1000 Ang^3
#
#
#
# Elastic Constant Matrix: (Units=GPa)
#
#
# Indices 1 2 3 4 5 6 
#
# 1 94.0122 57.9015 43.0469 0.0000 -16.5096 0.0000
# 2 57.9015 106.8344 40.1527 0.0000 -15.8065 0.0000
# 3 43.0469 40.1527 104.5081 0.0000 -13.0891 0.0000
# 4 0.0000 0.0000 0.0000 25.4671 0.0000 -5.4245
# 5 -16.5096 -15.8065 -13.0891 0.0000 24.4696 0.0000
# 6 0.0000 0.0000 0.0000 -5.4245 0.0000 30.5016
#
#
#
# Elastic Compliance Matrix: (Units=1/GPa)
#
#
# Indices 1 2 3 4 5 6 
#
# 1 0.017935 -0.007503 -0.003854 0.000000 0.005192 0.000000
# 2 -0.007503 0.014724 -0.002154 0.000000 0.003297 0.000000
# 3 -0.003854 -0.002154 0.012308 0.000000 0.002592 0.000000
# 4 0.000000 0.000000 0.000000 0.040812 0.000000 0.007258
# 5 0.005192 0.003297 0.002592 0.000000 0.047886 0.000000
# 6 0.000000 0.000000 0.000000 0.007258 0.000000 0.034076
#
#
# Mechanical properties :
#
#
# Convention : Reuss Voigt Hill
#
# Bulk Modulus (GPa) = 55.72648 65.28410 60.50529
# Shear Modulus (GPa) = 24.90712 27.03790 25.97251
#
# Velocity S-wave (km/s) = 3.58869 3.73904 3.66464
# Velocity P-wave (km/s) = 6.78130 7.23857 7.01366
#
# Compressibility (1/GPa) = 0.01794479
#
# Stress axis : x y z
#
# Youngs Moduli (GPa) = 55.75743 67.91576 81.24630
#
# Poissons Ratio (x) = 0.50960 0.31314
# Poissons Ratio (y) = 0.41837 0.17497
# Poissons Ratio (z) = 0.21490 0.14626
#
# Static dielectric constant tensor:
#      x y z
#    x 3.424780 0.000000 -0.093590 
#    y 0.000000 3.447160 0.000000 
#    z -0.093590 0.000000 3.661210 
# 
# 
# High freq. dielectric constant tensor:
#      x y z
#    x 1.739610 0.000000 -0.010220 
#    y 0.000000 1.749750 0.000000 
#    z -0.010220 0.000000 1.756140 
# 
# From -- ./inp_files/238251.got.cif
#   From: 2010.06.25/outbox.cif.g09.slc.cpg/sg12_120_cif.got.tgz:238251.got - 2010.06.28 00:19:55.
