data_PCOD8095880
_publ_section_title
;
Structure prediction by ZEFSAII (Michael W. Deem and Ramdas Pophale) SiO2 
 PCOD8095880
Probable space group: C 2/M
;
_chemical_formula_sum "Si O2"
_cell_formula_units_Z 56
_cell_length_a 15.417519
_cell_length_b 9.459708
_cell_length_c 19.846400
_cell_angle_alpha 90.000000
_cell_angle_beta 99.848865
_cell_angle_gamma 90.000000
_cell_volume 2851.844637
_symmetry_space_group_name_H-M "C 2/M"
_symmetry_group_IT_number 12
_symmetry_cell_setting 'monoclinic'
loop_
_space_group_symop_operation_xyz
x,y,z
-x,y,-z
-x,-y,-z
x,-y,z
1/2+x,1/2+y,z
1/2-x,1/2+y,-z
1/2-x,1/2-y,-z
1/2+x,1/2-y,z
loop_
_atom_site_type_symbol
_atom_site_label
_atom_site_fract_x
_atom_site_fract_y
_atom_site_fract_z
Si Si1 0.542106 0.333815 0.344581
Si Si2 0.575633 0.661853 0.197857
Si Si3 0.125590 0.335122 0.658947
Si Si4 0.253890 0.841180 0.933564
Si Si5 0.043582 0.342675 0.072484
Si Si6 0.721646 0.838173 0.807338
Si Si7 0.728916 0.665840 0.430428
O O1 0.525359 0.500000 0.348450
O O2 0.546917 0.285820 0.267520
O O3 0.462313 0.252017 0.369899
O O4 0.632094 0.290286 0.393031
O O5 0.550210 0.500000 0.182809
O O6 0.521108 0.750280 0.135085
O O7 0.679683 0.684570 0.205805
O O8 0.104267 0.500000 0.649349
O O9 0.156798 0.296815 0.738325
O O10 0.201327 0.289743 0.617200
O O11 0.352996 0.849740 0.922456
O O12 0.198717 0.762617 0.867580
O O13 0.216431 0.000000 0.940491
O O14 0.250000 0.750000 0.000000
O O15 0.004141 0.500000 0.078009
O O16 0.000000 0.273437 0.000000
O O17 0.708165 0.000000 0.828519
O O18 0.734177 0.500000 0.446088
O O19 0.750000 0.750000 0.500000
#
# Coordination Sequence:
#
# PCOD8095880 Si02
#       7
#     8   8   8   8   8   8   8
#     4  10  21  38  60  88 120 152 191 241 291 342
#     4   9  17  33  56  77 102 142 187 231 282 338
#     4  10  21  38  61  88 117 153 196 238 286 348
#     4  10  20  33  50  74 105 143 185 232 284 340
#     4   9  19  34  50  71 103 141 181 228 280 331
#     4   9  17  34  57  76 102 145 189 233 285 341
#     4  10  22  42  64  87 121 160 194 236 292 348
#
# _framework density 19.636413999999998
#
# number of rings (size 3 to 8) (size 9 to 14) (size 15 to 20)
#    0.000    2.429    1.429    0.429    0.000    4.857 
#    0.000    7.143    0.000    0.000    0.000    0.000 
#    0.000    0.000    0.000    0.000    0.000    0.000 
#
# Total GULP energy -347222.076864 kJ/mol
# GULP energy per Si atom -12400.788459 kJ/mol
# Density = 1.959172 g / cm^3
# Si number density = 19.636414 Si / 1000 Ang^3
#
#
#
# Elastic Constant Matrix: (Units=GPa)
#
#
# Indices 1 2 3 4 5 6 
#
# 1 93.1126 50.1149 57.5099 0.0000 11.8112 0.0000
# 2 50.1149 91.6248 71.9051 0.0000 3.8076 0.0000
# 3 57.5099 71.9051 138.9240 0.0000 14.9415 0.0000
# 4 0.0000 0.0000 0.0000 40.0036 0.0000 1.6033
# 5 11.8112 3.8076 14.9415 0.0000 23.6395 0.0000
# 6 0.0000 0.0000 0.0000 1.6033 0.0000 29.1776
#
#
#
# Elastic Compliance Matrix: (Units=1/GPa)
#
#
# Indices 1 2 3 4 5 6 
#
# 1 0.016840 -0.006695 -0.002915 0.000000 -0.005493 0.000000
# 2 -0.006695 0.021281 -0.008835 0.000000 0.005501 0.000000
# 3 -0.002915 -0.008835 0.013592 0.000000 -0.005711 0.000000
# 4 0.000000 0.000000 0.000000 0.025053 0.000000 -0.001377
# 5 -0.005493 0.005501 -0.005711 0.000000 0.047770 0.000000
# 6 0.000000 0.000000 0.000000 -0.001377 0.000000 0.034348
#
#
# Mechanical properties :
#
#
# Convention : Reuss Voigt Hill
#
# Bulk Modulus (GPa) = 67.46250 75.85793 71.66021
# Shear Modulus (GPa) = 24.91084 28.17291 26.54187
#
# Velocity S-wave (km/s) = 3.56561 3.79189 3.68049
# Velocity P-wave (km/s) = 7.16811 7.60831 7.39149
#
# Compressibility (1/GPa) = 0.01482305
#
# Stress axis : x y z
#
# Youngs Moduli (GPa) = 59.38100 46.99126 73.57192
#
# Poissons Ratio (x) = 0.31459 0.21450
# Poissons Ratio (y) = 0.39754 0.64999
# Poissons Ratio (z) = 0.17312 0.41516
#
# Static dielectric constant tensor:
#      x y z
#    x 3.456950 0.000000 0.027320 
#    y 0.000000 3.658580 0.000000 
#    z 0.027320 0.000000 3.638990 
# 
# 
# High freq. dielectric constant tensor:
#      x y z
#    x 1.758350 0.000000 0.003790 
#    y 0.000000 1.758080 0.000000 
#    z 0.003790 0.000000 1.767920 
# 
# From -- ./inp_files/308980.got.cif
#   From: 2010.06.25/outbox.cif.g09.slc.cpg/sg12_155_cif.got.tgz:308980.got - 2010.06.28 00:19:55.
