data_PCOD8095529
_publ_section_title
;
Structure prediction by ZEFSAII (Michael W. Deem and Ramdas Pophale) SiO2 
 PCOD8095529
Probable space group: C 2/M
;
_chemical_formula_sum "Si O2"
_cell_formula_units_Z 40
_cell_length_a 13.660138
_cell_length_b 19.648976
_cell_length_c 6.979894
_cell_angle_alpha 90.000000
_cell_angle_beta 81.364126
_cell_angle_gamma 90.000000
_cell_volume 1852.217249
_symmetry_space_group_name_H-M "C 2/M"
_symmetry_group_IT_number 12
_symmetry_cell_setting 'monoclinic'
loop_
_space_group_symop_operation_xyz
x,y,z
-x,y,-z
-x,-y,-z
x,-y,z
1/2+x,1/2+y,z
1/2-x,1/2+y,-z
1/2-x,1/2-y,-z
1/2+x,1/2-y,z
loop_
_atom_site_type_symbol
_atom_site_label
_atom_site_fract_x
_atom_site_fract_y
_atom_site_fract_z
Si Si1 0.112204 0.877159 0.124287
Si Si2 0.350930 0.206780 0.486152
Si Si3 0.245915 0.580572 0.616040
Si Si4 0.466928 0.231908 0.811003
Si Si5 0.586631 0.423148 0.707175
O O1 0.216666 0.899772 0.182833
O O2 0.093365 0.797766 0.097174
O O3 0.026178 0.900531 0.298976
O O4 0.108250 0.914649 0.924550
O O5 0.250000 0.250000 0.500000
O O6 0.346612 0.129864 0.401131
O O7 0.387658 0.194790 0.695403
O O8 0.433890 0.248078 0.340784
O O9 0.218972 0.500000 0.605904
O O10 0.328576 0.611480 0.445567
O O11 0.500000 0.193240 0.000000
O O12 0.595870 0.500000 0.640961
#
# Coordination Sequence:
#
# PCOD8095529 Si02
#       5
#     8   8   8   8   8
#     4  11  19  33  58  86 122 154 194 246 309 376
#     4  11  24  41  63  92 126 161 212 254 299 373
#     4  11  23  39  60  87 122 162 200 251 307 358
#     4  11  24  40  62  91 123 163 206 255 313 356
#     4  10  20  32  53  87 123 158 193 238 308 381
#
# _framework density 21.595737
#
# number of rings (size 3 to 8) (size 9 to 14) (size 15 to 20)
#    0.000    1.200    4.000    4.200    2.800    4.000 
#    0.000    2.000    0.000    1.200    0.000    0.000 
#    0.000    0.000    0.000    0.000    0.000    0.000 
#
# Total GULP energy -247762.092549 kJ/mol
# GULP energy per Si atom -12388.104627 kJ/mol
# Density = 2.154658 g / cm^3
# Si number density = 21.595737 Si / 1000 Ang^3
#
#
#
# Elastic Constant Matrix: (Units=GPa)
#
#
# Indices 1 2 3 4 5 6 
#
# 1 96.9617 27.4256 29.5218 0.0000 34.4835 0.0000
# 2 27.4256 79.6588 -0.8579 0.0000 17.7459 0.0000
# 3 29.5218 -0.8579 60.2509 0.0000 24.3619 0.0000
# 4 0.0000 0.0000 0.0000 19.7641 0.0000 6.5339
# 5 34.4835 17.7459 24.3619 0.0000 39.2619 0.0000
# 6 0.0000 0.0000 0.0000 6.5339 0.0000 23.8347
#
#
#
# Elastic Compliance Matrix: (Units=1/GPa)
#
#
# Indices 1 2 3 4 5 6 
#
# 1 0.016036 -0.003271 -0.003747 0.000000 -0.010281 0.000000
# 2 -0.003271 0.015262 0.004602 0.000000 -0.006881 0.000000
# 3 -0.003747 0.004602 0.024041 0.000000 -0.013707 0.000000
# 4 0.000000 0.000000 0.000000 0.055639 0.000000 -0.015253
# 5 -0.010281 -0.006881 -0.013707 0.000000 0.046115 0.000000
# 6 0.000000 0.000000 0.000000 -0.015253 0.000000 0.046137
#
#
# Mechanical properties :
#
#
# Convention : Reuss Voigt Hill
#
# Bulk Modulus (GPa) = 19.79889 38.78339 29.29114
# Shear Modulus (GPa) = 22.23252 28.62427 25.42839
#
# Velocity S-wave (km/s) = 3.21204 3.64464 3.43516
# Velocity P-wave (km/s) = 4.79001 5.97570 5.41540
#
# Compressibility (1/GPa) = 0.05050787
#
# Stress axis : x y z
#
# Youngs Moduli (GPa) = 62.36160 65.52125 41.59586
#
# Poissons Ratio (x) = 0.21432 0.15585
# Poissons Ratio (y) = 0.20398 -0.19144
# Poissons Ratio (z) = 0.23366 -0.30156
#
# Static dielectric constant tensor:
#      x y z
#    x 3.968410 0.000000 0.242080 
#    y 0.000000 3.658570 0.000000 
#    z 0.242080 0.000000 3.960990 
# 
# 
# High freq. dielectric constant tensor:
#      x y z
#    x 1.830800 0.000000 0.023730 
#    y 0.000000 1.824090 0.000000 
#    z 0.023730 0.000000 1.858770 
# 
# From -- ./inp_files/48583.got.cif
#   From: 2010.06.25/outbox.cif.g09.slc.cpg/sg12_25_cif.got.tgz:48583.got - 2010.06.28 00:19:55.
