data_PCOD8095679
_publ_section_title
;
Structure prediction by ZEFSAII (Michael W. Deem and Ramdas Pophale) SiO2 
 PCOD8095679
Probable space group: C 2/M
;
_chemical_formula_sum "Si O2"
_cell_formula_units_Z 64
_cell_length_a 30.364492
_cell_length_b 9.187956
_cell_length_c 14.826580
_cell_angle_alpha 90.000000
_cell_angle_beta 120.689751
_cell_angle_gamma 90.000000
_cell_volume 3557.098340
_symmetry_space_group_name_H-M "C 2/M"
_symmetry_group_IT_number 12
_symmetry_cell_setting 'monoclinic'
loop_
_space_group_symop_operation_xyz
x,y,z
-x,y,-z
-x,-y,-z
x,-y,z
1/2+x,1/2+y,z
1/2-x,1/2+y,-z
1/2-x,1/2-y,-z
1/2+x,1/2-y,z
loop_
_atom_site_type_symbol
_atom_site_label
_atom_site_fract_x
_atom_site_fract_y
_atom_site_fract_z
Si Si1 0.217333 0.668872 0.039826
Si Si2 0.473462 0.672013 0.223929
Si Si3 0.550209 0.326660 0.603724
Si Si4 0.880386 0.169624 0.007359
Si Si5 0.137049 0.173356 0.563021
Si Si6 0.348131 0.670257 0.775435
Si Si7 0.087621 0.173467 0.326324
Si Si8 0.250403 0.331453 0.275775
O O1 0.213064 0.500000 0.010559
O O2 0.244922 0.694045 0.163773
O O3 0.250000 0.750000 0.000000
O O4 0.160963 0.737062 0.981668
O O5 0.478509 0.500000 0.237534
O O6 0.450831 0.732573 0.294787
O O7 0.436065 0.715472 0.102824
O O8 0.529847 0.736990 0.263741
O O9 0.500000 0.268196 0.500000
O O10 0.550529 0.500000 0.602415
O O11 0.600650 0.267054 0.605260
O O12 0.869017 0.000000 0.013877
O O13 0.878519 0.205788 0.899342
O O14 0.115967 0.230941 0.445463
O O15 0.194514 0.232143 0.637405
O O16 0.137159 0.000000 0.565209
O O17 0.338071 0.500000 0.754245
O O18 0.382264 0.732355 0.729522
O O19 0.293089 0.746639 0.714914
O O20 0.086307 0.000000 0.323854
O O21 0.244962 0.500000 0.295338
#
# Coordination Sequence:
#
# PCOD8095679 Si02
#       8
#     8   8   8   8   8   8   8   8
#     4  10  20  33  49  70  96 126 159 198 237 280
#     4   9  16  25  42  68  96 125 157 193 234 284
#     4   9  14  22  38  62  94 124 149 190 243 283
#     4   9  18  31  47  69  97 128 159 192 231 281
#     4   9  16  26  42  67  96 123 154 195 239 281
#     4   9  18  32  48  67  97 129 156 195 241 281
#     4   9  16  27  44  68  96 125 157 196 243 282
#     4   9  19  33  49  69  94 124 160 198 234 278
#
# _framework density 17.992193
#
# number of rings (size 3 to 8) (size 9 to 14) (size 15 to 20)
#    0.000    2.875    1.250    0.375    1.750    1.500 
#    0.000    2.500    0.000    0.750    0.000    3.500 
#    0.000    2.000    0.000    0.000    0.000    0.000 
#
# Total GULP energy -396740.709002 kJ/mol
# GULP energy per Si atom -12398.147156 kJ/mol
# Density = 1.795124 g / cm^3
# Si number density = 17.992193 Si / 1000 Ang^3
#
#
#
# Elastic Constant Matrix: (Units=GPa)
#
#
# Indices 1 2 3 4 5 6 
#
# 1 189.8797 35.6534 100.6928 0.0000 -0.1308 0.0000
# 2 35.6534 28.8553 22.6430 0.0000 0.6950 0.0000
# 3 100.6928 22.6430 118.5999 0.0000 18.1306 0.0000
# 4 0.0000 0.0000 0.0000 11.6980 0.0000 2.8259
# 5 -0.1308 0.6950 18.1306 0.0000 37.3187 0.0000
# 6 0.0000 0.0000 0.0000 2.8259 0.0000 21.3342
#
#
#
# Elastic Compliance Matrix: (Units=1/GPa)
#
#
# Indices 1 2 3 4 5 6 
#
# 1 0.011373 -0.007104 -0.008994 0.000000 0.004542 0.000000
# 2 -0.007104 0.045572 -0.002739 0.000000 0.000457 0.000000
# 3 -0.008994 -0.002739 0.017918 0.000000 -0.008686 0.000000
# 4 0.000000 0.000000 0.000000 0.088310 0.000000 -0.011697
# 5 0.004542 0.000457 -0.008686 0.000000 0.031023 0.000000
# 6 0.000000 0.000000 0.000000 -0.011697 0.000000 0.048423
#
#
# Mechanical properties :
#
#
# Convention : Reuss Voigt Hill
#
# Bulk Modulus (GPa) = 26.88940 72.81259 49.85100
# Shear Modulus (GPa) = 17.08298 25.95989 21.52143
#
# Velocity S-wave (km/s) = 3.08468 3.80260 3.46230
# Velocity P-wave (km/s) = 5.25971 7.73541 6.61442
#
# Compressibility (1/GPa) = 0.03718937
#
# Stress axis : x y z
#
# Youngs Moduli (GPa) = 87.92827 21.94343 55.80929
#
# Poissons Ratio (x) = 0.15589 0.50193
# Poissons Ratio (y) = 0.62466 0.15285
# Poissons Ratio (z) = 0.79080 0.06010
#
# Static dielectric constant tensor:
#      x y z
#    x 3.620910 0.000000 0.049610 
#    y 0.000000 2.819370 0.000000 
#    z 0.049610 0.000000 3.489860 
# 
# 
# High freq. dielectric constant tensor:
#      x y z
#    x 1.707200 0.000000 0.001650 
#    y 0.000000 1.634950 0.000000 
#    z 0.001650 0.000000 1.703640 
# 
# From -- ./inp_files/249122.got.cif
#   From: 2010.06.25/outbox.cif.g09.slc.cpg/sg12_125_cif.got.tgz:249122.got - 2010.06.28 00:19:55.
