data_PCOD8095765
_publ_section_title
;
Structure prediction by ZEFSAII (Michael W. Deem and Ramdas Pophale) SiO2 
 PCOD8095765
Probable space group: C 2/M
;
_chemical_formula_sum "Si O2"
_cell_formula_units_Z 64
_cell_length_a 19.869143
_cell_length_b 9.157712
_cell_length_c 25.364422
_cell_angle_alpha 90.000000
_cell_angle_beta 125.648575
_cell_angle_gamma 90.000000
_cell_volume 3750.348434
_symmetry_space_group_name_H-M "C 2/M"
_symmetry_group_IT_number 12
_symmetry_cell_setting 'monoclinic'
loop_
_space_group_symop_operation_xyz
x,y,z
-x,y,-z
-x,-y,-z
x,-y,z
1/2+x,1/2+y,z
1/2-x,1/2+y,-z
1/2-x,1/2-y,-z
1/2+x,1/2-y,z
loop_
_atom_site_type_symbol
_atom_site_label
_atom_site_fract_x
_atom_site_fract_y
_atom_site_fract_z
Si Si1 0.267964 0.167348 0.924967
Si Si2 0.179037 0.328419 0.800936
Si Si3 0.023140 0.667841 0.795528
Si Si4 0.696576 0.827110 0.688231
Si Si5 0.261497 0.667655 0.451358
Si Si6 0.592253 0.329174 0.557141
Si Si7 0.840969 0.327347 0.695631
Si Si8 0.140572 0.667044 0.936507
O O1 0.259416 0.260059 0.867377
O O2 0.197978 0.215069 0.934338
O O3 0.255934 0.000000 0.903550
O O4 0.354812 0.190898 0.997527
O O5 0.185678 0.500000 0.811561
O O6 0.094540 0.267108 0.789607
O O7 0.179983 0.282456 0.740837
O O8 0.012549 0.500000 0.775338
O O9 0.049068 0.688113 0.869185
O O10 0.933266 0.739405 0.744751
O O11 0.619707 0.763548 0.620223
O O12 0.782681 0.755337 0.710261
O O13 0.701353 0.000000 0.682479
O O14 0.259176 0.500000 0.465331
O O15 0.250000 0.750000 0.500000
O O16 0.349236 0.710103 0.465446
O O17 0.188155 0.707116 0.377140
O O18 0.500000 0.282711 0.500000
O O19 0.599571 0.500000 0.574719
O O20 0.834709 0.500000 0.704734
O O21 0.170195 0.500000 0.937279
#
# Coordination Sequence:
#
# PCOD8095765 Si02
#       8
#     8   8   8   8   8   8   8   8
#     4   9  15  23  40  66  92 119 152 190 233 279
#     4   9  18  31  46  67  95 124 155 193 234 274
#     4   8  14  28  49  68  88 118 154 190 229 273
#     4  10  20  33  50  71  95 124 156 190 230 275
#     4   9  18  31  48  70  93 119 150 184 224 269
#     4   9  19  36  54  71  94 124 156 189 228 274
#     4   9  18  33  51  68  90 123 157 187 226 277
#     4   8  14  25  41  63  92 121 150 189 236 281
#
# _framework density 17.065080999999999
#
# number of rings (size 3 to 8) (size 9 to 14) (size 15 to 20)
#    0.000    3.125    0.000    2.250    0.000    4.750 
#    0.000    3.750    0.000    0.750    0.000    5.250 
#    0.000    0.000    0.000    0.000    0.000    0.000 
#
# Total GULP energy -396491.719073 kJ/mol
# GULP energy per Si atom -12390.366221 kJ/mol
# Density = 1.702624 g / cm^3
# Si number density = 17.065081 Si / 1000 Ang^3
#
#
#
# Elastic Constant Matrix: (Units=GPa)
#
#
# Indices 1 2 3 4 5 6 
#
# 1 79.4857 33.5427 91.3404 0.0000 -1.9909 0.0000
# 2 33.5427 47.4704 54.5836 0.0000 -7.6563 0.0000
# 3 91.3404 54.5836 172.9538 0.0000 -0.2643 0.0000
# 4 0.0000 0.0000 0.0000 28.3729 0.0000 -5.6502
# 5 -1.9909 -7.6563 -0.2643 0.0000 22.1619 0.0000
# 6 0.0000 0.0000 0.0000 -5.6502 0.0000 19.5012
#
#
#
# Elastic Compliance Matrix: (Units=1/GPa)
#
#
# Indices 1 2 3 4 5 6 
#
# 1 0.032798 -0.004843 -0.015791 0.000000 0.001085 0.000000
# 2 -0.004843 0.036873 -0.009061 0.000000 0.012196 0.000000
# 3 -0.015791 -0.009061 0.016975 0.000000 -0.004346 0.000000
# 4 0.000000 0.000000 0.000000 0.037403 0.000000 0.010837
# 5 0.001085 0.012196 -0.004346 0.000000 0.049381 0.000000
# 6 0.000000 0.000000 0.000000 0.010837 0.000000 0.054419
#
#
# Mechanical properties :
#
#
# Convention : Reuss Voigt Hill
#
# Bulk Modulus (GPa) = 36.68902 73.20482 54.94692
# Shear Modulus (GPa) = 16.87340 22.03676 19.45508
#
# Velocity S-wave (km/s) = 3.14788 3.59742 3.38013
# Velocity P-wave (km/s) = 5.89562 7.76181 6.89217
#
# Compressibility (1/GPa) = 0.02725611
#
# Stress axis : x y z
#
# Youngs Moduli (GPa) = 30.48947 27.11995 58.91145
#
# Poissons Ratio (x) = 0.13133 0.93030
# Poissons Ratio (y) = 0.14765 0.53379
# Poissons Ratio (z) = 0.48147 0.24573
#
# Static dielectric constant tensor:
#      x y z
#    x 3.063070 0.000000 0.188270 
#    y 0.000000 3.081210 0.000000 
#    z 0.188270 0.000000 3.677340 
# 
# 
# High freq. dielectric constant tensor:
#      x y z
#    x 1.618280 0.000000 0.001240 
#    y 0.000000 1.647550 0.000000 
#    z 0.001240 0.000000 1.678010 
# 
# From -- ./inp_files/346208.got.cif
#   From: 2010.06.25/outbox.cif.g09.slc.cpg/sg12_174_cif.got.tgz:346208.got - 2010.06.28 00:19:55.
