data_PCOD8095421
_publ_section_title
;
Structure prediction by ZEFSAII (Michael W. Deem and Ramdas Pophale) SiO2 
 PCOD8095421
Probable space group: C 2/M
;
_chemical_formula_sum "Si O2"
_cell_formula_units_Z 40
_cell_length_a 15.075330
_cell_length_b 26.791517
_cell_length_c 15.793599
_cell_angle_alpha 90.000000
_cell_angle_beta 161.857660
_cell_angle_gamma 90.000000
_cell_volume 1986.251372
_symmetry_space_group_name_H-M "C 2/M"
_symmetry_group_IT_number 12
_symmetry_cell_setting 'monoclinic'
loop_
_space_group_symop_operation_xyz
x,y,z
-x,y,-z
-x,-y,-z
x,-y,z
1/2+x,1/2+y,z
1/2-x,1/2+y,-z
1/2-x,1/2-y,-z
1/2+x,1/2-y,z
loop_
_atom_site_type_symbol
_atom_site_label
_atom_site_fract_x
_atom_site_fract_y
_atom_site_fract_z
Si Si1 0.299005 0.659042 0.575997
Si Si2 0.477862 0.918522 0.883686
Si Si3 0.584657 0.445043 0.383712
Si Si4 0.688503 0.281927 0.247948
Si Si5 0.086299 0.314113 0.918831
O O1 0.288670 0.598616 0.560799
O O2 0.275928 0.673342 0.652976
O O3 0.029421 0.681574 0.281947
O O4 0.572847 0.682959 0.777754
O O5 0.196627 0.939208 0.582096
O O6 0.468742 0.858468 0.871252
O O7 0.500000 0.936894 0.000000
O O8 0.745081 0.940203 0.074972
O O9 0.666673 0.500000 0.422626
O O10 0.512494 0.236937 0.129283
O O11 0.000000 0.263841 0.500000
O O12 0.500000 0.303086 0.000000
#
# Coordination Sequence:
#
# PCOD8095421 Si02
#       5
#     8   8   8   8   8
#     4  10  21  38  56  76 107 142 178 215 256 315
#     4  10  20  32  50  78 109 136 170 214 255 304
#     4  10  21  35  53  74 100 141 181 215 258 307
#     4  12  23  35  56  83 109 136 174 221 265 308
#     4  10  20  36  55  77 108 146 176 202 255 321
#
# _framework density 20.138437
#
# number of rings (size 3 to 8) (size 9 to 14) (size 15 to 20)
#    0.000    1.600    0.000    5.400    0.000    5.600 
#    0.000    0.000    0.000    1.200    0.000    0.000 
#    0.000    0.000    0.000    0.000    0.000    0.000 
#
# Total GULP energy -248040.499312 kJ/mol
# GULP energy per Si atom -12402.024966 kJ/mol
# Density = 2.009260 g / cm^3
# Si number density = 20.138437 Si / 1000 Ang^3
#
#
#
# Elastic Constant Matrix: (Units=GPa)
#
#
# Indices 1 2 3 4 5 6 
#
# 1 61.3249 43.7186 9.5867 -0.0034 -20.6695 0.0034
# 2 43.7186 129.8751 16.9649 -0.0060 -16.6034 0.0015
# 3 9.5867 16.9649 82.6115 0.0180 -13.5118 0.0122
# 4 -0.0034 -0.0060 0.0180 16.2528 0.0113 1.0943
# 5 -20.6695 -16.6034 -13.5118 0.0113 31.3918 0.0060
# 6 0.0034 0.0015 0.0122 1.0943 0.0060 6.3615
#
#
#
# Elastic Compliance Matrix: (Units=1/GPa)
#
#
# Indices 1 2 3 4 5 6 
#
# 1 0.025782 -0.007035 0.000668 -0.000006 0.013542 -0.000025
# 2 -0.007035 0.010264 -0.001249 0.000003 0.000259 0.000003
# 3 0.000668 -0.001249 0.013175 -0.000017 0.005450 -0.000028
# 4 -0.000006 0.000003 -0.000017 0.062249 -0.000030 -0.010708
# 5 0.013542 0.000259 0.005450 -0.000030 0.043255 -0.000054
# 6 -0.000025 0.000003 -0.000028 -0.010708 -0.000054 0.159037
#
#
# Mechanical properties :
#
#
# Convention : Reuss Voigt Hill
#
# Bulk Modulus (GPa) = 29.42119 46.03909 37.73014
# Shear Modulus (GPa) = 14.69191 24.37064 19.53128
#
# Velocity S-wave (km/s) = 2.70394 3.48250 3.11762
# Velocity P-wave (km/s) = 4.93858 6.25151 5.63342
#
# Compressibility (1/GPa) = 0.03398911
#
# Stress axis : x y z
#
# Youngs Moduli (GPa) = 38.78738 97.42804 75.89973
#
# Poissons Ratio (x) = 0.68536 -0.05068
# Poissons Ratio (y) = 0.27285 0.09480
# Poissons Ratio (z) = -0.02590 0.12169
#
# Static dielectric constant tensor:
#      x y z
#    x 3.365000 -0.000010 -0.123280 
#    y -0.000010 3.732200 -0.000030 
#    z -0.123280 -0.000030 3.940390 
# 
# 
# High freq. dielectric constant tensor:
#      x y z
#    x 1.742900 0.000000 -0.004780 
#    y 0.000000 1.780790 0.000000 
#    z -0.004780 0.000000 1.813470 
# 
# From -- ./inp_files/7602.got.cif
#   From: 2010.06.25/outbox.cif.g09.slc.cpg/sg12_4_cif.got.tgz:7602.got - 2010.06.28 00:19:55.
