data_PCOD8095102
_publ_section_title
;
Structure prediction by ZEFSAII (Michael W. Deem and Ramdas Pophale) SiO2 
 PCOD8095102
Probable space group: C 2/M
;
_chemical_formula_sum "Si O2"
_cell_formula_units_Z 64
_cell_length_a 27.966878
_cell_length_b 8.935844
_cell_length_c 30.768031
_cell_angle_alpha 90.000000
_cell_angle_beta 32.082210
_cell_angle_gamma 90.000000
_cell_volume 4083.989558
_symmetry_space_group_name_H-M "C 2/M"
_symmetry_group_IT_number 12
_symmetry_cell_setting 'monoclinic'
loop_
_space_group_symop_operation_xyz
x,y,z
-x,y,-z
-x,-y,-z
x,-y,z
1/2+x,1/2+y,z
1/2-x,1/2+y,-z
1/2-x,1/2-y,-z
1/2+x,1/2-y,z
loop_
_atom_site_type_symbol
_atom_site_label
_atom_site_fract_x
_atom_site_fract_y
_atom_site_fract_z
Si Si1 0.115855 0.834860 0.091471
Si Si2 0.778230 0.175690 0.433797
Si Si3 0.244824 0.334237 0.937662
Si Si4 0.481799 0.677198 0.264738
Si Si5 0.628008 0.823482 0.482068
Si Si6 0.438612 0.323495 0.644219
Si Si7 0.103116 0.335294 0.407146
Si Si8 0.116401 0.322440 0.226610
O O1 0.191986 0.842159 0.069361
O O2 0.024979 0.775208 0.184955
O O3 0.099706 0.000000 0.084417
O O4 0.147363 0.729078 0.027664
O O5 0.750000 0.250000 0.500000
O O6 0.878280 0.226414 0.343582
O O7 0.711446 0.227947 0.447185
O O8 0.773659 0.000000 0.444190
O O9 0.230742 0.500000 0.928907
O O10 0.289425 0.227633 0.867366
O O11 0.495522 0.500000 0.261649
O O12 0.530464 0.761820 0.266522
O O13 0.541029 0.732990 0.564671
O O14 0.654841 0.784265 0.411350
O O15 0.606694 0.000000 0.502995
O O16 0.437624 0.500000 0.651606
O O17 0.385205 0.282131 0.640955
O O18 0.385529 0.244157 0.723803
O O19 0.136463 0.500000 0.366199
O O20 0.000000 0.345780 0.500000
O O21 0.111846 0.500000 0.231599
#
# Coordination Sequence:
#
# PCOD8095102 Si02
#       8
#     8   8   8   8   8   8   8   8
#     4   8  14  25  40  57  79 108 139 171 207 246
#     4  10  20  32  45  62  85 115 148 181 213 243
#     4   9  16  26  40  59  82 107 137 172 208 247
#     4   9  18  31  44  60  84 113 147 182 211 242
#     4   9  18  32  47  62  83 112 145 178 213 251
#     4  11  20  29  43  63  86 110 139 175 215 256
#     4   8  15  29  46  62  81 106 137 173 212 255
#     4  11  20  29  42  60  85 115 144 172 209 255
#
# _framework density 15.670952
#
# number of rings (size 3 to 8) (size 9 to 14) (size 15 to 20)
#    0.000    2.625    0.000    4.875    0.000    8.250 
#    0.000    0.000    0.000    0.000    0.000    0.000 
#    0.000    1.000    0.000   11.750    0.000    2.500 
#
# Total GULP energy -396661.344171 kJ/mol
# GULP energy per Si atom -12395.667005 kJ/mol
# Density = 1.563528 g / cm^3
# Si number density = 15.670952 Si / 1000 Ang^3
#
#
#
# Elastic Constant Matrix: (Units=GPa)
#
#
# Indices 1 2 3 4 5 6 
#
# 1 87.8686 33.4625 49.6416 -0.0128 12.0120 0.0225
# 2 33.4625 86.1195 45.5312 0.0047 11.3219 -0.0340
# 3 49.6416 45.5312 113.7340 -0.0077 8.3744 0.0154
# 4 -0.0128 0.0047 -0.0077 24.6389 0.0065 5.0757
# 5 12.0120 11.3219 8.3744 0.0065 16.5687 -0.0175
# 6 0.0225 -0.0340 0.0154 5.0757 -0.0175 17.3221
#
#
#
# Elastic Compliance Matrix: (Units=1/GPa)
#
#
# Indices 1 2 3 4 5 6 
#
# 1 0.016546 -0.002437 -0.005698 0.000016 -0.007450 -0.000033
# 2 -0.002437 0.016006 -0.004849 -0.000011 -0.006719 0.000035
# 3 -0.005698 -0.004849 0.013162 0.000005 0.000791 -0.000014
# 4 0.000016 -0.000011 0.000005 0.043194 -0.000037 -0.012657
# 5 -0.007450 -0.006719 0.000791 -0.000037 0.069948 0.000077
# 6 -0.000033 0.000035 -0.000014 -0.012657 0.000077 0.061438
#
#
# Mechanical properties :
#
#
# Convention : Reuss Voigt Hill
#
# Bulk Modulus (GPa) = 50.64240 60.55473 55.59857
# Shear Modulus (GPa) = 19.77500 22.31173 21.04337
#
# Velocity S-wave (km/s) = 3.55616 3.77737 3.66843
# Velocity P-wave (km/s) = 7.01769 7.59934 7.31430
#
# Compressibility (1/GPa) = 0.01974630
#
# Stress axis : x y z
#
# Youngs Moduli (GPa) = 60.43670 62.47683 75.97490
#
# Poissons Ratio (x) = 0.15228 0.43288
# Poissons Ratio (y) = 0.14731 0.36841
# Poissons Ratio (z) = 0.34434 0.30295
#
# Static dielectric constant tensor:
#      x y z
#    x 3.419490 0.000000 0.744770 
#    y 0.000000 3.068850 0.000020 
#    z 0.744770 0.000020 3.933900 
# 
# 
# High freq. dielectric constant tensor:
#      x y z
#    x 1.561190 0.000000 0.020190 
#    y 0.000000 1.605700 0.000000 
#    z 0.020190 0.000000 1.593920 
# 
# From -- ./inp_files/384530.got.cif
#   From: 2010.06.25/outbox.cif.g09.slc.cpg/sg12_193_cif.got.tgz:384530.got - 2010.06.28 00:19:55.
