data_PCOD8095867
_publ_section_title
;
Structure prediction by ZEFSAII (Michael W. Deem and Ramdas Pophale) SiO2 
 PCOD8095867
Probable space group: C 2/M
;
_chemical_formula_sum "Si O2"
_cell_formula_units_Z 56
_cell_length_a 18.584125
_cell_length_b 8.981776
_cell_length_c 25.959293
_cell_angle_alpha 90.000000
_cell_angle_beta 136.558912
_cell_angle_gamma 90.000000
_cell_volume 2979.465468
_symmetry_space_group_name_H-M "C 2/M"
_symmetry_group_IT_number 12
_symmetry_cell_setting 'monoclinic'
loop_
_space_group_symop_operation_xyz
x,y,z
-x,y,-z
-x,-y,-z
x,-y,z
1/2+x,1/2+y,z
1/2-x,1/2+y,-z
1/2-x,1/2-y,-z
1/2+x,1/2-y,z
loop_
_atom_site_type_symbol
_atom_site_label
_atom_site_fract_x
_atom_site_fract_y
_atom_site_fract_z
Si Si1 0.752166 0.323735 0.863810
Si Si2 0.960058 0.670921 0.255794
Si Si3 0.585836 0.330378 0.399890
Si Si4 0.943482 0.663994 0.025078
Si Si5 0.843094 0.667664 0.715706
Si Si6 0.127270 0.174287 0.165551
Si Si7 0.231884 0.170055 0.560022
O O1 0.750719 0.500000 0.855369
O O2 0.637610 0.262894 0.816730
O O3 0.795050 0.252997 0.833621
O O4 0.825451 0.280669 0.951122
O O5 0.927539 0.500000 0.243480
O O6 0.991763 0.727963 0.329728
O O7 0.055087 0.698137 0.266272
O O8 0.553898 0.500000 0.371853
O O9 0.692959 0.292010 0.426204
O O10 0.613865 0.307149 0.475615
O O11 0.942385 0.500000 0.050538
O O12 0.006135 0.775637 0.094803
O O13 0.000000 0.653723 0.000000
O O14 0.846794 0.500000 0.740122
O O15 0.837046 0.784610 0.758538
O O16 0.739552 0.690047 0.626007
O O17 0.135142 0.000000 0.161162
O O18 0.270088 0.000000 0.566776
#
# Coordination Sequence:
#
# PCOD8095867 Si02
#       7
#     8   8   8   8   8   8   8
#     4  10  20  35  55  75  97 128 164 201 244 293
#     4  10  20  33  50  74 103 132 163 202 247 291
#     4   9  15  25  44  69  96 126 162 201 242 288
#     4   8  16  32  52  72  94 124 162 201 241 287
#     4   9  18  33  50  70 101 135 164 199 244 289
#     4  11  21  32  51  77 101 127 163 203 242 288
#     4   8  15  27  44  67  94 127 165 203 241 282
#
# _framework density 18.795318000000002
#
# number of rings (size 3 to 8) (size 9 to 14) (size 15 to 20)
#    0.000    2.714    0.000    4.286    0.000    6.571 
#    0.000    0.714    0.000    0.857    0.000    6.000 
#    0.000    0.000    0.000    0.000    0.000    0.000 
#
# Total GULP energy -346970.228967 kJ/mol
# GULP energy per Si atom -12391.793892 kJ/mol
# Density = 1.875254 g / cm^3
# Si number density = 18.795318 Si / 1000 Ang^3
#
#
#
# Elastic Constant Matrix: (Units=GPa)
#
#
# Indices 1 2 3 4 5 6 
#
# 1 15.5181 8.7481 -4.1480 0.0000 -4.3743 0.0000
# 2 8.7481 81.8215 10.3909 0.0000 -8.9368 0.0000
# 3 -4.1480 10.3909 36.5097 0.0000 -14.2739 0.0000
# 4 0.0000 0.0000 0.0000 30.1656 0.0000 2.9711
# 5 -4.3743 -8.9368 -14.2739 0.0000 21.8456 0.0000
# 6 0.0000 0.0000 0.0000 2.9711 0.0000 22.1264
#
#
#
# Elastic Compliance Matrix: (Units=1/GPa)
#
#
# Indices 1 2 3 4 5 6 
#
# 1 0.083458 -0.008768 0.022978 0.000000 0.028139 0.000000
# 2 -0.008768 0.013840 -0.004577 0.000000 0.000916 0.000000
# 3 0.022978 -0.004577 0.043476 0.000000 0.031136 0.000000
# 4 0.000000 0.000000 0.000000 0.033595 0.000000 -0.004511
# 5 0.028139 0.000916 0.031136 0.000000 0.072129 0.000000
# 6 0.000000 0.000000 0.000000 -0.004511 0.000000 0.045801
#
#
# Mechanical properties :
#
#
# Convention : Reuss Voigt Hill
#
# Bulk Modulus (GPa) = 6.24839 18.20348 12.22593
# Shear Modulus (GPa) = 15.31960 22.75140 19.03550
#
# Velocity S-wave (km/s) = 2.85805 3.48297 3.18587
# Velocity P-wave (km/s) = 3.77133 5.08733 4.47794
#
# Compressibility (1/GPa) = 0.16004134
#
# Stress axis : x y z
#
# Youngs Moduli (GPa) = 11.98211 72.25214 23.00103
#
# Poissons Ratio (x) = 0.63349 -0.52853
# Poissons Ratio (y) = 0.10506 0.10528
# Poissons Ratio (z) = -0.27533 0.33071
#
# Static dielectric constant tensor:
#      x y z
#    x 2.882360 0.000000 0.163290 
#    y 0.000000 3.467300 0.000000 
#    z 0.163290 0.000000 4.087120 
# 
# 
# High freq. dielectric constant tensor:
#      x y z
#    x 1.660580 0.000000 0.005220 
#    y 0.000000 1.734640 0.000000 
#    z 0.005220 0.000000 1.753820 
# 
# From -- ./inp_files/342503.got.cif
#   From: 2010.06.25/outbox.cif.g09.slc.cpg/sg12_172_cif.got.tgz:342503.got - 2010.06.28 00:19:55.
