data_PCOD8095523
_publ_section_title
;
Structure prediction by ZEFSAII (Michael W. Deem and Ramdas Pophale) SiO2 
 PCOD8095523
Probable space group: C 2/M
;
_chemical_formula_sum "Si O2"
_cell_formula_units_Z 52
_cell_length_a 5.204729
_cell_length_b 22.714356
_cell_length_c 21.198222
_cell_angle_alpha 90.000000
_cell_angle_beta 73.992145
_cell_angle_gamma 90.000000
_cell_volume 2408.920933
_symmetry_space_group_name_H-M "C 2/M"
_symmetry_group_IT_number 12
_symmetry_cell_setting 'monoclinic'
loop_
_space_group_symop_operation_xyz
x,y,z
-x,y,-z
-x,-y,-z
x,-y,z
1/2+x,1/2+y,z
1/2-x,1/2+y,-z
1/2-x,1/2-y,-z
1/2+x,1/2-y,z
loop_
_atom_site_type_symbol
_atom_site_label
_atom_site_fract_x
_atom_site_fract_y
_atom_site_fract_z
Si Si1 0.808030 0.281258 0.226781
Si Si2 0.162485 0.381993 0.217511
Si Si3 0.407966 0.429793 0.574083
Si Si4 0.153769 0.168312 0.118935
Si Si5 0.952045 0.567016 0.901141
Si Si6 0.823239 0.569776 0.648558
Si Si7 0.000000 0.140410 0.000000
O O1 0.000736 0.238464 0.255076
O O2 0.878146 0.347448 0.245572
O O3 0.844617 0.286088 0.145709
O O4 0.375841 0.333106 0.178183
O O5 0.135071 0.432471 0.166550
O O6 0.257238 0.409900 0.276238
O O7 0.500000 0.405351 0.500000
O O8 0.411854 0.500000 0.573634
O O9 0.607846 0.405058 0.613835
O O10 0.112914 0.405767 0.608992
O O11 0.270274 0.101823 0.110300
O O12 0.102848 0.183919 0.049065
O O13 0.993042 0.500000 0.920470
O O14 0.735042 0.598486 0.959721
O O15 0.823918 0.500000 0.647130
#
# Coordination Sequence:
#
# PCOD8095523 Si02
#       7
#     8   8   8   8   8   8   4
#     4  11  22  41  64  82 108 144 181 235 302 348
#     4  10  22  37  57  84 115 144 186 243 282 344
#     4   9  18  32  50  76 116 165 202 224 253 308
#     4  10  22  38  58  81 111 144 186 239 283 345
#     4  10  21  35  55  79 115 154 190 229 279 334
#     4  10  20  32  53  83 120 158 191 226 270 319
#     4  10  21  38  54  78 114 148 192 232 277 334
#
# _framework density 21.58643
#
# number of rings (size 3 to 8) (size 9 to 14) (size 15 to 20)
#    0.000    2.000    1.538    1.615    4.308    6.154 
#    0.000    0.769    0.000    0.000    0.000    0.000 
#    0.000   12.308    0.000    0.000    0.000    0.000 
#
# Total GULP energy -322101.852474 kJ/mol
# GULP energy per Si atom -12388.532787 kJ/mol
# Density = 2.153730 g / cm^3
# Si number density = 21.586430 Si / 1000 Ang^3
#
#
#
# Elastic Constant Matrix: (Units=GPa)
#
#
# Indices 1 2 3 4 5 6 
#
# 1 122.4356 3.0815 36.6828 0.0000 17.7348 0.0000
# 2 3.0815 7.2436 -11.7064 0.0000 -2.9522 0.0000
# 3 36.6828 -11.7064 124.7152 0.0000 16.8365 0.0000
# 4 0.0000 0.0000 0.0000 16.0454 0.0000 4.7746
# 5 17.7348 -2.9522 16.8365 0.0000 32.7219 0.0000
# 6 0.0000 0.0000 0.0000 4.7746 0.0000 24.5951
#
#
#
# Elastic Compliance Matrix: (Units=1/GPa)
#
#
# Indices 1 2 3 4 5 6 
#
# 1 0.010205 -0.011912 -0.003469 0.000000 -0.004821 0.000000
# 2 -0.011912 0.178300 0.018480 0.000000 0.013034 0.000000
# 3 -0.003469 0.018480 0.011063 0.000000 -0.002145 0.000000
# 4 0.000000 0.000000 0.000000 0.066144 0.000000 -0.012840
# 5 -0.004821 0.013034 -0.002145 0.000000 0.035453 0.000000
# 6 0.000000 0.000000 0.000000 -0.012840 0.000000 0.043151
#
#
# Mechanical properties :
#
#
# Convention : Reuss Voigt Hill
#
# Bulk Modulus (GPa) = 4.85990 34.50114 19.68052
# Shear Modulus (GPa) = 12.29390 29.76157 21.02774
#
# Velocity S-wave (km/s) = 2.38905 3.71714 3.12447
# Velocity P-wave (km/s) = 3.14107 5.86858 4.70673
#
# Compressibility (1/GPa) = 0.20576542
#
# Stress axis : x y z
#
# Youngs Moduli (GPa) = 97.99114 5.60854 90.39303
#
# Poissons Ratio (x) = 0.06681 0.31357
# Poissons Ratio (y) = 1.16730 -1.67049
# Poissons Ratio (z) = 0.33993 -0.10365
#
# Static dielectric constant tensor:
#      x y z
#    x 4.231170 0.000000 0.249420 
#    y 0.000000 3.504910 0.000000 
#    z 0.249420 0.000000 3.773610 
# 
# 
# High freq. dielectric constant tensor:
#      x y z
#    x 1.866570 0.000000 0.023860 
#    y 0.000000 1.807070 0.000000 
#    z 0.023860 0.000000 1.825280 
# 
# From -- ./inp_files/253461.got.cif
#   From: 2010.06.25/outbox.cif.g09.slc.cpg/sg12_127_cif.got.tgz:253461.got - 2010.06.28 00:19:55.
