data_PCOD8095019
_publ_section_title
;
Structure prediction by ZEFSAII (Michael W. Deem and Ramdas Pophale) SiO2 
 PCOD8095019
Probable space group: C 2/M
;
_chemical_formula_sum "Si O2"
_cell_formula_units_Z 64
_cell_length_a 18.574288
_cell_length_b 8.701723
_cell_length_c 20.384333
_cell_angle_alpha 90.000000
_cell_angle_beta 89.639514
_cell_angle_gamma 90.000000
_cell_volume 3294.620065
_symmetry_space_group_name_H-M "C 2/M"
_symmetry_group_IT_number 12
_symmetry_cell_setting 'monoclinic'
loop_
_space_group_symop_operation_xyz
x,y,z
-x,y,-z
-x,-y,-z
x,-y,z
1/2+x,1/2+y,z
1/2-x,1/2+y,-z
1/2-x,1/2-y,-z
1/2+x,1/2-y,z
loop_
_atom_site_type_symbol
_atom_site_label
_atom_site_fract_x
_atom_site_fract_y
_atom_site_fract_z
Si Si1 0.663687 0.177646 0.735482
Si Si2 0.670783 0.180935 0.504180
Si Si3 0.671366 0.682874 0.119447
Si Si4 0.420293 0.318694 0.999541
Si Si5 0.918168 0.182067 0.613946
Si Si6 0.084006 0.179668 0.621326
Si Si7 0.673200 0.317464 0.263596
Si Si8 0.166342 0.323234 0.886323
O O1 0.608892 0.282463 0.694816
O O2 0.745227 0.235870 0.721651
O O3 0.642719 0.199975 0.811371
O O4 0.655684 0.000000 0.714731
O O5 0.750000 0.250000 0.500000
O O6 0.620479 0.242337 0.447068
O O7 0.634627 0.224640 0.572920
O O8 0.677783 0.000000 0.498633
O O9 0.668237 0.500000 0.119818
O O10 0.648260 0.744332 0.191956
O O11 0.752458 0.735621 0.103982
O O12 0.620889 0.753764 0.063107
O O13 0.422701 0.500000 0.991241
O O14 0.383425 0.280067 0.068166
O O15 0.500000 0.247980 0.000000
O O16 0.880888 0.245351 0.680679
O O17 0.001364 0.231346 0.613262
O O18 0.909395 0.000000 0.608555
O O19 0.092518 0.000000 0.606427
O O20 0.672567 0.500000 0.261835
O O21 0.158614 0.500000 0.907439
#
# Coordination Sequence:
#
# PCOD8095019 Si02
#       8
#     8   8   8   8   8   8   8   8
#     4   9  18  34  56  79 103 138 185 228 268 322
#     4  12  25  41  62  84 110 146 187 231 276 323
#     4   8  15  30  51  74 100 133 176 219 262 318
#     4  10  20  31  47  74 105 135 171 219 273 330
#     4  10  21  37  58  85 115 146 181 221 269 328
#     4  11  23  37  56  85 118 148 181 224 272 325
#     4   8  15  31  55  77  99 135 179 220 264 317
#     4   9  18  33  53  74  99 137 182 224 267 318
#
# _framework density 19.425606999999999
#
# number of rings (size 3 to 8) (size 9 to 14) (size 15 to 20)
#    0.000    2.375    0.000    4.500    0.000    5.250 
#    0.000    2.500    0.000    2.250    0.000    0.000 
#    0.000    0.000    0.000    0.000    0.000    0.000 
#
# Total GULP energy -396788.718452 kJ/mol
# GULP energy per Si atom -12399.647452 kJ/mol
# Density = 1.938139 g / cm^3
# Si number density = 19.425607 Si / 1000 Ang^3
#
#
#
# Elastic Constant Matrix: (Units=GPa)
#
#
# Indices 1 2 3 4 5 6 
#
# 1 131.0518 26.1145 70.0593 0.0000 19.5378 0.0000
# 2 26.1145 25.2803 18.8830 0.0000 8.1218 0.0000
# 3 70.0593 18.8830 121.8715 0.0000 13.3264 0.0000
# 4 0.0000 0.0000 0.0000 29.1347 0.0000 -2.4340
# 5 19.5378 8.1218 13.3264 0.0000 23.9798 0.0000
# 6 0.0000 0.0000 0.0000 -2.4340 0.0000 17.7556
#
#
#
# Elastic Compliance Matrix: (Units=1/GPa)
#
#
# Indices 1 2 3 4 5 6 
#
# 1 0.012905 -0.007512 -0.005731 0.000000 -0.004785 0.000000
# 2 -0.007512 0.052623 -0.002721 0.000000 -0.010190 0.000000
# 3 -0.005731 -0.002721 0.012042 0.000000 -0.001101 0.000000
# 4 0.000000 0.000000 0.000000 0.034721 0.000000 0.004760
# 5 -0.004785 -0.010190 -0.001101 0.000000 0.049664 0.000000
# 6 0.000000 0.000000 0.000000 0.004760 0.000000 0.056973
#
#
# Mechanical properties :
#
#
# Convention : Reuss Voigt Hill
#
# Bulk Modulus (GPa) = 21.91010 56.47968 39.19489
# Shear Modulus (GPa) = 18.79209 25.05046 21.92127
#
# Velocity S-wave (km/s) = 3.11366 3.59494 3.36292
# Velocity P-wave (km/s) = 4.92239 6.80951 5.94135
#
# Compressibility (1/GPa) = 0.04564106
#
# Stress axis : x y z
#
# Youngs Moduli (GPa) = 77.49039 19.00313 83.04268
#
# Poissons Ratio (x) = 0.14276 0.47594
# Poissons Ratio (y) = 0.58215 0.22592
# Poissons Ratio (z) = 0.44412 0.05170
#
# Static dielectric constant tensor:
#      x y z
#    x 3.693220 0.000000 0.049370 
#    y 0.000000 3.176640 0.000000 
#    z 0.049370 0.000000 3.862030 
# 
# 
# High freq. dielectric constant tensor:
#      x y z
#    x 1.759290 0.000000 0.002550 
#    y 0.000000 1.722560 0.000000 
#    z 0.002550 0.000000 1.773190 
# 
# From -- ./inp_files/314019.got.cif
#   From: 2010.06.25/outbox.cif.g09.slc.cpg/sg12_158_cif.got.tgz:314019.got - 2010.06.28 00:19:55.
