data_PCOD8095050
_publ_section_title
;
Structure prediction by ZEFSAII (Michael W. Deem and Ramdas Pophale) SiO2 
 PCOD8095050
Probable space group: C 2/M
;
_chemical_formula_sum "Si O2"
_cell_formula_units_Z 48
_cell_length_a 15.730634
_cell_length_b 8.984381
_cell_length_c 29.102370
_cell_angle_alpha 90.000000
_cell_angle_beta 143.946283
_cell_angle_gamma 90.000000
_cell_volume 2420.701821
_symmetry_space_group_name_H-M "C 2/M"
_symmetry_group_IT_number 12
_symmetry_cell_setting 'monoclinic'
loop_
_space_group_symop_operation_xyz
x,y,z
-x,y,-z
-x,-y,-z
x,-y,z
1/2+x,1/2+y,z
1/2-x,1/2+y,-z
1/2-x,1/2-y,-z
1/2+x,1/2-y,z
loop_
_atom_site_type_symbol
_atom_site_label
_atom_site_fract_x
_atom_site_fract_y
_atom_site_fract_z
Si Si1 0.384145 0.325294 0.082574
Si Si2 0.131285 0.165109 0.361198
Si Si3 0.111429 0.178086 0.809850
Si Si4 0.807606 0.824702 0.821711
Si Si5 0.395215 0.334374 0.334378
Si Si6 0.567231 0.837950 0.481520
O O1 0.359373 0.500000 0.072254
O O2 0.391619 0.269074 0.138732
O O3 0.525098 0.283777 0.114249
O O4 0.250000 0.250000 0.000000
O O5 0.278470 0.247035 0.441916
O O6 0.038624 0.238202 0.278886
O O7 0.031158 0.157664 0.361157
O O8 0.179021 0.000000 0.366067
O O9 0.249133 0.245898 0.842607
O O10 0.120907 0.000000 0.808267
O O11 0.726664 0.769774 0.740730
O O12 0.784889 0.000000 0.817297
O O13 0.332107 0.500000 0.315347
O O14 0.452202 0.266085 0.406260
O O15 0.500000 0.874546 0.500000
O O16 0.588869 0.000000 0.465511
#
# Coordination Sequence:
#
# PCOD8095050 Si02
#       6
#     8   8   8   8   8   8
#     4  10  23  40  62  88 118 152 186 231 285 345
#     4   8  16  32  53  75 102 140 185 227 274 327
#     4   9  19  38  61  84 114 153 191 232 285 341
#     4  10  21  38  61  88 115 148 192 239 283 335
#     4  10  20  35  54  75 108 149 186 232 281 333
#     4  10  20  31  50  78 107 144 187 234 279 326
#
# _framework density 19.828959999999999
#
# number of rings (size 3 to 8) (size 9 to 14) (size 15 to 20)
#    0.000    2.500    0.000    2.500    2.333    3.000 
#    0.000    6.667    0.000    0.000    0.000    0.000 
#    0.000    0.000    0.000    0.000    0.000    0.000 
#
# Total GULP energy -297388.517536 kJ/mol
# GULP energy per Si atom -12391.188231 kJ/mol
# Density = 1.978383 g / cm^3
# Si number density = 19.828960 Si / 1000 Ang^3
#
#
#
# Elastic Constant Matrix: (Units=GPa)
#
#
# Indices 1 2 3 4 5 6 
#
# 1 56.4473 26.4280 29.0152 0.0000 0.0945 0.0000
# 2 26.4280 51.9901 23.0260 0.0000 2.8947 0.0000
# 3 29.0152 23.0260 78.6216 0.0001 6.2303 0.0000
# 4 0.0000 0.0000 0.0001 1.3525 0.0000 16.9124
# 5 0.0945 2.8947 6.2303 0.0000 37.6230 0.0000
# 6 0.0000 0.0000 0.0000 16.9124 0.0000 15.6551
#
#
#
# Elastic Compliance Matrix: (Units=1/GPa)
#
#
# Indices 1 2 3 4 5 6 
#
# 1 0.026009 -0.010351 -0.006713 0.000000 0.001843 0.000000
# 2 -0.010351 0.026235 -0.003755 0.000000 -0.001371 0.000000
# 3 -0.006713 -0.003755 0.016489 0.000000 -0.002425 0.000000
# 4 0.000000 0.000000 0.000000 -0.059109 0.000000 0.063855
# 5 0.001843 -0.001371 -0.002425 0.000000 0.027082 0.000000
# 6 0.000000 0.000000 0.000000 0.063855 0.000000 -0.005107
#
#
# Mechanical properties :
#
#
# Convention : Reuss Voigt Hill
#
# Bulk Modulus (GPa) = 36.90682 38.22192 37.56437
# Shear Modulus (GPa) = 60.77566 18.16545 39.47056
#
# Velocity S-wave (km/s) = 5.54225 3.03001 4.46640
# Velocity P-wave (km/s) = 7.72064 5.61773 6.75156
#
# Compressibility (1/GPa) = 0.02709526
#
# Stress axis : x y z
#
# Youngs Moduli (GPa) = 38.44764 38.11659 60.64800
#
# Poissons Ratio (x) = 0.39453 0.40715
# Poissons Ratio (y) = 0.39796 0.22774
# Poissons Ratio (z) = 0.25811 0.14313
#
# Static dielectric constant tensor:
#      x y z
#    x 3.588560 0.000000 0.023950 
#    y 0.000000 3.573660 0.000000 
#    z 0.023950 0.000000 3.869750 
# 
# 
# High freq. dielectric constant tensor:
#      x y z
#    x 1.771550 0.000000 0.004230 
#    y 0.000000 1.750860 0.000000 
#    z 0.004230 0.000000 1.778420 
# 
# From -- ./inp_files/360213.got.cif
#   From: 2010.06.25/outbox.cif.g09.slc.cpg/sg12_181_cif.got.tgz:360213.got - 2010.06.28 00:19:55.
