data_PCOD8095912
_publ_section_title
;
Structure prediction by ZEFSAII (Michael W. Deem and Ramdas Pophale) SiO2 
 PCOD8095912
Probable space group: C 2/M
;
_chemical_formula_sum "Si O2"
_cell_formula_units_Z 64
_cell_length_a 19.417834
_cell_length_b 14.157271
_cell_length_c 27.798640
_cell_angle_alpha 90.000000
_cell_angle_beta 156.265062
_cell_angle_gamma 90.000000
_cell_volume 3075.928949
_symmetry_space_group_name_H-M "C 2/M"
_symmetry_group_IT_number 12
_symmetry_cell_setting 'monoclinic'
loop_
_space_group_symop_operation_xyz
x,y,z
-x,y,-z
-x,-y,-z
x,-y,z
1/2+x,1/2+y,z
1/2-x,1/2+y,-z
1/2-x,1/2-y,-z
1/2+x,1/2-y,z
loop_
_atom_site_type_symbol
_atom_site_label
_atom_site_fract_x
_atom_site_fract_y
_atom_site_fract_z
Si Si1 0.654149 0.603887 0.878791
Si Si2 0.662770 0.891953 0.132244
Si Si3 0.172029 0.101344 0.004214
Si Si4 0.204263 0.110957 0.389844
Si Si5 0.458664 0.110297 0.775070
Si Si6 0.463713 0.392271 0.620624
Si Si7 0.382134 0.709140 0.472378
Si Si8 0.516817 0.791132 0.909916
O O1 0.670425 0.500000 0.865679
O O2 0.680038 0.599692 0.951993
O O3 0.468146 0.644238 0.747290
O O4 0.810206 0.663456 0.956510
O O5 0.655491 0.831232 0.176677
O O6 0.854507 0.878799 0.234202
O O7 0.624463 0.000000 0.120575
O O8 0.500000 0.849140 0.000000
O O9 0.036050 0.179794 0.933068
O O10 0.105993 0.000000 0.981586
O O11 0.369409 0.118009 0.148141
O O12 0.183042 0.130316 0.433822
O O13 0.348894 0.178911 0.459766
O O14 0.247824 0.000000 0.408018
O O15 0.290107 0.146627 0.640391
O O16 0.495626 0.184748 0.840835
O O17 0.434300 0.000000 0.775807
O O18 0.446589 0.500000 0.591853
O O19 0.469061 0.327337 0.576946
O O20 0.500000 0.695962 0.500000
#
# Coordination Sequence:
#
# PCOD8095912 Si02
#       8
#     8   8   8   8   8   8   8   8
#     4   9  16  28  50  78 104 133 172 219 269 320
#     4  10  20  33  52  80 107 131 167 220 278 328
#     4   9  18  30  47  75 108 141 180 222 264 318
#     4  10  21  39  60  80 107 146 190 231 272 324
#     4  10  20  33  50  76 109 143 178 219 271 329
#     4  10  22  39  58  81 111 146 184 227 275 330
#     4  12  24  37  56  82 113 147 184 229 279 330
#     4  11  17  28  50  75 107 140 173 216 272 327
#
# _framework density 20.806723000000002
#
# number of rings (size 3 to 8) (size 9 to 14) (size 15 to 20)
#    0.000    1.875    0.000    7.125    0.000    4.250 
#    0.000    0.000    0.000    2.625    0.000    0.000 
#    0.000    0.000    0.000    0.000    0.000    0.000 
#
# Total GULP energy -396434.932923 kJ/mol
# GULP energy per Si atom -12388.591654 kJ/mol
# Density = 2.075937 g / cm^3
# Si number density = 20.806723 Si / 1000 Ang^3
#
#
#
# Elastic Constant Matrix: (Units=GPa)
#
#
# Indices 1 2 3 4 5 6 
#
# 1 46.0301 14.4944 13.0078 -0.0053 5.6309 -0.0044
# 2 14.4944 98.6683 28.8429 0.0015 9.3823 -0.0055
# 3 13.0078 28.8429 75.1916 -0.0097 -7.2055 -0.0090
# 4 -0.0053 0.0015 -0.0097 27.4954 0.0035 0.0344
# 5 5.6309 9.3823 -7.2055 0.0035 20.1479 0.0016
# 6 -0.0044 -0.0055 -0.0090 0.0344 0.0016 24.2274
#
#
#
# Elastic Compliance Matrix: (Units=1/GPa)
#
#
# Indices 1 2 3 4 5 6 
#
# 1 0.024385 -0.001588 -0.004340 0.000004 -0.007628 0.000003
# 2 -0.001588 0.012600 -0.005258 -0.000002 -0.007304 0.000001
# 3 -0.004340 -0.005258 0.017001 0.000004 0.009742 0.000004
# 4 0.000004 -0.000002 0.000004 0.036370 -0.000005 -0.000052
# 5 -0.007628 -0.007304 0.009742 -0.000005 0.058650 -0.000003
# 6 0.000003 0.000001 0.000004 -0.000052 -0.000003 0.041276
#
#
# Mechanical properties :
#
#
# Convention : Reuss Voigt Hill
#
# Bulk Modulus (GPa) = 31.63361 36.95335 34.29348
# Shear Modulus (GPa) = 22.40227 25.27714 23.83971
#
# Velocity S-wave (km/s) = 3.28485 3.48926 3.38859
# Velocity P-wave (km/s) = 5.44275 5.83370 5.64161
#
# Compressibility (1/GPa) = 0.03161194
#
# Stress axis : x y z
#
# Youngs Moduli (GPa) = 41.00951 79.36526 58.82065
#
# Poissons Ratio (x) = 0.12604 0.25529
# Poissons Ratio (y) = 0.06513 0.30931
# Poissons Ratio (z) = 0.17799 0.41734
#
# Static dielectric constant tensor:
#      x y z
#    x 3.481320 -0.000010 0.013110 
#    y -0.000010 3.910230 -0.000020 
#    z 0.013110 -0.000020 3.819000 
# 
# 
# High freq. dielectric constant tensor:
#      x y z
#    x 1.781760 0.000000 -0.005830 
#    y 0.000000 1.814050 0.000000 
#    z -0.005830 0.000000 1.808510 
# 
# From -- ./inp_files/381502.got.cif
#   From: 2010.06.25/outbox.cif.g09.slc.cpg/sg12_191_cif.got.tgz:381502.got - 2010.06.28 00:19:55.
