data_PCOD8095336
_publ_section_title
;
Structure prediction by ZEFSAII (Michael W. Deem and Ramdas Pophale) SiO2 
 PCOD8095336
Probable space group: C 2/M
;
_chemical_formula_sum "Si O2"
_cell_formula_units_Z 48
_cell_length_a 24.793937
_cell_length_b 9.170658
_cell_length_c 17.530466
_cell_angle_alpha 90.000000
_cell_angle_beta 134.991045
_cell_angle_gamma 90.000000
_cell_volume 2818.982119
_symmetry_space_group_name_H-M "C 2/M"
_symmetry_group_IT_number 12
_symmetry_cell_setting 'monoclinic'
loop_
_space_group_symop_operation_xyz
x,y,z
-x,y,-z
-x,-y,-z
x,-y,z
1/2+x,1/2+y,z
1/2-x,1/2+y,-z
1/2-x,1/2-y,-z
1/2+x,1/2-y,z
loop_
_atom_site_type_symbol
_atom_site_label
_atom_site_fract_x
_atom_site_fract_y
_atom_site_fract_z
Si Si1 0.188965 0.831681 0.888440
Si Si2 0.803010 0.665176 0.878173
Si Si3 0.575147 0.334833 0.272330
Si Si4 0.422525 0.169557 0.130805
Si Si5 0.199547 0.168321 0.510653
Si Si6 0.708123 0.669545 0.285600
O O1 0.218235 0.817540 0.830432
O O2 0.107529 0.755356 0.823630
O O3 0.184595 0.000000 0.908684
O O4 0.250000 0.750000 0.000000
O O5 0.813809 0.500000 0.859277
O O6 0.812860 0.777029 0.819409
O O7 0.867940 0.702777 0.004783
O O8 0.545419 0.500000 0.231863
O O9 0.506568 0.222927 0.193967
O O10 0.612261 0.317525 0.394192
O O11 0.636757 0.297320 0.268922
O O12 0.424370 0.000000 0.152672
O O13 0.250000 0.250000 0.500000
O O14 0.216257 0.244629 0.608801
O O15 0.224153 0.000000 0.539592
O O16 0.728168 0.500000 0.303734
#
# Coordination Sequence:
#
# PCOD8095336 Si02
#       6
#     8   8   8   8   8   8
#     4   9  17  31  50  70  94 125 162 200 237 282
#     4   9  19  33  48  70  98 128 160 194 238 287
#     4   9  19  33  48  70  98 128 160 194 238 287
#     4  10  20  32  49  73  98 128 163 198 240 285
#     4   9  17  31  50  70  94 125 162 200 237 282
#     4  10  20  32  49  73  98 128 163 198 240 285
#
# _framework density 17.027422999999999
#
# number of rings (size 3 to 8) (size 9 to 14) (size 15 to 20)
#    0.000    2.667    0.000    4.000    0.000    8.667 
#    0.000    3.333    0.000    1.000    0.000    7.000 
#    0.000    0.000    0.000    0.000    0.000    0.000 
#
# Total GULP energy -297460.197345 kJ/mol
# GULP energy per Si atom -12394.174889 kJ/mol
# Density = 1.698867 g / cm^3
# Si number density = 17.027423 Si / 1000 Ang^3
#
#
#
# Elastic Constant Matrix: (Units=GPa)
#
#
# Indices 1 2 3 4 5 6 
#
# 1 73.1978 56.5299 43.4278 0.0000 1.8443 0.0000
# 2 56.5299 132.1021 56.5964 0.0000 0.1181 0.0000
# 3 43.4278 56.5964 73.3370 0.0000 -1.6154 0.0000
# 4 0.0000 0.0000 0.0000 31.9805 0.0000 0.0106
# 5 1.8443 0.1181 -1.6154 0.0000 2.1994 0.0000
# 6 0.0000 0.0000 0.0000 0.0106 0.0000 31.9786
#
#
#
# Elastic Compliance Matrix: (Units=1/GPa)
#
#
# Indices 1 2 3 4 5 6 
#
# 1 0.025840 -0.006271 -0.011112 0.000000 -0.029492 0.000000
# 2 -0.006271 0.012942 -0.006275 0.000000 -0.000046 0.000000
# 3 -0.011112 -0.006275 0.025687 0.000000 0.028521 0.000000
# 4 0.000000 0.000000 0.000000 0.031269 0.000000 -0.000010
# 5 -0.029492 -0.000046 0.028521 0.000000 0.500345 0.000000
# 6 0.000000 0.000000 0.000000 -0.000010 0.000000 0.031271
#
#
# Mechanical properties :
#
#
# Convention : Reuss Voigt Hill
#
# Bulk Modulus (GPa) = 58.29931 65.74944 62.02438
# Shear Modulus (GPa) = 7.34875 21.37057 14.35966
#
# Velocity S-wave (km/s) = 2.07971 3.54654 2.90716
# Velocity P-wave (km/s) = 6.33086 7.44770 6.91187
#
# Compressibility (1/GPa) = 0.01715286
#
# Stress axis : x y z
#
# Youngs Moduli (GPa) = 38.69948 77.26891 38.93001
#
# Poissons Ratio (x) = 0.48451 0.43260
# Poissons Ratio (y) = 0.24267 0.24430
# Poissons Ratio (z) = 0.43004 0.48489
#
# Static dielectric constant tensor:
#      x y z
#    x 3.427930 0.000000 0.000160 
#    y 0.000000 3.384330 0.000000 
#    z 0.000160 0.000000 3.430060 
# 
# 
# High freq. dielectric constant tensor:
#      x y z
#    x 1.636680 0.000000 0.000030 
#    y 0.000000 1.675020 0.000000 
#    z 0.000030 0.000000 1.636700 
# 
# From -- ./inp_files/280788.got.cif
#   From: 2010.06.25/outbox.cif.g09.slc.cpg/sg12_141_cif.got.tgz:280788.got - 2010.06.28 00:19:55.
