data_PCOD8095042
_publ_section_title
;
Structure prediction by ZEFSAII (Michael W. Deem and Ramdas Pophale) SiO2 
 PCOD8095042
Probable space group: C 2/M
;
_chemical_formula_sum "Si O2"
_cell_formula_units_Z 40
_cell_length_a 16.599914
_cell_length_b 13.919468
_cell_length_c 16.718425
_cell_angle_alpha 90.000000
_cell_angle_beta 30.781605
_cell_angle_gamma 90.000000
_cell_volume 1976.952209
_symmetry_space_group_name_H-M "C 2/M"
_symmetry_group_IT_number 12
_symmetry_cell_setting 'monoclinic'
loop_
_space_group_symop_operation_xyz
x,y,z
-x,y,-z
-x,-y,-z
x,-y,z
1/2+x,1/2+y,z
1/2-x,1/2+y,-z
1/2-x,1/2-y,-z
1/2+x,1/2-y,z
loop_
_atom_site_type_symbol
_atom_site_label
_atom_site_fract_x
_atom_site_fract_y
_atom_site_fract_z
Si Si1 0.785574 0.610004 0.503988
Si Si2 0.136248 0.389945 0.039220
Si Si3 0.159248 0.606854 0.194443
Si Si4 0.813045 0.721997 0.149442
Si Si5 0.811349 0.709791 0.325305
O O1 0.733826 0.500000 0.562064
O O2 0.728585 0.643893 0.463750
O O3 0.702508 0.677281 0.640446
O O4 0.972469 0.623957 0.351011
O O5 0.078631 0.500000 0.077147
O O6 0.228817 0.379670 0.044503
O O7 0.993122 0.316511 0.164852
O O8 0.236874 0.356853 0.875600
O O9 0.195218 0.500000 0.194624
O O10 0.243158 0.675847 0.184699
O O11 0.736871 0.693018 0.300319
O O12 0.000000 0.730407 0.000000
#
# Coordination Sequence:
#
# PCOD8095042 Si02
#       5
#     8   8   8   8   8
#     4   9  18  34  54  73  98 135 171 202 244 296
#     4   9  18  34  55  75  98 133 169 201 247 301
#     4   9  18  33  52  73 101 136 169 201 242 297
#     4  10  20  31  49  78 104 129 164 210 252 290
#     4   9  18  31  50  78  99 124 166 208 248 290
#
# _framework density 20.233166000000001
#
# number of rings (size 3 to 8) (size 9 to 14) (size 15 to 20)
#    0.000    2.800    0.000    2.400    0.000    6.400 
#    0.000    5.000    0.000   16.800    0.000   36.400 
#    0.000    0.000    0.000    0.000    0.000    0.000 
#
# Total GULP energy -247802.195384 kJ/mol
# GULP energy per Si atom -12390.109769 kJ/mol
# Density = 2.018711 g / cm^3
# Si number density = 20.233166 Si / 1000 Ang^3
#
#
#
# Elastic Constant Matrix: (Units=GPa)
#
#
# Indices 1 2 3 4 5 6 
#
# 1 59.0502 12.9106 18.3343 -0.0016 17.2368 -0.0001
# 2 12.9106 96.8638 24.6101 -0.0012 0.5610 -0.0001
# 3 18.3343 24.6101 45.0065 -0.0019 24.5461 -0.0003
# 4 -0.0016 -0.0012 -0.0019 22.9388 0.0012 -7.3993
# 5 17.2368 0.5610 24.5461 0.0012 26.5118 0.0002
# 6 -0.0001 -0.0001 -0.0003 -7.3993 0.0002 26.6100
#
#
#
# Elastic Compliance Matrix: (Units=1/GPa)
#
#
# Indices 1 2 3 4 5 6 
#
# 1 0.021652 -0.003051 0.000990 0.000003 -0.014930 0.000001
# 2 -0.003051 0.014554 -0.015411 -0.000002 0.015944 -0.000001
# 3 0.000990 -0.015411 0.061440 0.000009 -0.057203 0.000003
# 4 0.000003 -0.000002 0.000009 0.047890 -0.000012 0.013316
# 5 -0.014930 0.015944 -0.057203 -0.000012 0.100050 -0.000005
# 6 0.000001 -0.000001 0.000003 0.013316 -0.000005 0.041283
#
#
# Mechanical properties :
#
#
# Convention : Reuss Voigt Hill
#
# Bulk Modulus (GPa) = 15.94815 34.73671 25.34243
# Shear Modulus (GPa) = 14.58952 24.88317 19.73634
#
# Velocity S-wave (km/s) = 2.68819 3.51068 3.12660
# Velocity P-wave (km/s) = 4.18741 5.79989 5.05832
#
# Compressibility (1/GPa) = 0.06270318
#
# Stress axis : x y z
#
# Youngs Moduli (GPa) = 46.18432 68.71196 16.27601
#
# Poissons Ratio (x) = 0.20965 -0.01612
# Poissons Ratio (y) = 0.14092 0.25083
# Poissons Ratio (z) = -0.04575 1.05890
#
# Static dielectric constant tensor:
#      x y z
#    x 3.879860 0.000000 0.683450 
#    y 0.000000 3.723660 0.000000 
#    z 0.683450 0.000000 3.693060 
# 
# 
# High freq. dielectric constant tensor:
#      x y z
#    x 1.781130 0.000000 0.038670 
#    y 0.000000 1.794180 0.000000 
#    z 0.038670 0.000000 1.760890 
# 
# From -- ./inp_files/85510.got.cif
#   From: 2010.06.25/outbox.cif.g09.slc.cpg/sg12_43_cif.got.tgz:85510.got - 2010.06.28 00:19:55.
