data_PCOD8095924
_publ_section_title
;
Structure prediction by ZEFSAII (Michael W. Deem and Ramdas Pophale) SiO2 
 PCOD8095924
Probable space group: C 2/M
;
_chemical_formula_sum "Si O2"
_cell_formula_units_Z 56
_cell_length_a 18.540152
_cell_length_b 14.395794
_cell_length_c 19.023026
_cell_angle_alpha 90.000000
_cell_angle_beta 143.072253
_cell_angle_gamma 90.000000
_cell_volume 3050.449258
_symmetry_space_group_name_H-M "C 2/M"
_symmetry_group_IT_number 12
_symmetry_cell_setting 'monoclinic'
loop_
_space_group_symop_operation_xyz
x,y,z
-x,y,-z
-x,-y,-z
x,-y,z
1/2+x,1/2+y,z
1/2-x,1/2+y,-z
1/2-x,1/2-y,-z
1/2+x,1/2-y,z
loop_
_atom_site_type_symbol
_atom_site_label
_atom_site_fract_x
_atom_site_fract_y
_atom_site_fract_z
Si Si1 0.168841 0.749364 0.004575
Si Si2 0.012078 0.107193 0.088684
Si Si3 0.132242 0.684591 0.755146
Si Si4 0.958949 0.603379 0.172293
Si Si5 0.213192 0.394885 0.676812
Si Si6 0.217086 0.608259 0.430897
Si Si7 0.125953 0.273825 0.487195
O O1 0.256352 0.745280 0.141145
O O2 0.250000 0.750000 0.000000
O O3 0.082122 0.660897 0.928384
O O4 0.083516 0.839581 0.937759
O O5 0.145399 0.124101 0.221843
O O6 0.975873 0.000000 0.063190
O O7 0.000000 0.145411 0.000000
O O8 0.107587 0.627365 0.806758
O O9 0.173392 0.614092 0.726716
O O10 0.013854 0.740353 0.639846
O O11 0.924016 0.500000 0.125629
O O12 0.101001 0.616174 0.291534
O O13 0.181729 0.500000 0.628277
O O14 0.140423 0.318877 0.575331
O O15 0.257043 0.500000 0.470691
O O16 0.191147 0.652536 0.486786
O O17 0.319738 0.670129 0.473880
#
# Coordination Sequence:
#
# PCOD8095924 Si02
#       7
#     8   8   8   8   8   8   8
#     4  10  20  34  53  78 108 145 184 224 270 327
#     4  10  20  35  55  80 109 143 179 223 280 333
#     4  10  20  33  50  77 114 147 175 219 281 333
#     4   9  18  33  55  78 103 140 188 230 271 321
#     4  11  21  33  54  82 112 143 177 221 279 335
#     4   9  18  35  56  76 104 141 181 228 275 320
#     4  10  20  33  52  81 110 140 181 223 268 330
#
# _framework density 18.357952000000001
#
# number of rings (size 3 to 8) (size 9 to 14) (size 15 to 20)
#    0.000    2.143    1.429    2.143    0.000    5.714 
#    0.000    0.714    0.000    3.000    0.000    0.000 
#    0.000    0.000    0.000    0.000    0.000    0.000 
#
# Total GULP energy -347092.152768 kJ/mol
# GULP energy per Si atom -12396.148313 kJ/mol
# Density = 1.831617 g / cm^3
# Si number density = 18.357952 Si / 1000 Ang^3
#
#
#
# Elastic Constant Matrix: (Units=GPa)
#
#
# Indices 1 2 3 4 5 6 
#
# 1 65.6569 40.5987 26.8366 0.0000 13.5084 0.0000
# 2 40.5987 128.1446 63.2222 0.0000 7.6334 0.0000
# 3 26.8366 63.2222 112.3591 0.0000 8.2904 0.0000
# 4 0.0000 0.0000 0.0000 24.2697 0.0000 -5.2026
# 5 13.5084 7.6334 8.2904 0.0000 24.9084 0.0000
# 6 0.0000 0.0000 0.0000 -5.2026 0.0000 26.7569
#
#
#
# Elastic Compliance Matrix: (Units=1/GPa)
#
#
# Indices 1 2 3 4 5 6 
#
# 1 0.021060 -0.005502 -0.001247 0.000000 -0.009320 0.000000
# 2 -0.005502 0.012282 -0.005679 0.000000 0.001110 0.000000
# 3 -0.001247 -0.005679 0.012522 0.000000 -0.001752 0.000000
# 4 0.000000 0.000000 0.000000 0.042996 0.000000 0.008360
# 5 -0.009320 0.001110 -0.001752 0.000000 0.045444 0.000000
# 6 0.000000 0.000000 0.000000 0.008360 0.000000 0.038999
#
#
# Mechanical properties :
#
#
# Convention : Reuss Voigt Hill
#
# Bulk Modulus (GPa) = 47.59643 63.05285 55.32464
# Shear Modulus (GPa) = 24.37097 26.88720 25.62908
#
# Velocity S-wave (km/s) = 3.64750 3.83117 3.74046
# Velocity P-wave (km/s) = 6.61227 7.34788 6.98976
#
# Compressibility (1/GPa) = 0.02100998
#
# Stress axis : x y z
#
# Youngs Moduli (GPa) = 47.48359 81.41687 79.85695
#
# Poissons Ratio (x) = 0.44796 0.09954
# Poissons Ratio (y) = 0.26125 0.45350
# Poissons Ratio (z) = 0.05919 0.46236
#
# Static dielectric constant tensor:
#      x y z
#    x 3.246140 0.000000 0.124330 
#    y 0.000000 3.422870 0.000000 
#    z 0.124330 0.000000 3.800090 
# 
# 
# High freq. dielectric constant tensor:
#      x y z
#    x 1.694830 0.000000 0.013450 
#    y 0.000000 1.692300 0.000000 
#    z 0.013450 0.000000 1.725420 
# 
# From -- ./inp_files/155990.got.cif
#   From: 2010.06.25/outbox.cif.g09.slc.cpg/sg12_78_cif.got.tgz:155990.got - 2010.06.28 00:19:55.
