data_PCOD8095984
_publ_section_title
;
Structure prediction by ZEFSAII (Michael W. Deem and Ramdas Pophale) SiO2 
 PCOD8095984
Probable space group: C 2/M
;
_chemical_formula_sum "Si O2"
_cell_formula_units_Z 64
_cell_length_a 14.102068
_cell_length_b 9.016671
_cell_length_c 30.761792
_cell_angle_alpha 90.000000
_cell_angle_beta 115.457813
_cell_angle_gamma 90.000000
_cell_volume 3531.679518
_symmetry_space_group_name_H-M "C 2/M"
_symmetry_group_IT_number 12
_symmetry_cell_setting 'monoclinic'
loop_
_space_group_symop_operation_xyz
x,y,z
-x,y,-z
-x,-y,-z
x,-y,z
1/2+x,1/2+y,z
1/2-x,1/2+y,-z
1/2-x,1/2-y,-z
1/2+x,1/2-y,z
loop_
_atom_site_type_symbol
_atom_site_label
_atom_site_fract_x
_atom_site_fract_y
_atom_site_fract_z
Si Si1 0.537538 0.327082 0.879784
Si Si2 0.238213 0.326529 0.879948
Si Si3 0.272611 0.174357 0.620221
Si Si4 0.947055 0.328898 0.943157
Si Si5 0.998013 0.674131 0.634112
Si Si6 0.699749 0.326688 0.700578
Si Si7 0.570741 0.825828 0.553439
Si Si8 0.688818 0.667506 0.201285
O O1 0.563662 0.500000 0.891415
O O2 0.630251 0.245169 0.873411
O O3 0.521625 0.254447 0.923707
O O4 0.434151 0.304825 0.830391
O O5 0.241183 0.500000 0.892230
O O6 0.333403 0.247193 0.923593
O O7 0.248065 0.300848 0.830437
O O8 0.385321 0.234757 0.627123
O O9 0.257453 0.219935 0.667415
O O10 0.184143 0.249406 0.572940
O O11 0.263759 0.000000 0.611415
O O12 0.934175 0.500000 0.926624
O O13 0.000000 0.313671 0.000000
O O14 0.006956 0.500000 0.643398
O O15 0.086582 0.749011 0.681410
O O16 0.012975 0.717947 0.586764
O O17 0.680379 0.500000 0.699043
O O18 0.772756 0.279707 0.754651
O O19 0.500000 0.765884 0.500000
O O20 0.588761 0.000000 0.553154
O O21 0.709170 0.500000 0.221145
#
# Coordination Sequence:
#
# PCOD8095984 Si02
#       8
#     8   8   8   8   8   8   8   8
#     4  10  21  37  57  81 109 141 177 218 264 315
#     4  10  21  37  57  80 107 140 177 218 263 314
#     4   9  19  34  50  71  98 130 167 203 246 299
#     4  10  21  37  57  81 109 142 180 221 264 311
#     4   9  18  34  52  69  98 135 165 202 252 303
#     4  10  20  33  51  75 100 128 167 211 250 296
#     4   9  18  32  50  73  99 128 164 205 250 299
#     4   9  20  37  54  75 104 137 171 208 257 311
#
# _framework density 18.121689
#
# number of rings (size 3 to 8) (size 9 to 14) (size 15 to 20)
#    0.000    2.500    0.000    2.250    0.000    7.250 
#    0.000    3.750    0.000    0.000    0.000    0.000 
#    0.000    0.000    0.000    0.000    0.000    0.000 
#
# Total GULP energy -396901.882750 kJ/mol
# GULP energy per Si atom -12403.183836 kJ/mol
# Density = 1.808044 g / cm^3
# Si number density = 18.121689 Si / 1000 Ang^3
#
#
#
# Elastic Constant Matrix: (Units=GPa)
#
#
# Indices 1 2 3 4 5 6 
#
# 1 120.4752 23.3708 40.0972 0.0000 9.1130 0.0000
# 2 23.3708 50.9358 41.6794 0.0000 3.1217 0.0000
# 3 40.0972 41.6794 101.2956 0.0000 8.1539 0.0000
# 4 0.0000 0.0000 0.0000 31.8555 0.0000 4.2619
# 5 9.1130 3.1217 8.1539 0.0000 14.1142 0.0000
# 6 0.0000 0.0000 0.0000 4.2619 0.0000 33.6823
#
#
#
# Elastic Compliance Matrix: (Units=1/GPa)
#
#
# Indices 1 2 3 4 5 6 
#
# 1 0.009941 -0.002052 -0.002738 0.000000 -0.004383 0.000000
# 2 -0.002052 0.030025 -0.011656 0.000000 0.001418 0.000000
# 3 -0.002738 -0.011656 0.016153 0.000000 -0.004986 0.000000
# 4 0.000000 0.000000 0.000000 0.031932 0.000000 -0.004040
# 5 -0.004383 0.001418 -0.004986 0.000000 0.076247 0.000000
# 6 0.000000 0.000000 0.000000 -0.004040 0.000000 0.030200
#
#
# Mechanical properties :
#
#
# Convention : Reuss Voigt Hill
#
# Bulk Modulus (GPa) = 43.05299 53.66684 48.35992
# Shear Modulus (GPa) = 21.26440 27.10101 24.18271
#
# Velocity S-wave (km/s) = 3.42924 3.87137 3.65699
# Velocity P-wave (km/s) = 6.28402 7.04715 6.67650
#
# Compressibility (1/GPa) = 0.02322719
#
# Stress axis : x y z
#
# Youngs Moduli (GPa) = 100.58938 33.30547 61.90707
#
# Poissons Ratio (x) = 0.06836 0.16950
# Poissons Ratio (y) = 0.20645 0.72159
# Poissons Ratio (z) = 0.27541 0.38821
#
# Static dielectric constant tensor:
#      x y z
#    x 3.462980 0.000000 0.026830 
#    y 0.000000 3.393240 0.000000 
#    z 0.026830 0.000000 3.284470 
# 
# 
# High freq. dielectric constant tensor:
#      x y z
#    x 1.706160 0.000000 0.004170 
#    y 0.000000 1.708030 0.000000 
#    z 0.004170 0.000000 1.699770 
# 
# From -- ./inp_files/375116.got.cif
#   From: 2010.06.25/outbox.cif.g09.slc.cpg/sg12_188_cif.got.tgz:375116.got - 2010.06.28 00:19:55.
