data_PCOD8095548
_publ_section_title
;
Structure prediction by ZEFSAII (Michael W. Deem and Ramdas Pophale) SiO2 
 PCOD8095548
Probable space group: C 2/M
;
_chemical_formula_sum "Si O2"
_cell_formula_units_Z 64
_cell_length_a 8.768517
_cell_length_b 21.825565
_cell_length_c 22.138136
_cell_angle_alpha 90.000000
_cell_angle_beta 56.095723
_cell_angle_gamma 90.000000
_cell_volume 3516.376982
_symmetry_space_group_name_H-M "C 2/M"
_symmetry_group_IT_number 12
_symmetry_cell_setting 'monoclinic'
loop_
_space_group_symop_operation_xyz
x,y,z
-x,y,-z
-x,-y,-z
x,-y,z
1/2+x,1/2+y,z
1/2-x,1/2+y,-z
1/2-x,1/2-y,-z
1/2+x,1/2-y,z
loop_
_atom_site_type_symbol
_atom_site_label
_atom_site_fract_x
_atom_site_fract_y
_atom_site_fract_z
Si Si1 0.828585 0.431061 0.826470
Si Si2 0.361129 0.767698 0.581561
Si Si3 0.643441 0.154537 0.754997
Si Si4 0.450174 0.735090 0.835093
Si Si5 0.839239 0.568496 0.681824
Si Si6 0.418079 0.822766 0.365775
Si Si7 0.954043 0.155346 0.302533
Si Si8 0.399488 0.319247 0.085198
O O1 0.808356 0.500000 0.856362
O O2 0.798622 0.430254 0.761518
O O3 0.679277 0.387922 0.891428
O O4 0.032961 0.406676 0.797988
O O5 0.500000 0.792810 0.500000
O O6 0.449583 0.773879 0.628715
O O7 0.295826 0.698103 0.577553
O O8 0.171023 0.805598 0.623608
O O9 0.605221 0.211368 0.808016
O O10 0.552095 0.179643 0.712598
O O11 0.858128 0.137354 0.704286
O O12 0.495748 0.692229 0.768483
O O13 0.454832 0.692788 0.893568
O O14 0.254801 0.767623 0.874026
O O15 0.879722 0.500000 0.649638
O O16 0.657975 0.593961 0.689027
O O17 0.021285 0.609510 0.624875
O O18 0.500000 0.312741 0.000000
#
# Coordination Sequence:
#
# PCOD8095548 Si02
#       8
#     8   8   8   8   8   8   8   8
#     4   9  19  35  54  78 108 142 182 225 271 318
#     4  11  22  33  51  85 121 144 177 221 279 338
#     4  10  20  32  55  82 106 142 180 232 267 317
#     4  11  20  34  53  80 109 138 179 219 269 326
#     4   9  19  35  55  79 103 139 189 232 266 317
#     4  10  20  33  53  78 113 144 177 221 275 322
#     4  11  20  33  58  79 109 145 180 225 274 324
#     4  11  22  35  54  80 112 144 176 222 274 328
#
# _framework density 18.200551000000001
#
# number of rings (size 3 to 8) (size 9 to 14) (size 15 to 20)
#    0.000    1.750    3.750    1.500    3.500    0.750 
#    0.000    0.000    0.000    6.375    0.000    6.125 
#    0.000    0.000    0.000    0.000    0.000    0.000 
#
# Total GULP energy -396463.568529 kJ/mol
# GULP energy per Si atom -12389.486517 kJ/mol
# Density = 1.815913 g / cm^3
# Si number density = 18.200551 Si / 1000 Ang^3
#
#
#
# Elastic Constant Matrix: (Units=GPa)
#
#
# Indices 1 2 3 4 5 6 
#
# 1 90.6970 57.9446 20.2699 0.0000 -5.8647 0.0000
# 2 57.9446 121.0507 37.7221 0.0000 -4.4011 0.0000
# 3 20.2699 37.7221 70.5478 0.0000 -4.7480 0.0000
# 4 0.0000 0.0000 0.0000 13.9080 0.0000 -2.7362
# 5 -5.8647 -4.4011 -4.7480 0.0000 13.4320 0.0000
# 6 0.0000 0.0000 0.0000 -2.7362 0.0000 23.1545
#
#
#
# Elastic Compliance Matrix: (Units=1/GPa)
#
#
# Indices 1 2 3 4 5 6 
#
# 1 0.016163 -0.007465 -0.000351 0.000000 0.004487 0.000000
# 2 -0.007465 0.013386 -0.005057 0.000000 -0.000661 0.000000
# 3 -0.000351 -0.005057 0.017269 0.000000 0.004294 0.000000
# 4 0.000000 0.000000 0.000000 0.073613 0.000000 0.008699
# 5 0.004487 -0.000661 0.004294 0.000000 0.077710 0.000000
# 6 0.000000 0.000000 0.000000 0.008699 0.000000 0.044216
#
#
# Mechanical properties :
#
#
# Convention : Reuss Voigt Hill
#
# Bulk Modulus (GPa) = 47.45447 57.12986 52.29216
# Shear Modulus (GPa) = 18.17349 21.18949 19.68149
#
# Velocity S-wave (km/s) = 3.16335 3.41577 3.29198
# Velocity P-wave (km/s) = 6.28268 6.85667 6.57594
#
# Compressibility (1/GPa) = 0.02107283
#
# Stress axis : x y z
#
# Youngs Moduli (GPa) = 61.86872 74.70434 57.90818
#
# Poissons Ratio (x) = 0.55764 0.02031
# Poissons Ratio (y) = 0.46182 0.29286
# Poissons Ratio (z) = 0.02170 0.37780
#
# Static dielectric constant tensor:
#      x y z
#    x 3.481550 0.000000 -0.133190 
#    y 0.000000 3.502500 0.000000 
#    z -0.133190 0.000000 3.160140 
# 
# 
# High freq. dielectric constant tensor:
#      x y z
#    x 1.714160 0.000000 -0.004100 
#    y 0.000000 1.690390 0.000000 
#    z -0.004100 0.000000 1.677050 
# 
# From -- ./inp_files/333720.got.cif
#   From: 2010.06.25/outbox.cif.g09.slc.cpg/sg12_167_cif.got.tgz:333720.got - 2010.06.28 00:19:55.
