data_PCOD8095799
_publ_section_title
;
Structure prediction by ZEFSAII (Michael W. Deem and Ramdas Pophale) SiO2 
 PCOD8095799
Probable space group: C 2/M
;
_chemical_formula_sum "Si O2"
_cell_formula_units_Z 56
_cell_length_a 29.881426
_cell_length_b 11.032532
_cell_length_c 27.249551
_cell_angle_alpha 90.000000
_cell_angle_beta 20.767631
_cell_angle_gamma 90.000000
_cell_volume 3185.287278
_symmetry_space_group_name_H-M "C 2/M"
_symmetry_group_IT_number 12
_symmetry_cell_setting 'monoclinic'
loop_
_space_group_symop_operation_xyz
x,y,z
-x,y,-z
-x,-y,-z
x,-y,z
1/2+x,1/2+y,z
1/2-x,1/2+y,-z
1/2-x,1/2-y,-z
1/2+x,1/2-y,z
loop_
_atom_site_type_symbol
_atom_site_label
_atom_site_fract_x
_atom_site_fract_y
_atom_site_fract_z
Si Si1 0.975790 0.638111 0.136588
Si Si2 0.715652 0.133940 0.182550
Si Si3 0.465575 0.358125 0.640897
Si Si4 0.615338 0.632768 0.172579
Si Si5 0.381910 0.731352 0.090664
Si Si6 0.140842 0.747819 0.046786
Si Si7 0.759725 0.140452 0.680622
O O1 0.984800 0.500000 0.142186
O O2 0.019947 0.710147 0.139263
O O3 0.832806 0.676412 0.269554
O O4 0.065577 0.660886 0.997683
O O5 0.627734 0.252249 0.283155
O O6 0.818820 0.130577 0.120531
O O7 0.648519 0.000000 0.251635
O O8 0.784628 0.146135 0.058975
O O9 0.422242 0.500000 0.674463
O O10 0.480685 0.340315 0.684143
O O11 0.598006 0.330394 0.479921
O O12 0.593916 0.500000 0.173674
O O13 0.589071 0.718444 0.153479
O O14 0.757113 0.641547 0.049317
O O15 0.274127 0.783056 0.236738
O O16 0.500000 0.674831 0.000000
O O17 0.740370 0.000000 0.713307
#
# Coordination Sequence:
#
# PCOD8095799 Si02
#       7
#     8   8   8   8   8   8   8
#     4   9  16  28  48  73  98 122 156 201 242 281
#     4  10  20  33  50  72  99 128 158 196 239 284
#     4   9  19  34  51  71  96 127 163 199 235 280
#     4   9  16  28  46  67  92 122 156 195 238 282
#     4   9  18  31  48  71  96 123 157 196 239 284
#     4   9  17  28  46  71  94 121 155 196 241 284
#     4   9  17  31  50  70  94 126 161 199 240 279
#
# _framework density 17.580831
#
# number of rings (size 3 to 8) (size 9 to 14) (size 15 to 20)
#    0.000    2.857    0.000    1.286    0.000    6.571 
#    0.000    4.286    0.000    4.286    0.000    0.000 
#    0.000    0.000    0.000    0.000    0.000    0.000 
#
# Total GULP energy -346873.945597 kJ/mol
# GULP energy per Si atom -12388.355200 kJ/mol
# Density = 1.754082 g / cm^3
# Si number density = 17.580831 Si / 1000 Ang^3
#
#
#
# Elastic Constant Matrix: (Units=GPa)
#
#
# Indices 1 2 3 4 5 6 
#
# 1 92.0599 28.6229 29.2144 -0.0004 0.7126 0.0000
# 2 28.6229 84.4130 32.6979 -0.0022 -4.5054 0.0004
# 3 29.2144 32.6979 70.5027 -0.0013 6.6227 0.0001
# 4 -0.0004 -0.0022 -0.0013 14.6986 0.0000 -1.5423
# 5 0.7126 -4.5054 6.6227 0.0000 21.1428 0.0000
# 6 0.0000 0.0004 0.0001 -1.5423 0.0000 12.5097
#
#
#
# Elastic Compliance Matrix: (Units=1/GPa)
#
#
# Indices 1 2 3 4 5 6 
#
# 1 0.013044 -0.002812 -0.004125 0.000000 0.000253 0.000000
# 2 -0.002812 0.015655 -0.006612 0.000002 0.005502 0.000000
# 3 -0.004125 -0.006612 0.019657 0.000001 -0.007427 0.000000
# 4 0.000000 0.000002 0.000001 0.068925 0.000000 0.008498
# 5 0.000253 0.005502 -0.007427 0.000000 0.050788 0.000000
# 6 0.000000 0.000000 0.000000 0.008498 0.000000 0.080986
#
#
# Mechanical properties :
#
#
# Convention : Reuss Voigt Hill
#
# Bulk Modulus (GPa) = 47.03952 47.56067 47.30010
# Shear Modulus (GPa) = 17.65300 20.09959 18.87629
#
# Velocity S-wave (km/s) = 3.17220 3.38489 3.28027
# Velocity P-wave (km/s) = 6.34282 6.51060 6.42726
#
# Compressibility (1/GPa) = 0.02125872
#
# Stress axis : x y z
#
# Youngs Moduli (GPa) = 76.66557 63.87812 50.87146
#
# Poissons Ratio (x) = 0.17960 0.20983
# Poissons Ratio (y) = 0.21555 0.33637
# Poissons Ratio (z) = 0.31623 0.42238
#
# Static dielectric constant tensor:
#      x y z
#    x 3.324230 0.000000 -0.006650 
#    y 0.000000 3.062740 0.000000 
#    z -0.006650 0.000000 3.119080 
# 
# 
# High freq. dielectric constant tensor:
#      x y z
#    x 1.687060 0.000000 0.006810 
#    y 0.000000 1.660750 0.000000 
#    z 0.006810 0.000000 1.655930 
# 
# From -- ./inp_files/370730.got.cif
#   From: 2010.06.25/outbox.cif.g09.slc.cpg/sg12_186_cif.got.tgz:370730.got - 2010.06.28 00:19:55.
