data_PCOD8095890
_publ_section_title
;
Structure prediction by ZEFSAII (Michael W. Deem and Ramdas Pophale) SiO2 
 PCOD8095890
Probable space group: C 2/M
;
_chemical_formula_sum "Si O2"
_cell_formula_units_Z 48
_cell_length_a 14.010358
_cell_length_b 9.409526
_cell_length_c 20.811482
_cell_angle_alpha 90.000000
_cell_angle_beta 92.222391
_cell_angle_gamma 90.000000
_cell_volume 2741.531274
_symmetry_space_group_name_H-M "C 2/M"
_symmetry_group_IT_number 12
_symmetry_cell_setting 'monoclinic'
loop_
_space_group_symop_operation_xyz
x,y,z
-x,y,-z
-x,-y,-z
x,-y,z
1/2+x,1/2+y,z
1/2-x,1/2+y,-z
1/2-x,1/2-y,-z
1/2+x,1/2-y,z
loop_
_atom_site_type_symbol
_atom_site_label
_atom_site_fract_x
_atom_site_fract_y
_atom_site_fract_z
Si Si1 0.346114 0.163437 0.000803
Si Si2 0.980699 0.664704 0.571139
Si Si3 0.137333 0.335061 0.680068
Si Si4 0.007191 0.165787 0.766787
Si Si5 0.493486 0.164695 0.895098
Si Si6 0.851166 0.164029 0.656559
O O1 0.407093 0.195038 0.066230
O O2 0.317612 0.000000 0.997258
O O3 0.250000 0.250000 0.000000
O O4 0.406470 0.204606 0.939588
O O5 0.952570 0.500000 0.570024
O O6 0.075473 0.693929 0.614909
O O7 0.000000 0.720878 0.500000
O O8 0.890682 0.748309 0.597345
O O9 0.133732 0.500000 0.700385
O O10 0.098780 0.242291 0.738155
O O11 0.244413 0.284182 0.668598
O O12 0.984864 0.232692 0.834657
O O13 0.914252 0.192725 0.721069
O O14 0.030477 0.000000 0.774997
O O15 0.487714 0.000000 0.873713
O O16 0.852672 0.000000 0.636451
#
# Coordination Sequence:
#
# PCOD8095890 Si02
#       6
#     8   8   8   8   8   8
#     4   9  19  35  54  75 100 130 164 200 239 288
#     4   9  18  32  50  73  99 127 162 202 243 290
#     4   9  18  34  52  69  97 134 163 195 246 298
#     4  10  20  33  50  74  99 124 163 209 242 279
#     4   9  19  36  53  71 100 135 163 192 242 299
#     4   9  19  34  50  70  97 129 164 200 242 291
#
# _framework density 17.508462999999999
#
# number of rings (size 3 to 8) (size 9 to 14) (size 15 to 20)
#    0.000    2.833    0.000    1.500    0.000    5.000 
#    0.000    6.667    0.000    0.000    0.000    0.000 
#    0.000    0.000    0.000    0.000    0.000    0.000 
#
# Total GULP energy -297652.064146 kJ/mol
# GULP energy per Si atom -12402.169339 kJ/mol
# Density = 1.746861 g / cm^3
# Si number density = 17.508463 Si / 1000 Ang^3
#
#
#
# Elastic Constant Matrix: (Units=GPa)
#
#
# Indices 1 2 3 4 5 6 
#
# 1 118.4808 50.7204 43.4819 0.0000 -24.4012 0.0000
# 2 50.7204 76.3494 61.1253 0.0000 -10.2264 0.0000
# 3 43.4819 61.1253 119.7023 0.0000 -8.1436 0.0000
# 4 0.0000 0.0000 0.0000 35.1553 0.0000 -4.9446
# 5 -24.4012 -10.2264 -8.1436 0.0000 18.4637 0.0000
# 6 0.0000 0.0000 0.0000 -4.9446 0.0000 31.3175
#
#
#
# Elastic Compliance Matrix: (Units=1/GPa)
#
#
# Indices 1 2 3 4 5 6 
#
# 1 0.015031 -0.007415 -0.000620 0.000000 0.015484 0.000000
# 2 -0.007415 0.026870 -0.011012 0.000000 0.000226 0.000000
# 3 -0.000620 -0.011012 0.014157 0.000000 -0.000675 0.000000
# 4 0.000000 0.000000 0.000000 0.029091 0.000000 0.004593
# 5 0.015484 0.000226 -0.000675 0.000000 0.074451 0.000000
# 6 0.000000 0.000000 0.000000 0.004593 0.000000 0.032656
#
#
# Mechanical properties :
#
#
# Convention : Reuss Voigt Hill
#
# Bulk Modulus (GPa) = 55.66914 69.46530 62.56722
# Shear Modulus (GPa) = 21.15601 27.60096 24.37849
#
# Velocity S-wave (km/s) = 3.47988 3.97474 3.73551
# Velocity P-wave (km/s) = 6.92897 7.79911 7.37688
#
# Compressibility (1/GPa) = 0.01796327
#
# Stress axis : x y z
#
# Youngs Moduli (GPa) = 66.52914 37.21582 70.63723
#
# Poissons Ratio (x) = 0.27595 0.04381
# Poissons Ratio (y) = 0.49330 0.77788
# Poissons Ratio (z) = 0.04126 0.40983
#
# Static dielectric constant tensor:
#      x y z
#    x 3.255970 0.000000 -0.041500 
#    y 0.000000 3.218170 0.000000 
#    z -0.041500 0.000000 3.247530 
# 
# 
# High freq. dielectric constant tensor:
#      x y z
#    x 1.677010 0.000000 -0.003370 
#    y 0.000000 1.675560 0.000000 
#    z -0.003370 0.000000 1.678700 
# 
# From -- ./inp_files/307981.got.cif
#   From: 2010.06.25/outbox.cif.g09.slc.cpg/sg12_154_cif.got.tgz:307981.got - 2010.06.28 00:19:55.
