data_PCOD8095873
_publ_section_title
;
Structure prediction by ZEFSAII (Michael W. Deem and Ramdas Pophale) SiO2 
 PCOD8095873
Probable space group: C 2/M
;
_chemical_formula_sum "Si O2"
_cell_formula_units_Z 56
_cell_length_a 8.985503
_cell_length_b 19.330259
_cell_length_c 17.748982
_cell_angle_alpha 90.000000
_cell_angle_beta 90.000000
_cell_angle_gamma 90.000000
_cell_volume 3082.857961
_symmetry_space_group_name_H-M "C 2/M"
_symmetry_group_IT_number 12
_symmetry_cell_setting 'monoclinic'
loop_
_space_group_symop_operation_xyz
x,y,z
-x,y,-z
-x,-y,-z
x,-y,z
1/2+x,1/2+y,z
1/2-x,1/2+y,-z
1/2-x,1/2-y,-z
1/2+x,1/2-y,z
loop_
_atom_site_type_symbol
_atom_site_label
_atom_site_fract_x
_atom_site_fract_y
_atom_site_fract_z
Si Si1 0.326584 0.679355 0.912298
Si Si2 0.667954 0.582348 0.648302
Si Si3 0.668197 0.917449 0.500000
Si Si4 0.828145 0.418431 0.201161
Si Si5 0.832046 0.917652 0.648303
Si Si6 0.673416 0.679356 0.912298
Si Si7 0.171854 0.418431 0.201161
O O1 0.255075 0.615320 0.868999
O O2 0.500000 0.684139 0.893672
O O3 0.250000 0.750000 0.885042
O O4 0.296215 0.666254 0.000000
O O5 0.668108 0.500000 0.646257
O O6 0.748379 0.611502 0.573789
O O7 0.500000 0.611102 0.651004
O O8 0.756359 0.609079 0.721304
O O9 0.500000 0.889328 0.500000
O O10 0.751620 0.888498 0.573790
O O11 0.669194 0.000000 0.500001
O O12 0.807007 0.500000 0.192950
O O13 0.756358 0.390920 0.278696
O O14 1.000000 0.396952 0.200881
O O15 0.831890 0.000000 0.646258
O O16 0.744924 0.615320 0.868998
O O17 0.192992 0.500000 0.192949
#
# Coordination Sequence:
#
# PCOD8095873 Si02
#       7
#     8   8   8   8   8   8   8
#     4  10  21  37  56  76  99 129 166 207 250 299
#     4   9  16  26  41  63  93 128 165 204 246 292
#     4   9  15  23  37  59  90 127 164 201 244 293
#     4  10  20  33  50  74 104 135 167 206 252 299
#     4   9  16  26  41  63  93 128 165 204 246 292
#     4  10  21  37  56  76  99 129 166 207 250 299
#     4  10  20  33  50  74 104 135 167 206 252 299
#
# _framework density 18.164961999999999
#
# number of rings (size 3 to 8) (size 9 to 14) (size 15 to 20)
#    0.000    2.429    0.000    3.000    0.000    9.143 
#    0.000    2.857    0.000    0.000    0.000    1.000 
#    0.000    0.000    0.000    0.000    0.000    0.000 
#
# Total GULP energy -347261.946830 kJ/mol
# GULP energy per Si atom -12402.212387 kJ/mol
# Density = 1.812362 g / cm^3
# Si number density = 18.164962 Si / 1000 Ang^3
#
#
#
# Elastic Constant Matrix: (Units=GPa)
#
#
# Indices 1 2 3 4 5 6 
#
# 1 169.7362 36.4279 83.3139 0.0000 0.0001 0.0000
# 2 36.4279 28.2876 38.1902 0.0000 -0.0001 0.0000
# 3 83.3139 38.1902 119.0382 0.0000 0.0000 0.0000
# 4 0.0000 0.0000 0.0000 3.2612 0.0000 0.0000
# 5 0.0001 -0.0001 0.0000 0.0000 41.2797 0.0000
# 6 0.0000 0.0000 0.0000 0.0000 0.0000 24.0686
#
#
#
# Elastic Compliance Matrix: (Units=1/GPa)
#
#
# Indices 1 2 3 4 5 6 
#
# 1 0.009473 -0.005730 -0.004792 0.000000 0.000000 0.000000
# 2 -0.005730 0.065828 -0.017109 0.000000 0.000000 0.000000
# 3 -0.004792 -0.017109 0.017244 0.000000 0.000000 0.000000
# 4 0.000000 0.000000 0.000000 0.306637 0.000000 0.000000
# 5 0.000000 0.000000 0.000000 0.000000 0.024225 0.000000
# 6 0.000000 0.000000 0.000000 0.000000 0.000000 0.041548
#
#
# Mechanical properties :
#
#
# Convention : Reuss Voigt Hill
#
# Bulk Modulus (GPa) = 26.82161 70.32513 48.57337
# Shear Modulus (GPa) = 9.38712 24.33055 16.85883
#
# Velocity S-wave (km/s) = 2.27572 3.66378 3.04977
# Velocity P-wave (km/s) = 4.65863 7.52971 6.26096
#
# Compressibility (1/GPa) = 0.03728337
#
# Stress axis : x y z
#
# Youngs Moduli (GPa) = 105.55911 15.19106 57.99286
#
# Poissons Ratio (x) = 0.08704 0.27790
# Poissons Ratio (y) = 0.60485 0.99219
# Poissons Ratio (z) = 0.50584 0.25990
#
# Static dielectric constant tensor:
#      x y z
#    x 3.610370 0.000000 0.000000 
#    y 0.000000 2.823570 0.000000 
#    z 0.000000 0.000000 3.479530 
# 
# 
# High freq. dielectric constant tensor:
#      x y z
#    x 1.727080 0.000000 0.000000 
#    y 0.000000 1.644520 0.000000 
#    z 0.000000 0.000000 1.716230 
# 
# From -- ./inp_files/197538.got.cif
#   From: 2010.06.25/outbox.cif.g09.slc.cpg/sg12_99_cif.got.tgz:197538.got - 2010.06.28 00:19:55.
