data_PCOD8095407
_publ_section_title
;
Structure prediction by ZEFSAII (Michael W. Deem and Ramdas Pophale) SiO2 
 PCOD8095407
Probable space group: C 2/M
;
_chemical_formula_sum "Si O2"
_cell_formula_units_Z 56
_cell_length_a 32.327595
_cell_length_b 16.841220
_cell_length_c 6.952001
_cell_angle_alpha 90.000000
_cell_angle_beta 54.875357
_cell_angle_gamma 90.000000
_cell_volume 3095.695370
_symmetry_space_group_name_H-M "C 2/M"
_symmetry_group_IT_number 12
_symmetry_cell_setting 'monoclinic'
loop_
_space_group_symop_operation_xyz
x,y,z
-x,y,-z
-x,-y,-z
x,-y,z
1/2+x,1/2+y,z
1/2-x,1/2+y,-z
1/2-x,1/2-y,-z
1/2+x,1/2-y,z
loop_
_atom_site_type_symbol
_atom_site_label
_atom_site_fract_x
_atom_site_fract_y
_atom_site_fract_z
Si Si1 0.867122 0.726980 0.037591
Si Si2 0.278986 0.671077 0.365025
Si Si3 0.290108 0.911439 0.187452
Si Si4 0.880837 0.826689 0.649598
Si Si5 0.221208 0.092569 0.032312
Si Si6 0.556374 0.710880 0.900448
Si Si7 0.451380 0.408360 0.741203
O O1 0.879626 0.745458 0.780602
O O2 0.916318 0.720007 0.044070
O O3 0.837892 0.804732 0.203121
O O4 0.834895 0.646637 0.133012
O O5 0.250000 0.750000 0.500000
O O6 0.262672 0.602842 0.556971
O O7 0.263008 0.637899 0.201662
O O8 0.273109 0.899971 0.013682
O O9 0.309942 0.000000 0.174381
O O10 0.825323 0.859830 0.742715
O O11 0.904642 0.894041 0.723514
O O12 0.912678 0.808937 0.374533
O O13 0.206800 0.000000 0.038944
O O14 0.553879 0.632646 0.038215
O O15 0.500000 0.740778 0.000000
O O16 0.500000 0.373837 0.500000
O O17 0.457317 0.500000 0.772854
#
# Coordination Sequence:
#
# PCOD8095407 Si02
#       7
#     8   8   8   8   8   8   8
#     4   9  21  34  52  78 105 136 174 219 258 305
#     4   9  18  33  52  76 106 139 171 207 252 304
#     4  10  20  35  55  79 106 137 173 214 264 314
#     4  10  20  35  51  73 105 139 175 215 252 303
#     4  10  20  32  50  76 107 142 175 209 253 307
#     4  11  21  35  54  75 100 139 184 216 259 308
#     4  10  20  33  49  73 105 136 171 214 253 294
#
# _framework density 18.089634
#
# number of rings (size 3 to 8) (size 9 to 14) (size 15 to 20)
#    0.000    2.143    1.429    1.714    0.000    8.857 
#    0.000    3.571    0.000    0.429    0.000    1.000 
#    0.000    0.000    0.000    0.000    0.000    0.000 
#
# Total GULP energy -346988.756107 kJ/mol
# GULP energy per Si atom -12392.455575 kJ/mol
# Density = 1.804846 g / cm^3
# Si number density = 18.089634 Si / 1000 Ang^3
#
#
#
# Elastic Constant Matrix: (Units=GPa)
#
#
# Indices 1 2 3 4 5 6 
#
# 1 111.3135 53.6471 30.1898 0.0000 3.3440 0.0000
# 2 53.6471 89.1261 43.9934 0.0000 2.1280 0.0000
# 3 30.1898 43.9934 117.3640 0.0000 4.2407 0.0000
# 4 0.0000 0.0000 0.0000 22.3850 0.0000 -0.0347
# 5 3.3440 2.1280 4.2407 0.0000 18.0923 0.0000
# 6 0.0000 0.0000 0.0000 -0.0347 0.0000 22.9466
#
#
#
# Elastic Compliance Matrix: (Units=1/GPa)
#
#
# Indices 1 2 3 4 5 6 
#
# 1 0.012712 -0.007398 -0.000447 0.000000 -0.001375 0.000000
# 2 -0.007398 0.018076 -0.004887 0.000000 0.000387 0.000000
# 3 -0.000447 -0.004887 0.010533 0.000000 -0.001811 0.000000
# 4 0.000000 0.000000 0.000000 0.044673 0.000000 0.000068
# 5 -0.001375 0.000387 -0.001811 0.000000 0.055905 0.000000
# 6 0.000000 0.000000 0.000000 0.000068 0.000000 0.043580
#
#
# Mechanical properties :
#
#
# Convention : Reuss Voigt Hill
#
# Bulk Modulus (GPa) = 63.06415 63.71825 63.39120
# Shear Modulus (GPa) = 23.12384 25.34965 24.23674
#
# Velocity S-wave (km/s) = 3.57920 3.74750 3.66432
# Velocity P-wave (km/s) = 7.21239 7.35018 7.28161
#
# Compressibility (1/GPa) = 0.01585687
#
# Stress axis : x y z
#
# Youngs Moduli (GPa) = 78.66844 55.32228 94.94239
#
# Poissons Ratio (x) = 0.40927 0.04245
# Poissons Ratio (y) = 0.58198 0.46395
# Poissons Ratio (z) = 0.03517 0.27034
#
# Static dielectric constant tensor:
#      x y z
#    x 3.380720 0.000000 -0.088330 
#    y 0.000000 3.097290 0.000000 
#    z -0.088330 0.000000 3.667850 
# 
# 
# High freq. dielectric constant tensor:
#      x y z
#    x 1.698060 0.000000 0.007170 
#    y 0.000000 1.670100 0.000000 
#    z 0.007170 0.000000 1.712590 
# 
# From -- ./inp_files/28763.got.cif
#   From: 2010.06.25/outbox.cif.g09.slc.cpg/sg12_15_cif.got.tgz:28763.got - 2010.06.28 00:19:55.
