data_PCOD8095426
_publ_section_title
;
Structure prediction by ZEFSAII (Michael W. Deem and Ramdas Pophale) SiO2 
 PCOD8095426
Probable space group: C 2/M
;
_chemical_formula_sum "Si O2"
_cell_formula_units_Z 40
_cell_length_a 14.227814
_cell_length_b 34.566071
_cell_length_c 5.049405
_cell_angle_alpha 90.000000
_cell_angle_beta 60.207636
_cell_angle_gamma 90.000000
_cell_volume 2155.082508
_symmetry_space_group_name_H-M "C 2/M"
_symmetry_group_IT_number 12
_symmetry_cell_setting 'monoclinic'
loop_
_space_group_symop_operation_xyz
x,y,z
-x,y,-z
-x,-y,-z
x,-y,z
1/2+x,1/2+y,z
1/2-x,1/2+y,-z
1/2-x,1/2-y,-z
1/2+x,1/2-y,z
loop_
_atom_site_type_symbol
_atom_site_label
_atom_site_fract_x
_atom_site_fract_y
_atom_site_fract_z
Si Si1 0.751894 0.831961 0.289089
Si Si2 0.618486 0.314293 0.412384
Si Si3 0.128229 0.409470 0.321400
Si Si4 0.572075 0.227931 0.638938
Si Si5 0.871832 0.457111 0.180010
O O1 0.836425 0.840792 0.409612
O O2 0.689155 0.869953 0.289881
O O3 0.672259 0.800704 0.532086
O O4 0.808103 0.814583 0.951512
O O5 0.500000 0.330019 0.500000
O O6 0.614812 0.270685 0.523197
O O7 0.164936 0.440556 0.487600
O O8 0.000000 0.401337 0.500000
O O9 0.167815 0.427458 0.989262
O O10 0.500000 0.212076 0.500000
O O11 0.500000 0.227649 0.000000
O O12 0.821589 0.500000 0.208657
O O13 0.000000 0.460498 0.000000
#
# Coordination Sequence:
#
# PCOD8095426 Si02
#       5
#     8   8   8   8   8
#     4  12  22  36  56  78 108 139 175 224 275 308
#     4  11  23  39  54  73 101 141 189 229 263 308
#     4  10  20  32  50  80 111 138 170 207 253 312
#     4  11  22  37  56  79 105 138 178 218 269 326
#     4   9  17  31  50  73 108 147 171 193 238 309
#
# _framework density 18.560773999999999
#
# number of rings (size 3 to 8) (size 9 to 14) (size 15 to 20)
#    0.000    1.400    0.000    7.800    0.000    4.800 
#    0.000    0.000    0.000    0.000    0.000    0.000 
#    0.000   56.000    0.000    0.000    0.000    0.000 
#
# Total GULP energy -248025.018186 kJ/mol
# GULP energy per Si atom -12401.250909 kJ/mol
# Density = 1.851853 g / cm^3
# Si number density = 18.560774 Si / 1000 Ang^3
#
#
#
# Elastic Constant Matrix: (Units=GPa)
#
#
# Indices 1 2 3 4 5 6 
#
# 1 120.7217 60.4352 45.8356 0.0000 20.5124 0.0000
# 2 60.4352 85.2580 57.7064 0.0000 -1.1769 0.0000
# 3 45.8356 57.7064 123.4420 0.0000 16.3268 0.0000
# 4 0.0000 0.0000 0.0000 3.3885 0.0000 7.1571
# 5 20.5124 -1.1769 16.3268 0.0000 31.4281 0.0000
# 6 0.0000 0.0000 0.0000 7.1571 0.0000 22.0313
#
#
#
# Elastic Compliance Matrix: (Units=1/GPa)
#
#
# Indices 1 2 3 4 5 6 
#
# 1 0.015930 -0.012415 0.001423 0.000000 -0.011601 0.000000
# 2 -0.012415 0.027652 -0.010228 0.000000 0.014452 0.000000
# 3 0.001423 -0.010228 0.013452 0.000000 -0.008300 0.000000
# 4 0.000000 0.000000 0.000000 0.940407 0.000000 -0.305503
# 5 -0.011601 0.014452 -0.008300 0.000000 0.044244 0.000000
# 6 0.000000 0.000000 0.000000 -0.305503 0.000000 0.144636
#
#
# Mechanical properties :
#
#
# Convention : Reuss Voigt Hill
#
# Bulk Modulus (GPa) = 68.52528 73.04180 70.78354
# Shear Modulus (GPa) = 4.05309 22.39920 13.22615
#
# Velocity S-wave (km/s) = 1.47933 3.47768 2.67233
# Velocity P-wave (km/s) = 6.31803 7.45412 6.90946
#
# Compressibility (1/GPa) = 0.01459315
#
# Stress axis : x y z
#
# Youngs Moduli (GPa) = 62.77631 36.16353 74.33977
#
# Poissons Ratio (x) = 0.44898 -0.10582
# Poissons Ratio (y) = 0.77939 0.76037
# Poissons Ratio (z) = -0.08936 0.36989
#
# Static dielectric constant tensor:
#      x y z
#    x 3.652430 0.000000 0.230740 
#    y 0.000000 3.354370 0.000000 
#    z 0.230740 0.000000 3.579200 
# 
# 
# High freq. dielectric constant tensor:
#      x y z
#    x 1.718130 0.000000 0.029250 
#    y 0.000000 1.706950 0.000000 
#    z 0.029250 0.000000 1.722170 
# 
# From -- ./inp_files/7669.got.cif
#   From: 2010.06.25/outbox.cif.g09.slc.cpg/sg12_4_cif.got.tgz:7669.got - 2010.06.28 00:19:55.
