data_PCOD8095670
_publ_section_title
;
Structure prediction by ZEFSAII (Michael W. Deem and Ramdas Pophale) SiO2 
 PCOD8095670
Probable space group: C 2/M
;
_chemical_formula_sum "Si O2"
_cell_formula_units_Z 56
_cell_length_a 18.451503
_cell_length_b 9.154290
_cell_length_c 20.635451
_cell_angle_alpha 90.000000
_cell_angle_beta 60.585664
_cell_angle_gamma 90.000000
_cell_volume 3036.224523
_symmetry_space_group_name_H-M "C 2/M"
_symmetry_group_IT_number 12
_symmetry_cell_setting 'monoclinic'
loop_
_space_group_symop_operation_xyz
x,y,z
-x,y,-z
-x,-y,-z
x,-y,z
1/2+x,1/2+y,z
1/2-x,1/2+y,-z
1/2-x,1/2-y,-z
1/2+x,1/2-y,z
loop_
_atom_site_type_symbol
_atom_site_label
_atom_site_fract_x
_atom_site_fract_y
_atom_site_fract_z
Si Si1 0.189805 0.170588 0.936993
Si Si2 0.132560 0.330213 0.084827
Si Si3 0.408248 0.340578 0.512392
Si Si4 0.035827 0.330153 0.772518
Si Si5 0.151000 0.825448 0.330593
Si Si6 0.976413 0.174532 0.352959
Si Si7 0.819285 0.671381 0.191333
O O1 0.286775 0.203914 0.907246
O O2 0.162211 0.245301 0.882882
O O3 0.171168 0.000000 0.941048
O O4 0.133957 0.237320 0.018592
O O5 0.127611 0.500000 0.067703
O O6 0.052953 0.279825 0.160625
O O7 0.500000 0.360630 0.500000
O O8 0.368474 0.500000 0.517897
O O9 0.354469 0.260292 0.592751
O O10 0.417152 0.263730 0.437783
O O11 0.035322 0.500000 0.755127
O O12 0.056883 0.241475 0.698692
O O13 0.105758 0.291992 0.793823
O O14 0.234248 0.767148 0.260137
O O15 0.071703 0.774119 0.323210
O O16 0.151454 0.000000 0.335917
O O17 0.971506 0.000000 0.352403
O O18 0.812308 0.500000 0.179573
#
# Coordination Sequence:
#
# PCOD8095670 Si02
#       7
#     8   8   8   8   8   8   8
#     4  10  20  34  54  76  94 116 152 199 239 270
#     4   9  19  36  54  71  94 124 155 187 230 284
#     4   7  11  22  43  71  95 115 150 199 240 270
#     4  10  21  34  47  67  98 132 158 184 228 285
#     4   8  14  27  49  73  93 119 160 201 232 270
#     4   9  16  28  50  74  93 119 158 203 240 268
#     4  10  20  33  49  69  96 130 161 188 226 280
#
# _framework density 18.443959
#
# number of rings (size 3 to 8) (size 9 to 14) (size 15 to 20)
#    0.000    3.000    0.000    3.000    0.000    2.286 
#    0.000    3.571    0.000    4.714    0.000    0.000 
#    0.000    0.000    0.000    0.000    0.000    0.000 
#
# Total GULP energy -347022.107874 kJ/mol
# GULP energy per Si atom -12393.646710 kJ/mol
# Density = 1.840198 g / cm^3
# Si number density = 18.443959 Si / 1000 Ang^3
#
#
#
# Elastic Constant Matrix: (Units=GPa)
#
#
# Indices 1 2 3 4 5 6 
#
# 1 59.0497 27.5177 39.8260 0.0000 22.5584 0.0002
# 2 27.5177 40.4242 38.7014 0.0000 17.8173 0.0002
# 3 39.8260 38.7014 112.2101 0.0000 38.0679 0.0000
# 4 0.0000 0.0000 0.0000 18.4184 0.0000 4.8898
# 5 22.5584 17.8173 38.0679 0.0000 25.3340 0.0000
# 6 0.0002 0.0002 0.0000 4.8898 0.0000 17.9953
#
#
#
# Elastic Compliance Matrix: (Units=1/GPa)
#
#
# Indices 1 2 3 4 5 6 
#
# 1 0.029345 -0.012021 -0.000556 0.000000 -0.016840 0.000000
# 2 -0.012021 0.044440 -0.008341 0.000000 -0.008017 0.000000
# 3 -0.000556 -0.008341 0.020048 0.000000 -0.023763 0.000000
# 4 0.000000 0.000000 0.000000 0.058515 0.000000 -0.015900
# 5 -0.016840 -0.008017 -0.023763 0.000000 0.095813 0.000000
# 6 0.000000 0.000000 0.000000 -0.015900 0.000000 0.059891
#
#
# Mechanical properties :
#
#
# Convention : Reuss Voigt Hill
#
# Bulk Modulus (GPa) = 19.23221 47.08603 33.15912
# Shear Modulus (GPa) = 13.61578 19.39212 16.50395
#
# Velocity S-wave (km/s) = 2.71998 3.24606 2.99459
# Velocity P-wave (km/s) = 4.50715 6.29554 5.47486
#
# Compressibility (1/GPa) = 0.05199611
#
# Stress axis : x y z
#
# Youngs Moduli (GPa) = 34.07709 22.50237 49.88039
#
# Poissons Ratio (x) = 0.27051 0.02774
# Poissons Ratio (y) = 0.40965 0.41606
# Poissons Ratio (z) = 0.01895 0.18769
#
# Static dielectric constant tensor:
#      x y z
#    x 3.203860 0.000000 -0.018840 
#    y 0.000000 2.994590 0.000000 
#    z -0.018840 0.000000 3.743690 
# 
# 
# High freq. dielectric constant tensor:
#      x y z
#    x 1.693980 0.000000 0.007160 
#    y 0.000000 1.675360 0.000000 
#    z 0.007160 0.000000 1.736070 
# 
# From -- ./inp_files/313706.got.cif
#   From: 2010.06.25/outbox.cif.g09.slc.cpg/sg12_157_cif.got.tgz:313706.got - 2010.06.28 00:19:55.
