data_PCOD8095089
_publ_section_title
;
Structure prediction by ZEFSAII (Michael W. Deem and Ramdas Pophale) SiO2 
 PCOD8095089
Probable space group: C 2/M
;
_chemical_formula_sum "Si O2"
_cell_formula_units_Z 40
_cell_length_a 8.865112
_cell_length_b 23.080877
_cell_length_c 12.786923
_cell_angle_alpha 90.000000
_cell_angle_beta 44.222905
_cell_angle_gamma 90.000000
_cell_volume 1824.805941
_symmetry_space_group_name_H-M "C 2/M"
_symmetry_group_IT_number 12
_symmetry_cell_setting 'monoclinic'
loop_
_space_group_symop_operation_xyz
x,y,z
-x,y,-z
-x,-y,-z
x,-y,z
1/2+x,1/2+y,z
1/2-x,1/2+y,-z
1/2-x,1/2-y,-z
1/2+x,1/2-y,z
loop_
_atom_site_type_symbol
_atom_site_label
_atom_site_fract_x
_atom_site_fract_y
_atom_site_fract_z
Si Si1 0.753790 0.298693 0.657580
Si Si2 0.665762 0.000000 0.265706
Si Si3 0.548469 0.208907 0.094788
Si Si4 0.882029 0.621268 0.772835
Si Si5 0.323458 0.500000 0.412912
Si Si6 0.868846 0.877559 0.463012
O O1 0.648688 0.237078 0.741019
O O2 0.738327 0.339208 0.767289
O O3 0.607923 0.328684 0.639092
O O4 0.000000 0.286923 0.500000
O O5 0.718955 0.943034 0.170519
O O6 0.819397 0.000000 0.289933
O O7 0.417301 0.000000 0.422940
O O8 0.610234 0.147747 0.115645
O O9 0.500000 0.194565 0.000000
O O10 0.750000 0.250000 0.000000
O O11 0.116832 0.616833 0.606984
O O12 0.450582 0.441743 0.386868
O O13 0.000000 0.857291 0.500000
#
# Coordination Sequence:
#
# PCOD8095089 Si02
#       6
#     8   4   8   8   4   8
#     4  10  22  41  64  93 126 168 213 256 314 381
#     4   9  16  34  63  86 119 168 211 250 310 384
#     4  12  26  44  64  89 129 170 212 261 317 380
#     4  10  21  39  62  90 122 170 210 256 314 380
#     4   9  15  30  56  89 128 162 200 258 317 372
#     4  10  20  31  58  95 132 158 203 265 319 368
#
# _framework density 21.920137
#
# number of rings (size 3 to 8) (size 9 to 14) (size 15 to 20)
#    0.000    1.800    4.000    0.300    2.800    4.000 
#    0.000    0.500    0.000    3.600    0.000    0.000 
#    0.000    0.000    0.000    0.000    0.000    0.000 
#
# Total GULP energy -247973.110643 kJ/mol
# GULP energy per Si atom -12398.655532 kJ/mol
# Density = 2.187025 g / cm^3
# Si number density = 21.920137 Si / 1000 Ang^3
#
#
#
# Elastic Constant Matrix: (Units=GPa)
#
#
# Indices 1 2 3 4 5 6 
#
# 1 115.7518 47.3373 38.6371 0.0000 48.9318 0.0000
# 2 47.3373 133.7168 55.3022 0.0000 35.8226 0.0000
# 3 38.6371 55.3022 75.6643 0.0000 32.5868 0.0000
# 4 0.0000 0.0000 0.0000 14.1273 0.0000 11.6985
# 5 48.9318 35.8226 32.5868 0.0000 49.7484 0.0000
# 6 0.0000 0.0000 0.0000 11.6985 0.0000 31.2780
#
#
#
# Elastic Compliance Matrix: (Units=1/GPa)
#
#
# Indices 1 2 3 4 5 6 
#
# 1 0.015137 -0.001398 -0.001016 0.000000 -0.013217 0.000000
# 2 -0.001398 0.011332 -0.006472 0.000000 -0.002545 0.000000
# 3 -0.001016 -0.006472 0.022327 0.000000 -0.008965 0.000000
# 4 0.000000 0.000000 0.000000 0.102545 0.000000 -0.038353
# 5 -0.013217 -0.002545 -0.008965 0.000000 0.040806 0.000000
# 6 0.000000 0.000000 0.000000 -0.038353 0.000000 0.046316
#
#
# Mechanical properties :
#
#
# Convention : Reuss Voigt Hill
#
# Bulk Modulus (GPa) = 32.23371 67.52067 49.87719
# Shear Modulus (GPa) = 18.75638 31.28781 25.02210
#
# Velocity S-wave (km/s) = 2.92836 3.78213 3.38229
# Velocity P-wave (km/s) = 5.11573 7.06701 6.16901
#
# Compressibility (1/GPa) = 0.03102342
#
# Stress axis : x y z
#
# Youngs Moduli (GPa) = 66.06354 88.24462 44.78965
#
# Poissons Ratio (x) = 0.12335 0.04550
# Poissons Ratio (y) = 0.09235 0.28990
# Poissons Ratio (z) = 0.06711 0.57116
#
# Static dielectric constant tensor:
#      x y z
#    x 1.742880 0.000000 -0.124940 
#    y 0.000000 10.146080 0.000000 
#    z -0.124940 0.000000 3.427800 
# 
# 
# High freq. dielectric constant tensor:
#      x y z
#    x 1.859120 0.000000 0.021940 
#    y 0.000000 1.873960 0.000000 
#    z 0.021940 0.000000 1.825650 
# 
# From -- ./inp_files/121715.got.cif
#   From: 2010.06.25/outbox.cif.g09.slc.cpg/sg12_61_cif.got.tgz:121715.got - 2010.06.28 00:19:55.
