data_PCOD8095856
_publ_section_title
;
Structure prediction by ZEFSAII (Michael W. Deem and Ramdas Pophale) SiO2 
 PCOD8095856
Probable space group: C 2/M
;
_chemical_formula_sum "Si O2"
_cell_formula_units_Z 64
_cell_length_a 24.288835
_cell_length_b 8.772133
_cell_length_c 16.814075
_cell_angle_alpha 90.000000
_cell_angle_beta 68.747240
_cell_angle_gamma 90.000000
_cell_volume 3338.845443
_symmetry_space_group_name_H-M "C 2/M"
_symmetry_group_IT_number 12
_symmetry_cell_setting 'monoclinic'
loop_
_space_group_symop_operation_xyz
x,y,z
-x,y,-z
-x,-y,-z
x,-y,z
1/2+x,1/2+y,z
1/2-x,1/2+y,-z
1/2-x,1/2-y,-z
1/2+x,1/2-y,z
loop_
_atom_site_type_symbol
_atom_site_label
_atom_site_fract_x
_atom_site_fract_y
_atom_site_fract_z
Si Si1 0.872912 0.181412 0.248239
Si Si2 0.252505 0.181160 0.247628
Si Si3 0.904800 0.180620 0.406493
Si Si4 0.216247 0.819476 0.091201
Si Si5 0.358585 0.680609 0.593863
Si Si6 0.487933 0.681596 0.094007
Si Si7 0.915850 0.181423 0.835441
Si Si8 0.464165 0.318423 0.644247
O O1 0.812653 0.248830 0.247427
O O2 0.884126 0.245248 0.331874
O O3 0.925771 0.238360 0.163055
O O4 0.868825 0.000000 0.250524
O O5 0.242863 0.234744 0.161727
O O6 0.198901 0.245746 0.330582
O O7 0.255674 0.000000 0.251578
O O8 0.858430 0.227589 0.500414
O O9 0.969140 0.244698 0.399007
O O10 0.909410 0.000000 0.396329
O O11 0.149895 0.756982 0.117395
O O12 0.218430 0.000000 0.084537
O O13 0.250000 0.750000 0.000000
O O14 0.357929 0.500000 0.604211
O O15 0.419826 0.743755 0.599614
O O16 0.488097 0.500000 0.093079
O O17 0.541666 0.745696 0.118387
O O18 0.500000 0.747968 0.000000
O O19 0.939362 0.243976 0.740035
O O20 0.916463 0.000000 0.834642
O O21 0.465264 0.500000 0.641138
#
# Coordination Sequence:
#
# PCOD8095856 Si02
#       8
#     8   8   8   8   8   8   8   8
#     4  10  20  33  50  74 101 129 166 210 247 283
#     4  10  21  36  50  69 102 138 168 197 236 295
#     4   9  16  26  44  73 102 124 158 210 254 289
#     4  10  21  35  53  76 101 130 165 204 244 291
#     4   9  16  27  45  69  99 134 163 194 249 305
#     4   9  17  28  45  71  98 124 157 201 251 294
#     4   9  15  27  47  70  97 124 156 202 250 290
#     4   9  13  23  43  70 100 125 154 201 255 296
#
# _framework density 19.168301
#
# number of rings (size 3 to 8) (size 9 to 14) (size 15 to 20)
#    0.000    2.625    2.500    0.375    1.750    2.500 
#    0.000    0.000    0.000    1.125    0.000    0.875 
#    0.000    2.000    0.000    0.000    0.000    0.000 
#
# Total GULP energy -396600.548608 kJ/mol
# GULP energy per Si atom -12393.767144 kJ/mol
# Density = 1.912467 g / cm^3
# Si number density = 19.168301 Si / 1000 Ang^3
#
#
#
# Elastic Constant Matrix: (Units=GPa)
#
#
# Indices 1 2 3 4 5 6 
#
# 1 177.2301 15.6392 95.9292 0.0000 -1.4828 0.0000
# 2 15.6392 6.8768 14.9825 0.0000 0.3250 0.0000
# 3 95.9292 14.9825 195.3643 0.0000 4.8586 0.0000
# 4 0.0000 0.0000 0.0000 14.3756 0.0000 -3.0195
# 5 -1.4828 0.3250 4.8586 0.0000 28.3680 0.0000
# 6 0.0000 0.0000 0.0000 -3.0195 0.0000 21.9403
#
#
#
# Elastic Compliance Matrix: (Units=1/GPa)
#
#
# Indices 1 2 3 4 5 6 
#
# 1 0.008501 -0.012282 -0.003261 0.000000 0.001143 0.000000
# 2 -0.012282 0.192336 -0.008686 -0.000001 -0.001358 0.000000
# 3 -0.003261 -0.008686 0.007419 0.000000 -0.001342 0.000000
# 4 0.000000 -0.000001 0.000000 0.071633 0.000000 0.009858
# 5 0.001143 -0.001358 -0.001342 0.000000 0.035556 0.000000
# 6 0.000000 0.000000 0.000000 0.009858 0.000000 0.046935
#
#
# Mechanical properties :
#
#
# Convention : Reuss Voigt Hill
#
# Bulk Modulus (GPa) = 6.25787 70.28589 38.27188
# Shear Modulus (GPa) = 10.77349 29.79815 20.28582
#
# Velocity S-wave (km/s) = 2.37333 3.94706 3.25668
# Velocity P-wave (km/s) = 3.28360 7.58418 5.84388
#
# Compressibility (1/GPa) = 0.15979874
#
# Stress axis : x y z
#
# Youngs Moduli (GPa) = 117.63905 5.19924 134.78705
#
# Poissons Ratio (x) = 0.06386 0.43948
# Poissons Ratio (y) = 1.44487 1.17070
# Poissons Ratio (z) = 0.38357 0.04516
#
# Static dielectric constant tensor:
#      x y z
#    x 3.748630 0.000000 0.008800 
#    y 0.000000 2.740430 0.000000 
#    z 0.008800 0.000000 3.902710 
# 
# 
# High freq. dielectric constant tensor:
#      x y z
#    x 1.756750 0.000000 0.001330 
#    y 0.000000 1.663460 0.000000 
#    z 0.001330 0.000000 1.765730 
# 
# From -- ./inp_files/288826.got.cif
#   From: 2010.06.25/outbox.cif.g09.slc.cpg/sg12_145_cif.got.tgz:288826.got - 2010.06.28 00:19:55.
