data_PCOD8095384
_publ_section_title
;
Structure prediction by ZEFSAII (Michael W. Deem and Ramdas Pophale) SiO2 
 PCOD8095384
Probable space group: C 2/M
;
_chemical_formula_sum "Si O2"
_cell_formula_units_Z 64
_cell_length_a 10.096397
_cell_length_b 18.908603
_cell_length_c 21.796536
_cell_angle_alpha 90.000000
_cell_angle_beta 117.629180
_cell_angle_gamma 90.000000
_cell_volume 3686.643468
_symmetry_space_group_name_H-M "C 2/M"
_symmetry_group_IT_number 12
_symmetry_cell_setting 'monoclinic'
loop_
_space_group_symop_operation_xyz
x,y,z
-x,y,-z
-x,-y,-z
x,-y,z
1/2+x,1/2+y,z
1/2-x,1/2+y,-z
1/2-x,1/2-y,-z
1/2+x,1/2-y,z
loop_
_atom_site_type_symbol
_atom_site_label
_atom_site_fract_x
_atom_site_fract_y
_atom_site_fract_z
Si Si1 0.091602 0.915497 0.462423
Si Si2 0.608214 0.321722 0.814786
Si Si3 0.166449 0.579923 0.688172
Si Si4 0.710341 0.688301 0.190436
Si Si5 0.166520 0.663381 0.033483
Si Si6 0.422097 0.916089 0.542801
Si Si7 0.338675 0.668762 0.954586
Si Si8 0.531279 0.420103 0.315447
O O1 0.256305 0.884520 0.509370
O O2 0.020709 0.889167 0.382552
O O3 0.000000 0.885358 0.500000
O O4 0.094277 0.000000 0.461761
O O5 0.457184 0.295927 0.818569
O O6 0.693609 0.259265 0.797429
O O7 0.721378 0.359832 0.887375
O O8 0.568430 0.376813 0.753432
O O9 0.154463 0.500000 0.712174
O O10 0.198401 0.634509 0.748592
O O11 0.294505 0.582473 0.664278
O O12 0.012155 0.604517 0.623552
O O13 0.705361 0.649262 0.123862
O O14 0.157103 0.747403 0.035317
O O15 0.226973 0.636307 0.980827
O O16 0.000000 0.630266 0.000000
O O17 0.500000 0.882446 0.500000
O O18 0.418302 0.000000 0.535712
O O19 0.500000 0.634928 0.000000
O O20 0.470320 0.500000 0.299936
#
# Coordination Sequence:
#
# PCOD8095384 Si02
#       8
#     8   8   8   8   8   8   8   8
#     4   9  16  27  45  72  98 121 156 202 244 277
#     4  10  20  33  50  74  99 128 162 197 243 291
#     4   9  17  31  52  75  97 126 164 202 240 285
#     4  10  20  32  50  73 100 130 159 199 244 290
#     4   9  17  27  46  71  94 121 161 203 240 275
#     4   9  14  25  47  71  91 116 159 204 236 270
#     4   9  15  27  44  68  94 118 157 202 237 275
#     4   9  17  32  53  73  97 129 163 198 238 290
#
# _framework density 17.359964999999999
#
# number of rings (size 3 to 8) (size 9 to 14) (size 15 to 20)
#    0.000    2.750    2.500    0.000    5.250    0.000 
#    2.250    0.000    0.000    3.000    0.000    0.000 
#    0.000    0.000    0.000    0.000    0.000    0.000 
#
# Total GULP energy -396524.277531 kJ/mol
# GULP energy per Si atom -12391.383673 kJ/mol
# Density = 1.732045 g / cm^3
# Si number density = 17.359965 Si / 1000 Ang^3
#
#
#
# Elastic Constant Matrix: (Units=GPa)
#
#
# Indices 1 2 3 4 5 6 
#
# 1 133.1408 26.2998 86.4053 0.0000 -1.5174 0.0000
# 2 26.2998 33.0708 43.1812 0.0000 -1.3553 0.0000
# 3 86.4053 43.1812 163.3192 0.0000 -2.9471 0.0000
# 4 0.0000 0.0000 0.0000 24.2295 0.0000 -1.7551
# 5 -1.5174 -1.3553 -2.9471 0.0000 33.4053 0.0000
# 6 0.0000 0.0000 0.0000 -1.7551 0.0000 11.8008
#
#
#
# Elastic Compliance Matrix: (Units=1/GPa)
#
#
# Indices 1 2 3 4 5 6 
#
# 1 0.011511 -0.001838 -0.005605 0.000000 -0.000046 0.000000
# 2 -0.001838 0.046496 -0.011307 0.000000 0.000805 0.000000
# 3 -0.005605 -0.011307 0.012084 0.000000 0.000353 0.000000
# 4 0.000000 0.000000 0.000000 0.041721 0.000000 0.006205
# 5 -0.000046 0.000805 0.000353 0.000000 0.029997 0.000000
# 6 0.000000 0.000000 0.000000 0.006205 0.000000 0.085663
#
#
# Mechanical properties :
#
#
# Convention : Reuss Voigt Hill
#
# Bulk Modulus (GPa) = 30.68186 71.25594 50.96890
# Shear Modulus (GPa) = 18.12683 25.46343 21.79513
#
# Velocity S-wave (km/s) = 3.23487 3.83402 3.54712
# Velocity P-wave (km/s) = 5.62715 7.79326 6.79705
#
# Compressibility (1/GPa) = 0.03259255
#
# Stress axis : x y z
#
# Youngs Moduli (GPa) = 86.87570 21.50726 82.75345
#
# Poissons Ratio (x) = 0.03952 0.46382
# Poissons Ratio (y) = 0.15964 0.93567
# Poissons Ratio (z) = 0.48692 0.24318
#
# Static dielectric constant tensor:
#      x y z
#    x 3.502140 0.000000 0.035130 
#    y 0.000000 2.641930 0.000000 
#    z 0.035130 0.000000 3.449880 
# 
# 
# High freq. dielectric constant tensor:
#      x y z
#    x 1.675690 0.000000 0.000260 
#    y 0.000000 1.600940 0.000000 
#    z 0.000260 0.000000 1.690110 
# 
# From -- ./inp_files/302131.got.cif
#   From: 2010.06.25/outbox.cif.g09.slc.cpg/sg12_152_cif.got.tgz:302131.got - 2010.06.28 00:19:55.
