data_PCOD8095185
_publ_section_title
;
Structure prediction by ZEFSAII (Michael W. Deem and Ramdas Pophale) SiO2 
 PCOD8095185
Probable space group: C 2/M
;
_chemical_formula_sum "Si O2"
_cell_formula_units_Z 64
_cell_length_a 12.553798
_cell_length_b 13.678420
_cell_length_c 21.650874
_cell_angle_alpha 90.000000
_cell_angle_beta 111.808973
_cell_angle_gamma 90.000000
_cell_volume 3451.712159
_symmetry_space_group_name_H-M "C 2/M"
_symmetry_group_IT_number 12
_symmetry_cell_setting 'monoclinic'
loop_
_space_group_symop_operation_xyz
x,y,z
-x,y,-z
-x,-y,-z
x,-y,z
1/2+x,1/2+y,z
1/2-x,1/2+y,-z
1/2-x,1/2-y,-z
1/2+x,1/2-y,z
loop_
_atom_site_type_symbol
_atom_site_label
_atom_site_fract_x
_atom_site_fract_y
_atom_site_fract_z
Si Si1 0.765129 0.386707 0.554824
Si Si2 0.126080 0.751614 0.112143
Si Si3 0.008207 0.891443 0.854942
Si Si4 0.438801 0.106297 0.052021
Si Si5 0.188722 0.111529 0.797837
Si Si6 0.868698 0.112336 0.351712
Si Si7 0.433991 0.729756 0.547572
Si Si8 0.825931 0.885915 0.994886
O O1 0.789091 0.500000 0.545571
O O2 0.728423 0.370385 0.617793
O O3 0.663957 0.349728 0.488301
O O4 0.881025 0.326227 0.567452
O O5 0.235464 0.685306 0.146162
O O6 0.130287 0.810281 0.048173
O O7 0.109424 0.830502 0.163096
O O8 0.011677 0.687916 0.102052
O O9 0.061914 0.876423 0.798725
O O10 0.965239 0.000000 0.854189
O O11 0.100600 0.865190 0.928323
O O12 0.306268 0.138322 0.016974
O O13 0.445012 0.000000 0.086953
O O14 0.500000 0.096854 0.000000
O O15 0.187507 0.139610 0.725852
O O16 0.232868 0.000000 0.817546
O O17 0.978496 0.180539 0.385834
O O18 0.910640 0.000000 0.361661
O O19 0.500000 0.762185 0.500000
O O20 0.839464 0.000000 0.976624
#
# Coordination Sequence:
#
# PCOD8095185 Si02
#       8
#     8   8   8   8   8   8   8   8
#     4   9  17  30  51  80 109 135 166 206 247 285
#     4  12  21  32  52  73  93 122 160 201 250 301
#     4  10  21  36  52  71  96 125 160 204 253 304
#     4  10  20  32  47  68  93 118 145 186 240 294
#     4  10  22  37  51  71  99 131 168 208 246 290
#     4   9  18  34  53  71  98 137 175 206 239 285
#     4   9  17  30  52  80 107 136 169 204 242 287
#     4  10  21  36  52  72  97 123 156 202 256 312
#
# _framework density 18.541523999999999
#
# number of rings (size 3 to 8) (size 9 to 14) (size 15 to 20)
#    0.000    2.125    0.000    3.750    0.000    7.250 
#    0.000    0.000    0.000    1.500    0.000    0.000 
#    0.000    0.000    0.000    0.000    0.000    0.000 
#
# Total GULP energy -396595.688711 kJ/mol
# GULP energy per Si atom -12393.615272 kJ/mol
# Density = 1.849932 g / cm^3
# Si number density = 18.541524 Si / 1000 Ang^3
#
#
#
# Elastic Constant Matrix: (Units=GPa)
#
#
# Indices 1 2 3 4 5 6 
#
# 1 78.2742 48.7027 6.9674 0.0000 -7.7980 0.0000
# 2 48.7027 104.3964 34.1469 0.0000 -7.2948 0.0000
# 3 6.9674 34.1469 52.0919 0.0000 -14.9460 0.0000
# 4 0.0000 0.0000 0.0000 19.7152 0.0000 -0.3925
# 5 -7.7980 -7.2948 -14.9460 0.0000 17.8497 0.0000
# 6 0.0000 0.0000 0.0000 -0.3925 0.0000 37.9338
#
#
#
# Elastic Compliance Matrix: (Units=1/GPa)
#
#
# Indices 1 2 3 4 5 6 
#
# 1 0.020079 -0.011130 0.007663 0.000000 0.010640 0.000000
# 2 -0.011130 0.018432 -0.012935 0.000000 -0.008161 0.000000
# 3 0.007663 -0.012935 0.034346 0.000000 0.026820 0.000000
# 4 0.000000 0.000000 0.000000 0.050733 0.000000 0.000525
# 5 0.010640 -0.008161 0.026820 0.000000 0.079794 0.000000
# 6 0.000000 0.000000 0.000000 0.000525 0.000000 0.026367
#
#
# Mechanical properties :
#
#
# Convention : Reuss Voigt Hill
#
# Bulk Modulus (GPa) = 24.96727 46.04406 35.50566
# Shear Modulus (GPa) = 18.12214 24.76276 21.44245
#
# Velocity S-wave (km/s) = 3.12970 3.65845 3.40436
# Velocity P-wave (km/s) = 5.15314 6.53702 5.88589
#
# Compressibility (1/GPa) = 0.04005244
#
# Stress axis : x y z
#
# Youngs Moduli (GPa) = 49.80413 54.25360 29.11531
#
# Poissons Ratio (x) = 0.60385 -0.22311
# Poissons Ratio (y) = 0.55432 0.37661
# Poissons Ratio (z) = -0.38165 0.70178
#
# Static dielectric constant tensor:
#      x y z
#    x 3.506880 0.000000 -0.149310 
#    y 0.000000 3.875470 0.000000 
#    z -0.149310 0.000000 3.102860 
# 
# 
# High freq. dielectric constant tensor:
#      x y z
#    x 1.723390 0.000000 -0.014250 
#    y 0.000000 1.738190 0.000000 
#    z -0.014250 0.000000 1.677890 
# 
# From -- ./inp_files/305467.got.cif
#   From: 2010.06.25/outbox.cif.g09.slc.cpg/sg12_153_cif.got.tgz:305467.got - 2010.06.28 00:19:55.
