data_PCOD8095029
_publ_section_title
;
Structure prediction by ZEFSAII (Michael W. Deem and Ramdas Pophale) SiO2 
 PCOD8095029
Probable space group: C 2/M
;
_chemical_formula_sum "Si O2"
_cell_formula_units_Z 56
_cell_length_a 14.123064
_cell_length_b 13.306112
_cell_length_c 30.834927
_cell_angle_alpha 90.000000
_cell_angle_beta 147.061812
_cell_angle_gamma 90.000000
_cell_volume 3150.717535
_symmetry_space_group_name_H-M "C 2/M"
_symmetry_group_IT_number 12
_symmetry_cell_setting 'monoclinic'
loop_
_space_group_symop_operation_xyz
x,y,z
-x,y,-z
-x,-y,-z
x,-y,z
1/2+x,1/2+y,z
1/2-x,1/2+y,-z
1/2-x,1/2-y,-z
1/2+x,1/2-y,z
loop_
_atom_site_type_symbol
_atom_site_label
_atom_site_fract_x
_atom_site_fract_y
_atom_site_fract_z
Si Si1 0.728175 0.385667 0.917515
Si Si2 0.248792 0.385663 0.410984
Si Si3 0.906442 0.386309 0.336540
Si Si4 0.405402 0.885103 0.896422
Si Si5 0.750093 0.115411 0.312553
Si Si6 0.901696 0.244911 0.812928
Si Si7 0.065676 0.771272 0.449420
O O1 0.659008 0.500000 0.895269
O O2 0.770458 0.362553 0.883459
O O3 0.588634 0.307783 0.882666
O O4 0.899255 0.371618 0.011895
O O5 0.318120 0.500000 0.440466
O O6 0.215872 0.353108 0.349132
O O7 0.399276 0.313150 0.488793
O O8 0.069279 0.375115 0.367377
O O9 0.862236 0.500000 0.331610
O O10 0.744207 0.340017 0.248683
O O11 0.949910 0.330484 0.399277
O O12 0.370918 0.804084 0.845807
O O13 0.378348 0.000000 0.869311
O O14 0.610565 0.175045 0.230551
O O15 0.951754 0.144922 0.379221
O O16 0.717988 0.000000 0.290708
O O17 0.250000 0.750000 0.500000
#
# Coordination Sequence:
#
# PCOD8095029 Si02
#       7
#     8   8   8   8   8   8   8
#     4   9  19  36  57  78 104 143 181 214 259 319
#     4   9  17  31  50  70  97 130 166 210 259 312
#     4   9  19  32  47  72 103 134 167 208 262 313
#     4   9  19  36  56  79 106 138 180 221 260 309
#     4  10  20  31  48  77 104 130 166 212 267 315
#     4  11  20  31  55  79 107 136 174 219 261 312
#     4   9  17  30  48  68  90 129 172 209 241 298
#
# _framework density 17.773728999999999
#
# number of rings (size 3 to 8) (size 9 to 14) (size 15 to 20)
#    0.000    2.571    0.000    3.000    2.000    1.714 
#    0.000    0.000    0.000    7.714    0.000    6.000 
#    0.000    0.000    0.000    0.000    0.000    0.000 
#
# Total GULP energy -346958.759043 kJ/mol
# GULP energy per Si atom -12391.384252 kJ/mol
# Density = 1.773328 g / cm^3
# Si number density = 17.773729 Si / 1000 Ang^3
#
#
#
# Elastic Constant Matrix: (Units=GPa)
#
#
# Indices 1 2 3 4 5 6 
#
# 1 50.8923 35.2881 20.8965 0.0000 -10.4234 0.0000
# 2 35.2881 116.0261 48.8255 0.0000 -15.7019 0.0000
# 3 20.8965 48.8255 67.4387 0.0000 -10.5150 0.0000
# 4 0.0000 0.0000 0.0000 32.3892 0.0000 -5.3813
# 5 -10.4234 -15.7019 -10.5150 0.0000 28.1365 0.0000
# 6 0.0000 0.0000 0.0000 -5.3813 0.0000 21.9394
#
#
#
# Elastic Compliance Matrix: (Units=1/GPa)
#
#
# Indices 1 2 3 4 5 6 
#
# 1 0.026076 -0.005992 -0.002927 0.000000 0.005222 0.000000
# 2 -0.005992 0.014164 -0.007976 0.000000 0.002703 0.000000
# 3 -0.002927 -0.007976 0.021924 0.000000 0.002658 0.000000
# 4 0.000000 0.000000 0.000000 0.032186 0.000000 0.007895
# 5 0.005222 0.002703 0.002658 0.000000 0.039978 0.000000
# 6 0.000000 0.000000 0.000000 0.007895 0.000000 0.047516
#
#
# Mechanical properties :
#
#
# Convention : Reuss Voigt Hill
#
# Bulk Modulus (GPa) = 35.24531 49.37526 42.31029
# Shear Modulus (GPa) = 22.21312 25.11617 23.66465
#
# Velocity S-wave (km/s) = 3.53905 3.76321 3.65285
# Velocity P-wave (km/s) = 6.04755 6.83539 6.45350
#
# Compressibility (1/GPa) = 0.02837257
#
# Stress axis : x y z
#
# Youngs Moduli (GPa) = 38.34997 70.60393 45.61113
#
# Poissons Ratio (x) = 0.42306 0.13352
# Poissons Ratio (y) = 0.22980 0.36380
# Poissons Ratio (z) = 0.11226 0.56315
#
# Static dielectric constant tensor:
#      x y z
#    x 3.254120 0.000000 -0.033820 
#    y 0.000000 3.508800 0.000000 
#    z -0.033820 0.000000 3.358200 
# 
# 
# High freq. dielectric constant tensor:
#      x y z
#    x 1.673700 0.000000 0.004730 
#    y 0.000000 1.691450 0.000000 
#    z 0.004730 0.000000 1.692770 
# 
# From -- ./inp_files/214222.got.cif
#   From: 2010.06.25/outbox.cif.g09.slc.cpg/sg12_108_cif.got.tgz:214222.got - 2010.06.28 00:19:55.
