data_PCOD8095315
_publ_section_title
;
Structure prediction by ZEFSAII (Michael W. Deem and Ramdas Pophale) SiO2 
 PCOD8095315
Probable space group: C 2/M
;
_chemical_formula_sum "Si O2"
_cell_formula_units_Z 64
_cell_length_a 24.355447
_cell_length_b 9.090567
_cell_length_c 16.859588
_cell_angle_alpha 90.000000
_cell_angle_beta 76.257812
_cell_angle_gamma 90.000000
_cell_volume 3625.940877
_symmetry_space_group_name_H-M "C 2/M"
_symmetry_group_IT_number 12
_symmetry_cell_setting 'monoclinic'
loop_
_space_group_symop_operation_xyz
x,y,z
-x,y,-z
-x,-y,-z
x,-y,z
1/2+x,1/2+y,z
1/2-x,1/2+y,-z
1/2-x,1/2-y,-z
1/2+x,1/2-y,z
loop_
_atom_site_type_symbol
_atom_site_label
_atom_site_fract_x
_atom_site_fract_y
_atom_site_fract_z
Si Si1 0.807850 0.668338 0.479670
Si Si2 0.195642 0.329288 0.347747
Si Si3 0.315710 0.173494 0.305468
Si Si4 0.197514 0.832394 0.053696
Si Si5 0.136616 0.670509 0.209661
Si Si6 0.583351 0.333285 0.003854
Si Si7 0.024312 0.327514 0.161517
Si Si8 0.586472 0.672717 0.819179
O O1 0.791516 0.500000 0.478811
O O2 0.750000 0.750000 0.500000
O O3 0.836243 0.701553 0.556091
O O4 0.840253 0.709644 0.386610
O O5 0.214098 0.500000 0.335291
O O6 0.251706 0.231564 0.317631
O O7 0.149142 0.291215 0.296975
O O8 0.355564 0.255821 0.230103
O O9 0.316449 0.000000 0.287086
O O10 0.180644 0.762306 0.142978
O O11 0.214189 0.000000 0.063980
O O12 0.250000 0.750000 0.000000
O O13 0.147943 0.817021 0.007073
O O14 0.146859 0.500000 0.186598
O O15 0.072142 0.713303 0.210257
O O16 0.561751 0.500000 0.025582
O O17 0.579430 0.289270 0.913893
O O18 0.543862 0.225523 0.067886
O O19 0.012157 0.500000 0.162607
O O20 0.967169 0.244343 0.207339
O O21 0.588538 0.500000 0.801697
#
# Coordination Sequence:
#
# PCOD8095315 Si02
#       8
#     8   8   8   8   8   8   8   8
#     4   8  15  29  49  72 100 131 160 195 241 294
#     4   9  17  32  54  76 101 134 166 195 239 305
#     4  10  20  32  48  77 108 129 159 205 252 291
#     4  10  20  33  48  68  98 133 165 202 247 292
#     4   9  19  34  52  73  98 129 166 203 243 295
#     4   9  20  36  51  68  93 129 170 205 242 294
#     4  10  20  35  53  74  98 126 164 212 254 286
#     4  11  22  35  52  72  97 133 170 205 246 297
#
# _framework density 17.650590999999999
#
# number of rings (size 3 to 8) (size 9 to 14) (size 15 to 20)
#    0.000    2.500    0.000    1.875    1.750    4.500 
#    0.000    0.000    0.000    0.750    0.000    5.250 
#    0.000    0.000    0.000    0.000    0.000    0.000 
#
# Total GULP energy -396593.729431 kJ/mol
# GULP energy per Si atom -12393.554045 kJ/mol
# Density = 1.761042 g / cm^3
# Si number density = 17.650591 Si / 1000 Ang^3
#
#
#
# Elastic Constant Matrix: (Units=GPa)
#
#
# Indices 1 2 3 4 5 6 
#
# 1 63.6986 27.2691 40.0759 0.0000 8.9476 0.0000
# 2 27.2691 69.9852 33.7581 0.0000 3.7448 0.0000
# 3 40.0759 33.7581 69.5377 0.0000 24.1487 0.0000
# 4 0.0000 0.0000 0.0000 23.0479 0.0000 -2.4142
# 5 8.9476 3.7448 24.1487 0.0000 23.9905 0.0000
# 6 0.0000 0.0000 0.0000 -2.4142 0.0000 26.8974
#
#
#
# Elastic Compliance Matrix: (Units=1/GPa)
#
#
# Indices 1 2 3 4 5 6 
#
# 1 0.026003 -0.002769 -0.016026 0.000000 0.006866 0.000000
# 2 -0.002769 0.020490 -0.011683 0.000000 0.009595 0.000000
# 3 -0.016026 -0.011683 0.040864 0.000000 -0.033333 0.000000
# 4 0.000000 0.000000 0.000000 0.043800 0.000000 0.003931
# 5 0.006866 0.009595 -0.033333 0.000000 0.071178 0.000000
# 6 0.000000 0.000000 0.000000 0.003931 0.000000 0.037531
#
#
# Mechanical properties :
#
#
# Convention : Reuss Voigt Hill
#
# Bulk Modulus (GPa) = 37.87813 45.04754 41.46283
# Shear Modulus (GPa) = 16.14872 21.59504 18.87188
#
# Velocity S-wave (km/s) = 3.02803 3.50161 3.27340
# Velocity P-wave (km/s) = 5.80791 6.47500 6.15051
#
# Compressibility (1/GPa) = 0.02640046
#
# Stress axis : x y z
#
# Youngs Moduli (GPa) = 38.45784 48.80488 24.47112
#
# Poissons Ratio (x) = 0.13513 0.39217
# Poissons Ratio (y) = 0.10648 0.28591
# Poissons Ratio (z) = 0.61633 0.57021
#
# Static dielectric constant tensor:
#      x y z
#    x 3.272990 0.000000 0.278180 
#    y 0.000000 3.326400 0.000000 
#    z 0.278180 0.000000 3.840120 
# 
# 
# High freq. dielectric constant tensor:
#      x y z
#    x 1.665070 0.000000 0.013180 
#    y 0.000000 1.692000 0.000000 
#    z 0.013180 0.000000 1.678610 
# 
# From -- ./inp_files/243819.got.cif
#   From: 2010.06.25/outbox.cif.g09.slc.cpg/sg12_122_cif.got.tgz:243819.got - 2010.06.28 00:19:55.
