data_PCOD8095359
_publ_section_title
;
Structure prediction by ZEFSAII (Michael W. Deem and Ramdas Pophale) SiO2 
 PCOD8095359
Probable space group: C 2/M
;
_chemical_formula_sum "Si O2"
_cell_formula_units_Z 64
_cell_length_a 31.436759
_cell_length_b 8.922286
_cell_length_c 15.695958
_cell_angle_alpha 90.000000
_cell_angle_beta 125.854728
_cell_angle_gamma 90.000000
_cell_volume 3568.266439
_symmetry_space_group_name_H-M "C 2/M"
_symmetry_group_IT_number 12
_symmetry_cell_setting 'monoclinic'
loop_
_space_group_symop_operation_xyz
x,y,z
-x,y,-z
-x,-y,-z
x,-y,z
1/2+x,1/2+y,z
1/2-x,1/2+y,-z
1/2-x,1/2-y,-z
1/2+x,1/2-y,z
loop_
_atom_site_type_symbol
_atom_site_label
_atom_site_fract_x
_atom_site_fract_y
_atom_site_fract_z
Si Si1 0.641692 0.824103 0.429656
Si Si2 0.172541 0.175741 0.952304
Si Si3 0.194062 0.827061 0.336498
Si Si4 0.959558 0.327453 0.789974
Si Si5 0.267290 0.673908 0.144258
Si Si6 0.077319 0.327082 0.920074
Si Si7 0.588527 0.328287 0.111998
Si Si8 0.791992 0.175516 0.363616
O O1 0.683522 0.770456 0.408201
O O2 0.582746 0.781246 0.331468
O O3 0.653741 0.735297 0.531403
O O4 0.648293 0.000000 0.452514
O O5 0.191724 0.223188 0.880719
O O6 0.114795 0.241877 0.898257
O O7 0.169028 0.000000 0.960121
O O8 0.212857 0.237004 0.070544
O O9 0.146928 0.807104 0.215199
O O10 0.245573 0.767522 0.351945
O O11 0.201260 0.000000 0.371622
O O12 0.950926 0.500000 0.806805
O O13 0.953164 0.227562 0.866855
O O14 0.017369 0.300820 0.819530
O O15 0.253137 0.500000 0.119013
O O16 0.293734 0.711591 0.265361
O O17 0.092767 0.500000 0.936517
O O18 0.084184 0.270333 0.023474
O O19 0.575886 0.500000 0.075274
O O20 0.784502 0.000000 0.371830
#
# Coordination Sequence:
#
# PCOD8095359 Si02
#       8
#     8   8   8   8   8   8   8   8
#     4  10  20  35  52  70  96 131 170 209 246 284
#     4  10  20  35  55  79 104 129 162 202 244 293
#     4  10  20  33  48  71 103 135 166 200 241 290
#     4   9  20  36  51  69  98 136 172 206 246 294
#     4   9  20  37  55  76 104 134 160 195 247 302
#     4  11  21  33  51  74 101 134 169 203 247 299
#     4  10  20  32  49  75 104 133 168 208 246 289
#     4  11  21  33  51  74  99 129 165 202 245 296
#
# _framework density 17.935880000000001
#
# number of rings (size 3 to 8) (size 9 to 14) (size 15 to 20)
#    0.000    2.000    0.000    3.750    0.000    8.000 
#    0.000    0.000    0.000    0.750    0.000    5.250 
#    0.000    0.000    0.000    0.000    0.000    0.000 
#
# Total GULP energy -396913.619157 kJ/mol
# GULP energy per Si atom -12403.550599 kJ/mol
# Density = 1.789506 g / cm^3
# Si number density = 17.935880 Si / 1000 Ang^3
#
#
#
# Elastic Constant Matrix: (Units=GPa)
#
#
# Indices 1 2 3 4 5 6 
#
# 1 97.4616 32.5598 48.4818 0.0000 9.5863 0.0000
# 2 32.5598 62.2050 37.9272 0.0000 5.0390 0.0000
# 3 48.4818 37.9272 95.8307 0.0000 -7.1789 0.0000
# 4 0.0000 0.0000 0.0000 28.5719 0.0000 0.8565
# 5 9.5863 5.0390 -7.1789 0.0000 14.8752 0.0000
# 6 0.0000 0.0000 0.0000 0.8565 0.0000 28.9920
#
#
#
# Elastic Compliance Matrix: (Units=1/GPa)
#
#
# Indices 1 2 3 4 5 6 
#
# 1 0.016701 -0.002379 -0.008563 0.000000 -0.014089 0.000000
# 2 -0.002379 0.023669 -0.008974 0.000000 -0.010816 0.000000
# 3 -0.008563 -0.008974 0.019671 0.000000 0.018052 0.000000
# 4 0.000000 0.000000 0.000000 0.035030 0.000000 -0.001035
# 5 -0.014089 -0.010816 0.018052 0.000000 0.088682 0.000000
# 6 0.000000 0.000000 0.000000 -0.001035 0.000000 0.034523
#
#
# Mechanical properties :
#
#
# Convention : Reuss Voigt Hill
#
# Bulk Modulus (GPa) = 49.48458 54.82610 52.15534
# Shear Modulus (GPa) = 18.87902 23.58972 21.23437
#
# Velocity S-wave (km/s) = 3.24788 3.63054 3.44452
# Velocity P-wave (km/s) = 6.45868 6.94324 6.70534
#
# Compressibility (1/GPa) = 0.02020832
#
# Stress axis : x y z
#
# Youngs Moduli (GPa) = 59.87773 42.24932 50.83615
#
# Poissons Ratio (x) = 0.10053 0.43530
# Poissons Ratio (y) = 0.14247 0.45620
# Poissons Ratio (z) = 0.51272 0.37915
#
# Static dielectric constant tensor:
#      x y z
#    x 3.275800 0.000000 0.103380 
#    y 0.000000 3.445990 0.000000 
#    z 0.103380 0.000000 3.473490 
# 
# 
# High freq. dielectric constant tensor:
#      x y z
#    x 1.676730 0.000000 0.010910 
#    y 0.000000 1.708380 0.000000 
#    z 0.010910 0.000000 1.691270 
# 
# From -- ./inp_files/249185.got.cif
#   From: 2010.06.25/outbox.cif.g09.slc.cpg/sg12_125_cif.got.tgz:249185.got - 2010.06.28 00:19:55.
