data_PCOD8095832
_publ_section_title
;
Structure prediction by ZEFSAII (Michael W. Deem and Ramdas Pophale) SiO2 
 PCOD8095832
Probable space group: C 2/M
;
_chemical_formula_sum "Si O2"
_cell_formula_units_Z 56
_cell_length_a 31.353654
_cell_length_b 9.259411
_cell_length_c 11.712492
_cell_angle_alpha 90.000000
_cell_angle_beta 63.098965
_cell_angle_gamma 90.000000
_cell_volume 3032.376450
_symmetry_space_group_name_H-M "C 2/M"
_symmetry_group_IT_number 12
_symmetry_cell_setting 'monoclinic'
loop_
_space_group_symop_operation_xyz
x,y,z
-x,y,-z
-x,-y,-z
x,-y,z
1/2+x,1/2+y,z
1/2-x,1/2+y,-z
1/2-x,1/2-y,-z
1/2+x,1/2-y,z
loop_
_atom_site_type_symbol
_atom_site_label
_atom_site_fract_x
_atom_site_fract_y
_atom_site_fract_z
Si Si1 0.847971 0.166903 0.945505
Si Si2 0.771748 0.332835 0.168781
Si Si3 0.382924 0.828999 0.439108
Si Si4 0.294027 0.166473 0.395253
Si Si5 0.957563 0.171084 0.206020
Si Si6 0.437325 0.670739 0.977152
Si Si7 0.662483 0.666685 0.302441
O O1 0.857826 0.187056 0.799917
O O2 0.840978 0.000000 0.985547
O O3 0.799014 0.246520 0.037392
O O4 0.892756 0.235681 0.960333
O O5 0.772478 0.500000 0.133421
O O6 0.798665 0.302279 0.255281
O O7 0.717191 0.278953 0.243280
O O8 0.342474 0.782945 0.397205
O O9 0.432148 0.757326 0.338328
O O10 0.369873 0.765921 0.578162
O O11 0.389298 0.000000 0.440678
O O12 0.250000 0.250000 0.500000
O O13 0.283627 0.000000 0.431891
O O14 0.934369 0.218203 0.112892
O O15 0.952266 0.000000 0.232388
O O16 0.012854 0.221411 0.139677
O O17 0.436244 0.500000 0.971616
O O18 0.659062 0.500000 0.346282
#
# Coordination Sequence:
#
# PCOD8095832 Si02
#       7
#     8   8   8   8   8   8   8
#     4  10  20  34  54  78 101 131 176 219 253 299
#     4  10  20  34  51  74 104 136 170 208 257 311
#     4  11  22  34  51  78 107 136 172 213 256 302
#     4  10  20  33  50  73 103 134 166 207 250 296
#     4   9  17  33  58  80 103 135 165 206 263 313
#     4   8  16  33  56  82 104 127 169 215 255 306
#     4  10  21  36  52  71 102 143 178 210 250 301
#
# _framework density 18.467365000000001
#
# number of rings (size 3 to 8) (size 9 to 14) (size 15 to 20)
#    0.000    2.286    1.429    2.571    0.000    2.286 
#    0.000    2.857    0.000    4.286    0.000    0.000 
#    0.000    0.000    0.000    0.000    0.000    0.000 
#
# Total GULP energy -347247.305629 kJ/mol
# GULP energy per Si atom -12401.689487 kJ/mol
# Density = 1.842533 g / cm^3
# Si number density = 18.467365 Si / 1000 Ang^3
#
#
#
# Elastic Constant Matrix: (Units=GPa)
#
#
# Indices 1 2 3 4 5 6 
#
# 1 69.3329 21.4939 41.2015 0.0000 -5.0243 0.0000
# 2 21.4939 55.2436 51.5929 0.0000 -9.2901 0.0000
# 3 41.2015 51.5929 123.8686 0.0000 -18.2530 0.0000
# 4 0.0000 0.0000 0.0000 31.2216 0.0000 -4.3543
# 5 -5.0243 -9.2901 -18.2530 0.0000 27.0902 0.0000
# 6 0.0000 0.0000 0.0000 -4.3543 0.0000 20.1325
#
#
#
# Elastic Compliance Matrix: (Units=1/GPa)
#
#
# Indices 1 2 3 4 5 6 
#
# 1 0.018180 -0.002381 -0.005195 0.000000 -0.000945 0.000000
# 2 -0.002381 0.030040 -0.011399 0.000000 0.002180 0.000000
# 3 -0.005195 -0.011399 0.015355 0.000000 0.005474 0.000000
# 4 0.000000 0.000000 0.000000 0.033025 0.000000 0.007143
# 5 -0.000945 0.002180 0.005474 0.000000 0.041174 0.000000
# 6 0.000000 0.000000 0.000000 0.007143 0.000000 0.051216
#
#
# Mechanical properties :
#
#
# Convention : Reuss Voigt Hill
#
# Bulk Modulus (GPa) = 39.02224 53.00239 46.01232
# Shear Modulus (GPa) = 21.23310 24.63266 22.93288
#
# Velocity S-wave (km/s) = 3.39450 3.65615 3.52775
# Velocity P-wave (km/s) = 6.04481 6.82540 6.44693
#
# Compressibility (1/GPa) = 0.02562641
#
# Stress axis : x y z
#
# Youngs Moduli (GPa) = 55.00649 33.28861 65.12398
#
# Poissons Ratio (x) = 0.07926 0.33829
# Poissons Ratio (y) = 0.13096 0.74235
# Poissons Ratio (z) = 0.28573 0.37946
#
# Static dielectric constant tensor:
#      x y z
#    x 3.761080 0.000000 0.025880 
#    y 0.000000 3.172850 0.000000 
#    z 0.025880 0.000000 3.305800 
# 
# 
# High freq. dielectric constant tensor:
#      x y z
#    x 1.713230 0.000000 -0.000510 
#    y 0.000000 1.695580 0.000000 
#    z -0.000510 0.000000 1.717920 
# 
# From -- ./inp_files/180699.got.cif
#   From: 2010.06.25/outbox.cif.g09.slc.cpg/sg12_91_cif.got.tgz:180699.got - 2010.06.28 00:19:55.
