data_PCOD8095775
_publ_section_title
;
Structure prediction by ZEFSAII (Michael W. Deem and Ramdas Pophale) SiO2 
 PCOD8095775
Probable space group: C 2/M
;
_chemical_formula_sum "Si O2"
_cell_formula_units_Z 64
_cell_length_a 31.020743
_cell_length_b 8.930101
_cell_length_c 14.661566
_cell_angle_alpha 90.000000
_cell_angle_beta 118.205546
_cell_angle_gamma 90.000000
_cell_volume 3579.248522
_symmetry_space_group_name_H-M "C 2/M"
_symmetry_group_IT_number 12
_symmetry_cell_setting 'monoclinic'
loop_
_space_group_symop_operation_xyz
x,y,z
-x,y,-z
-x,-y,-z
x,-y,z
1/2+x,1/2+y,z
1/2-x,1/2+y,-z
1/2-x,1/2-y,-z
1/2+x,1/2-y,z
loop_
_atom_site_type_symbol
_atom_site_label
_atom_site_fract_x
_atom_site_fract_y
_atom_site_fract_z
Si Si1 0.361819 0.674937 0.091272
Si Si2 0.220435 0.175623 0.127854
Si Si3 0.832133 0.176109 0.425675
Si Si4 0.832133 0.323890 0.238590
Si Si5 0.720435 0.824378 0.313017
Si Si6 0.949200 0.823135 0.044046
Si Si7 0.861819 0.325063 0.632365
Si Si8 0.550801 0.176866 0.145646
O O1 0.358323 0.500000 0.109743
O O2 0.365259 0.764108 0.189301
O O3 0.409719 0.714186 0.081491
O O4 0.313797 0.730626 0.988743
O O5 0.276046 0.223993 0.162841
O O6 0.201295 0.249997 0.201297
O O7 0.215176 0.000000 0.136689
O O8 0.850765 0.250002 0.350765
O O9 0.776047 0.223988 0.389253
O O10 0.865260 0.235892 0.541217
O O11 0.838201 0.000000 0.422727
O O12 0.838199 0.500000 0.253672
O O13 0.686204 0.769378 0.361154
O O14 0.715175 0.000000 0.293658
O O15 0.000000 0.750000 0.127015
O O16 0.955662 0.000000 0.036200
O O17 0.931722 0.749999 0.931722
O O18 0.858325 0.500000 0.606904
O O19 0.909718 0.285809 0.737946
O O20 0.544339 0.000000 0.124879
#
# Coordination Sequence:
#
# PCOD8095775 Si02
#       8
#     8   8   8   8   8   8   8   8
#     4  10  20  33  50  73 100 130 166 205 244 289
#     4   9  18  31  47  71 102 133 165 201 241 287
#     4  10  20  33  50  71  98 133 168 204 244 286
#     4  10  20  33  50  71  98 133 168 204 244 286
#     4   9  18  31  47  71 102 133 165 201 241 287
#     4  10  20  34  53  76 103 132 161 199 245 293
#     4  10  20  33  50  73 100 130 166 205 244 289
#     4  10  20  34  53  76 103 132 161 199 245 293
#
# _framework density 17.880849000000001
#
# number of rings (size 3 to 8) (size 9 to 14) (size 15 to 20)
#    0.000    2.250    0.000    3.750    0.000    4.000 
#    0.000    0.000    0.000    0.750    0.000    5.250 
#    0.000    0.000    0.000    0.000    0.000    0.000 
#
# Total GULP energy -396891.687390 kJ/mol
# GULP energy per Si atom -12402.865231 kJ/mol
# Density = 1.784015 g / cm^3
# Si number density = 17.880849 Si / 1000 Ang^3
#
#
#
# Elastic Constant Matrix: (Units=GPa)
#
#
# Indices 1 2 3 4 5 6 
#
# 1 96.4701 47.9846 66.5886 0.0000 -17.8336 0.0000
# 2 47.9846 75.2433 58.4275 0.0000 -9.0425 0.0000
# 3 66.5886 58.4275 137.5042 0.0000 -17.6983 0.0000
# 4 0.0000 0.0000 0.0000 33.7781 0.0000 -6.1492
# 5 -17.8336 -9.0425 -17.6983 0.0000 25.1210 0.0000
# 6 0.0000 0.0000 0.0000 -6.1492 0.0000 26.6778
#
#
#
# Elastic Compliance Matrix: (Units=1/GPa)
#
#
# Indices 1 2 3 4 5 6 
#
# 1 0.018784 -0.007120 -0.005152 0.000000 0.007142 0.000000
# 2 -0.007120 0.022574 -0.006322 0.000000 -0.001383 0.000000
# 3 -0.005152 -0.006322 0.012856 0.000000 0.003124 0.000000
# 4 0.000000 0.000000 0.000000 0.030902 0.000000 0.007123
# 5 0.007142 -0.001383 0.003124 0.000000 0.046581 0.000000
# 6 0.000000 0.000000 0.000000 0.007123 0.000000 0.039126
#
#
# Mechanical properties :
#
#
# Convention : Reuss Voigt Hill
#
# Bulk Modulus (GPa) = 58.73419 72.80211 65.76815
# Shear Modulus (GPa) = 23.39897 26.19651 24.79774
#
# Velocity S-wave (km/s) = 3.62139 3.83176 3.72806
# Velocity P-wave (km/s) = 7.09963 7.77046 7.44261
#
# Compressibility (1/GPa) = 0.01702586
#
# Stress axis : x y z
#
# Youngs Moduli (GPa) = 53.23747 44.29915 77.78734
#
# Poissons Ratio (x) = 0.31542 0.40072
# Poissons Ratio (y) = 0.37907 0.49176
# Poissons Ratio (z) = 0.27425 0.28005
#
# Static dielectric constant tensor:
#      x y z
#    x 3.241320 0.000000 -0.032490 
#    y 0.000000 3.271750 0.000000 
#    z -0.032490 0.000000 3.278850 
# 
# 
# High freq. dielectric constant tensor:
#      x y z
#    x 1.676220 0.000000 -0.009680 
#    y 0.000000 1.697500 0.000000 
#    z -0.009680 0.000000 1.687400 
# 
# From -- ./inp_files/249242.got.cif
#   From: 2010.06.25/outbox.cif.g09.slc.cpg/sg12_125_cif.got.tgz:249242.got - 2010.06.28 00:19:55.
