data_PCOD8095533
_publ_section_title
;
Structure prediction by ZEFSAII (Michael W. Deem and Ramdas Pophale) SiO2 
 PCOD8095533
Probable space group: C 2/M
;
_chemical_formula_sum "Si O2"
_cell_formula_units_Z 56
_cell_length_a 26.663917
_cell_length_b 15.031900
_cell_length_c 9.140676
_cell_angle_alpha 90.000000
_cell_angle_beta 57.631357
_cell_angle_gamma 90.000000
_cell_volume 3094.411324
_symmetry_space_group_name_H-M "C 2/M"
_symmetry_group_IT_number 12
_symmetry_cell_setting 'monoclinic'
loop_
_space_group_symop_operation_xyz
x,y,z
-x,y,-z
-x,-y,-z
x,-y,z
1/2+x,1/2+y,z
1/2-x,1/2+y,-z
1/2-x,1/2-y,-z
1/2+x,1/2-y,z
loop_
_atom_site_type_symbol
_atom_site_label
_atom_site_fract_x
_atom_site_fract_y
_atom_site_fract_z
Si Si1 0.068388 0.807162 0.346585
Si Si2 0.733650 0.599431 0.269538
Si Si3 0.662235 0.227357 0.390126
Si Si4 0.809420 0.702634 0.349597
Si Si5 0.126880 0.834987 0.965264
Si Si6 0.436839 0.500000 0.663926
Si Si7 0.560149 0.500000 0.997925
Si Si8 0.253183 0.600445 0.087217
O O1 0.102306 0.732808 0.389019
O O2 0.094873 0.907905 0.335587
O O3 0.000000 0.799761 0.500000
O O4 0.079826 0.791079 0.154671
O O5 0.708490 0.500000 0.333858
O O6 0.683353 0.671432 0.382695
O O7 0.789606 0.614686 0.292037
O O8 0.757047 0.611947 0.068726
O O9 0.651117 0.182094 0.566852
O O10 0.711382 0.170933 0.230168
O O11 0.750000 0.750000 0.500000
O O12 0.848184 0.761071 0.180133
O O13 0.178878 0.879792 0.979517
O O14 0.096965 0.909775 0.907325
O O15 0.500000 0.500000 0.500000
O O16 0.450919 0.500000 0.812978
O O17 0.500000 0.500000 0.000000
O O18 0.237394 0.500000 0.161571
#
# Coordination Sequence:
#
# PCOD8095533 Si02
#       8
#     8   8   8   8   8   4   4   8
#     4  10  21  35  56  80 108 149 197 234 273 332
#     4  10  20  32  54  81 112 145 184 227 286 348
#     4  11  21  36  55  80 118 147 188 236 287 340
#     4  10  21  35  48  80 114 149 186 223 288 346
#     4  11  19  35  56  74 113 153 182 238 272 330
#     4   8  18  34  52  74 110 140 196 237 263 317
#     4  10  22  34  52  80 114 156 197 222 272 337
#     4  11  20  34  60  86 107 149 193 233 295 331
#
# _framework density 18.09714
#
# number of rings (size 3 to 8) (size 9 to 14) (size 15 to 20)
#    0.000    1.714    5.000    1.286    1.000    4.000 
#    5.143    0.000    0.000    0.429    0.000    0.000 
#    0.000    5.143    0.000    0.000    0.000    0.000 
#
# Total GULP energy -346919.792984 kJ/mol
# GULP energy per Si atom -12389.992607 kJ/mol
# Density = 1.805595 g / cm^3
# Si number density = 18.097140 Si / 1000 Ang^3
#
#
#
# Elastic Constant Matrix: (Units=GPa)
#
#
# Indices 1 2 3 4 5 6 
#
# 1 94.7326 30.6411 30.5658 0.0000 7.1408 0.0000
# 2 30.6411 51.8200 20.3390 0.0000 -0.7463 0.0000
# 3 30.5658 20.3390 85.5090 0.0000 -3.6539 0.0000
# 4 0.0000 0.0000 0.0000 13.8131 0.0000 -0.1964
# 5 7.1408 -0.7463 -3.6539 0.0000 30.3168 0.0000
# 6 0.0000 0.0000 0.0000 -0.1964 0.0000 29.5659
#
#
#
# Elastic Compliance Matrix: (Units=1/GPa)
#
#
# Indices 1 2 3 4 5 6 
#
# 1 0.014316 -0.007111 -0.003596 0.000000 -0.003981 0.000000
# 2 -0.007111 0.024817 -0.003280 0.000000 0.001891 0.000000
# 3 -0.003596 -0.003280 0.013865 0.000000 0.002437 0.000000
# 4 0.000000 0.000000 0.000000 0.072402 0.000000 0.000481
# 5 -0.003981 0.001891 0.002437 0.000000 0.034263 0.000000
# 6 0.000000 0.000000 0.000000 0.000481 0.000000 0.033826
#
#
# Mechanical properties :
#
#
# Convention : Reuss Voigt Hill
#
# Bulk Modulus (GPa) = 39.96332 43.90596 41.93464
# Shear Modulus (GPa) = 21.75759 24.77354 23.26557
#
# Velocity S-wave (km/s) = 3.47113 3.70391 3.58941
# Velocity P-wave (km/s) = 6.18026 6.52731 6.35616
#
# Compressibility (1/GPa) = 0.02502295
#
# Stress axis : x y z
#
# Youngs Moduli (GPa) = 69.84951 40.29483 72.12650
#
# Poissons Ratio (x) = 0.28654 0.25938
# Poissons Ratio (y) = 0.49671 0.23659
# Poissons Ratio (z) = 0.25119 0.13218
#
# Static dielectric constant tensor:
#      x y z
#    x 3.481130 0.000000 0.351840 
#    y 0.000000 3.209470 0.000000 
#    z 0.351840 0.000000 3.508380 
# 
# 
# High freq. dielectric constant tensor:
#      x y z
#    x 1.682220 0.000000 0.018180 
#    y 0.000000 1.681090 0.000000 
#    z 0.018180 0.000000 1.706070 
# 
# From -- ./inp_files/104474.got.cif
#   From: 2010.06.25/outbox.cif.g09.slc.cpg/sg12_53_cif.got.tgz:104474.got - 2010.06.28 00:19:55.
