data_PCOD8095069
_publ_section_title
;
Structure prediction by ZEFSAII (Michael W. Deem and Ramdas Pophale) SiO2 
 PCOD8095069
Probable space group: C 2/M
;
_chemical_formula_sum "Si O2"
_cell_formula_units_Z 56
_cell_length_a 19.651132
_cell_length_b 8.792212
_cell_length_c 29.439958
_cell_angle_alpha 90.000000
_cell_angle_beta 33.262381
_cell_angle_gamma 90.000000
_cell_volume 2789.837446
_symmetry_space_group_name_H-M "C 2/M"
_symmetry_group_IT_number 12
_symmetry_cell_setting 'monoclinic'
loop_
_space_group_symop_operation_xyz
x,y,z
-x,y,-z
-x,-y,-z
x,-y,z
1/2+x,1/2+y,z
1/2-x,1/2+y,-z
1/2-x,1/2-y,-z
1/2+x,1/2-y,z
loop_
_atom_site_type_symbol
_atom_site_label
_atom_site_fract_x
_atom_site_fract_y
_atom_site_fract_z
Si Si1 0.016795 0.676025 0.686661
Si Si2 0.057201 0.319028 0.563590
Si Si3 0.208298 0.681177 0.316948
Si Si4 0.324314 0.820402 0.000776
Si Si5 0.273917 0.320288 0.378974
Si Si6 0.590202 0.320474 0.867294
Si Si7 0.757948 0.824293 0.130710
O O1 0.046845 0.500000 0.677198
O O2 0.067449 0.734022 0.609921
O O3 0.088055 0.770657 0.685017
O O4 0.870634 0.706526 0.771603
O O5 0.054730 0.500000 0.562109
O O6 0.172128 0.251811 0.470765
O O7 0.928771 0.253434 0.615489
O O8 0.205787 0.500000 0.317133
O O9 0.249392 0.745015 0.342720
O O10 0.303600 0.740145 0.225793
O O11 0.261031 0.776116 0.083769
O O12 0.321225 0.000000 0.996731
O O13 0.250000 0.750000 0.000000
O O14 0.465246 0.763946 0.923204
O O15 0.264406 0.500000 0.384074
O O16 0.568868 0.500000 0.873887
O O17 0.631571 0.281603 0.895904
O O18 0.770306 0.000000 0.109214
#
# Coordination Sequence:
#
# PCOD8095069 Si02
#       7
#     8   8   8   8   8   8   8
#     4  10  20  35  56  81 115 156 196 236 286 347
#     4   9  16  32  55  81 112 152 199 243 284 336
#     4   9  17  32  56  85 114 149 195 242 284 334
#     4  12  27  44  64  91 122 151 188 238 296 356
#     4  10  20  31  52  85 118 151 195 247 292 331
#     4  10  20  39  65  89 118 157 201 241 288 349
#     4  10  21  40  64  88 117 158 202 241 289 351
#
# _framework density 20.072854
#
# number of rings (size 3 to 8) (size 9 to 14) (size 15 to 20)
#    0.000    2.000    1.429    2.571    2.000    4.571 
#    0.000    0.000    0.000    3.429    0.000    0.000 
#    0.000    0.000    0.000    0.000    0.000    0.000 
#
# Total GULP energy -347207.171814 kJ/mol
# GULP energy per Si atom -12400.256136 kJ/mol
# Density = 2.002717 g / cm^3
# Si number density = 20.072854 Si / 1000 Ang^3
#
#
#
# Elastic Constant Matrix: (Units=GPa)
#
#
# Indices 1 2 3 4 5 6 
#
# 1 159.0831 44.0730 45.3168 -0.0003 0.8961 -0.0027
# 2 44.0730 53.8250 28.8792 0.0027 2.0673 -0.0013
# 3 45.3168 28.8792 92.9077 -0.0003 4.8855 0.0003
# 4 -0.0003 0.0027 -0.0003 20.1785 -0.0001 -2.2249
# 5 0.8961 2.0673 4.8855 -0.0001 35.1927 0.0004
# 6 -0.0027 -0.0013 0.0003 -2.2249 0.0004 28.9873
#
#
#
# Elastic Compliance Matrix: (Units=1/GPa)
#
#
# Indices 1 2 3 4 5 6 
#
# 1 0.008559 -0.005729 -0.002418 0.000001 0.000454 0.000001
# 2 -0.005729 0.026136 -0.005295 -0.000004 -0.000654 0.000000
# 3 -0.002418 -0.005295 0.013669 0.000001 -0.001525 -0.000001
# 4 0.000001 -0.000004 0.000001 0.049981 0.000000 0.003836
# 5 0.000454 -0.000654 -0.001525 0.000000 0.028654 0.000000
# 6 0.000001 0.000000 -0.000001 0.003836 0.000000 0.034792
#
#
# Mechanical properties :
#
#
# Convention : Reuss Voigt Hill
#
# Bulk Modulus (GPa) = 46.55520 60.26154 53.40837
# Shear Modulus (GPa) = 25.53170 29.37482 27.45326
#
# Velocity S-wave (km/s) = 3.57031 3.82960 3.70223
# Velocity P-wave (km/s) = 6.34347 7.04564 6.70376
#
# Compressibility (1/GPa) = 0.02147988
#
# Stress axis : x y z
#
# Youngs Moduli (GPa) = 116.83084 38.26185 73.15803
#
# Poissons Ratio (x) = 0.21919 0.17691
# Poissons Ratio (y) = 0.66928 0.38740
# Poissons Ratio (z) = 0.28252 0.20261
#
# Static dielectric constant tensor:
#      x y z
#    x 3.792870 0.000000 0.071880 
#    y 0.000000 3.187290 0.000000 
#    z 0.071880 0.000000 3.858820 
# 
# 
# High freq. dielectric constant tensor:
#      x y z
#    x 1.800220 0.000000 0.000280 
#    y 0.000000 1.735880 0.000000 
#    z 0.000280 0.000000 1.797410 
# 
# From -- ./inp_files/275557.got.cif
#   From: 2010.06.25/outbox.cif.g09.slc.cpg/sg12_138_cif.got.tgz:275557.got - 2010.06.28 00:19:55.
