data_PCOD8095671
_publ_section_title
;
Structure prediction by ZEFSAII (Michael W. Deem and Ramdas Pophale) SiO2 
 PCOD8095671
Probable space group: C 2/M
;
_chemical_formula_sum "Si O2"
_cell_formula_units_Z 48
_cell_length_a 28.249645
_cell_length_b 10.419754
_cell_length_c 26.347183
_cell_angle_alpha 90.000000
_cell_angle_beta 19.856639
_cell_angle_gamma 90.000000
_cell_volume 2634.262750
_symmetry_space_group_name_H-M "C 2/M"
_symmetry_group_IT_number 12
_symmetry_cell_setting 'monoclinic'
loop_
_space_group_symop_operation_xyz
x,y,z
-x,y,-z
-x,-y,-z
x,-y,z
1/2+x,1/2+y,z
1/2-x,1/2+y,-z
1/2-x,1/2-y,-z
1/2+x,1/2-y,z
loop_
_atom_site_type_symbol
_atom_site_label
_atom_site_fract_x
_atom_site_fract_y
_atom_site_fract_z
Si Si1 0.684815 0.641268 0.631055
Si Si2 0.306521 0.854507 0.904287
Si Si3 0.663158 0.152141 0.239485
Si Si4 0.078378 0.363568 0.685331
Si Si5 0.842342 0.153000 0.152557
Si Si6 0.649029 0.152170 0.438201
O O1 0.619788 0.500000 0.709506
O O2 0.770974 0.631086 0.492392
O O3 0.564581 0.746629 0.739922
O O4 0.777664 0.694039 0.583468
O O5 0.280356 0.808394 0.873062
O O6 0.471837 0.853221 0.746140
O O7 0.246976 0.000000 0.973639
O O8 0.250000 0.750000 0.000000
O O9 0.774687 0.203301 0.168114
O O10 0.508022 0.209525 0.406540
O O11 0.650830 0.000000 0.254968
O O12 0.053801 0.500000 0.739039
O O13 0.743708 0.206055 0.296916
O O14 0.846421 0.000000 0.149369
O O15 0.000000 0.206874 0.000000
O O16 0.640724 0.000000 0.443419
#
# Coordination Sequence:
#
# PCOD8095671 Si02
#       6
#     8   8   8   8   8   8
#     4   9  16  27  47  70  92 121 159 197 233 278
#     4  10  20  33  49  69  97 132 167 201 241 289
#     4   9  16  29  46  63  91 130 163 195 242 295
#     4   9  17  30  44  64  96 127 157 195 238 280
#     4   9  17  26  39  65  97 123 155 201 247 290
#     4   9  15  26  45  67  92 126 163 197 239 292
#
# _framework density 18.221418
#
# number of rings (size 3 to 8) (size 9 to 14) (size 15 to 20)
#    0.000    2.833    1.667    0.500    0.000    4.000 
#    0.000    3.333    0.000    0.000    0.000    1.167 
#    0.000    6.667    0.000    0.000    0.000    0.000 
#
# Total GULP energy -297322.827104 kJ/mol
# GULP energy per Si atom -12388.451129 kJ/mol
# Density = 1.817994 g / cm^3
# Si number density = 18.221418 Si / 1000 Ang^3
#
#
#
# Elastic Constant Matrix: (Units=GPa)
#
#
# Indices 1 2 3 4 5 6 
#
# 1 148.3687 47.0335 49.0818 -0.0018 -4.6517 0.0003
# 2 47.0335 60.9831 21.2375 -0.0001 3.0331 0.0007
# 3 49.0818 21.2375 73.9351 -0.0047 10.3810 0.0028
# 4 -0.0018 -0.0001 -0.0047 13.2612 0.0028 -2.4039
# 5 -4.6517 3.0331 10.3810 0.0028 24.1038 -0.0013
# 6 0.0003 0.0007 0.0028 -2.4039 -0.0013 18.4133
#
#
#
# Elastic Compliance Matrix: (Units=1/GPa)
#
#
# Indices 1 2 3 4 5 6 
#
# 1 0.011098 -0.006665 -0.006249 -0.000002 0.005672 0.000001
# 2 -0.006665 0.022224 -0.001475 -0.000001 -0.003448 -0.000001
# 3 -0.006249 -0.001475 0.019415 0.000008 -0.009382 -0.000002
# 4 -0.000002 -0.000001 0.000008 0.077236 -0.000012 0.010084
# 5 0.005672 -0.003448 -0.009382 -0.000012 0.047056 0.000003
# 6 0.000001 -0.000001 -0.000002 0.010084 0.000003 0.055625
#
#
# Mechanical properties :
#
#
# Convention : Reuss Voigt Hill
#
# Bulk Modulus (GPa) = 41.73985 57.55472 49.64728
# Shear Modulus (GPa) = 18.55848 22.21792 20.38820
#
# Velocity S-wave (km/s) = 3.19485 3.49568 3.34865
# Velocity P-wave (km/s) = 6.04700 6.92444 6.50054
#
# Compressibility (1/GPa) = 0.02395792
#
# Stress axis : x y z
#
# Youngs Moduli (GPa) = 90.10653 44.99710 51.50690
#
# Poissons Ratio (x) = 0.29991 0.32188
# Poissons Ratio (y) = 0.60057 0.07597
# Poissons Ratio (z) = 0.56310 0.06637
#
# Static dielectric constant tensor:
#      x y z
#    x 3.601110 0.000000 -0.179970 
#    y 0.000000 3.178120 0.000010 
#    z -0.179970 0.000010 3.302450 
# 
# 
# High freq. dielectric constant tensor:
#      x y z
#    x 1.714510 0.000000 -0.010060 
#    y 0.000000 1.641000 0.000000 
#    z -0.010060 0.000000 1.693220 
# 
# From -- ./inp_files/94292.got.cif
#   From: 2010.06.25/outbox.cif.g09.slc.cpg/sg12_48_cif.got.tgz:94292.got - 2010.06.28 00:19:55.
