data_PCOD8095574
_publ_section_title
;
Structure prediction by ZEFSAII (Michael W. Deem and Ramdas Pophale) SiO2 
 PCOD8095574
Probable space group: C 2/M
;
_chemical_formula_sum "Si O2"
_cell_formula_units_Z 52
_cell_length_a 15.708540
_cell_length_b 11.948194
_cell_length_c 20.673377
_cell_angle_alpha 90.000000
_cell_angle_beta 36.221165
_cell_angle_gamma 90.000000
_cell_volume 2292.800325
_symmetry_space_group_name_H-M "C 2/M"
_symmetry_group_IT_number 12
_symmetry_cell_setting 'monoclinic'
loop_
_space_group_symop_operation_xyz
x,y,z
-x,y,-z
-x,-y,-z
x,-y,z
1/2+x,1/2+y,z
1/2-x,1/2+y,-z
1/2-x,1/2-y,-z
1/2+x,1/2-y,z
loop_
_atom_site_type_symbol
_atom_site_label
_atom_site_fract_x
_atom_site_fract_y
_atom_site_fract_z
Si Si1 0.152058 0.725979 0.157817
Si Si2 0.356877 0.758659 0.544150
Si Si3 0.012420 0.874902 0.346335
Si Si4 0.399642 0.000000 0.499853
Si Si5 0.206030 0.374848 0.740161
Si Si6 0.134585 0.500000 0.247868
Si Si7 0.549704 0.737095 0.078330
Si Si8 0.055257 0.000000 0.893208
O O1 0.059597 0.820056 0.250322
O O2 0.134072 0.607850 0.203268
O O3 0.097029 0.717248 0.118877
O O4 0.322548 0.756365 0.051760
O O5 0.500000 0.762246 0.500000
O O6 0.386729 0.695126 0.458376
O O7 0.304626 0.885833 0.559948
O O8 0.228805 0.694866 0.659777
O O9 0.147693 0.878444 0.310544
O O10 0.955164 0.000000 0.367869
O O11 0.500000 0.000000 0.500000
O O12 0.493128 0.000000 0.377679
O O13 0.155616 0.500000 0.752989
O O14 0.087071 0.313099 0.857515
O O15 0.271257 0.500000 0.212654
O O16 0.504689 0.607228 0.108069
O O17 0.000000 0.000000 0.000000
#
# Coordination Sequence:
#
# PCOD8095574 Si02
#       8
#     8   8   8   4   8   4   8   4
#     4  11  24  42  62  91 128 175 213 267 330 400
#     4   9  18  34  58  91 126 159 209 267 329 381
#     4  10  20  36  63  87 121 164 211 258 318 392
#     4  10  20  32  62 102 126 162 213 290 327 380
#     4  10  22  39  62  93 125 168 212 270 323 387
#     4  12  22  42  72  96 132 176 231 269 340 396
#     4  11  26  41  63  91 133 166 218 267 330 386
#     4  12  24  42  70  98 123 169 224 285 326 379
#
# _framework density 22.679690000000001
#
# number of rings (size 3 to 8) (size 9 to 14) (size 15 to 20)
#    0.000    1.538    3.077    1.385    6.462    2.462 
#    0.000    2.308    0.000    0.000    0.000    0.000 
#    0.000    0.000    0.000    0.000    0.000    0.000 
#
# Total GULP energy -322431.649791 kJ/mol
# GULP energy per Si atom -12401.217300 kJ/mol
# Density = 2.262807 g / cm^3
# Si number density = 22.679690 Si / 1000 Ang^3
#
#
#
# Elastic Constant Matrix: (Units=GPa)
#
#
# Indices 1 2 3 4 5 6 
#
# 1 19.3261 10.0203 0.9304 0.0004 9.1002 0.0008
# 2 10.0203 151.7511 39.4813 0.0005 11.2167 0.0008
# 3 0.9304 39.4813 83.2830 0.0014 22.7168 0.0024
# 4 0.0004 0.0005 0.0014 129.0757 -0.0008 77.8151
# 5 9.1002 11.2167 22.7168 -0.0008 27.4554 -0.0012
# 6 0.0008 0.0008 0.0024 77.8151 -0.0012 84.5871
#
#
#
# Elastic Compliance Matrix: (Units=1/GPa)
#
#
# Indices 1 2 3 4 5 6 
#
# 1 0.066795 -0.004716 0.009044 0.000001 -0.027695 -0.000002
# 2 -0.004716 0.007850 -0.004159 0.000000 0.001797 0.000000
# 3 0.009044 -0.004159 0.018380 0.000000 -0.016506 -0.000001
# 4 0.000001 0.000000 0.000000 0.017394 -0.000001 -0.016002
# 5 -0.027695 0.001797 -0.016506 -0.000001 0.058526 0.000002
# 6 -0.000002 0.000000 -0.000001 -0.016002 0.000002 0.026543
#
#
# Mechanical properties :
#
#
# Convention : Reuss Voigt Hill
#
# Bulk Modulus (GPa) = 10.71097 39.46937 25.09017
# Shear Modulus (GPa) = 22.09731 61.81885 41.95808
#
# Velocity S-wave (km/s) = 3.12480 5.22652 4.30586
# Velocity P-wave (km/s) = 4.21333 7.33913 5.98393
#
# Compressibility (1/GPa) = 0.09336226
#
# Stress axis : x y z
#
# Youngs Moduli (GPa) = 14.97127 127.38181 54.40599
#
# Poissons Ratio (x) = 0.60079 -0.49205
# Poissons Ratio (y) = 0.07061 0.22628
# Poissons Ratio (z) = -0.13540 0.52980
#
# Static dielectric constant tensor:
#      x y z
#    x 3.724290 0.000000 -0.015800 
#    y 0.000000 4.811020 0.000000 
#    z -0.015800 0.000000 4.345320 
# 
# 
# High freq. dielectric constant tensor:
#      x y z
#    x 1.871110 0.000000 0.003090 
#    y 0.000000 1.907830 0.000000 
#    z 0.003090 0.000000 1.902990 
# 
# From -- ./inp_files/315658.got.cif
#   From: 2010.06.25/outbox.cif.g09.slc.cpg/sg12_158_cif.got.tgz:315658.got - 2010.06.28 00:19:55.
