data_PCOD8095536
_publ_section_title
;
Structure prediction by ZEFSAII (Michael W. Deem and Ramdas Pophale) SiO2 
 PCOD8095536
Probable space group: C 2/M
;
_chemical_formula_sum "Si O2"
_cell_formula_units_Z 56
_cell_length_a 20.391462
_cell_length_b 9.261251
_cell_length_c 14.709919
_cell_angle_alpha 90.000000
_cell_angle_beta 86.267840
_cell_angle_gamma 90.000000
_cell_volume 2772.083371
_symmetry_space_group_name_H-M "C 2/M"
_symmetry_group_IT_number 12
_symmetry_cell_setting 'monoclinic'
loop_
_space_group_symop_operation_xyz
x,y,z
-x,y,-z
-x,-y,-z
x,-y,z
1/2+x,1/2+y,z
1/2-x,1/2+y,-z
1/2-x,1/2-y,-z
1/2+x,1/2-y,z
loop_
_atom_site_type_symbol
_atom_site_label
_atom_site_fract_x
_atom_site_fract_y
_atom_site_fract_z
Si Si1 0.277784 0.665737 0.137609
Si Si2 0.507316 0.330834 0.707377
Si Si3 0.981396 0.164041 0.906656
Si Si4 0.767318 0.666733 0.314835
Si Si5 0.889024 0.668581 0.425417
Si Si6 0.876399 0.832549 0.611219
Si Si7 0.832254 0.839045 0.945552
O O1 0.269818 0.500000 0.165192
O O2 0.297823 0.749729 0.226378
O O3 0.209040 0.721246 0.104203
O O4 0.332795 0.690212 0.054511
O O5 0.525583 0.500000 0.698458
O O6 0.513022 0.272839 0.811279
O O7 0.557739 0.238230 0.645413
O O8 0.432547 0.307179 0.680890
O O9 0.904094 0.171434 0.899011
O O10 0.006654 0.000000 0.912623
O O11 0.000000 0.245642 0.000000
O O12 0.765025 0.500000 0.288069
O O13 0.815299 0.695341 0.395384
O O14 0.693871 0.722171 0.344228
O O15 0.904810 0.500000 0.432505
O O16 0.896081 0.740633 0.522236
O O17 0.871310 0.000000 0.583006
O O18 0.802982 0.000000 0.930782
#
# Coordination Sequence:
#
# PCOD8095536 Si02
#       7
#     8   8   8   8   8   8   8
#     4  10  20  32  54  85 112 146 188 232 283 338
#     4  10  21  37  61  87 113 150 195 240 283 335
#     4   9  18  33  57  84 110 146 194 238 272 321
#     4  10  22  39  59  83 116 151 188 234 290 343
#     4  11  24  39  58  87 120 153 185 234 299 350
#     4  10  21  40  63  85 110 151 200 241 282 335
#     4   9  18  34  54  79 112 148 190 236 281 328
#
# _framework density 20.201412000000001
#
# number of rings (size 3 to 8) (size 9 to 14) (size 15 to 20)
#    0.000    2.143    0.000    2.571    2.000    6.857 
#    0.000    2.143    0.000    0.857    0.000    0.000 
#    0.000    0.000    0.000    0.000    0.000    0.000 
#
# Total GULP energy -347160.819337 kJ/mol
# GULP energy per Si atom -12398.600691 kJ/mol
# Density = 2.015543 g / cm^3
# Si number density = 20.201412 Si / 1000 Ang^3
#
#
#
# Elastic Constant Matrix: (Units=GPa)
#
#
# Indices 1 2 3 4 5 6 
#
# 1 63.9705 21.5338 17.7510 0.0000 -5.3298 0.0000
# 2 21.5338 64.5300 46.4464 0.0000 -3.3815 0.0000
# 3 17.7510 46.4464 130.0472 0.0000 -3.1194 0.0000
# 4 0.0000 0.0000 0.0000 22.5295 0.0000 5.1163
# 5 -5.3298 -3.3815 -3.1194 0.0000 27.6228 0.0000
# 6 0.0000 0.0000 0.0000 5.1163 0.0000 22.4202
#
#
#
# Elastic Compliance Matrix: (Units=1/GPa)
#
#
# Indices 1 2 3 4 5 6 
#
# 1 0.017827 -0.005521 -0.000396 0.000000 0.002719 0.000000
# 2 -0.005521 0.022650 -0.007315 0.000000 0.000881 0.000000
# 3 -0.000396 -0.007315 0.010361 0.000000 0.000198 0.000000
# 4 0.000000 0.000000 0.000000 0.046812 0.000000 -0.010682
# 5 0.002719 0.000881 0.000198 0.000000 0.036857 0.000000
# 6 0.000000 0.000000 0.000000 -0.010682 0.000000 0.047040
#
#
# Mechanical properties :
#
#
# Convention : Reuss Voigt Hill
#
# Bulk Modulus (GPa) = 41.02776 47.77891 44.40333
# Shear Modulus (GPa) = 23.13349 26.03560 24.58454
#
# Velocity S-wave (km/s) = 3.38767 3.59388 3.49230
# Velocity P-wave (km/s) = 5.97119 6.39718 6.18785
#
# Compressibility (1/GPa) = 0.02437374
#
# Stress axis : x y z
#
# Youngs Moduli (GPa) = 56.09377 44.14958 96.51753
#
# Poissons Ratio (x) = 0.24377 0.03824
# Poissons Ratio (y) = 0.30971 0.70600
# Poissons Ratio (z) = 0.02222 0.32294
#
# Static dielectric constant tensor:
#      x y z
#    x 3.633280 0.000000 -0.015970 
#    y 0.000000 3.514390 0.000000 
#    z -0.015970 0.000000 3.872590 
# 
# 
# High freq. dielectric constant tensor:
#      x y z
#    x 1.788370 0.000000 -0.002500 
#    y 0.000000 1.762720 0.000000 
#    z -0.002500 0.000000 1.805980 
# 
# From -- ./inp_files/231065.got.cif
#   From: 2010.06.25/outbox.cif.g09.slc.cpg/sg12_116_cif.got.tgz:231065.got - 2010.06.28 00:19:55.
