data_PCOD8095642
_publ_section_title
;
Structure prediction by ZEFSAII (Michael W. Deem and Ramdas Pophale) SiO2 
 PCOD8095642
Probable space group: C 2/M
;
_chemical_formula_sum "Si O2"
_cell_formula_units_Z 64
_cell_length_a 16.925476
_cell_length_b 18.335034
_cell_length_c 11.560282
_cell_angle_alpha 90.000000
_cell_angle_beta 70.264764
_cell_angle_gamma 90.000000
_cell_volume 3376.774454
_symmetry_space_group_name_H-M "C 2/M"
_symmetry_group_IT_number 12
_symmetry_cell_setting 'monoclinic'
loop_
_space_group_symop_operation_xyz
x,y,z
-x,y,-z
-x,-y,-z
x,-y,z
1/2+x,1/2+y,z
1/2-x,1/2+y,-z
1/2-x,1/2-y,-z
1/2+x,1/2-y,z
loop_
_atom_site_type_symbol
_atom_site_label
_atom_site_fract_x
_atom_site_fract_y
_atom_site_fract_z
Si Si1 0.032337 0.870538 0.185259
Si Si2 0.972730 0.285938 0.887895
Si Si3 0.258566 0.414154 0.539671
Si Si4 0.207220 0.321936 0.967985
Si Si5 0.350090 0.186898 0.261087
Si Si6 0.841555 0.144149 0.279064
Si Si7 0.328242 0.416253 0.042089
Si Si8 0.582202 0.584426 0.403247
O O1 0.043453 0.783640 0.184876
O O2 0.083956 0.903708 0.266075
O O3 0.934415 0.892191 0.241849
O O4 0.076483 0.903254 0.049096
O O5 0.887296 0.332216 0.935499
O O6 0.051182 0.333553 0.803567
O O7 0.000000 0.254418 0.000000
O O8 0.240522 0.500000 0.564927
O O9 0.179500 0.368107 0.624250
O O10 0.278111 0.397115 0.396230
O O11 0.335527 0.382785 0.577767
O O12 0.261788 0.391613 0.977418
O O13 0.250000 0.250000 0.000000
O O14 0.202844 0.321201 0.831016
O O15 0.342807 0.270283 0.307695
O O16 0.809935 0.132147 0.164333
O O17 0.313708 0.500000 0.079651
O O18 0.500000 0.622488 0.500000
O O19 0.581700 0.500000 0.435546
#
# Coordination Sequence:
#
# PCOD8095642 Si02
#       8
#     8   8   8   8   8   8   8   8
#     4  11  19  33  55  81 115 150 189 228 278 350
#     4   9  19  36  59  85 109 146 188 232 287 335
#     4  11  23  38  57  81 115 157 198 243 290 332
#     4  11  19  38  61  83 116 149 180 233 290 335
#     4  10  21  38  61  85 111 149 202 236 274 348
#     4  11  22  38  56  80 118 158 190 232 288 347
#     4  12  24  34  55  91 118 147 188 232 291 356
#     4  10  20  33  48  73 111 154 185 220 281 341
#
# _framework density 18.952998000000001
#
# number of rings (size 3 to 8) (size 9 to 14) (size 15 to 20)
#    0.000    1.375    3.750    3.750    0.000    3.500 
#    0.000    0.625    0.000    2.250    0.000    1.750 
#    0.000    0.000    0.000    0.000    0.000    0.000 
#
# Total GULP energy -396801.900434 kJ/mol
# GULP energy per Si atom -12400.059389 kJ/mol
# Density = 1.890986 g / cm^3
# Si number density = 18.952998 Si / 1000 Ang^3
#
#
#
# Elastic Constant Matrix: (Units=GPa)
#
#
# Indices 1 2 3 4 5 6 
#
# 1 82.3062 27.7126 32.7967 0.0000 -15.7951 0.0000
# 2 27.7126 76.3747 29.5828 0.0000 -15.8603 0.0000
# 3 32.7967 29.5828 103.9802 0.0000 -16.7713 0.0000
# 4 0.0000 0.0000 0.0000 28.1275 0.0000 0.1618
# 5 -15.7951 -15.8603 -16.7713 0.0000 32.5774 0.0000
# 6 0.0000 0.0000 0.0000 0.1618 0.0000 22.6626
#
#
#
# Elastic Compliance Matrix: (Units=1/GPa)
#
#
# Indices 1 2 3 4 5 6 
#
# 1 0.015389 -0.003491 -0.003197 0.000000 0.004116 0.000000
# 2 -0.003491 0.016456 -0.002793 0.000000 0.004881 0.000000
# 3 -0.003197 -0.002793 0.011943 0.000000 0.003238 0.000000
# 4 0.000000 0.000000 0.000000 0.035554 0.000000 -0.000254
# 5 0.004116 0.004881 0.003238 0.000000 0.036735 0.000000
# 6 0.000000 0.000000 0.000000 -0.000254 0.000000 0.044127
#
#
# Mechanical properties :
#
#
# Convention : Reuss Voigt Hill
#
# Bulk Modulus (GPa) = 40.28217 49.20506 44.74361
# Shear Modulus (GPa) = 26.67518 28.17812 27.42665
#
# Velocity S-wave (km/s) = 3.75565 3.86001 3.80819
# Velocity P-wave (km/s) = 6.33297 6.77379 6.55708
#
# Compressibility (1/GPa) = 0.02482488
#
# Stress axis : x y z
#
# Youngs Moduli (GPa) = 64.98214 60.76981 83.73406
#
# Poissons Ratio (x) = 0.21214 0.26768
# Poissons Ratio (y) = 0.22684 0.23390
# Poissons Ratio (z) = 0.20773 0.16975
#
# Static dielectric constant tensor:
#      x y z
#    x 3.647870 0.000000 -0.102600 
#    y 0.000000 3.187910 0.000000 
#    z -0.102600 0.000000 3.474940 
# 
# 
# High freq. dielectric constant tensor:
#      x y z
#    x 1.731580 0.000000 -0.006770 
#    y 0.000000 1.708690 0.000000 
#    z -0.006770 0.000000 1.739790 
# 
# From -- ./inp_files/157806.got.cif
#   From: 2010.06.25/outbox.cif.g09.slc.cpg/sg12_79_cif.got.tgz:157806.got - 2010.06.28 00:19:55.
