data_PCOD8095106
_publ_section_title
;
Structure prediction by ZEFSAII (Michael W. Deem and Ramdas Pophale) SiO2 
 PCOD8095106
Probable space group: C 2/M
;
_chemical_formula_sum "Si O2"
_cell_formula_units_Z 40
_cell_length_a 25.225969
_cell_length_b 9.043886
_cell_length_c 9.990743
_cell_angle_alpha 90.000000
_cell_angle_beta 87.340700
_cell_angle_gamma 90.000000
_cell_volume 2276.841371
_symmetry_space_group_name_H-M "C 2/M"
_symmetry_group_IT_number 12
_symmetry_cell_setting 'monoclinic'
loop_
_space_group_symop_operation_xyz
x,y,z
-x,y,-z
-x,-y,-z
x,-y,z
1/2+x,1/2+y,z
1/2-x,1/2+y,-z
1/2-x,1/2-y,-z
1/2+x,1/2-y,z
loop_
_atom_site_type_symbol
_atom_site_label
_atom_site_fract_x
_atom_site_fract_y
_atom_site_fract_z
Si Si1 0.696194 0.672367 0.164654
Si Si2 0.317628 0.172796 0.103084
Si Si3 0.622873 0.176930 0.377815
Si Si4 0.896667 0.676687 0.321271
Si Si5 0.990410 0.661291 0.657651
O O1 0.683523 0.500000 0.168956
O O2 0.758657 0.705617 0.162203
O O3 0.671953 0.749172 0.297649
O O4 0.670322 0.740581 0.034483
O O5 0.358049 0.234779 0.209804
O O6 0.326075 0.000000 0.074224
O O7 0.626065 0.227717 0.532326
O O8 0.567337 0.238290 0.317712
O O9 0.625807 0.000000 0.365306
O O10 0.900190 0.500000 0.320159
O O11 0.956760 0.742414 0.289398
O O12 0.986434 0.500000 0.726126
O O13 0.000000 0.640762 0.500000
#
# Coordination Sequence:
#
# PCOD8095106 Si02
#       5
#     8   8   8   8   8
#     4  10  20  32  45  64  92 123 152 183 221 265
#     4   9  18  33  50  65  85 118 156 189 222 260
#     4   9  16  28  49  73  93 115 144 180 224 270
#     4   8  14  27  49  73  91 110 146 192 225 255
#     4   7  11  22  43  70  93 111 138 180 224 261
#
# _framework density 17.568197999999999
#
# number of rings (size 3 to 8) (size 9 to 14) (size 15 to 20)
#    0.000    3.400    0.000    3.000    0.000    1.600 
#    0.000    2.000    0.000   12.600    0.000    0.000 
#    0.000    0.000    0.000    0.000    0.000    0.000 
#
# Total GULP energy -247761.319277 kJ/mol
# GULP energy per Si atom -12388.065964 kJ/mol
# Density = 1.752821 g / cm^3
# Si number density = 17.568198 Si / 1000 Ang^3
#
#
#
# Elastic Constant Matrix: (Units=GPa)
#
#
# Indices 1 2 3 4 5 6 
#
# 1 64.7251 13.2514 27.0782 0.0000 28.1491 0.0000
# 2 13.2514 27.2905 13.2081 0.0000 3.9098 0.0000
# 3 27.0782 13.2081 57.7091 0.0000 25.1104 0.0000
# 4 0.0000 0.0000 0.0000 19.6639 0.0000 -4.7058
# 5 28.1491 3.9098 25.1104 0.0000 31.7981 0.0000
# 6 0.0000 0.0000 0.0000 -4.7058 0.0000 15.0534
#
#
#
# Elastic Compliance Matrix: (Units=1/GPa)
#
#
# Indices 1 2 3 4 5 6 
#
# 1 0.027630 -0.009737 -0.000936 0.000000 -0.022524 0.000000
# 2 -0.009737 0.044915 -0.010754 0.000000 0.011589 0.000000
# 3 -0.000936 -0.010754 0.029392 0.000000 -0.021060 0.000000
# 4 0.000000 0.000000 0.000000 0.054967 0.000000 0.017183
# 5 -0.022524 0.011589 -0.021060 0.000000 0.066593 0.000000
# 6 0.000000 0.000000 0.000000 0.017183 0.000000 0.071802
#
#
# Mechanical properties :
#
#
# Convention : Reuss Voigt Hill
#
# Bulk Modulus (GPa) = 16.92470 28.53335 22.72903
# Shear Modulus (GPa) = 13.97246 19.71555 16.84400
#
# Velocity S-wave (km/s) = 2.82321 3.35360 3.09977
# Velocity P-wave (km/s) = 4.50356 5.59216 5.07712
#
# Compressibility (1/GPa) = 0.05908523
#
# Stress axis : x y z
#
# Youngs Moduli (GPa) = 36.19198 22.26426 34.02259
#
# Poissons Ratio (x) = 0.21678 0.03184
# Poissons Ratio (y) = 0.35239 0.36587
# Poissons Ratio (z) = 0.03387 0.23942
#
# Static dielectric constant tensor:
#      x y z
#    x 3.693550 0.000000 0.156990 
#    y 0.000000 2.820810 0.000000 
#    z 0.156990 0.000000 3.131050 
# 
# 
# High freq. dielectric constant tensor:
#      x y z
#    x 1.693810 0.000000 0.004810 
#    y 0.000000 1.629690 0.000000 
#    z 0.004810 0.000000 1.660170 
# 
# From -- ./inp_files/93708.got.cif
#   From: 2010.06.25/outbox.cif.g09.slc.cpg/sg12_47_cif.got.tgz:93708.got - 2010.06.28 00:19:55.
