data_PCOD8095469
_publ_section_title
;
Structure prediction by ZEFSAII (Michael W. Deem and Ramdas Pophale) SiO2 
 PCOD8095469
Probable space group: C 2/M
;
_chemical_formula_sum "Si O2"
_cell_formula_units_Z 64
_cell_length_a 19.611504
_cell_length_b 8.782258
_cell_length_c 31.499232
_cell_angle_alpha 90.000000
_cell_angle_beta 143.456104
_cell_angle_gamma 90.000000
_cell_volume 3230.382493
_symmetry_space_group_name_H-M "C 2/M"
_symmetry_group_IT_number 12
_symmetry_cell_setting 'monoclinic'
loop_
_space_group_symop_operation_xyz
x,y,z
-x,y,-z
-x,-y,-z
x,-y,z
1/2+x,1/2+y,z
1/2-x,1/2+y,-z
1/2-x,1/2-y,-z
1/2+x,1/2-y,z
loop_
_atom_site_type_symbol
_atom_site_label
_atom_site_fract_x
_atom_site_fract_y
_atom_site_fract_z
Si Si1 0.023475 0.680684 0.626810
Si Si2 0.061727 0.819955 0.104372
Si Si3 0.276164 0.681315 0.739964
Si Si4 0.520516 0.175791 0.719546
Si Si5 0.325606 0.679337 0.672023
Si Si6 0.903464 0.681452 0.484130
Si Si7 0.736942 0.324189 0.120553
Si Si8 0.687164 0.179770 0.009503
O O1 0.031987 0.500000 0.628112
O O2 0.149072 0.749307 0.681219
O O3 0.985492 0.730310 0.654810
O O4 0.934047 0.742028 0.546787
O O5 0.142144 0.757167 0.182156
O O6 0.122704 0.780093 0.089943
O O7 0.040998 0.000000 0.097535
O O8 0.942084 0.736143 0.049763
O O9 0.272410 0.500000 0.740548
O O10 0.322980 0.741753 0.718552
O O11 0.447615 0.275288 0.715061
O O12 0.654604 0.204945 0.794712
O O13 0.489814 0.000000 0.711068
O O14 0.312852 0.500000 0.666122
O O15 0.220007 0.747720 0.591617
O O16 0.901771 0.500000 0.482610
O O17 0.000000 0.741264 0.500000
O O18 0.729997 0.500000 0.103282
O O19 0.751726 0.225694 0.085280
O O20 0.690140 0.000000 0.005507
O O21 0.750000 0.250000 0.000000
#
# Coordination Sequence:
#
# PCOD8095469 Si02
#       8
#     8   8   8   8   8   8   8   8
#     4   9  15  29  53  80 108 145 191 235 277 329
#     4  10  20  38  64  90 116 151 194 239 286 340
#     4   9  16  30  55  84 110 140 189 240 280 324
#     4  10  21  36  55  81 115 151 187 228 279 341
#     4  10  20  32  51  83 115 145 188 242 290 329
#     4   9  15  26  49  80 110 140 186 245 287 322
#     4  10  21  40  64  87 115 153 195 237 284 344
#     4  12  27  44  62  88 121 153 188 233 285 343
#
# _framework density 19.811896000000001
#
# number of rings (size 3 to 8) (size 9 to 14) (size 15 to 20)
#    0.000    2.125    2.500    1.500    1.750    3.000 
#    0.000    0.000    0.000    1.125    0.000    0.000 
#    0.000    0.000    0.000    0.000    0.000    0.000 
#
# Total GULP energy -396719.679228 kJ/mol
# GULP energy per Si atom -12397.489976 kJ/mol
# Density = 1.976680 g / cm^3
# Si number density = 19.811896 Si / 1000 Ang^3
#
#
#
# Elastic Constant Matrix: (Units=GPa)
#
#
# Indices 1 2 3 4 5 6 
#
# 1 130.3990 33.3182 39.8288 0.0000 -11.7336 -0.0002
# 2 33.3182 43.2323 24.3755 0.0001 -5.0612 -0.0008
# 3 39.8288 24.3755 91.6847 0.0000 -16.8251 -0.0001
# 4 0.0000 0.0001 0.0000 14.4550 0.0000 0.8654
# 5 -11.7336 -5.0612 -16.8251 0.0000 40.7933 0.0000
# 6 -0.0002 -0.0008 -0.0001 0.8654 0.0000 25.0299
#
#
#
# Elastic Compliance Matrix: (Units=1/GPa)
#
#
# Indices 1 2 3 4 5 6 
#
# 1 0.010142 -0.006255 -0.002542 0.000000 0.001093 0.000000
# 2 -0.006255 0.031074 -0.005590 0.000000 -0.000249 0.000001
# 3 -0.002542 -0.005590 0.014320 0.000000 0.004481 0.000000
# 4 0.000000 0.000000 0.000000 0.069324 0.000000 -0.002397
# 5 0.001093 -0.000249 0.004481 0.000000 0.026645 0.000000
# 6 0.000000 0.000001 0.000000 -0.002397 0.000000 0.040035
#
#
# Mechanical properties :
#
#
# Convention : Reuss Voigt Hill
#
# Bulk Modulus (GPa) = 37.36716 51.15121 44.25918
# Shear Modulus (GPa) = 21.81174 27.24188 24.52681
#
# Velocity S-wave (km/s) = 3.32164 3.71216 3.52232
# Velocity P-wave (km/s) = 5.79767 6.65191 6.23943
#
# Compressibility (1/GPa) = 0.02676146
#
# Stress axis : x y z
#
# Youngs Moduli (GPa) = 98.60252 32.18141 69.83286
#
# Poissons Ratio (x) = 0.20129 0.17754
# Poissons Ratio (y) = 0.61673 0.39037
# Poissons Ratio (z) = 0.25068 0.17989
#
# Static dielectric constant tensor:
#      x y z
#    x 3.662520 0.000000 -0.190930 
#    y 0.000000 3.075040 0.000000 
#    z -0.190930 0.000000 3.950800 
# 
# 
# High freq. dielectric constant tensor:
#      x y z
#    x 1.781370 0.000000 -0.008780 
#    y 0.000000 1.715600 0.000000 
#    z -0.008780 0.000000 1.789450 
# 
# From -- ./inp_files/378520.got.cif
#   From: 2010.06.25/outbox.cif.g09.slc.cpg/sg12_190_cif.got.tgz:378520.got - 2010.06.28 00:19:55.
