data_PCOD8095920
_publ_section_title
;
Structure prediction by ZEFSAII (Michael W. Deem and Ramdas Pophale) SiO2 
 PCOD8095920
Probable space group: C 2/M
;
_chemical_formula_sum "Si O2"
_cell_formula_units_Z 48
_cell_length_a 23.868658
_cell_length_b 24.957913
_cell_length_c 5.542066
_cell_angle_alpha 90.000000
_cell_angle_beta 127.424504
_cell_angle_gamma 90.000000
_cell_volume 2621.881870
_symmetry_space_group_name_H-M "C 2/M"
_symmetry_group_IT_number 12
_symmetry_cell_setting 'monoclinic'
loop_
_space_group_symop_operation_xyz
x,y,z
-x,y,-z
-x,-y,-z
x,-y,z
1/2+x,1/2+y,z
1/2-x,1/2+y,-z
1/2-x,1/2-y,-z
1/2+x,1/2-y,z
loop_
_atom_site_type_symbol
_atom_site_label
_atom_site_fract_x
_atom_site_fract_y
_atom_site_fract_z
Si Si1 0.043355 0.721443 0.862571
Si Si2 0.048352 0.441296 0.418414
Si Si3 0.881541 0.623567 0.767814
Si Si4 0.304194 0.059321 0.946627
Si Si5 0.188894 0.755864 0.146254
Si Si6 0.724966 0.163262 0.891866
O O1 0.000000 0.730608 0.500000
O O2 0.077958 0.662284 0.940340
O O3 0.109775 0.763043 0.044264
O O4 0.000000 0.729864 0.000000
O O5 0.016206 0.500000 0.278042
O O6 0.052899 0.406604 0.187777
O O7 0.000000 0.413955 0.500000
O O8 0.128464 0.446384 0.710031
O O9 0.829618 0.580269 0.753548
O O10 0.835083 0.659536 0.468386
O O11 0.267726 0.000000 0.827035
O O12 0.254457 0.104874 0.940619
O O13 0.250000 0.750000 0.500000
O O14 0.204580 0.808674 0.026109
O O15 0.189715 0.700817 0.999229
#
# Coordination Sequence:
#
# PCOD8095920 Si02
#       6
#     8   8   8   8   8   8
#     4  12  27  39  57  90 122 154 199 253 301 349
#     4   9  20  33  45  65  99 151 204 246 286 334
#     4  11  21  34  52  77 107 154 191 248 295 346
#     4  10  20  33  50  77 108 144 196 250 296 334
#     4  11  21  39  61  82 110 155 203 243 299 365
#     4  10  20  36  60  80 107 151 205 244 296 350
#
# _framework density 18.307459999999999
#
# number of rings (size 3 to 8) (size 9 to 14) (size 15 to 20)
#    0.000    1.500    3.333    1.500    7.000    0.667 
#    0.000    2.500    0.000    1.500    0.000    0.000 
#    0.000    1.333    0.000    0.333    0.000    0.167 
#
# Total GULP energy -297356.207735 kJ/mol
# GULP energy per Si atom -12389.841989 kJ/mol
# Density = 1.826579 g / cm^3
# Si number density = 18.307460 Si / 1000 Ang^3
#
#
#
# Elastic Constant Matrix: (Units=GPa)
#
#
# Indices 1 2 3 4 5 6 
#
# 1 122.9578 66.6793 33.8364 0.0000 -7.2948 0.0000
# 2 66.6793 118.3753 25.5894 0.0000 2.2094 0.0000
# 3 33.8364 25.5894 91.8122 0.0000 -5.5011 0.0000
# 4 0.0000 0.0000 0.0000 -11.5126 0.0000 41.2105
# 5 -7.2948 2.2094 -5.5011 0.0000 23.4370 0.0000
# 6 0.0000 0.0000 0.0000 41.2105 0.0000 -59.1994
#
#
#
# Elastic Compliance Matrix: (Units=1/GPa)
#
#
# Indices 1 2 3 4 5 6 
#
# 1 0.012694 -0.006667 -0.002582 0.000000 0.003973 0.000000
# 2 -0.006667 0.012540 -0.001251 0.000000 -0.003551 0.000000
# 3 -0.002582 -0.001251 0.012324 0.000000 0.002207 0.000000
# 4 0.000000 0.000000 0.000000 0.058223 0.000000 0.040531
# 5 0.003973 -0.003551 0.002207 0.000000 0.044757 0.000000
# 6 0.000000 0.000000 0.000000 0.040531 0.000000 0.011323
#
#
# Mechanical properties :
#
#
# Convention : Reuss Voigt Hill
#
# Bulk Modulus (GPa) = 60.38995 65.03952 62.71473
# Shear Modulus (GPa) = 28.03008 4.34769 16.18889
#
# Velocity S-wave (km/s) = 3.91714 1.54272 2.97691
# Velocity P-wave (km/s) = 7.31552 6.22709 6.79314
#
# Compressibility (1/GPa) = 0.01655905
#
# Stress axis : x y z
#
# Youngs Moduli (GPa) = 78.77449 79.74758 81.14045
#
# Poissons Ratio (x) = 0.53164 0.20953
# Poissons Ratio (y) = 0.52516 0.10149
# Poissons Ratio (z) = 0.20342 0.09975
#
# Static dielectric constant tensor:
#      x y z
#    x 3.630280 0.000000 -0.318110 
#    y 0.000000 3.834380 0.000000 
#    z -0.318110 0.000000 3.455560 
# 
# 
# High freq. dielectric constant tensor:
#      x y z
#    x 1.698620 0.000000 -0.035880 
#    y 0.000000 1.696650 0.000000 
#    z -0.035880 0.000000 1.699250 
# 
# From -- ./inp_files/17181.got.cif
#   From: 2010.06.25/outbox.cif.g09.slc.cpg/sg12_9_cif.got.tgz:17181.got - 2010.06.28 00:19:55.
