data_PCOD8095705
_publ_section_title
;
Structure prediction by ZEFSAII (Michael W. Deem and Ramdas Pophale) SiO2 
 PCOD8095705
Probable space group: C 2/M
;
_chemical_formula_sum "Si O2"
_cell_formula_units_Z 40
_cell_length_a 18.403431
_cell_length_b 9.439691
_cell_length_c 15.581621
_cell_angle_alpha 90.000000
_cell_angle_beta 125.733521
_cell_angle_gamma 90.000000
_cell_volume 2197.289204
_symmetry_space_group_name_H-M "C 2/M"
_symmetry_group_IT_number 12
_symmetry_cell_setting 'monoclinic'
loop_
_space_group_symop_operation_xyz
x,y,z
-x,y,-z
-x,-y,-z
x,-y,z
1/2+x,1/2+y,z
1/2-x,1/2+y,-z
1/2-x,1/2-y,-z
1/2+x,1/2-y,z
loop_
_atom_site_type_symbol
_atom_site_label
_atom_site_fract_x
_atom_site_fract_y
_atom_site_fract_z
Si Si1 0.930741 0.164252 0.692778
Si Si2 0.764964 0.832059 0.687520
Si Si3 0.622581 0.338521 0.887848
Si Si4 0.256383 0.665757 0.873409
Si Si5 0.575627 0.166160 0.483342
O O1 0.845013 0.227536 0.683691
O O2 0.947490 0.251006 0.618466
O O3 0.016191 0.184413 0.813669
O O4 0.916621 0.000000 0.658962
O O5 0.776988 0.774778 0.792717
O O6 0.670757 0.779692 0.584658
O O7 0.770133 0.000000 0.692348
O O8 0.647934 0.500000 0.882982
O O9 0.667731 0.240610 0.847557
O O10 0.658508 0.299465 0.007575
O O11 0.234372 0.500000 0.854906
O O12 0.500000 0.203624 0.500000
O O13 0.577526 0.000000 0.464136
#
# Coordination Sequence:
#
# PCOD8095705 Si02
#       5
#     8   8   8   8   8
#     4  10  20  33  49  72 101 127 155 196 242 285
#     4   9  18  32  50  72  97 126 161 198 236 281
#     4   9  18  31  49  74  99 124 158 198 238 281
#     4   9  17  32  53  72  94 127 162 196 235 280
#     4  10  20  34  52  72  94 125 165 200 232 280
#
# _framework density 18.204248
#
# number of rings (size 3 to 8) (size 9 to 14) (size 15 to 20)
#    0.000    2.600    0.000    1.800    0.000    3.600 
#    0.000    6.000    0.000    0.000    0.000    7.000 
#    0.000    0.000    0.000    0.000    0.000    0.000 
#
# Total GULP energy -248020.841118 kJ/mol
# GULP energy per Si atom -12401.042056 kJ/mol
# Density = 1.816281 g / cm^3
# Si number density = 18.204248 Si / 1000 Ang^3
#
#
#
# Elastic Constant Matrix: (Units=GPa)
#
#
# Indices 1 2 3 4 5 6 
#
# 1 124.1560 32.4041 56.0016 0.0000 12.5531 0.0000
# 2 32.4041 33.1078 27.9392 0.0000 -1.2123 0.0000
# 3 56.0016 27.9392 103.1912 0.0000 4.4443 0.0000
# 4 0.0000 0.0000 0.0000 24.3596 0.0000 -1.2400
# 5 12.5531 -1.2123 4.4443 0.0000 32.5577 0.0000
# 6 0.0000 0.0000 0.0000 -1.2400 0.0000 20.5054
#
#
#
# Elastic Compliance Matrix: (Units=1/GPa)
#
#
# Indices 1 2 3 4 5 6 
#
# 1 0.012851 -0.009120 -0.004302 0.000000 -0.004707 0.000000
# 2 -0.009120 0.045899 -0.007749 0.000000 0.006283 0.000000
# 3 -0.004302 -0.007749 0.014148 0.000000 -0.000561 0.000000
# 4 0.000000 0.000000 0.000000 0.041178 0.000000 0.002490
# 5 -0.004707 0.006283 -0.000561 0.000000 0.032840 0.000000
# 6 0.000000 0.000000 0.000000 0.002490 0.000000 0.048918
#
#
# Mechanical properties :
#
#
# Convention : Reuss Voigt Hill
#
# Bulk Modulus (GPa) = 32.72602 54.79386 43.75994
# Shear Modulus (GPa) = 20.13191 25.09188 22.61190
#
# Velocity S-wave (km/s) = 3.32910 3.71665 3.52820
# Velocity P-wave (km/s) = 5.72655 6.97013 6.37872
#
# Compressibility (1/GPa) = 0.03055672
#
# Stress axis : x y z
#
# Youngs Moduli (GPa) = 77.81427 21.78684 70.68248
#
# Poissons Ratio (x) = 0.19869 0.30410
# Poissons Ratio (y) = 0.70964 0.54770
# Poissons Ratio (z) = 0.33479 0.16882
#
# Static dielectric constant tensor:
#      x y z
#    x 3.479060 0.000000 0.050590 
#    y 0.000000 3.121210 0.000000 
#    z 0.050590 0.000000 3.506260 
# 
# 
# High freq. dielectric constant tensor:
#      x y z
#    x 1.706630 0.000000 0.004880 
#    y 0.000000 1.677430 0.000000 
#    z 0.004880 0.000000 1.719010 
# 
# From -- ./inp_files/140805.got.cif
#   From: 2010.06.25/outbox.cif.g09.slc.cpg/sg12_71_cif.got.tgz:140805.got - 2010.06.28 00:19:55.
