data_PCOD8095669
_publ_section_title
;
Structure prediction by ZEFSAII (Michael W. Deem and Ramdas Pophale) SiO2 
 PCOD8095669
Probable space group: C 2/M
;
_chemical_formula_sum "Si O2"
_cell_formula_units_Z 64
_cell_length_a 18.030982
_cell_length_b 9.476404
_cell_length_c 20.636539
_cell_angle_alpha 90.000000
_cell_angle_beta 91.454818
_cell_angle_gamma 90.000000
_cell_volume 3525.005470
_symmetry_space_group_name_H-M "C 2/M"
_symmetry_group_IT_number 12
_symmetry_cell_setting 'monoclinic'
loop_
_space_group_symop_operation_xyz
x,y,z
-x,y,-z
-x,-y,-z
x,-y,z
1/2+x,1/2+y,z
1/2-x,1/2+y,-z
1/2-x,1/2-y,-z
1/2+x,1/2-y,z
loop_
_atom_site_type_symbol
_atom_site_label
_atom_site_fract_x
_atom_site_fract_y
_atom_site_fract_z
Si Si1 0.583967 0.332484 0.733970
Si Si2 0.666494 0.334228 0.606755
Si Si3 0.084882 0.336597 0.496152
Si Si4 0.677650 0.339835 0.994016
Si Si5 0.318668 0.665453 0.146011
Si Si6 0.668093 0.662433 0.133464
Si Si7 0.082224 0.834708 0.257217
Si Si8 0.835628 0.337454 0.634940
O O1 0.582421 0.500000 0.737909
O O2 0.623792 0.280098 0.669652
O O3 0.628383 0.272385 0.796962
O O4 0.500240 0.273557 0.733382
O O5 0.654699 0.500000 0.595994
O O6 0.635175 0.254988 0.544185
O O7 0.752447 0.294502 0.614382
O O8 0.094526 0.500000 0.515346
O O9 0.110332 0.307288 0.423745
O O10 0.000000 0.287630 0.500000
O O11 0.704547 0.500000 0.993532
O O12 0.632382 0.311193 0.060097
O O13 0.750000 0.250000 0.000000
O O14 0.639828 0.307267 0.923118
O O15 0.303927 0.500000 0.157338
O O16 0.239700 0.741919 0.147696
O O17 0.693324 0.500000 0.141423
O O18 0.604297 0.698358 0.183574
O O19 0.139883 0.757080 0.304697
O O20 0.085874 0.000000 0.273184
O O21 0.838824 0.500000 0.656675
#
# Coordination Sequence:
#
# PCOD8095669 Si02
#       8
#     8   8   8   8   8   8   8   8
#     4   9  18  32  48  69  96 124 159 199 235 277
#     4  10  20  34  53  74  96 125 161 199 233 273
#     4  10  21  36  53  75 103 129 153 190 239 284
#     4   8  14  25  43  67  92 120 155 193 234 278
#     4   9  16  29  50  70  91 125 163 195 232 281
#     4   9  17  29  45  69  98 122 153 199 241 278
#     4  10  20  33  49  69  96 129 159 193 240 286
#     4  10  21  36  53  74  98 124 159 200 235 274
#
# _framework density 18.155999999999999
#
# number of rings (size 3 to 8) (size 9 to 14) (size 15 to 20)
#    0.000    2.625    0.000    1.875    0.000    2.750 
#    0.000    1.875    0.000    3.750    0.000    0.000 
#    0.000   11.000    0.000    0.000    0.000    0.000 
#
# Total GULP energy -396606.393626 kJ/mol
# GULP energy per Si atom -12393.949801 kJ/mol
# Density = 1.811468 g / cm^3
# Si number density = 18.156000 Si / 1000 Ang^3
#
#
#
# Elastic Constant Matrix: (Units=GPa)
#
#
# Indices 1 2 3 4 5 6 
#
# 1 83.0695 18.7840 22.1241 0.0000 -17.2409 0.0000
# 2 18.7840 31.5018 21.9729 0.0000 -1.9309 0.0000
# 3 22.1241 21.9729 80.0789 0.0000 -13.7703 0.0000
# 4 0.0000 0.0000 0.0000 23.6750 0.0000 2.1375
# 5 -17.2409 -1.9309 -13.7703 0.0000 26.7730 0.0000
# 6 0.0000 0.0000 0.0000 2.1375 0.0000 17.8150
#
#
#
# Elastic Compliance Matrix: (Units=1/GPa)
#
#
# Indices 1 2 3 4 5 6 
#
# 1 0.016099 -0.008726 -0.000416 0.000000 0.009524 0.000000
# 2 -0.008726 0.044204 -0.011120 0.000000 -0.008150 0.000000
# 3 -0.000416 -0.011120 0.016971 0.000000 0.007659 0.000000
# 4 0.000000 0.000000 0.000000 0.042701 0.000000 -0.005123
# 5 0.009524 -0.008150 0.007659 0.000000 0.046836 0.000000
# 6 0.000000 0.000000 0.000000 -0.005123 0.000000 0.056747
#
#
# Mechanical properties :
#
#
# Convention : Reuss Voigt Hill
#
# Bulk Modulus (GPa) = 27.21041 35.60135 31.40588
# Shear Modulus (GPa) = 18.09429 22.43720 20.26575
#
# Velocity S-wave (km/s) = 3.16032 3.51921 3.34458
# Velocity P-wave (km/s) = 5.32320 6.01367 5.67894
#
# Compressibility (1/GPa) = 0.03675064
#
# Stress axis : x y z
#
# Youngs Moduli (GPa) = 62.11743 22.62244 58.92467
#
# Poissons Ratio (x) = 0.19739 0.02450
# Poissons Ratio (y) = 0.54201 0.65524
# Poissons Ratio (z) = 0.02583 0.25156
#
# Static dielectric constant tensor:
#      x y z
#    x 3.029200 0.000000 -0.178760 
#    y 0.000000 3.177070 0.000000 
#    z -0.178760 0.000000 3.833130 
# 
# 
# High freq. dielectric constant tensor:
#      x y z
#    x 1.685310 0.000000 -0.007880 
#    y 0.000000 1.685500 0.000000 
#    z -0.007880 0.000000 1.727400 
# 
# From -- ./inp_files/314213.got.cif
#   From: 2010.06.25/outbox.cif.g09.slc.cpg/sg12_158_cif.got.tgz:314213.got - 2010.06.28 00:19:55.
