data_PCOD8095033
_publ_section_title
;
Structure prediction by ZEFSAII (Michael W. Deem and Ramdas Pophale) SiO2 
 PCOD8095033
Probable space group: C 2/M
;
_chemical_formula_sum "Si O2"
_cell_formula_units_Z 64
_cell_length_a 14.819625
_cell_length_b 9.002864
_cell_length_c 28.722468
_cell_angle_alpha 90.000000
_cell_angle_beta 58.846578
_cell_angle_gamma 90.000000
_cell_volume 3279.475418
_symmetry_space_group_name_H-M "C 2/M"
_symmetry_group_IT_number 12
_symmetry_cell_setting 'monoclinic'
loop_
_space_group_symop_operation_xyz
x,y,z
-x,y,-z
-x,-y,-z
x,-y,z
1/2+x,1/2+y,z
1/2-x,1/2+y,-z
1/2-x,1/2-y,-z
1/2+x,1/2-y,z
loop_
_atom_site_type_symbol
_atom_site_label
_atom_site_fract_x
_atom_site_fract_y
_atom_site_fract_z
Si Si1 0.483356 0.164469 0.379245
Si Si2 0.583120 0.823573 0.917539
Si Si3 0.346590 0.821564 0.286382
Si Si4 0.454128 0.673037 0.724238
Si Si5 0.717792 0.173373 0.796962
Si Si6 0.085648 0.838555 0.514750
Si Si7 0.251735 0.163898 0.402598
Si Si8 0.651204 0.175843 0.000356
O O1 0.553215 0.267382 0.326909
O O2 0.469621 0.233677 0.433426
O O3 0.370639 0.152794 0.386203
O O4 0.533631 0.000000 0.370458
O O5 0.645550 0.754800 0.856739
O O6 0.460376 0.775059 0.946590
O O7 0.588127 0.000000 0.916417
O O8 0.641780 0.769763 0.949128
O O9 0.462354 0.758614 0.266265
O O10 0.312081 0.758687 0.245443
O O11 0.259300 0.764885 0.348413
O O12 0.351902 0.000000 0.287472
O O13 0.483275 0.500000 0.714794
O O14 0.339544 0.701942 0.777200
O O15 0.693733 0.000000 0.800376
O O16 0.183131 0.754333 0.461329
O O17 0.000000 0.872724 0.500000
O O18 0.120772 0.000000 0.527157
O O19 0.199849 0.000000 0.412777
O O20 0.667148 0.000000 0.999296
O O21 0.750000 0.250000 0.000000
#
# Coordination Sequence:
#
# PCOD8095033 Si02
#       8
#     8   8   8   8   8   8   8   8
#     4  10  20  35  52  68  96 131 163 203 255 316
#     4   8  16  32  50  76 108 144 182 214 255 312
#     4   9  18  34  54  74 100 134 170 210 259 316
#     4  10  20  34  54  78 101 130 173 219 260 309
#     4   9  18  32  55  78 103 140 180 217 256 308
#     4  10  20  31  49  74  97 120 158 210 253 305
#     4   8  16  31  49  68  91 121 156 197 250 304
#     4   9  17  31  54  78 109 145 181 219 258 305
#
# _framework density 19.515317
#
# number of rings (size 3 to 8) (size 9 to 14) (size 15 to 20)
#    0.000    2.875    0.000    2.625    1.750    1.250 
#    0.000    5.000    0.000    3.000    0.000    0.000 
#    0.000    0.000    0.000    0.000    0.000    0.000 
#
# Total GULP energy -396417.506620 kJ/mol
# GULP energy per Si atom -12388.047082 kJ/mol
# Density = 1.947090 g / cm^3
# Si number density = 19.515317 Si / 1000 Ang^3
#
#
#
# Elastic Constant Matrix: (Units=GPa)
#
#
# Indices 1 2 3 4 5 6 
#
# 1 71.8530 15.4645 29.9378 0.0000 0.5499 0.0000
# 2 15.4645 45.9409 15.4071 0.0000 -0.6575 0.0000
# 3 29.9378 15.4071 110.2911 0.0000 -7.1668 0.0000
# 4 0.0000 0.0000 0.0000 0.9807 0.0000 -16.6154
# 5 0.5499 -0.6575 -7.1668 0.0000 29.4888 0.0000
# 6 0.0000 0.0000 0.0000 -16.6154 0.0000 11.4578
#
#
#
# Elastic Compliance Matrix: (Units=1/GPa)
#
#
# Indices 1 2 3 4 5 6 
#
# 1 0.016496 -0.004240 -0.003974 0.000000 -0.001368 0.000000
# 2 -0.004240 0.023929 -0.002187 0.000000 0.000081 0.000000
# 3 -0.003974 -0.002187 0.010621 0.000000 0.002607 0.000000
# 4 0.000000 0.000000 0.000000 -0.043264 0.000000 -0.062739
# 5 -0.001368 0.000081 0.002607 0.000000 0.034572 0.000000
# 6 0.000000 0.000000 0.000000 -0.062739 0.000000 -0.003703
#
#
# Mechanical properties :
#
#
# Convention : Reuss Voigt Hill
#
# Bulk Modulus (GPa) = 33.06422 38.85599 35.96010
# Shear Modulus (GPa) = 71.90804 19.53717 45.72260
#
# Velocity S-wave (km/s) = 6.07676 3.16748 4.84561
# Velocity P-wave (km/s) = 8.13729 5.77330 7.05501
#
# Compressibility (1/GPa) = 0.03024417
#
# Stress axis : x y z
#
# Youngs Moduli (GPa) = 60.62001 41.79080 94.15675
#
# Poissons Ratio (x) = 0.17718 0.37422
# Poissons Ratio (y) = 0.25700 0.20589
# Poissons Ratio (z) = 0.24093 0.09138
#
# Static dielectric constant tensor:
#      x y z
#    x 3.462090 0.000000 0.038820 
#    y 0.000000 3.284450 0.000000 
#    z 0.038820 0.000000 5.091120 
# 
# 
# High freq. dielectric constant tensor:
#      x y z
#    x 1.757580 0.000000 -0.004670 
#    y 0.000000 1.715830 0.000000 
#    z -0.004670 0.000000 1.768830 
# 
# From -- ./inp_files/359714.got.cif
#   From: 2010.06.25/outbox.cif.g09.slc.cpg/sg12_180_cif.got.tgz:359714.got - 2010.06.28 00:19:55.
