data_PCOD8095947
_publ_section_title
;
Structure prediction by ZEFSAII (Michael W. Deem and Ramdas Pophale) SiO2 
 PCOD8095947
Probable space group: C 2/M
;
_chemical_formula_sum "Si O2"
_cell_formula_units_Z 56
_cell_length_a 24.530936
_cell_length_b 9.105551
_cell_length_c 16.686273
_cell_angle_alpha 90.000000
_cell_angle_beta 123.809924
_cell_angle_gamma 90.000000
_cell_volume 3096.864729
_symmetry_space_group_name_H-M "C 2/M"
_symmetry_group_IT_number 12
_symmetry_cell_setting 'monoclinic'
loop_
_space_group_symop_operation_xyz
x,y,z
-x,y,-z
-x,-y,-z
x,-y,z
1/2+x,1/2+y,z
1/2-x,1/2+y,-z
1/2-x,1/2-y,-z
1/2+x,1/2-y,z
loop_
_atom_site_type_symbol
_atom_site_label
_atom_site_fract_x
_atom_site_fract_y
_atom_site_fract_z
Si Si1 0.352659 0.671204 0.584889
Si Si2 0.833540 0.832360 0.996173
Si Si3 0.260516 0.828153 0.387308
Si Si4 0.231457 0.328611 0.785597
Si Si5 0.517592 0.667541 0.926623
Si Si6 0.480689 0.826411 0.742498
Si Si7 0.375180 0.170081 0.181236
O O1 0.364143 0.500000 0.579235
O O2 0.315430 0.737811 0.478728
O O3 0.310717 0.698816 0.631485
O O4 0.422415 0.750359 0.646789
O O5 0.905078 0.819041 0.017565
O O6 0.830510 0.747916 0.077757
O O7 0.813746 0.000000 0.997677
O O8 0.783938 0.760293 0.890873
O O9 0.260110 0.763235 0.296586
O O10 0.279349 0.000000 0.405571
O O11 0.246721 0.500000 0.791501
O O12 0.157868 0.298769 0.759226
O O13 0.493558 0.500000 0.893538
O O14 0.480101 0.770956 0.833340
O O15 0.500000 0.724909 0.000000
O O16 0.549270 0.776130 0.756828
O O17 0.470610 0.000000 0.732077
O O18 0.373479 0.000000 0.157657
#
# Coordination Sequence:
#
# PCOD8095947 Si02
#       7
#     8   8   8   8   8   8   8
#     4  10  20  35  56  77 101 129 163 205 255 306
#     4   9  17  29  48  73 101 134 169 203 244 292
#     4   9  19  35  56  78 100 126 163 209 254 300
#     4   9  17  31  53  76  98 129 170 209 246 293
#     4   9  18  30  47  72 103 134 169 207 244 295
#     4  10  20  33  51  72 100 136 169 202 248 297
#     4   9  18  33  50  72 102 134 169 206 243 290
#
# _framework density 18.082803999999999
#
# number of rings (size 3 to 8) (size 9 to 14) (size 15 to 20)
#    0.000    2.714    0.000    1.286    2.000    1.429 
#    0.000    2.143    0.000    4.286    0.000    0.000 
#    0.000    0.000    0.000    0.000    0.000    0.000 
#
# Total GULP energy -347167.688928 kJ/mol
# GULP energy per Si atom -12398.846033 kJ/mol
# Density = 1.804165 g / cm^3
# Si number density = 18.082804 Si / 1000 Ang^3
#
#
#
# Elastic Constant Matrix: (Units=GPa)
#
#
# Indices 1 2 3 4 5 6 
#
# 1 74.6475 29.1745 64.7714 0.0000 -3.9548 0.0000
# 2 29.1745 57.4745 44.0800 0.0000 5.8565 0.0000
# 3 64.7714 44.0800 114.9381 0.0000 2.0583 0.0000
# 4 0.0000 0.0000 0.0000 28.9267 0.0000 0.6772
# 5 -3.9548 5.8565 2.0583 0.0000 33.7751 0.0000
# 6 0.0000 0.0000 0.0000 0.6772 0.0000 20.0052
#
#
#
# Elastic Compliance Matrix: (Units=1/GPa)
#
#
# Indices 1 2 3 4 5 6 
#
# 1 0.027235 -0.003491 -0.014092 0.000000 0.004653 0.000000
# 2 -0.003491 0.025568 -0.007760 0.000000 -0.004369 0.000000
# 3 -0.014092 -0.007760 0.019645 0.000000 -0.001502 0.000000
# 4 0.000000 0.000000 0.000000 0.034598 0.000000 -0.001171
# 5 0.004653 -0.004369 -0.001502 0.000000 0.031002 0.000000
# 6 0.000000 0.000000 0.000000 -0.001171 0.000000 0.050027
#
#
# Mechanical properties :
#
#
# Convention : Reuss Voigt Hill
#
# Bulk Modulus (GPa) = 45.95346 58.12356 52.03851
# Shear Modulus (GPa) = 20.32406 23.81036 22.06721
#
# Velocity S-wave (km/s) = 3.35616 3.63263 3.49713
# Velocity P-wave (km/s) = 6.36289 7.05744 6.71915
#
# Compressibility (1/GPa) = 0.02176115
#
# Stress axis : x y z
#
# Youngs Moduli (GPa) = 36.71738 39.11171 50.90371
#
# Poissons Ratio (x) = 0.13652 0.71736
# Poissons Ratio (y) = 0.12817 0.39502
# Poissons Ratio (z) = 0.51744 0.30351
#
# Static dielectric constant tensor:
#      x y z
#    x 3.471760 0.000000 -0.009430 
#    y 0.000000 3.232230 0.000000 
#    z -0.009430 0.000000 3.339970 
# 
# 
# High freq. dielectric constant tensor:
#      x y z
#    x 1.706400 0.000000 0.003480 
#    y 0.000000 1.683530 0.000000 
#    z 0.003480 0.000000 1.691820 
# 
# From -- ./inp_files/238950.got.cif
#   From: 2010.06.25/outbox.cif.g09.slc.cpg/sg12_120_cif.got.tgz:238950.got - 2010.06.28 00:19:55.
