data_PCOD8095006
_publ_section_title
;
Structure prediction by ZEFSAII (Michael W. Deem and Ramdas Pophale) SiO2 
 PCOD8095006
Probable space group: C 2/M
;
_chemical_formula_sum "Si O2"
_cell_formula_units_Z 64
_cell_length_a 24.991207
_cell_length_b 9.338061
_cell_length_c 16.548049
_cell_angle_alpha 90.000000
_cell_angle_beta 104.586530
_cell_angle_gamma 90.000000
_cell_volume 3737.336270
_symmetry_space_group_name_H-M "C 2/M"
_symmetry_group_IT_number 12
_symmetry_cell_setting 'monoclinic'
loop_
_space_group_symop_operation_xyz
x,y,z
-x,y,-z
-x,-y,-z
x,-y,z
1/2+x,1/2+y,z
1/2-x,1/2+y,-z
1/2-x,1/2-y,-z
1/2+x,1/2-y,z
loop_
_atom_site_type_symbol
_atom_site_label
_atom_site_fract_x
_atom_site_fract_y
_atom_site_fract_z
Si Si1 0.806071 0.165369 0.026957
Si Si2 0.399277 0.837052 0.990737
Si Si3 0.962455 0.666037 0.174305
Si Si4 0.179754 0.831728 0.306112
Si Si5 0.295425 0.332246 0.335210
Si Si6 0.583953 0.164061 0.185614
Si Si7 0.695740 0.338067 0.486253
Si Si8 0.869377 0.835445 0.216308
O O1 0.847192 0.231406 0.976460
O O2 0.796165 0.000000 0.002455
O O3 0.750000 0.250000 0.000000
O O4 0.830006 0.187916 0.125121
O O5 0.426720 0.817519 0.913908
O O6 0.378483 0.000000 0.995271
O O7 0.443778 0.795656 0.076025
O O8 0.953459 0.500000 0.188836
O O9 0.926822 0.751424 0.226928
O O10 0.026847 0.708141 0.207848
O O11 0.238396 0.756165 0.310671
O O12 0.133008 0.766496 0.231688
O O13 0.159377 0.804716 0.392139
O O14 0.185791 0.000000 0.289435
O O15 0.281143 0.500000 0.316157
O O16 0.328940 0.308283 0.433404
O O17 0.336524 0.275708 0.281547
O O18 0.599702 0.000000 0.211922
O O19 0.715625 0.500000 0.488931
O O20 0.750000 0.250000 0.500000
O O21 0.885375 0.000000 0.234672
#
# Coordination Sequence:
#
# PCOD8095006 Si02
#       8
#     8   8   8   8   8   8   8   8
#     4  10  20  32  45  66  98 131 159 192 237 284
#     4   9  18  33  51  69  90 122 165 205 239 279
#     4   9  18  34  53  71  92 123 164 205 243 281
#     4  10  20  31  46  75 105 126 154 196 243 286
#     4   9  17  32  53  73  96 129 162 193 235 290
#     4  10  20  33  51  72  96 127 162 200 242 291
#     4   8  15  29  48  69  96 126 156 191 234 285
#     4   9  19  33  50  71  94 123 161 199 236 283
#
# _framework density 17.124496000000001
#
# number of rings (size 3 to 8) (size 9 to 14) (size 15 to 20)
#    0.000    2.750    0.000    1.125    1.750    4.000 
#    0.000    0.000    0.000    4.500    0.000    5.250 
#    0.000    0.000    0.000    0.000    0.000    0.000 
#
# Total GULP energy -396561.257397 kJ/mol
# GULP energy per Si atom -12392.539294 kJ/mol
# Density = 1.708552 g / cm^3
# Si number density = 17.124496 Si / 1000 Ang^3
#
#
#
# Elastic Constant Matrix: (Units=GPa)
#
#
# Indices 1 2 3 4 5 6 
#
# 1 102.8152 45.7000 42.6047 0.0000 -17.5817 0.0000
# 2 45.7000 67.6357 28.6776 0.0000 -7.3607 0.0000
# 3 42.6047 28.6776 71.3951 0.0000 -15.3015 0.0000
# 4 0.0000 0.0000 0.0000 20.8720 0.0000 -2.1091
# 5 -17.5817 -7.3607 -15.3015 0.0000 20.8346 0.0000
# 6 0.0000 0.0000 0.0000 -2.1091 0.0000 28.0535
#
#
#
# Elastic Compliance Matrix: (Units=1/GPa)
#
#
# Indices 1 2 3 4 5 6 
#
# 1 0.016855 -0.008423 -0.005061 0.000000 0.007531 0.000000
# 2 -0.008423 0.022056 -0.004375 0.000000 -0.002529 0.000000
# 3 -0.005061 -0.004375 0.020813 0.000000 0.009470 0.000000
# 4 0.000000 0.000000 0.000000 0.048278 0.000000 0.003630
# 5 0.007531 -0.002529 0.009470 0.000000 0.060414 0.000000
# 6 0.000000 0.000000 0.000000 0.003630 0.000000 0.035919
#
#
# Mechanical properties :
#
#
# Convention : Reuss Voigt Hill
#
# Bulk Modulus (GPa) = 41.65471 52.86786 47.26128
# Shear Modulus (GPa) = 20.15679 22.27626 21.21652
#
# Velocity S-wave (km/s) = 3.43457 3.61063 3.52370
# Velocity P-wave (km/s) = 6.33292 6.95139 6.64935
#
# Compressibility (1/GPa) = 0.02400689
#
# Stress axis : x y z
#
# Youngs Moduli (GPa) = 59.32909 45.33855 48.04598
#
# Poissons Ratio (x) = 0.38190 0.24315
# Poissons Ratio (y) = 0.49975 0.21019
# Poissons Ratio (z) = 0.30025 0.19835
#
# Static dielectric constant tensor:
#      x y z
#    x 3.156420 0.000000 -0.263000 
#    y 0.000000 3.353090 0.000000 
#    z -0.263000 0.000000 3.666470 
# 
# 
# High freq. dielectric constant tensor:
#      x y z
#    x 1.641040 0.000000 -0.011930 
#    y 0.000000 1.664340 0.000000 
#    z -0.011930 0.000000 1.655620 
# 
# From -- ./inp_files/244247.got.cif
#   From: 2010.06.25/outbox.cif.g09.slc.cpg/sg12_123_cif.got.tgz:244247.got - 2010.06.28 00:19:55.
