data_PCOD8095482
_publ_section_title
;
Structure prediction by ZEFSAII (Michael W. Deem and Ramdas Pophale) SiO2 
 PCOD8095482
Probable space group: C 2/M
;
_chemical_formula_sum "Si O2"
_cell_formula_units_Z 48
_cell_length_a 12.393036
_cell_length_b 13.692191
_cell_length_c 28.518832
_cell_angle_alpha 90.000000
_cell_angle_beta 147.424943
_cell_angle_gamma 90.000000
_cell_volume 2605.497488
_symmetry_space_group_name_H-M "C 2/M"
_symmetry_group_IT_number 12
_symmetry_cell_setting 'monoclinic'
loop_
_space_group_symop_operation_xyz
x,y,z
-x,y,-z
-x,-y,-z
x,-y,z
1/2+x,1/2+y,z
1/2-x,1/2+y,-z
1/2-x,1/2-y,-z
1/2+x,1/2-y,z
loop_
_atom_site_type_symbol
_atom_site_label
_atom_site_fract_x
_atom_site_fract_y
_atom_site_fract_z
Si Si1 0.512769 0.112160 0.580599
Si Si2 0.907179 0.719428 0.126848
Si Si3 0.644735 0.230106 0.715839
Si Si4 0.708121 0.389947 0.975296
Si Si5 0.825407 0.111947 0.615430
Si Si6 0.266114 0.388679 0.848266
O O1 0.523436 0.180205 0.629576
O O2 0.688793 0.141036 0.609407
O O3 0.298322 0.128652 0.477703
O O4 0.537417 0.000000 0.605137
O O5 0.807827 0.824015 0.077251
O O6 0.796303 0.677527 0.131155
O O7 0.140683 0.732529 0.223562
O O8 0.885128 0.647815 0.073914
O O9 0.522927 0.323118 0.689196
O O10 0.663119 0.151257 0.763740
O O11 0.753103 0.500000 0.975363
O O12 0.505004 0.383210 0.931220
O O13 0.894230 0.000000 0.644349
O O14 0.194909 0.500000 0.830299
#
# Coordination Sequence:
#
# PCOD8095482 Si02
#       6
#     8   8   8   8   8   8
#     4   9  18  35  55  72  96 133 173 205 239 294
#     4  10  20  32  52  78 102 128 165 209 252 292
#     4  11  20  32  51  78 105 128 162 209 254 292
#     4   9  19  36  55  72  96 134 174 205 239 292
#     4   9  19  34  52  74 100 133 168 203 248 297
#     4  10  20  34  53  75 100 134 171 203 241 295
#
# _framework density 18.422585999999999
#
# number of rings (size 3 to 8) (size 9 to 14) (size 15 to 20)
#    0.000    2.333    0.000    4.000    0.000    3.333 
#    0.000    0.833    0.000   14.000    0.000   10.500 
#    0.000    0.000    0.000    0.000    0.000    0.000 
#
# Total GULP energy -297645.867441 kJ/mol
# GULP energy per Si atom -12401.911143 kJ/mol
# Density = 1.838065 g / cm^3
# Si number density = 18.422586 Si / 1000 Ang^3
#
#
#
# Elastic Constant Matrix: (Units=GPa)
#
#
# Indices 1 2 3 4 5 6 
#
# 1 53.2825 37.8794 7.4108 0.0000 -14.1590 0.0000
# 2 37.8794 118.0802 23.6073 0.0000 -5.7947 0.0000
# 3 7.4108 23.6073 49.0072 0.0000 -4.0636 0.0000
# 4 0.0000 0.0000 0.0000 26.6044 0.0000 0.2627
# 5 -14.1590 -5.7947 -4.0636 0.0000 15.7145 0.0000
# 6 0.0000 0.0000 0.0000 0.2627 0.0000 31.1523
#
#
#
# Elastic Compliance Matrix: (Units=1/GPa)
#
#
# Indices 1 2 3 4 5 6 
#
# 1 0.032066 -0.009379 0.001817 0.000000 0.025903 0.000000
# 2 -0.009379 0.012199 -0.004891 0.000000 -0.005217 0.000000
# 3 0.001817 -0.004891 0.022965 0.000000 0.005772 0.000000
# 4 0.000000 0.000000 0.000000 0.037591 0.000000 -0.000317
# 5 0.025903 -0.005217 0.005772 0.000000 0.086544 0.000000
# 6 0.000000 0.000000 0.000000 -0.000317 0.000000 0.032103
#
#
# Mechanical properties :
#
#
# Convention : Reuss Voigt Hill
#
# Bulk Modulus (GPa) = 23.62683 39.79611 31.71147
# Shear Modulus (GPa) = 19.04894 24.79240 21.92067
#
# Velocity S-wave (km/s) = 3.21907 3.67244 3.45321
# Velocity P-wave (km/s) = 5.16424 6.29533 5.75762
#
# Compressibility (1/GPa) = 0.04232477
#
# Stress axis : x y z
#
# Youngs Moduli (GPa) = 31.18563 81.97239 43.54451
#
# Poissons Ratio (x) = 0.76879 -0.07911
# Poissons Ratio (y) = 0.29248 0.21297
# Poissons Ratio (z) = -0.05665 0.40091
#
# Static dielectric constant tensor:
#      x y z
#    x 3.133820 0.000000 -0.069340 
#    y 0.000000 3.484900 0.000000 
#    z -0.069340 0.000000 3.361100 
# 
# 
# High freq. dielectric constant tensor:
#      x y z
#    x 1.697100 0.000000 -0.009960 
#    y 0.000000 1.722270 0.000000 
#    z -0.009960 0.000000 1.717510 
# 
# From -- ./inp_files/204379.got.cif
#   From: 2010.06.25/outbox.cif.g09.slc.cpg/sg12_103_cif.got.tgz:204379.got - 2010.06.28 00:19:55.
