data_PCOD8095327
_publ_section_title
;
Structure prediction by ZEFSAII (Michael W. Deem and Ramdas Pophale) SiO2 
 PCOD8095327
Probable space group: C 2/M
;
_chemical_formula_sum "Si O2"
_cell_formula_units_Z 64
_cell_length_a 20.450136
_cell_length_b 9.661730
_cell_length_c 23.241594
_cell_angle_alpha 90.000000
_cell_angle_beta 51.272405
_cell_angle_gamma 90.000000
_cell_volume 3582.478010
_symmetry_space_group_name_H-M "C 2/M"
_symmetry_group_IT_number 12
_symmetry_cell_setting 'monoclinic'
loop_
_space_group_symop_operation_xyz
x,y,z
-x,y,-z
-x,-y,-z
x,-y,z
1/2+x,1/2+y,z
1/2-x,1/2+y,-z
1/2-x,1/2-y,-z
1/2+x,1/2-y,z
loop_
_atom_site_type_symbol
_atom_site_label
_atom_site_fract_x
_atom_site_fract_y
_atom_site_fract_z
Si Si1 0.120784 0.346656 0.694121
Si Si2 0.002618 0.158664 0.176937
Si Si3 0.584863 0.850684 0.483926
Si Si4 0.051884 0.838913 0.916123
Si Si5 0.979376 0.661450 0.360982
Si Si6 0.780515 0.338564 0.188008
Si Si7 0.888379 0.161109 0.777204
Si Si8 0.206348 0.155792 0.351233
O O1 0.091385 0.500000 0.729392
O O2 0.079916 0.240858 0.760529
O O3 0.094003 0.314959 0.644325
O O4 0.220273 0.333865 0.642179
O O5 0.010908 0.186964 0.103942
O O6 0.082823 0.201849 0.172885
O O7 0.982615 0.000000 0.199911
O O8 0.500000 0.885366 0.500000
O O9 0.562360 0.781041 0.557636
O O10 0.633914 0.751965 0.414169
O O11 0.631628 0.000000 0.467164
O O12 0.137049 0.751240 0.868138
O O13 0.077445 0.000000 0.905629
O O14 0.000000 0.790867 0.000000
O O15 0.005766 0.500000 0.352398
O O16 0.060663 0.749308 0.297670
O O17 0.806473 0.500000 0.174873
O O18 0.710873 0.309450 0.176403
O O19 0.739512 0.294127 0.271083
O O20 0.907076 0.000000 0.754332
O O21 0.171403 0.000000 0.365285
#
# Coordination Sequence:
#
# PCOD8095327 Si02
#       8
#     8   8   8   8   8   8   8   8
#     4   9  17  31  50  72  98 127 164 210 253 296
#     4   9  17  32  53  76 102 133 168 204 247 297
#     4  10  21  34  46  65  96 132 169 209 253 300
#     4  10  21  36  55  79 106 135 166 203 248 300
#     4   9  18  32  49  70  99 134 170 209 254 298
#     4  10  20  35  54  78 105 132 168 211 253 300
#     4   9  18  32  53  78 102 132 171 213 252 294
#     4  10  20  32  49  72  97 127 165 209 254 298
#
# _framework density 17.864729000000001
#
# number of rings (size 3 to 8) (size 9 to 14) (size 15 to 20)
#    0.000    2.500    1.250    0.750    0.000    3.000 
#    0.000    0.625    0.000    0.000    0.000    0.000 
#    0.000    0.000    0.000    0.000    0.000    0.000 
#
# Total GULP energy -396575.002018 kJ/mol
# GULP energy per Si atom -12392.968813 kJ/mol
# Density = 1.782407 g / cm^3
# Si number density = 17.864729 Si / 1000 Ang^3
#
#
#
# Elastic Constant Matrix: (Units=GPa)
#
#
# Indices 1 2 3 4 5 6 
#
# 1 95.8480 38.7092 57.5914 0.0000 1.8175 -0.0001
# 2 38.7092 64.6994 58.6570 -0.0002 -2.3760 -0.0003
# 3 57.5914 58.6570 126.1370 0.0000 10.0421 0.0000
# 4 0.0000 -0.0002 0.0000 32.7172 0.0001 -8.7356
# 5 1.8175 -2.3760 10.0421 0.0001 23.5340 0.0000
# 6 -0.0001 -0.0003 0.0000 -8.7356 0.0000 28.9482
#
#
#
# Elastic Compliance Matrix: (Units=1/GPa)
#
#
# Indices 1 2 3 4 5 6 
#
# 1 0.015212 -0.004779 -0.004753 0.000000 0.000371 0.000000
# 2 -0.004779 0.029879 -0.012404 0.000000 0.008678 0.000000
# 3 -0.004753 -0.012404 0.016497 0.000000 -0.007924 0.000000
# 4 0.000000 0.000000 0.000000 0.033243 0.000000 0.010032
# 5 0.000371 0.008678 -0.007924 0.000000 0.046721 0.000000
# 6 0.000000 0.000000 0.000000 0.010032 0.000000 0.037572
#
#
# Mechanical properties :
#
#
# Convention : Reuss Voigt Hill
#
# Bulk Modulus (GPa) = 56.44085 66.28884 61.36485
# Shear Modulus (GPa) = 21.84368 25.82168 23.83268
#
# Velocity S-wave (km/s) = 3.50054 3.80597 3.65645
# Velocity P-wave (km/s) = 6.92824 7.51667 7.22845
#
# Compressibility (1/GPa) = 0.01771766
#
# Stress axis : x y z
#
# Youngs Moduli (GPa) = 65.73854 33.46826 60.61809
#
# Poissons Ratio (x) = 0.15993 0.28810
# Poissons Ratio (y) = 0.31414 0.75188
# Poissons Ratio (z) = 0.31243 0.41513
#
# Static dielectric constant tensor:
#      x y z
#    x 3.598210 0.000000 0.237540 
#    y 0.000000 3.346390 0.000000 
#    z 0.237540 0.000000 3.127160 
# 
# 
# High freq. dielectric constant tensor:
#      x y z
#    x 1.705660 0.000000 0.017730 
#    y 0.000000 1.691450 0.000000 
#    z 0.017730 0.000000 1.661950 
# 
# From -- ./inp_files/346012.got.cif
#   From: 2010.06.25/outbox.cif.g09.slc.cpg/sg12_174_cif.got.tgz:346012.got - 2010.06.28 00:19:55.
