data_PCOD8095698
_publ_section_title
;
Structure prediction by ZEFSAII (Michael W. Deem and Ramdas Pophale) SiO2 
 PCOD8095698
Probable space group: C 2/M
;
_chemical_formula_sum "Si O2"
_cell_formula_units_Z 56
_cell_length_a 28.877597
_cell_length_b 8.984153
_cell_length_c 18.770482
_cell_angle_alpha 90.000000
_cell_angle_beta 141.360678
_cell_angle_gamma 90.000000
_cell_volume 3040.797527
_symmetry_space_group_name_H-M "C 2/M"
_symmetry_group_IT_number 12
_symmetry_cell_setting 'monoclinic'
loop_
_space_group_symop_operation_xyz
x,y,z
-x,y,-z
-x,-y,-z
x,-y,z
1/2+x,1/2+y,z
1/2-x,1/2+y,-z
1/2-x,1/2-y,-z
1/2+x,1/2-y,z
loop_
_atom_site_type_symbol
_atom_site_label
_atom_site_fract_x
_atom_site_fract_y
_atom_site_fract_z
Si Si1 0.565332 0.822718 0.437091
Si Si2 0.523838 0.326199 0.952749
Si Si3 0.687489 0.324479 0.099066
Si Si4 0.977027 0.664186 0.765294
Si Si5 0.673604 0.672576 0.671071
Si Si6 0.856209 0.332723 0.089223
Si Si7 0.412846 0.672373 0.287844
O O1 0.571728 0.780924 0.360633
O O2 0.637286 0.753457 0.560011
O O3 0.491839 0.752925 0.383265
O O4 0.561623 0.000000 0.443219
O O5 0.511454 0.500000 0.939367
O O6 0.608585 0.283517 0.038985
O O7 0.500000 0.256021 0.000000
O O8 0.469204 0.267570 0.824983
O O9 0.699909 0.500000 0.108260
O O10 0.748098 0.251372 0.222634
O O11 0.694571 0.254322 0.028635
O O12 0.952109 0.500000 0.758921
O O13 0.060711 0.662905 0.838710
O O14 0.686883 0.500000 0.669577
O O15 0.620190 0.693030 0.673954
O O16 0.824896 0.500000 0.061664
O O17 0.855127 0.246092 0.162928
O O18 0.423952 0.500000 0.280823
#
# Coordination Sequence:
#
# PCOD8095698 Si02
#       7
#     8   8   8   8   8   8   8
#     4  10  20  34  52  73  99 132 172 213 247 286
#     4   9  18  33  55  82 105 124 152 194 244 298
#     4  10  20  34  52  73 100 133 164 199 250 305
#     4   8  16  30  49  75 101 126 158 197 242 288
#     4  11  23  35  48  69 100 136 172 211 249 290
#     4   9  17  31  50  71  98 130 166 209 250 292
#     4  10  20  33  49  71  98 131 173 215 252 288
#
# _framework density 18.416222000000001
#
# number of rings (size 3 to 8) (size 9 to 14) (size 15 to 20)
#    0.000    2.429    0.000    3.429    0.000    9.429 
#    0.000    0.000    0.000    0.857    0.000    0.000 
#    0.000    0.000    0.000    0.000    0.000    0.000 
#
# Total GULP energy -347188.791258 kJ/mol
# GULP energy per Si atom -12399.599688 kJ/mol
# Density = 1.837431 g / cm^3
# Si number density = 18.416222 Si / 1000 Ang^3
#
#
#
# Elastic Constant Matrix: (Units=GPa)
#
#
# Indices 1 2 3 4 5 6 
#
# 1 30.5146 36.0965 49.0899 0.0000 -17.2287 0.0000
# 2 36.0965 112.4715 74.4291 0.0000 -8.6989 0.0000
# 3 49.0899 74.4291 160.4721 0.0000 -21.1772 0.0000
# 4 0.0000 0.0000 0.0000 39.1477 0.0000 -4.6686
# 5 -17.2287 -8.6989 -21.1772 0.0000 23.1428 0.0000
# 6 0.0000 0.0000 0.0000 -4.6686 0.0000 18.5781
#
#
#
# Elastic Compliance Matrix: (Units=1/GPa)
#
#
# Indices 1 2 3 4 5 6 
#
# 1 0.136432 -0.024385 -0.020736 0.000000 0.073427 0.000000
# 2 -0.024385 0.017197 -0.002342 0.000000 -0.013833 0.000000
# 3 -0.020736 -0.002342 0.013088 0.000000 -0.004340 0.000000
# 4 0.000000 0.000000 0.000000 0.026333 0.000000 0.006617
# 5 0.073427 -0.013833 -0.004340 0.000000 0.088701 0.000000
# 6 0.000000 0.000000 0.000000 0.006617 0.000000 0.055490
#
#
# Mechanical properties :
#
#
# Convention : Reuss Voigt Hill
#
# Bulk Modulus (GPa) = 13.92917 69.18767 41.55842
# Shear Modulus (GPa) = 10.96251 25.76323 18.36287
#
# Velocity S-wave (km/s) = 2.44245 3.74430 3.16112
# Velocity P-wave (km/s) = 3.94132 7.50623 5.99489
#
# Compressibility (1/GPa) = 0.07179178
#
# Stress axis : x y z
#
# Youngs Moduli (GPa) = 7.32963 58.14803 76.40357
#
# Poissons Ratio (x) = 1.41797 1.58428
# Poissons Ratio (y) = 0.17874 0.17895
# Poissons Ratio (z) = 0.15198 0.13619
#
# Static dielectric constant tensor:
#      x y z
#    x 3.157800 0.000000 -0.275480 
#    y 0.000000 3.543850 0.000000 
#    z -0.275480 0.000000 3.618400 
# 
# 
# High freq. dielectric constant tensor:
#      x y z
#    x 1.674480 0.000000 -0.018180 
#    y 0.000000 1.725730 0.000000 
#    z -0.018180 0.000000 1.721000 
# 
# From -- ./inp_files/280903.got.cif
#   From: 2010.06.25/outbox.cif.g09.slc.cpg/sg12_141_cif.got.tgz:280903.got - 2010.06.28 00:19:55.
