data_PCOD8095822
_publ_section_title
;
Structure prediction by ZEFSAII (Michael W. Deem and Ramdas Pophale) SiO2 
 PCOD8095822
Probable space group: C 2/M
;
_chemical_formula_sum "Si O2"
_cell_formula_units_Z 64
_cell_length_a 25.889687
_cell_length_b 13.605762
_cell_length_c 14.638786
_cell_angle_alpha 90.000000
_cell_angle_beta 135.937553
_cell_angle_gamma 90.000000
_cell_volume 3586.044122
_symmetry_space_group_name_H-M "C 2/M"
_symmetry_group_IT_number 12
_symmetry_cell_setting 'monoclinic'
loop_
_space_group_symop_operation_xyz
x,y,z
-x,y,-z
-x,-y,-z
x,-y,z
1/2+x,1/2+y,z
1/2-x,1/2+y,-z
1/2-x,1/2-y,-z
1/2+x,1/2-y,z
loop_
_atom_site_type_symbol
_atom_site_label
_atom_site_fract_x
_atom_site_fract_y
_atom_site_fract_z
Si Si1 0.259839 0.390668 0.969567
Si Si2 0.055548 0.116847 0.328445
Si Si3 0.285667 0.296698 0.186757
Si Si4 0.187976 0.224369 0.213557
Si Si5 0.164125 0.736547 0.378463
Si Si6 0.835383 0.614928 0.453895
Si Si7 0.405074 0.388594 0.043571
Si Si8 0.928072 0.770854 0.467003
O O1 0.229330 0.500000 0.910275
O O2 0.256746 0.372049 0.073944
O O3 0.344946 0.379101 0.047472
O O4 0.210159 0.313939 0.849948
O O5 0.124723 0.164376 0.363721
O O6 0.050447 0.154309 0.425553
O O7 0.981881 0.151985 0.181555
O O8 0.064904 0.000000 0.340696
O O9 0.227446 0.302773 0.196754
O O10 0.367563 0.325142 0.325546
O O11 0.150895 0.279704 0.253336
O O12 0.250233 0.144989 0.323912
O O13 0.119564 0.172317 0.076139
O O14 0.250000 0.750000 0.500000
O O15 0.140884 0.643743 0.411804
O O16 0.845373 0.500000 0.452121
O O17 0.891575 0.670579 0.457705
O O18 0.414873 0.500000 0.023335
O O19 0.000000 0.743249 0.500000
#
# Coordination Sequence:
#
# PCOD8095822 Si02
#       8
#     8   8   8   8   8   8   8   8
#     4   9  17  31  50  71  99 129 155 195 247 292
#     4  10  21  34  49  75 106 130 156 195 243 298
#     4   9  18  31  48  71  96 126 166 200 234 291
#     4   9  17  31  50  72  98 127 162 204 246 291
#     4   9  19  34  49  69  97 130 164 199 242 286
#     4   9  18  33  51  71  97 129 168 210 246 282
#     4   9  17  29  48  74 100 127 157 190 243 303
#     4  10  20  33  50  73 101 133 166 200 241 290
#
# _framework density 17.846964
#
# number of rings (size 3 to 8) (size 9 to 14) (size 15 to 20)
#    0.000    2.750    0.000    1.875    0.000    7.000 
#    0.000    1.875    0.000    0.000    0.000    7.000 
#    0.000    0.000    0.000    0.000    0.000    0.000 
#
# Total GULP energy -396677.928899 kJ/mol
# GULP energy per Si atom -12396.185278 kJ/mol
# Density = 1.780634 g / cm^3
# Si number density = 17.846964 Si / 1000 Ang^3
#
#
#
# Elastic Constant Matrix: (Units=GPa)
#
#
# Indices 1 2 3 4 5 6 
#
# 1 95.8490 16.1841 42.2608 0.0000 -13.9965 0.0000
# 2 16.1841 51.5692 24.2169 0.0000 0.0765 0.0000
# 3 42.2608 24.2169 118.2791 0.0000 -3.6867 0.0000
# 4 0.0000 0.0000 0.0000 21.6017 0.0000 0.5131
# 5 -13.9965 0.0765 -3.6867 0.0000 34.7851 0.0000
# 6 0.0000 0.0000 0.0000 0.5131 0.0000 15.3826
#
#
#
# Elastic Compliance Matrix: (Units=1/GPa)
#
#
# Indices 1 2 3 4 5 6 
#
# 1 0.013370 -0.002249 -0.004163 0.000000 0.004943 0.000000
# 2 -0.002249 0.021842 -0.003710 0.000000 -0.001346 0.000000
# 3 -0.004163 -0.003710 0.010685 0.000000 -0.000534 0.000000
# 4 0.000000 0.000000 0.000000 0.046329 0.000000 -0.001545
# 5 0.004943 -0.001346 -0.000534 0.000000 0.030683 0.000000
# 6 0.000000 0.000000 0.000000 -0.001545 0.000000 0.065060
#
#
# Mechanical properties :
#
#
# Convention : Reuss Voigt Hill
#
# Bulk Modulus (GPa) = 38.98151 47.89122 43.43637
# Shear Modulus (GPa) = 23.06665 26.55626 24.81146
#
# Velocity S-wave (km/s) = 3.59899 3.86164 3.73263
# Velocity P-wave (km/s) = 6.25778 6.83928 6.55498
#
# Compressibility (1/GPa) = 0.02565319
#
# Stress axis : x y z
#
# Youngs Moduli (GPa) = 74.79469 45.78439 93.59002
#
# Poissons Ratio (x) = 0.10295 0.38958
# Poissons Ratio (y) = 0.16818 0.34726
# Poissons Ratio (z) = 0.31134 0.16988
#
# Static dielectric constant tensor:
#      x y z
#    x 3.531390 0.000000 -0.325500 
#    y 0.000000 3.078620 0.000000 
#    z -0.325500 0.000000 3.569330 
# 
# 
# High freq. dielectric constant tensor:
#      x y z
#    x 1.691970 0.000000 -0.016580 
#    y 0.000000 1.660200 0.000000 
#    z -0.016580 0.000000 1.695610 
# 
# From -- ./inp_files/246391.got.cif
#   From: 2010.06.25/outbox.cif.g09.slc.cpg/sg12_124_cif.got.tgz:246391.got - 2010.06.28 00:19:55.
