data_PCOD8095756
_publ_section_title
;
Structure prediction by ZEFSAII (Michael W. Deem and Ramdas Pophale) SiO2 
 PCOD8095756
Probable space group: C 2/M
;
_chemical_formula_sum "Si O2"
_cell_formula_units_Z 48
_cell_length_a 18.521227
_cell_length_b 10.279978
_cell_length_c 20.243297
_cell_angle_alpha 90.000000
_cell_angle_beta 135.797906
_cell_angle_gamma 90.000000
_cell_volume 2687.170035
_symmetry_space_group_name_H-M "C 2/M"
_symmetry_group_IT_number 12
_symmetry_cell_setting 'monoclinic'
loop_
_space_group_symop_operation_xyz
x,y,z
-x,y,-z
-x,-y,-z
x,-y,z
1/2+x,1/2+y,z
1/2-x,1/2+y,-z
1/2-x,1/2-y,-z
1/2+x,1/2-y,z
loop_
_atom_site_type_symbol
_atom_site_label
_atom_site_fract_x
_atom_site_fract_y
_atom_site_fract_z
Si Si1 0.522459 0.151094 0.087141
Si Si2 0.595918 0.000000 0.408292
Si Si3 0.255052 0.500000 0.620468
Si Si4 0.499648 0.232816 0.281033
Si Si5 0.657060 0.848064 0.926517
Si Si6 0.678435 0.763372 0.290081
Si Si7 0.935712 0.000000 0.631402
Si Si8 0.725599 0.500000 0.583660
O O1 0.423393 0.175799 0.067516
O O2 0.625112 0.218676 0.183852
O O3 0.549034 0.000000 0.099909
O O4 0.500000 0.209986 0.000000
O O5 0.525424 0.872181 0.354346
O O6 0.643537 0.000000 0.512500
O O7 0.685814 0.000000 0.413100
O O8 0.263711 0.625688 0.672569
O O9 0.343989 0.500000 0.624012
O O10 0.392632 0.192398 0.176117
O O11 0.589950 0.231000 0.286778
O O12 0.491779 0.373876 0.310416
O O13 0.692213 0.000000 0.947541
O O14 0.750000 0.750000 0.000000
O O15 0.763045 0.873949 0.362084
O O16 0.886280 0.000000 0.525508
#
# Coordination Sequence:
#
# PCOD8095756 Si02
#       8
#     8   4   4   8   8   8   4   4
#     4   9  17  32  52  70  92 125 162 195 232 278
#     4   9  14  24  37  54  85 123 151 177 220 281
#     4   9  16  22  35  58  89 121 147 177 226 281
#     4   9  16  26  39  58  88 120 150 183 227 275
#     4  10  20  33  50  70  94 125 159 196 236 278
#     4   9  15  25  39  60  88 119 149 184 227 273
#     4   9  16  22  35  60  87 119 149 181 224 273
#     4   9  14  22  37  58  85 117 153 183 218 271
#
# _framework density 17.862660000000002
#
# number of rings (size 3 to 8) (size 9 to 14) (size 15 to 20)
#    0.000    2.833    1.667    1.000    1.167    4.000 
#    1.500    0.417    0.000    0.000    0.000    0.000 
#    0.000    8.000    0.000    0.000    0.000    0.000 
#
# Total GULP energy -297509.721294 kJ/mol
# GULP energy per Si atom -12396.238387 kJ/mol
# Density = 1.782200 g / cm^3
# Si number density = 17.862660 Si / 1000 Ang^3
#
#
#
# Elastic Constant Matrix: (Units=GPa)
#
#
# Indices 1 2 3 4 5 6 
#
# 1 12.0905 19.0736 27.3375 0.0000 -3.7371 0.0000
# 2 19.0736 165.6674 95.3795 0.0000 -0.4532 0.0000
# 3 27.3375 95.3795 184.0339 0.0000 -11.1797 0.0000
# 4 0.0000 0.0000 0.0000 39.4685 0.0000 4.8682
# 5 -3.7371 -0.4532 -11.1797 0.0000 19.0988 0.0000
# 6 0.0000 0.0000 0.0000 4.8682 0.0000 9.0639
#
#
#
# Elastic Compliance Matrix: (Units=1/GPa)
#
#
# Indices 1 2 3 4 5 6 
#
# 1 0.132784 -0.006377 -0.015398 0.000000 0.016818 0.000000
# 2 -0.006377 0.009026 -0.003933 0.000000 -0.003336 0.000000
# 3 -0.015398 -0.003933 0.009924 0.000000 0.002703 0.000000
# 4 0.000000 0.000000 0.000000 0.027134 0.000000 -0.014574
# 5 0.016818 -0.003336 0.002703 0.000000 0.057153 0.000000
# 6 0.000000 0.000000 0.000000 -0.014574 0.000000 0.118156
#
#
# Mechanical properties :
#
#
# Convention : Reuss Voigt Hill
#
# Bulk Modulus (GPa) = 9.96835 71.70812 40.83824
# Shear Modulus (GPa) = 11.38872 28.19298 19.79085
#
# Velocity S-wave (km/s) = 2.52776 3.97712 3.33219
# Velocity P-wave (km/s) = 3.75660 7.83079 6.14139
#
# Compressibility (1/GPa) = 0.10031746
#
# Stress axis : x y z
#
# Youngs Moduli (GPa) = 7.53105 110.79529 100.76849
#
# Poissons Ratio (x) = 0.70649 1.55164
# Poissons Ratio (y) = 0.04802 0.39634
# Poissons Ratio (z) = 0.11596 0.43578
#
# Static dielectric constant tensor:
#      x y z
#    x 2.593340 0.000000 -0.117780 
#    y 0.000000 3.509220 0.000000 
#    z -0.117780 0.000000 3.585560 
# 
# 
# High freq. dielectric constant tensor:
#      x y z
#    x 1.603760 0.000000 -0.005040 
#    y 0.000000 1.701210 0.000000 
#    z -0.005040 0.000000 1.710430 
# 
# From -- ./inp_files/182281.got.cif
#   From: 2010.06.25/outbox.cif.g09.slc.cpg/sg12_92_cif.got.tgz:182281.got - 2010.06.28 00:19:55.
