data_PCOD8095764
_publ_section_title
;
Structure prediction by ZEFSAII (Michael W. Deem and Ramdas Pophale) SiO2 
 PCOD8095764
Probable space group: C 2/M
;
_chemical_formula_sum "Si O2"
_cell_formula_units_Z 56
_cell_length_a 22.653948
_cell_length_b 9.075215
_cell_length_c 18.450460
_cell_angle_alpha 90.000000
_cell_angle_beta 126.654885
_cell_angle_gamma 90.000000
_cell_volume 3043.095373
_symmetry_space_group_name_H-M "C 2/M"
_symmetry_group_IT_number 12
_symmetry_cell_setting 'monoclinic'
loop_
_space_group_symop_operation_xyz
x,y,z
-x,y,-z
-x,-y,-z
x,-y,z
1/2+x,1/2+y,z
1/2-x,1/2+y,-z
1/2-x,1/2-y,-z
1/2+x,1/2-y,z
loop_
_atom_site_type_symbol
_atom_site_label
_atom_site_fract_x
_atom_site_fract_y
_atom_site_fract_z
Si Si1 0.362945 0.834612 0.314455
Si Si2 0.438454 0.824473 0.901097
Si Si3 0.941661 0.673265 0.740677
Si Si4 0.777156 0.335035 0.785655
Si Si5 0.223437 0.336568 0.387746
Si Si6 0.636222 0.165406 0.512771
Si Si7 0.000471 0.825474 0.652557
O O1 0.285274 0.772127 0.228059
O O2 0.360907 0.834582 0.399099
O O3 0.427282 0.729926 0.334720
O O4 0.374416 0.000000 0.293046
O O5 0.451880 0.765103 0.829538
O O6 0.357510 0.776730 0.870069
O O7 0.441854 0.000000 0.901332
O O8 0.500000 0.758112 0.000000
O O9 0.958107 0.500000 0.749558
O O10 0.859435 0.706764 0.648504
O O11 0.999147 0.760563 0.732879
O O12 0.762555 0.500000 0.804449
O O13 0.776760 0.337137 0.698952
O O14 0.243682 0.500000 0.430525
O O15 0.285424 0.222676 0.462493
O O16 0.570360 0.271481 0.443037
O O17 0.622590 0.000000 0.472932
O O18 0.001425 0.000000 0.655443
#
# Coordination Sequence:
#
# PCOD8095764 Si02
#       7
#     8   8   8   8   8   8   8
#     4  10  20  34  51  70  95 128 167 207 244 284
#     4   8  14  28  55  86 107 125 153 191 238 292
#     4   9  18  33  51  72 101 132 161 196 240 291
#     4   8  14  27  49  76 102 126 156 194 235 283
#     4   8  15  29  48  69  95 128 162 197 239 285
#     4  10  20  33  50  71  94 124 165 210 249 284
#     4  12  24  34  47  67  95 132 169 206 245 286
#
# _framework density 18.402315000000002
#
# number of rings (size 3 to 8) (size 9 to 14) (size 15 to 20)
#    0.000    2.714    0.000    4.286    0.000    4.571 
#    0.000    2.143    0.000    2.571    0.000    0.000 
#    0.000    0.000    0.000    0.000    0.000    0.000 
#
# Total GULP energy -347132.086084 kJ/mol
# GULP energy per Si atom -12397.574503 kJ/mol
# Density = 1.836043 g / cm^3
# Si number density = 18.402315 Si / 1000 Ang^3
#
#
#
# Elastic Constant Matrix: (Units=GPa)
#
#
# Indices 1 2 3 4 5 6 
#
# 1 74.7499 37.0514 0.8707 0.0000 14.6714 0.0000
# 2 37.0514 100.9641 18.8920 0.0000 8.1174 0.0000
# 3 0.8707 18.8920 48.7685 0.0000 19.9092 0.0000
# 4 0.0000 0.0000 0.0000 13.7905 0.0000 0.7381
# 5 14.6714 8.1174 19.9092 0.0000 22.1066 0.0000
# 6 0.0000 0.0000 0.0000 0.7381 0.0000 28.1158
#
#
#
# Elastic Compliance Matrix: (Units=1/GPa)
#
#
# Indices 1 2 3 4 5 6 
#
# 1 0.021739 -0.008428 0.011865 0.000000 -0.022019 0.000000
# 2 -0.008428 0.013947 -0.008611 0.000000 0.008227 0.000000
# 3 0.011865 -0.008611 0.040410 0.000000 -0.041106 0.000000
# 4 0.000000 0.000000 0.000000 0.072616 0.000000 -0.001906
# 5 -0.022019 0.008227 -0.041106 0.000000 0.093848 0.000000
# 6 0.000000 0.000000 0.000000 -0.001906 0.000000 0.035617
#
#
# Mechanical properties :
#
#
# Convention : Reuss Voigt Hill
#
# Bulk Modulus (GPa) = 15.20911 37.56784 26.38847
# Shear Modulus (GPa) = 16.10623 23.98048 20.04335
#
# Velocity S-wave (km/s) = 2.96164 3.61380 3.30385
# Velocity P-wave (km/s) = 4.46965 6.15400 5.37817
#
# Compressibility (1/GPa) = 0.06575007
#
# Stress axis : x y z
#
# Youngs Moduli (GPa) = 46.00088 71.69999 24.74634
#
# Poissons Ratio (x) = 0.60425 -0.29363
# Poissons Ratio (y) = 0.38767 0.21309
# Poissons Ratio (z) = -0.54582 0.61739
#
# Static dielectric constant tensor:
#      x y z
#    x 3.533350 0.000000 0.183080 
#    y 0.000000 3.390540 0.000000 
#    z 0.183080 0.000000 3.374940 
# 
# 
# High freq. dielectric constant tensor:
#      x y z
#    x 1.717950 0.000000 0.006980 
#    y 0.000000 1.699710 0.000000 
#    z 0.006980 0.000000 1.684050 
# 
# From -- ./inp_files/281694.got.cif
#   From: 2010.06.25/outbox.cif.g09.slc.cpg/sg12_141_cif.got.tgz:281694.got - 2010.06.28 00:19:55.
