data_PCOD8095611
_publ_section_title
;
Structure prediction by ZEFSAII (Michael W. Deem and Ramdas Pophale) SiO2 
 PCOD8095611
Probable space group: C 2/M
;
_chemical_formula_sum "Si O2"
_cell_formula_units_Z 48
_cell_length_a 28.030825
_cell_length_b 9.493170
_cell_length_c 12.097258
_cell_angle_alpha 90.000000
_cell_angle_beta 69.345768
_cell_angle_gamma 90.000000
_cell_volume 3012.193169
_symmetry_space_group_name_H-M "C 2/M"
_symmetry_group_IT_number 12
_symmetry_cell_setting 'monoclinic'
loop_
_space_group_symop_operation_xyz
x,y,z
-x,y,-z
-x,-y,-z
x,-y,z
1/2+x,1/2+y,z
1/2-x,1/2+y,-z
1/2-x,1/2-y,-z
1/2+x,1/2-y,z
loop_
_atom_site_type_symbol
_atom_site_label
_atom_site_fract_x
_atom_site_fract_y
_atom_site_fract_z
Si Si1 0.761022 0.663977 0.154829
Si Si2 0.424139 0.338294 0.740150
Si Si3 0.107873 0.837844 0.481907
Si Si4 0.983855 0.659613 0.386346
Si Si5 0.324924 0.662808 0.948664
Si Si6 0.775959 0.165008 0.575682
O O1 0.773536 0.500000 0.136627
O O2 0.711199 0.703185 0.124511
O O3 0.750681 0.710803 0.288426
O O4 0.810007 0.747529 0.068706
O O5 0.442211 0.500000 0.733603
O O6 0.398117 0.310527 0.643353
O O7 0.472834 0.238618 0.720249
O O8 0.382874 0.301904 0.867922
O O9 0.069628 0.740547 0.583912
O O10 0.164643 0.795352 0.469680
O O11 0.095847 0.000000 0.519945
O O12 0.978049 0.500000 0.347929
O O13 0.000000 0.663875 0.500000
O O14 0.318679 0.500000 0.984347
O O15 0.750000 0.250000 0.500000
O O16 0.768700 0.000000 0.560822
#
# Coordination Sequence:
#
# PCOD8095611 Si02
#       6
#     8   8   8   8   8   8
#     4   9  17  30  44  63  91 120 150 186 227 266
#     4   9  15  26  44  64  88 120 151 177 216 271
#     4   9  16  29  45  60  85 121 154 183 219 265
#     4   9  17  26  38  62  92 116 144 183 224 266
#     4   9  16  27  45  67  90 118 151 184 220 268
#     4  10  20  33  48  66  90 122 159 193 224 263
#
# _framework density 15.935231999999999
#
# number of rings (size 3 to 8) (size 9 to 14) (size 15 to 20)
#    0.000    2.833    1.667    0.500    0.000    4.000 
#    0.000    0.000    0.000    0.000    0.000    1.167 
#    0.000    9.333    0.000    0.000    0.000    0.000 
#
# Total GULP energy -297581.689554 kJ/mol
# GULP energy per Si atom -12399.237065 kJ/mol
# Density = 1.589896 g / cm^3
# Si number density = 15.935232 Si / 1000 Ang^3
#
#
#
# Elastic Constant Matrix: (Units=GPa)
#
#
# Indices 1 2 3 4 5 6 
#
# 1 88.8934 60.4716 60.7876 0.0000 -22.7106 0.0000
# 2 60.4716 89.1012 61.8197 0.0000 -20.9097 0.0000
# 3 60.7876 61.8197 101.1043 0.0000 -21.4832 0.0000
# 4 0.0000 0.0000 0.0000 27.8948 0.0000 -5.5885
# 5 -22.7106 -20.9097 -21.4832 0.0000 27.4823 0.0000
# 6 0.0000 0.0000 0.0000 -5.5885 0.0000 27.0135
#
#
#
# Elastic Compliance Matrix: (Units=1/GPa)
#
#
# Indices 1 2 3 4 5 6 
#
# 1 0.025027 -0.010276 -0.007232 0.000000 0.007210 0.000000
# 2 -0.010276 0.024768 -0.008114 0.000000 0.004010 0.000000
# 3 -0.007232 -0.008114 0.019929 0.000000 0.003429 0.000000
# 4 0.000000 0.000000 0.000000 0.037399 0.000000 0.007737
# 5 0.007210 0.004010 0.003429 0.000000 0.048077 0.000000
# 6 0.000000 0.000000 0.000000 0.007737 0.000000 0.038619
#
#
# Mechanical properties :
#
#
# Convention : Reuss Voigt Hill
#
# Bulk Modulus (GPa) = 54.11221 71.69520 62.90371
# Shear Modulus (GPa) = 19.90265 22.87946 21.39106
#
# Velocity S-wave (km/s) = 3.53791 3.79328 3.66782
# Velocity P-wave (km/s) = 7.12183 8.01714 7.58271
#
# Compressibility (1/GPa) = 0.01848012
#
# Stress axis : x y z
#
# Youngs Moduli (GPa) = 39.95610 40.37489 50.17871
#
# Poissons Ratio (x) = 0.41489 0.36290
# Poissons Ratio (y) = 0.41059 0.40714
# Poissons Ratio (z) = 0.28897 0.32760
#
# Static dielectric constant tensor:
#      x y z
#    x 2.868880 0.000000 -0.321480 
#    y 0.000000 3.068050 0.000000 
#    z -0.321480 0.000000 2.909230 
# 
# 
# High freq. dielectric constant tensor:
#      x y z
#    x 1.589420 0.000000 -0.034600 
#    y 0.000000 1.613850 0.000000 
#    z -0.034600 0.000000 1.588920 
# 
# From -- ./inp_files/172132.got.cif
#   From: 2010.06.25/outbox.cif.g09.slc.cpg/sg12_87_cif.got.tgz:172132.got - 2010.06.28 00:19:55.
