data_PCOD8095828
_publ_section_title
;
Structure prediction by ZEFSAII (Michael W. Deem and Ramdas Pophale) SiO2 
 PCOD8095828
Probable space group: C 2/M
;
_chemical_formula_sum "Si O2"
_cell_formula_units_Z 56
_cell_length_a 15.541764
_cell_length_b 9.424646
_cell_length_c 27.911008
_cell_angle_alpha 90.000000
_cell_angle_beta 135.245806
_cell_angle_gamma 90.000000
_cell_volume 2878.423466
_symmetry_space_group_name_H-M "C 2/M"
_symmetry_group_IT_number 12
_symmetry_cell_setting 'monoclinic'
loop_
_space_group_symop_operation_xyz
x,y,z
-x,y,-z
-x,-y,-z
x,-y,z
1/2+x,1/2+y,z
1/2-x,1/2+y,-z
1/2-x,1/2-y,-z
1/2+x,1/2-y,z
loop_
_atom_site_type_symbol
_atom_site_label
_atom_site_fract_x
_atom_site_fract_y
_atom_site_fract_z
Si Si1 0.027964 0.332494 0.156575
Si Si2 0.353885 0.159459 0.566218
Si Si3 0.093355 0.331375 0.076813
Si Si4 0.781452 0.162505 0.302995
Si Si5 0.636009 0.666450 0.840338
Si Si6 0.563415 0.842019 0.571772
Si Si7 0.012230 0.162670 0.692673
O O1 0.002552 0.500000 0.147381
O O2 0.049023 0.276312 0.110990
O O3 0.146130 0.292046 0.234567
O O4 0.911998 0.250828 0.132417
O O5 0.250000 0.250000 0.500000
O O6 0.467651 0.152201 0.576291
O O7 0.398840 0.237575 0.632413
O O8 0.307257 0.000000 0.559810
O O9 0.096489 0.500000 0.079118
O O10 0.228876 0.275561 0.118358
O O11 0.000000 0.273244 0.000000
O O12 0.820402 0.251359 0.365296
O O13 0.868586 0.191689 0.292299
O O14 0.787380 0.000000 0.320906
O O15 0.638932 0.500000 0.853453
O O16 0.547054 0.699171 0.760708
O O17 0.500000 0.771729 0.500000
O O18 0.609975 0.000000 0.576871
O O19 0.969953 0.000000 0.670361
#
# Coordination Sequence:
#
# PCOD8095828 Si02
#       7
#     8   8   8   8   8   8   8
#     4  10  20  35  56  85 115 145 186 235 280 329
#     4  10  20  33  50  73 102 138 178 222 274 329
#     4   9  18  36  61  84 113 155 193 227 276 339
#     4   9  17  32  53  73  98 136 181 224 269 323
#     4  10  20  35  57  85 112 146 191 232 277 337
#     4   9  19  34  50  70  99 134 173 218 269 321
#     4   9  17  33  54  72  98 139 184 228 272 327
#
# _framework density 19.455093999999999
#
# number of rings (size 3 to 8) (size 9 to 14) (size 15 to 20)
#    0.000    2.571    1.429    0.429    0.000    3.714 
#    0.000    5.000    0.000    0.857    0.000    0.000 
#    0.000    0.000    0.000    0.000    0.000    0.000 
#
# Total GULP energy -347194.511942 kJ/mol
# GULP energy per Si atom -12399.803998 kJ/mol
# Density = 1.941081 g / cm^3
# Si number density = 19.455094 Si / 1000 Ang^3
#
#
#
# Elastic Constant Matrix: (Units=GPa)
#
#
# Indices 1 2 3 4 5 6 
#
# 1 99.6223 41.8367 60.7455 0.0000 -8.1299 0.0000
# 2 41.8367 74.7591 56.0349 0.0000 0.8726 0.0000
# 3 60.7455 56.0349 136.1333 0.0000 -7.4361 0.0000
# 4 0.0000 0.0000 0.0000 19.2217 0.0000 -1.7492
# 5 -8.1299 0.8726 -7.4361 0.0000 25.0872 0.0000
# 6 0.0000 0.0000 0.0000 -1.7492 0.0000 27.9114
#
#
#
# Elastic Compliance Matrix: (Units=1/GPa)
#
#
# Indices 1 2 3 4 5 6 
#
# 1 0.015264 -0.005261 -0.004437 0.000000 0.003814 0.000000
# 2 -0.005261 0.021395 -0.006701 0.000000 -0.004435 0.000000
# 3 -0.004437 -0.006701 0.012216 0.000000 0.002416 0.000000
# 4 0.000000 0.000000 0.000000 0.052323 0.000000 0.003279
# 5 0.003814 -0.004435 0.002416 0.000000 0.041968 0.000000
# 6 0.000000 0.000000 0.000000 0.003279 0.000000 0.036033
#
#
# Mechanical properties :
#
#
# Convention : Reuss Voigt Hill
#
# Bulk Modulus (GPa) = 62.20309 69.74988 65.97648
# Shear Modulus (GPa) = 23.00362 24.57055 23.78709
#
# Velocity S-wave (km/s) = 3.44233 3.55764 3.50046
# Velocity P-wave (km/s) = 6.91676 7.26672 7.09390
#
# Compressibility (1/GPa) = 0.01607637
#
# Stress axis : x y z
#
# Youngs Moduli (GPa) = 65.51283 46.73980 81.85804
#
# Poissons Ratio (x) = 0.24588 0.36324
# Poissons Ratio (y) = 0.34464 0.54857
# Poissons Ratio (z) = 0.29071 0.31323
#
# Static dielectric constant tensor:
#      x y z
#    x 3.441720 0.000000 -0.007210 
#    y 0.000000 3.487220 0.000000 
#    z -0.007210 0.000000 3.699200 
# 
# 
# High freq. dielectric constant tensor:
#      x y z
#    x 1.750140 0.000000 -0.002820 
#    y 0.000000 1.733440 0.000000 
#    z -0.002820 0.000000 1.761980 
# 
# From -- ./inp_files/377741.got.cif
#   From: 2010.06.25/outbox.cif.g09.slc.cpg/sg12_189_cif.got.tgz:377741.got - 2010.06.28 00:19:55.
