data_PCOD8095146
_publ_section_title
;
Structure prediction by ZEFSAII (Michael W. Deem and Ramdas Pophale) SiO2 
 PCOD8095146
Probable space group: C 2/M
;
_chemical_formula_sum "Si O2"
_cell_formula_units_Z 56
_cell_length_a 29.791565
_cell_length_b 9.273164
_cell_length_c 18.925013
_cell_angle_alpha 90.000000
_cell_angle_beta 141.842523
_cell_angle_gamma 90.000000
_cell_volume 3230.151670
_symmetry_space_group_name_H-M "C 2/M"
_symmetry_group_IT_number 12
_symmetry_cell_setting 'monoclinic'
loop_
_space_group_symop_operation_xyz
x,y,z
-x,y,-z
-x,-y,-z
x,-y,z
1/2+x,1/2+y,z
1/2-x,1/2+y,-z
1/2-x,1/2-y,-z
1/2+x,1/2-y,z
loop_
_atom_site_type_symbol
_atom_site_label
_atom_site_fract_x
_atom_site_fract_y
_atom_site_fract_z
Si Si1 0.806624 0.662756 0.525050
Si Si2 0.120964 0.833450 0.771639
Si Si3 0.460772 0.333204 0.564562
Si Si4 0.621447 0.835192 0.917476
Si Si5 0.536495 0.836856 0.292926
Si Si6 0.249497 0.169553 0.826515
Si Si7 0.178267 0.330426 0.619939
O O1 0.780307 0.500000 0.498695
O O2 0.750000 0.750000 0.500000
O O3 0.888655 0.683482 0.658629
O O4 0.807327 0.710057 0.443862
O O5 0.131381 0.745403 0.856150
O O6 0.182904 0.786043 0.794308
O O7 0.042559 0.806824 0.636081
O O8 0.128346 0.000000 0.801900
O O9 0.437858 0.500000 0.529092
O O10 0.465605 0.287905 0.652002
O O11 0.399155 0.236965 0.450507
O O12 0.538233 0.821529 0.844169
O O13 0.642132 0.000000 0.927277
O O14 0.675889 0.776588 0.044655
O O15 0.539609 0.000000 0.330915
O O16 0.242102 0.257661 0.744592
O O17 0.250334 0.000000 0.810611
O O18 0.176678 0.500000 0.631268
#
# Coordination Sequence:
#
# PCOD8095146 Si02
#       7
#     8   8   8   8   8   8   8
#     4   9  18  32  52  75  95 113 141 184 233 283
#     4   9  18  30  45  68  96 124 161 204 238 264
#     4   9  16  28  46  66  91 124 157 193 233 274
#     4   9  17  30  49  69  93 127 165 197 227 266
#     4   8  15  29  47  70  97 121 148 188 230 269
#     4  10  20  32  46  67  95 129 164 197 230 269
#     4  10  21  35  48  67  95 124 153 190 235 282
#
# _framework density 17.336646999999999
#
# number of rings (size 3 to 8) (size 9 to 14) (size 15 to 20)
#    0.000    2.857    0.000    2.143    0.000    5.143 
#    0.000    2.857    0.000    0.857    0.000    6.000 
#    0.000    0.000    0.000    0.000    0.000    0.000 
#
# Total GULP energy -346947.103846 kJ/mol
# GULP energy per Si atom -12390.967995 kJ/mol
# Density = 1.729719 g / cm^3
# Si number density = 17.336647 Si / 1000 Ang^3
#
#
#
# Elastic Constant Matrix: (Units=GPa)
#
#
# Indices 1 2 3 4 5 6 
#
# 1 84.3411 35.3285 45.7502 0.0000 17.7430 0.0000
# 2 35.3285 61.0901 39.9386 0.0000 1.7309 0.0000
# 3 45.7502 39.9386 113.8078 0.0000 9.7706 0.0000
# 4 0.0000 0.0000 0.0000 27.9479 0.0000 -1.1533
# 5 17.7430 1.7309 9.7706 0.0000 18.3045 0.0000
# 6 0.0000 0.0000 0.0000 -1.1533 0.0000 23.8706
#
#
#
# Elastic Compliance Matrix: (Units=1/GPa)
#
#
# Indices 1 2 3 4 5 6 
#
# 1 0.021757 -0.009562 -0.003833 0.000000 -0.018140 0.000000
# 2 -0.009562 0.025520 -0.005974 0.000000 0.010045 0.000000
# 3 -0.003833 -0.005974 0.012636 0.000000 -0.002464 0.000000
# 4 0.000000 0.000000 0.000000 0.035852 0.000000 0.001732
# 5 -0.018140 0.010045 -0.002464 0.000000 0.072580 0.000000
# 6 0.000000 0.000000 0.000000 0.001732 0.000000 0.041976
#
#
# Mechanical properties :
#
#
# Convention : Reuss Voigt Hill
#
# Bulk Modulus (GPa) = 47.22810 55.69708 51.46259
# Shear Modulus (GPa) = 19.52212 23.23937 21.38074
#
# Velocity S-wave (km/s) = 3.35932 3.66522 3.51560
# Velocity P-wave (km/s) = 6.50751 7.07873 6.79912
#
# Compressibility (1/GPa) = 0.02117384
#
# Stress axis : x y z
#
# Youngs Moduli (GPa) = 45.96117 39.18449 79.14014
#
# Poissons Ratio (x) = 0.37469 0.30338
# Poissons Ratio (y) = 0.43949 0.47280
# Poissons Ratio (z) = 0.17619 0.23410
#
# Static dielectric constant tensor:
#      x y z
#    x 3.003930 0.000000 0.358350 
#    y 0.000000 3.237580 0.000000 
#    z 0.358350 0.000000 3.471490 
# 
# 
# High freq. dielectric constant tensor:
#      x y z
#    x 1.632130 0.000000 0.027600 
#    y 0.000000 1.672720 0.000000 
#    z 0.027600 0.000000 1.671390 
# 
# From -- ./inp_files/287371.got.cif
#   From: 2010.06.25/outbox.cif.g09.slc.cpg/sg12_144_cif.got.tgz:287371.got - 2010.06.28 00:19:55.
