data_PCOD8095610
_publ_section_title
;
Structure prediction by ZEFSAII (Michael W. Deem and Ramdas Pophale) SiO2 
 PCOD8095610
Probable space group: C 2/M
;
_chemical_formula_sum "Si O2"
_cell_formula_units_Z 48
_cell_length_a 29.701944
_cell_length_b 9.507763
_cell_length_c 12.120260
_cell_angle_alpha 90.000000
_cell_angle_beta 62.736670
_cell_angle_gamma 90.000000
_cell_volume 3042.518586
_symmetry_space_group_name_H-M "C 2/M"
_symmetry_group_IT_number 12
_symmetry_cell_setting 'monoclinic'
loop_
_space_group_symop_operation_xyz
x,y,z
-x,y,-z
-x,-y,-z
x,-y,z
1/2+x,1/2+y,z
1/2-x,1/2+y,-z
1/2-x,1/2-y,-z
1/2+x,1/2-y,z
loop_
_atom_site_type_symbol
_atom_site_label
_atom_site_fract_x
_atom_site_fract_y
_atom_site_fract_z
Si Si1 0.475069 0.336286 0.642741
Si Si2 0.268992 0.836064 0.874246
Si Si3 0.140200 0.836810 0.195338
Si Si4 0.162962 0.841156 0.917787
Si Si5 0.581069 0.162863 0.912828
Si Si6 0.502897 0.163733 0.818280
O O1 0.500000 0.291643 0.500000
O O2 0.482652 0.500000 0.659927
O O3 0.415938 0.297615 0.702819
O O4 0.503620 0.251806 0.705918
O O5 0.321164 0.761287 0.776782
O O6 0.223876 0.823730 0.834484
O O7 0.278471 0.000000 0.893217
O O8 0.250000 0.750000 0.000000
O O9 0.153344 0.000000 0.202249
O O10 0.146023 0.798873 0.060203
O O11 0.134004 0.745123 0.861892
O O12 0.146367 0.000000 0.912451
O O13 0.555265 0.193821 0.823979
O O14 0.593389 0.000000 0.911663
O O15 0.543673 0.212011 0.052575
O O16 0.497952 0.000000 0.794899
#
# Coordination Sequence:
#
# PCOD8095610 Si02
#       6
#     8   8   8   8   8   8
#     4  10  20  33  48  66  90 121 156 191 225 262
#     4   9  17  27  40  61  89 118 147 180 220 267
#     4   9  17  29  42  61  89 118 150 185 220 264
#     4   9  16  26  41  64  90 116 147 179 217 268
#     4   9  17  28  44  65  91 120 147 180 223 269
#     4   9  18  31  44  64  91 118 151 186 221 266
#
# _framework density 15.776403
#
# number of rings (size 3 to 8) (size 9 to 14) (size 15 to 20)
#    0.000    2.833    1.667    2.500    0.000    5.000 
#    0.000    1.667    0.000    0.000    0.000    1.167 
#    0.000    0.000    0.000    0.000    0.000    0.000 
#
# Total GULP energy -297491.634085 kJ/mol
# GULP energy per Si atom -12395.484754 kJ/mol
# Density = 1.574050 g / cm^3
# Si number density = 15.776403 Si / 1000 Ang^3
#
#
#
# Elastic Constant Matrix: (Units=GPa)
#
#
# Indices 1 2 3 4 5 6 
#
# 1 126.0726 68.8047 41.9749 0.0000 0.6649 0.0000
# 2 68.8047 78.5004 32.9971 0.0000 6.7531 0.0000
# 3 41.9749 32.9971 63.0486 0.0000 3.2699 0.0000
# 4 0.0000 0.0000 0.0000 17.5595 0.0000 2.5224
# 5 0.6649 6.7531 3.2699 0.0000 17.2556 0.0000
# 6 0.0000 0.0000 0.0000 2.5224 0.0000 36.6171
#
#
#
# Elastic Compliance Matrix: (Units=1/GPa)
#
#
# Indices 1 2 3 4 5 6 
#
# 1 0.016509 -0.013066 -0.004429 0.000000 0.005317 0.000000
# 2 -0.013066 0.027079 -0.004999 0.000000 -0.009147 0.000000
# 3 -0.004429 -0.004999 0.021527 0.000000 -0.001952 0.000000
# 4 0.000000 0.000000 0.000000 0.057518 0.000000 -0.003962
# 5 0.005317 -0.009147 -0.001952 0.000000 0.061697 0.000000
# 6 0.000000 0.000000 0.000000 -0.003962 0.000000 0.027583
#
#
# Mechanical properties :
#
#
# Convention : Reuss Voigt Hill
#
# Bulk Modulus (GPa) = 49.68245 61.68612 55.68429
# Shear Modulus (GPa) = 18.96747 22.54277 20.75512
#
# Velocity S-wave (km/s) = 3.47114 3.78417 3.63103
# Velocity P-wave (km/s) = 6.90109 7.63403 7.27679
#
# Compressibility (1/GPa) = 0.02012783
#
# Stress axis : x y z
#
# Youngs Moduli (GPa) = 60.57251 36.92893 46.45400
#
# Poissons Ratio (x) = 0.48251 0.20573
# Poissons Ratio (y) = 0.79143 0.23222
# Poissons Ratio (z) = 0.26825 0.18461
#
# Static dielectric constant tensor:
#      x y z
#    x 3.333440 0.000000 -0.150310 
#    y 0.000000 3.039230 0.000000 
#    z -0.150310 0.000000 2.583550 
# 
# 
# High freq. dielectric constant tensor:
#      x y z
#    x 1.618020 0.000000 -0.004690 
#    y 0.000000 1.612120 0.000000 
#    z -0.004690 0.000000 1.542880 
# 
# From -- ./inp_files/185725.got.cif
#   From: 2010.06.25/outbox.cif.g09.slc.cpg/sg12_93_cif.got.tgz:185725.got - 2010.06.28 00:19:55.
