data_PCOD8095226
_publ_section_title
;
Structure prediction by ZEFSAII (Michael W. Deem and Ramdas Pophale) SiO2 
 PCOD8095226
Probable space group: C 2/M
;
_chemical_formula_sum "Si O2"
_cell_formula_units_Z 56
_cell_length_a 22.763801
_cell_length_b 16.339692
_cell_length_c 15.204318
_cell_angle_alpha 90.000000
_cell_angle_beta 144.288907
_cell_angle_gamma 90.000000
_cell_volume 3300.989279
_symmetry_space_group_name_H-M "C 2/M"
_symmetry_group_IT_number 12
_symmetry_cell_setting 'monoclinic'
loop_
_space_group_symop_operation_xyz
x,y,z
-x,y,-z
-x,-y,-z
x,-y,z
1/2+x,1/2+y,z
1/2-x,1/2+y,-z
1/2-x,1/2-y,-z
1/2+x,1/2-y,z
loop_
_atom_site_type_symbol
_atom_site_label
_atom_site_fract_x
_atom_site_fract_y
_atom_site_fract_z
Si Si1 0.942732 0.000000 0.787754
Si Si2 0.612774 0.671415 0.317586
Si Si3 0.416950 0.904951 0.324403
Si Si4 0.747947 0.331826 0.216683
Si Si5 0.178468 0.696083 0.515155
Si Si6 0.994992 0.404433 0.759510
Si Si7 0.948707 0.725303 0.031137
Si Si8 0.139912 0.000000 0.117264
O O1 0.899566 0.075711 0.680086
O O2 0.909158 0.000000 0.847177
O O3 0.063532 0.000000 0.941497
O O4 0.704104 0.692582 0.364313
O O5 0.629798 0.716603 0.430602
O O6 0.511320 0.700331 0.147325
O O7 0.500000 0.886075 0.500000
O O8 0.317639 0.847393 0.215803
O O9 0.454464 0.884055 0.272386
O O10 0.385143 0.000000 0.292127
O O11 0.830152 0.309606 0.391092
O O12 0.703562 0.418340 0.190761
O O13 0.665966 0.259029 0.110486
O O14 0.120930 0.624392 0.391394
O O15 0.998726 0.500000 0.787830
O O16 0.049102 0.354898 0.904024
O O17 0.000000 0.701999 0.000000
#
# Coordination Sequence:
#
# PCOD8095226 Si02
#       8
#     4   8   8   8   8   8   8   4
#     4  11  18  30  48  70 108 136 176 202 268 316
#     4  10  20  32  47  75 109 139 169 216 261 318
#     4  10  20  34  53  81 109 134 171 222 267 310
#     4  12  20  33  55  78 107 136 171 212 271 316
#     4  10  20  32  50  75 106 135 172 215 267 304
#     4  10  23  38  54  77 107 143 183 218 255 311
#     4  11  21  37  54  77 113 143 172 218 264 310
#     4  11  20  26  47  82 100 132 164 218 263 330
#
# _framework density 16.964611000000001
#
# number of rings (size 3 to 8) (size 9 to 14) (size 15 to 20)
#    0.000    1.429    6.429    0.000    2.000    0.857 
#    0.000    0.000    1.571    0.000    0.000    0.000 
#    0.000    3.143    0.000    0.000    0.000    0.000 
#
# Total GULP energy -347040.986902 kJ/mol
# GULP energy per Si atom -12394.320961 kJ/mol
# Density = 1.692600 g / cm^3
# Si number density = 16.964611 Si / 1000 Ang^3
#
#
#
# Elastic Constant Matrix: (Units=GPa)
#
#
# Indices 1 2 3 4 5 6 
#
# 1 71.9251 36.8645 26.8464 0.0000 -1.5794 0.0000
# 2 36.8645 123.2540 56.3499 0.0000 -9.7770 0.0000
# 3 26.8464 56.3499 83.0834 0.0000 -2.8531 0.0000
# 4 0.0000 0.0000 0.0000 17.8904 0.0000 -4.7147
# 5 -1.5794 -9.7770 -2.8531 0.0000 20.8709 0.0000
# 6 0.0000 0.0000 0.0000 -4.7147 0.0000 21.0680
#
#
#
# Elastic Compliance Matrix: (Units=1/GPa)
#
#
# Indices 1 2 3 4 5 6 
#
# 1 0.016920 -0.003795 -0.002924 0.000000 -0.000897 0.000000
# 2 -0.003795 0.013035 -0.007450 0.000000 0.004801 0.000000
# 3 -0.002924 -0.007450 0.017991 0.000000 -0.001252 0.000000
# 4 0.000000 0.000000 0.000000 0.059399 0.000000 0.013293
# 5 -0.000897 0.004801 -0.001252 0.000000 0.049924 0.000000
# 6 0.000000 0.000000 0.000000 0.013293 0.000000 0.050440
#
#
# Mechanical properties :
#
#
# Convention : Reuss Voigt Hill
#
# Bulk Modulus (GPa) = 50.99950 57.59824 54.29887
# Shear Modulus (GPa) = 20.61154 22.51264 21.56209
#
# Velocity S-wave (km/s) = 3.48943 3.64680 3.56898
# Velocity P-wave (km/s) = 6.80899 7.19430 7.00429
#
# Compressibility (1/GPa) = 0.01960804
#
# Stress axis : x y z
#
# Youngs Moduli (GPa) = 59.10086 76.71607 55.58433
#
# Poissons Ratio (x) = 0.29113 0.16255
# Poissons Ratio (y) = 0.22428 0.41409
# Poissons Ratio (z) = 0.17283 0.57151
#
# Static dielectric constant tensor:
#      x y z
#    x 3.136650 0.000000 0.064030 
#    y 0.000000 3.162200 0.000000 
#    z 0.064030 0.000000 3.227730 
# 
# 
# High freq. dielectric constant tensor:
#      x y z
#    x 1.638600 0.000000 0.011550 
#    y 0.000000 1.646770 0.000000 
#    z 0.011550 0.000000 1.653930 
# 
# From -- ./inp_files/240478.got.cif
#   From: 2010.06.25/outbox.cif.g09.slc.cpg/sg12_121_cif.got.tgz:240478.got - 2010.06.28 00:19:55.
