data_PCOD8095490
_publ_section_title
;
Structure prediction by ZEFSAII (Michael W. Deem and Ramdas Pophale) SiO2 
 PCOD8095490
Probable space group: C 2/M
;
_chemical_formula_sum "Si O2"
_cell_formula_units_Z 48
_cell_length_a 22.624295
_cell_length_b 9.312814
_cell_length_c 12.192423
_cell_angle_alpha 90.000000
_cell_angle_beta 106.918624
_cell_angle_gamma 90.000000
_cell_volume 2457.708792
_symmetry_space_group_name_H-M "C 2/M"
_symmetry_group_IT_number 12
_symmetry_cell_setting 'monoclinic'
loop_
_space_group_symop_operation_xyz
x,y,z
-x,y,-z
-x,-y,-z
x,-y,z
1/2+x,1/2+y,z
1/2-x,1/2+y,-z
1/2-x,1/2-y,-z
1/2+x,1/2-y,z
loop_
_atom_site_type_symbol
_atom_site_label
_atom_site_fract_x
_atom_site_fract_y
_atom_site_fract_z
Si Si1 0.883162 0.834826 0.659476
Si Si2 0.728547 0.663777 0.884788
Si Si3 0.117055 0.333400 0.552967
Si Si4 0.255056 0.336420 0.693493
Si Si5 0.088070 0.834862 0.748812
Si Si6 0.008763 0.831809 0.126347
O O1 0.906833 0.737467 0.572211
O O2 0.811192 0.803482 0.641971
O O3 0.922848 0.798223 0.790011
O O4 0.893671 0.000000 0.631364
O O5 0.749552 0.500000 0.907482
O O6 0.762643 0.729261 0.798423
O O7 0.655463 0.679506 0.836311
O O8 0.750000 0.750000 0.000000
O O9 0.099335 0.500000 0.543982
O O10 0.190712 0.308361 0.597365
O O11 0.082432 0.258838 0.635767
O O12 0.258495 0.500000 0.738977
O O13 0.041155 0.770655 0.813935
O O14 0.072650 0.000000 0.710674
O O15 0.996368 0.000000 0.108859
O O16 0.000000 0.761972 0.000000
#
# Coordination Sequence:
#
# PCOD8095490 Si02
#       6
#     8   8   8   8   8   8
#     4  10  20  34  57  83 108 141 181 224 267 317
#     4  10  20  32  52  79 107 142 179 220 267 319
#     4  10  20  35  55  80 113 144 175 219 271 325
#     4   9  19  34  53  80 110 141 176 220 269 318
#     4   9  19  36  57  79 105 139 181 226 267 313
#     4   9  19  35  57  82 105 136 181 230 269 307
#
# _framework density 19.530386
#
# number of rings (size 3 to 8) (size 9 to 14) (size 15 to 20)
#    0.000    2.500    0.000    1.500    2.333    2.667 
#    0.000    4.167    0.000    1.000    0.000    0.000 
#    0.000    0.000    0.000    0.000    0.000    0.000 
#
# Total GULP energy -297617.330554 kJ/mol
# GULP energy per Si atom -12400.722106 kJ/mol
# Density = 1.948593 g / cm^3
# Si number density = 19.530386 Si / 1000 Ang^3
#
#
#
# Elastic Constant Matrix: (Units=GPa)
#
#
# Indices 1 2 3 4 5 6 
#
# 1 86.4811 24.1045 36.8797 0.0000 -22.0020 0.0000
# 2 24.1045 92.0226 60.1203 0.0000 -14.2682 0.0000
# 3 36.8797 60.1203 133.1201 0.0000 -19.7575 0.0000
# 4 0.0000 0.0000 0.0000 32.0746 0.0000 -4.8311
# 5 -22.0020 -14.2682 -19.7575 0.0000 22.6650 0.0000
# 6 0.0000 0.0000 0.0000 -4.8311 0.0000 20.2613
#
#
#
# Elastic Compliance Matrix: (Units=1/GPa)
#
#
# Indices 1 2 3 4 5 6 
#
# 1 0.016056 -0.000752 -0.002143 0.000000 0.013245 0.000000
# 2 -0.000752 0.015802 -0.006387 0.000000 0.003650 0.000000
# 3 -0.002143 -0.006387 0.011583 0.000000 0.003997 0.000000
# 4 0.000000 0.000000 0.000000 0.032339 0.000000 0.007711
# 5 0.013245 0.003650 0.003997 0.000000 0.062761 0.000000
# 6 0.000000 0.000000 0.000000 0.007711 0.000000 0.051194
#
#
# Mechanical properties :
#
#
# Convention : Reuss Voigt Hill
#
# Bulk Modulus (GPa) = 40.19455 61.53699 50.86577
# Shear Modulus (GPa) = 23.08495 27.70148 25.39322
#
# Velocity S-wave (km/s) = 3.44176 3.77022 3.60973
# Velocity P-wave (km/s) = 6.03485 7.10841 6.59352
#
# Compressibility (1/GPa) = 0.02487900
#
# Stress axis : x y z
#
# Youngs Moduli (GPa) = 62.28022 63.28144 86.33239
#
# Poissons Ratio (x) = 0.04760 0.18498
# Poissons Ratio (y) = 0.04685 0.55137
# Poissons Ratio (z) = 0.13345 0.40415
#
# Static dielectric constant tensor:
#      x y z
#    x 3.954480 0.000000 -0.435180 
#    y 0.000000 3.463640 0.000000 
#    z -0.435180 0.000000 4.041660 
# 
# 
# High freq. dielectric constant tensor:
#      x y z
#    x 1.760110 0.000000 -0.003470 
#    y 0.000000 1.740360 0.000000 
#    z -0.003470 0.000000 1.763230 
# 
# From -- ./inp_files/172395.got.cif
#   From: 2010.06.25/outbox.cif.g09.slc.cpg/sg12_87_cif.got.tgz:172395.got - 2010.06.28 00:19:55.
