data_PCOD8095565
_publ_section_title
;
Structure prediction by ZEFSAII (Michael W. Deem and Ramdas Pophale) SiO2 
 PCOD8095565
Probable space group: C 2/M
;
_chemical_formula_sum "Si O2"
_cell_formula_units_Z 56
_cell_length_a 23.230278
_cell_length_b 19.530831
_cell_length_c 19.828938
_cell_angle_alpha 90.000000
_cell_angle_beta 161.297166
_cell_angle_gamma 90.000000
_cell_volume 2884.822907
_symmetry_space_group_name_H-M "C 2/M"
_symmetry_group_IT_number 12
_symmetry_cell_setting 'monoclinic'
loop_
_space_group_symop_operation_xyz
x,y,z
-x,y,-z
-x,-y,-z
x,-y,z
1/2+x,1/2+y,z
1/2-x,1/2+y,-z
1/2-x,1/2-y,-z
1/2+x,1/2-y,z
loop_
_atom_site_type_symbol
_atom_site_label
_atom_site_fract_x
_atom_site_fract_y
_atom_site_fract_z
Si Si1 0.923660 0.672228 0.484291
Si Si2 0.693153 0.794075 0.185720
Si Si3 0.692001 0.925003 0.248429
Si Si4 0.487966 0.080569 0.673471
Si Si5 0.635761 0.649629 0.893439
Si Si6 0.253834 0.579119 0.470914
Si Si7 0.270645 0.269116 0.125118
O O1 0.754805 0.719432 0.278290
O O2 0.000000 0.638523 0.500000
O O3 0.879502 0.613542 0.489632
O O4 0.059474 0.724819 0.667455
O O5 0.801869 0.861319 0.335393
O O6 0.680152 0.799397 0.091105
O O7 0.500000 0.805993 0.000000
O O8 0.673849 0.907713 0.307973
O O9 0.789415 0.000000 0.348595
O O10 0.500000 0.931910 0.000000
O O11 0.392552 0.106366 0.636702
O O12 0.473907 0.000000 0.650205
O O13 0.697115 0.101421 0.900379
O O14 0.445788 0.614514 0.695321
O O15 0.662550 0.666885 0.844684
O O16 0.631365 0.720794 0.930333
O O17 0.288690 0.500000 0.523427
#
# Coordination Sequence:
#
# PCOD8095565 Si02
#       7
#     8   8   8   8   8   8   8
#     4   9  19  38  56  79 116 147 184 241 284 336
#     4  10  20  32  57  83 109 148 191 229 282 334
#     4   9  19  35  54  80 114 147 184 231 276 329
#     4  10  22  37  59  85 111 153 194 232 288 339
#     4  10  20  37  58  81 119 145 185 239 282 337
#     4  10  21  37  58  83 113 150 190 233 279 336
#     4   9  20  36  52  84 113 147 186 233 286 337
#
# _framework density 19.411937000000002
#
# number of rings (size 3 to 8) (size 9 to 14) (size 15 to 20)
#    0.000    2.429    0.000    1.286    6.000    0.286 
#    0.000    3.571    0.000    6.000    0.000    0.000 
#    0.000    0.000    0.000    0.000    0.000    0.000 
#
# Total GULP energy -346934.722079 kJ/mol
# GULP energy per Si atom -12390.525789 kJ/mol
# Density = 1.936775 g / cm^3
# Si number density = 19.411937 Si / 1000 Ang^3
#
#
#
# Elastic Constant Matrix: (Units=GPa)
#
#
# Indices 1 2 3 4 5 6 
#
# 1 147.5237 68.1518 27.0930 0.0066 -14.6062 0.0084
# 2 68.1518 87.5486 16.4683 -0.0076 -1.4609 -0.0031
# 3 27.0930 16.4683 55.5579 0.0155 0.4490 0.0193
# 4 0.0066 -0.0076 0.0155 21.8263 0.0073 0.5608
# 5 -14.6062 -1.4609 0.4490 0.0073 29.6083 0.0061
# 6 0.0084 -0.0031 0.0193 0.5608 0.0061 43.4029
#
#
#
# Elastic Compliance Matrix: (Units=1/GPa)
#
#
# Indices 1 2 3 4 5 6 
#
# 1 0.011866 -0.008524 -0.003304 -0.000006 0.005483 -0.000002
# 2 -0.008524 0.018233 -0.001221 0.000011 -0.003287 0.000004
# 3 -0.003304 -0.001221 0.019989 -0.000013 -0.001993 -0.000008
# 4 -0.000006 0.000011 -0.000013 0.045831 -0.000013 -0.000592
# 5 0.005483 -0.003287 -0.001993 -0.000013 0.036347 -0.000005
# 6 -0.000002 0.000004 -0.000008 -0.000592 -0.000005 0.023048
#
#
# Mechanical properties :
#
#
# Convention : Reuss Voigt Hill
#
# Bulk Modulus (GPa) = 41.68643 57.11738 49.40190
# Shear Modulus (GPa) = 26.39792 30.89532 28.64662
#
# Velocity S-wave (km/s) = 3.69166 3.99377 3.84568
# Velocity P-wave (km/s) = 6.30019 7.12423 6.72484
#
# Compressibility (1/GPa) = 0.02398862
#
# Stress axis : x y z
#
# Youngs Moduli (GPa) = 84.27292 54.84670 50.02845
#
# Poissons Ratio (x) = 0.46752 0.16531
# Poissons Ratio (y) = 0.71835 0.06109
# Poissons Ratio (z) = 0.27846 0.06697
#
# Static dielectric constant tensor:
#      x y z
#    x 3.195650 -0.000090 0.114960 
#    y -0.000090 4.222090 -0.000010 
#    z 0.114960 -0.000010 3.109180 
# 
# 
# High freq. dielectric constant tensor:
#      x y z
#    x 1.761290 0.000000 -0.018860 
#    y 0.000000 1.760780 0.000000 
#    z -0.018860 0.000000 1.736050 
# 
# From -- ./inp_files/286106.got.cif
#   From: 2010.06.25/outbox.cif.g09.slc.cpg/sg12_144_cif.got.tgz:286106.got - 2010.06.28 00:19:55.
