data_PCOD8095244
_publ_section_title
;
Structure prediction by ZEFSAII (Michael W. Deem and Ramdas Pophale) SiO2 
 PCOD8095244
Probable space group: C 2/M
;
_chemical_formula_sum "Si O2"
_cell_formula_units_Z 56
_cell_length_a 25.079825
_cell_length_b 7.834340
_cell_length_c 17.598640
_cell_angle_alpha 90.000000
_cell_angle_beta 74.405508
_cell_angle_gamma 90.000000
_cell_volume 3330.560098
_symmetry_space_group_name_H-M "C 2/M"
_symmetry_group_IT_number 12
_symmetry_cell_setting 'monoclinic'
loop_
_space_group_symop_operation_xyz
x,y,z
-x,y,-z
-x,-y,-z
x,-y,z
1/2+x,1/2+y,z
1/2-x,1/2+y,-z
1/2-x,1/2-y,-z
1/2+x,1/2-y,z
loop_
_atom_site_type_symbol
_atom_site_label
_atom_site_fract_x
_atom_site_fract_y
_atom_site_fract_z
Si Si1 0.496422 0.500000 0.626264
Si Si2 0.418004 0.688813 0.065847
Si Si3 0.383460 0.298195 0.235749
Si Si4 0.090951 0.000000 0.473721
Si Si5 0.671471 0.191917 0.465289
Si Si6 0.973062 0.308572 0.909289
Si Si7 0.496498 0.807376 0.263526
Si Si8 0.794137 0.197614 0.388246
O O1 0.557159 0.500000 0.565471
O O2 0.449241 0.500000 0.581954
O O3 0.489218 0.671496 0.677574
O O4 0.397609 0.500000 0.054162
O O5 0.379504 0.765257 0.148755
O O6 0.479792 0.682788 0.077873
O O7 0.418515 0.788618 0.984503
O O8 0.395706 0.500000 0.232886
O O9 0.433126 0.205703 0.260579
O O10 0.325867 0.251876 0.298809
O O11 0.126782 0.828260 0.455004
O O12 0.729339 0.237047 0.401236
O O13 0.680764 0.194761 0.552230
O O14 0.651675 0.000000 0.451269
O O15 0.996154 0.500000 0.908584
O O16 0.962252 0.270983 0.824243
O O17 0.505982 0.000000 0.291337
O O18 0.803419 0.000000 0.405979
#
# Coordination Sequence:
#
# PCOD8095244 Si02
#       8
#     4   8   8   4   8   8   8   8
#     4  11  24  38  54  67  94 128 158 209 246 272
#     4   9  15  21  36  60  88 129 161 182 224 279
#     4   9  16  27  43  67 102 134 161 193 233 280
#     4  11  24  40  52  72  96 124 160 200 248 286
#     4  10  20  34  53  73  96 126 159 195 237 286
#     4   9  16  25  38  56  88 125 159 194 226 270
#     4  10  20  32  48  71  93 128 170 200 233 278
#     4   9  17  30  49  73 100 130 157 190 233 284
#
# _framework density 16.813987999999998
#
# number of rings (size 3 to 8) (size 9 to 14) (size 15 to 20)
#    0.000    2.429    1.429    2.571    3.000    3.429 
#    0.000    1.429    0.000    0.000    0.000    0.000 
#    0.000    1.143    0.571    0.000    0.000    0.000 
#
# Total GULP energy -346937.715216 kJ/mol
# GULP energy per Si atom -12390.632686 kJ/mol
# Density = 1.677572 g / cm^3
# Si number density = 16.813988 Si / 1000 Ang^3
#
#
#
# Elastic Constant Matrix: (Units=GPa)
#
#
# Indices 1 2 3 4 5 6 
#
# 1 49.6606 29.5179 38.8991 0.0000 -11.1543 0.0000
# 2 29.5179 88.1715 43.2534 0.0000 0.0289 0.0000
# 3 38.8991 43.2534 140.6232 0.0000 -27.5931 0.0000
# 4 0.0000 0.0000 0.0000 18.2086 0.0000 -5.2184
# 5 -11.1543 0.0289 -27.5931 0.0000 22.9548 0.0000
# 6 0.0000 0.0000 0.0000 -5.2184 0.0000 10.4741
#
#
#
# Elastic Compliance Matrix: (Units=1/GPa)
#
#
# Indices 1 2 3 4 5 6 
#
# 1 0.030351 -0.008266 -0.003870 0.000000 0.010106 0.000000
# 2 -0.008266 0.016389 -0.004641 0.000000 -0.009616 0.000000
# 3 -0.003870 -0.004641 0.012094 0.000000 0.012663 0.000000
# 4 0.000000 0.000000 0.000000 0.064067 0.000000 0.031919
# 5 0.010106 -0.009616 0.012663 0.000000 0.063709 0.000000
# 6 0.000000 0.000000 0.000000 0.031919 0.000000 0.111376
#
#
# Mechanical properties :
#
#
# Convention : Reuss Voigt Hill
#
# Bulk Modulus (GPa) = 39.55764 55.75512 47.65638
# Shear Modulus (GPa) = 14.70733 21.44651 18.07692
#
# Velocity S-wave (km/s) = 2.96075 3.57531 3.28245
# Velocity P-wave (km/s) = 5.93850 7.09054 6.53994
#
# Compressibility (1/GPa) = 0.02527957
#
# Stress axis : x y z
#
# Youngs Moduli (GPa) = 32.94741 61.01758 82.68451
#
# Poissons Ratio (x) = 0.50435 0.32001
# Poissons Ratio (y) = 0.27233 0.38377
# Poissons Ratio (z) = 0.12752 0.28320
#
# Static dielectric constant tensor:
#      x y z
#    x 2.658820 0.000000 -0.384810 
#    y 0.000000 3.206670 0.000000 
#    z -0.384810 0.000000 3.582390 
# 
# 
# High freq. dielectric constant tensor:
#      x y z
#    x 1.570560 0.000000 -0.031800 
#    y 0.000000 1.659900 0.000000 
#    z -0.031800 0.000000 1.661830 
# 
# From -- ./inp_files/287039.got.cif
#   From: 2010.06.25/outbox.cif.g09.slc.cpg/sg12_144_cif.got.tgz:287039.got - 2010.06.28 00:19:55.
