data_PCOD8095605
_publ_section_title
;
Structure prediction by ZEFSAII (Michael W. Deem and Ramdas Pophale) SiO2 
 PCOD8095605
Probable space group: C 2/M
;
_chemical_formula_sum "Si O2"
_cell_formula_units_Z 56
_cell_length_a 30.356998
_cell_length_b 13.205113
_cell_length_c 14.135864
_cell_angle_alpha 90.000000
_cell_angle_beta 32.434176
_cell_angle_gamma 90.000000
_cell_volume 3039.174646
_symmetry_space_group_name_H-M "C 2/M"
_symmetry_group_IT_number 12
_symmetry_cell_setting 'monoclinic'
loop_
_space_group_symop_operation_xyz
x,y,z
-x,y,-z
-x,-y,-z
x,-y,z
1/2+x,1/2+y,z
1/2-x,1/2+y,-z
1/2-x,1/2-y,-z
1/2+x,1/2-y,z
loop_
_atom_site_type_symbol
_atom_site_label
_atom_site_fract_x
_atom_site_fract_y
_atom_site_fract_z
Si Si1 0.096982 0.888578 0.829416
Si Si2 0.395960 0.299669 0.374691
Si Si3 0.699673 0.381831 0.284520
Si Si4 0.452430 0.884126 0.378858
Si Si5 0.090291 0.262112 0.364476
Si Si6 0.924745 0.117731 0.923592
Si Si7 0.127930 0.696117 0.091566
O O1 0.128898 0.811091 0.690944
O O2 0.135049 0.000000 0.740901
O O3 0.117790 0.852844 0.898407
O O4 0.000000 0.896993 0.000000
O O5 0.322494 0.344654 0.570191
O O6 0.409982 0.181378 0.372666
O O7 0.477812 0.362766 0.251494
O O8 0.686518 0.500000 0.298369
O O9 0.640751 0.331212 0.314018
O O10 0.793540 0.353792 0.097241
O O11 0.417188 0.851100 0.544646
O O12 0.550218 0.868899 0.197868
O O13 0.429468 0.000000 0.401919
O O14 0.136534 0.307238 0.189481
O O15 0.000000 0.221687 0.500000
O O16 0.881572 0.186562 0.922709
O O17 0.909454 0.000000 0.927177
#
# Coordination Sequence:
#
# PCOD8095605 Si02
#       7
#     8   8   8   8   8   8   8
#     4   8  13  25  49  76  96 121 159 199 240 281
#     4   9  17  30  50  75  99 121 159 206 241 283
#     4  11  21  32  48  71 100 129 153 191 250 299
#     4   9  18  33  52  70  92 129 170 202 234 279
#     4   9  20  35  51  71  92 122 166 206 235 278
#     4   9  17  31  53  75  96 127 164 202 239 277
#     4  10  20  33  47  71 102 127 161 197 237 291
#
# _framework density 18.426055999999999
#
# number of rings (size 3 to 8) (size 9 to 14) (size 15 to 20)
#    0.000    2.714    0.000    3.857    0.000    4.000 
#    0.000    3.571    0.000   11.571    0.000    0.000 
#    0.000    0.000    0.000    0.000    0.000    0.000 
#
# Total GULP energy -347130.549165 kJ/mol
# GULP energy per Si atom -12397.519613 kJ/mol
# Density = 1.838412 g / cm^3
# Si number density = 18.426056 Si / 1000 Ang^3
#
#
#
# Elastic Constant Matrix: (Units=GPa)
#
#
# Indices 1 2 3 4 5 6 
#
# 1 48.1743 33.2140 32.9167 0.0000 23.8372 0.0000
# 2 33.2140 136.7856 45.2030 0.0000 10.6494 0.0000
# 3 32.9167 45.2030 106.7524 0.0000 22.4014 0.0000
# 4 0.0000 0.0000 0.0000 16.8610 0.0000 3.4998
# 5 23.8372 10.6494 22.4014 0.0000 26.2236 0.0000
# 6 0.0000 0.0000 0.0000 3.4998 0.0000 17.6487
#
#
#
# Elastic Compliance Matrix: (Units=1/GPa)
#
#
# Indices 1 2 3 4 5 6 
#
# 1 0.045786 -0.007150 -0.003614 0.000000 -0.035629 0.000000
# 2 -0.007150 0.009621 -0.002940 0.000000 0.005104 0.000000
# 3 -0.003614 -0.002940 0.013143 0.000000 -0.006748 0.000000
# 4 0.000000 0.000000 0.000000 0.061854 0.000000 -0.012266
# 5 -0.035629 0.005104 -0.006748 0.000000 0.074212 0.000000
# 6 0.000000 0.000000 0.000000 -0.012266 0.000000 0.059094
#
#
# Mechanical properties :
#
#
# Convention : Reuss Voigt Hill
#
# Bulk Modulus (GPa) = 24.30585 57.15332 40.72958
# Shear Modulus (GPa) = 16.40242 24.17189 20.28715
#
# Velocity S-wave (km/s) = 2.98682 3.62585 3.32174
# Velocity P-wave (km/s) = 5.01143 6.97238 6.07159
#
# Compressibility (1/GPa) = 0.04114236
#
# Stress axis : x y z
#
# Youngs Moduli (GPa) = 21.84059 103.93823 76.08632
#
# Poissons Ratio (x) = 0.74311 0.27499
# Poissons Ratio (y) = 0.15615 0.22372
# Poissons Ratio (z) = 0.07893 0.30562
#
# Static dielectric constant tensor:
#      x y z
#    x 3.433240 0.000000 0.371580 
#    y 0.000000 3.245260 0.000000 
#    z 0.371580 0.000000 3.443370 
# 
# 
# High freq. dielectric constant tensor:
#      x y z
#    x 1.696350 0.000000 0.024240 
#    y 0.000000 1.702650 0.000000 
#    z 0.024240 0.000000 1.710430 
# 
# From -- ./inp_files/251021.got.cif
#   From: 2010.06.25/outbox.cif.g09.slc.cpg/sg12_126_cif.got.tgz:251021.got - 2010.06.28 00:19:55.
