data_PCOD8095360
_publ_section_title
;
Structure prediction by ZEFSAII (Michael W. Deem and Ramdas Pophale) SiO2 
 PCOD8095360
Probable space group: C 2/M
;
_chemical_formula_sum "Si O2"
_cell_formula_units_Z 56
_cell_length_a 24.269096
_cell_length_b 9.304578
_cell_length_c 14.162926
_cell_angle_alpha 90.000000
_cell_angle_beta 102.686610
_cell_angle_gamma 90.000000
_cell_volume 3120.101910
_symmetry_space_group_name_H-M "C 2/M"
_symmetry_group_IT_number 12
_symmetry_cell_setting 'monoclinic'
loop_
_space_group_symop_operation_xyz
x,y,z
-x,y,-z
-x,-y,-z
x,-y,z
1/2+x,1/2+y,z
1/2-x,1/2+y,-z
1/2-x,1/2-y,-z
1/2+x,1/2-y,z
loop_
_atom_site_type_symbol
_atom_site_label
_atom_site_fract_x
_atom_site_fract_y
_atom_site_fract_z
Si Si1 0.080534 0.668604 0.716248
Si Si2 0.181644 0.667716 0.887348
Si Si3 0.800250 0.335999 0.564390
Si Si4 0.028239 0.832166 0.318643
Si Si5 0.585298 0.837051 0.501075
Si Si6 0.858252 0.834367 0.743816
Si Si7 0.809926 0.166335 0.924564
O O1 0.069362 0.500000 0.724736
O O2 0.137918 0.716489 0.790135
O O3 0.086109 0.713088 0.609313
O O4 0.028118 0.755674 0.741375
O O5 0.176468 0.500000 0.905135
O O6 0.244881 0.709692 0.877932
O O7 0.165600 0.745830 0.978494
O O8 0.782193 0.500000 0.575676
O O9 0.750000 0.250000 0.500000
O O10 0.851324 0.324717 0.510988
O O11 0.815997 0.265470 0.669772
O O12 0.044166 0.765127 0.426162
O O13 0.077108 0.802292 0.260165
O O14 0.017282 0.000000 0.328683
O O15 0.562617 0.000000 0.481833
O O16 0.849217 0.797267 0.849970
O O17 0.842583 0.000000 0.716628
O O18 0.813518 0.000000 0.952791
#
# Coordination Sequence:
#
# PCOD8095360 Si02
#       7
#     8   8   8   8   8   8   8
#     4  10  20  34  53  75 101 137 176 210 250 304
#     4   9  19  34  54  79 103 128 167 216 258 303
#     4  10  20  32  49  75 106 137 171 212 252 300
#     4  10  20  34  51  76 106 135 170 214 256 298
#     4   9  19  34  52  72 100 140 178 206 246 305
#     4   9  19  35  55  74 100 138 173 206 256 311
#     4   9  18  35  58  77 100 133 167 209 262 312
#
# _framework density 17.948131
#
# number of rings (size 3 to 8) (size 9 to 14) (size 15 to 20)
#    0.000    2.571    0.000    1.286    2.000    4.571 
#    0.000    0.714    0.000    4.286    0.000    0.000 
#    0.000    0.000    0.000    0.000    0.000    0.000 
#
# Total GULP energy -347254.532107 kJ/mol
# GULP energy per Si atom -12401.947575 kJ/mol
# Density = 1.790728 g / cm^3
# Si number density = 17.948131 Si / 1000 Ang^3
#
#
#
# Elastic Constant Matrix: (Units=GPa)
#
#
# Indices 1 2 3 4 5 6 
#
# 1 75.9988 38.6003 63.6893 0.0000 2.0145 0.0000
# 2 38.6003 68.1550 45.8860 0.0000 2.0675 0.0000
# 3 63.6893 45.8860 107.8725 0.0000 -5.6748 0.0000
# 4 0.0000 0.0000 0.0000 32.1070 0.0000 3.0106
# 5 2.0145 2.0675 -5.6748 0.0000 28.8604 0.0000
# 6 0.0000 0.0000 0.0000 3.0106 0.0000 30.6287
#
#
#
# Elastic Compliance Matrix: (Units=1/GPa)
#
#
# Indices 1 2 3 4 5 6 
#
# 1 0.028560 -0.006356 -0.014388 0.000000 -0.004367 0.000000
# 2 -0.006356 0.022277 -0.005845 0.000000 -0.002301 0.000000
# 3 -0.014388 -0.005845 0.020539 0.000000 0.005462 0.000000
# 4 0.000000 0.000000 0.000000 0.031436 0.000000 -0.003090
# 5 -0.004367 -0.002301 0.005462 0.000000 0.036193 0.000000
# 6 0.000000 0.000000 0.000000 -0.003090 0.000000 0.032953
#
#
# Mechanical properties :
#
#
# Convention : Reuss Voigt Hill
#
# Bulk Modulus (GPa) = 54.95035 60.93083 57.94059
# Shear Modulus (GPa) = 21.62636 25.24262 23.43449
#
# Velocity S-wave (km/s) = 3.47499 3.75430 3.61734
# Velocity P-wave (km/s) = 6.83984 7.26739 7.05685
#
# Compressibility (1/GPa) = 0.01819825
#
# Stress axis : x y z
#
# Youngs Moduli (GPa) = 35.01440 44.89000 48.68873
#
# Poissons Ratio (x) = 0.28530 0.70055
# Poissons Ratio (y) = 0.22254 0.28456
# Poissons Ratio (z) = 0.50380 0.26236
#
# Static dielectric constant tensor:
#      x y z
#    x 3.477240 0.000000 -0.050760 
#    y 0.000000 3.423610 0.000000 
#    z -0.050760 0.000000 3.288410 
# 
# 
# High freq. dielectric constant tensor:
#      x y z
#    x 1.698970 0.000000 -0.001310 
#    y 0.000000 1.695840 0.000000 
#    z -0.001310 0.000000 1.682330 
# 
# From -- ./inp_files/181019.got.cif
#   From: 2010.06.25/outbox.cif.g09.slc.cpg/sg12_91_cif.got.tgz:181019.got - 2010.06.28 00:19:55.
