data_PCOD8095647
_publ_section_title
;
Structure prediction by ZEFSAII (Michael W. Deem and Ramdas Pophale) SiO2 
 PCOD8095647
Probable space group: C 2/M
;
_chemical_formula_sum "Si O2"
_cell_formula_units_Z 56
_cell_length_a 30.342004
_cell_length_b 8.869637
_cell_length_c 12.182883
_cell_angle_alpha 90.000000
_cell_angle_beta 120.209919
_cell_angle_gamma 90.000000
_cell_volume 2833.402449
_symmetry_space_group_name_H-M "C 2/M"
_symmetry_group_IT_number 12
_symmetry_cell_setting 'monoclinic'
loop_
_space_group_symop_operation_xyz
x,y,z
-x,y,-z
-x,-y,-z
x,-y,z
1/2+x,1/2+y,z
1/2-x,1/2+y,-z
1/2-x,1/2-y,-z
1/2+x,1/2-y,z
loop_
_atom_site_type_symbol
_atom_site_label
_atom_site_fract_x
_atom_site_fract_y
_atom_site_fract_z
Si Si1 0.847861 0.822932 0.363906
Si Si2 0.244845 0.322419 0.114093
Si Si3 0.941671 0.820108 0.914268
Si Si4 0.356263 0.323369 0.975756
Si Si5 0.507938 0.168782 0.387470
Si Si6 0.408402 0.675252 0.640749
Si Si7 0.605460 0.168770 0.772040
O O1 0.791827 0.778149 0.252429
O O2 0.858481 0.776605 0.505727
O O3 0.889128 0.729069 0.345332
O O4 0.858469 0.000000 0.361941
O O5 0.240714 0.500000 0.092711
O O6 0.196194 0.260705 0.121212
O O7 0.250000 0.250000 0.000000
O O8 0.904528 0.764242 0.965517
O O9 0.914964 0.752191 0.770085
O O10 0.944020 0.000000 0.916206
O O11 0.000000 0.757707 0.000000
O O12 0.348162 0.500000 0.950022
O O13 0.364315 0.284465 0.113322
O O14 0.500000 0.227836 0.500000
O O15 0.541420 0.287260 0.364766
O O16 0.452728 0.165684 0.261732
O O17 0.532223 0.000000 0.417182
O O18 0.406657 0.500000 0.659595
O O19 0.628774 0.000000 0.810453
#
# Coordination Sequence:
#
# PCOD8095647 Si02
#       7
#     8   8   8   8   8   8   8
#     4  10  21  35  54  81 112 144 185 235 284 338
#     4  11  22  37  57  84 117 152 191 239 292 344
#     4   9  19  37  60  85 114 149 191 239 285 337
#     4  11  22  37  59  85 114 148 192 241 289 340
#     4  10  20  33  48  76 115 149 179 223 286 346
#     4  10  20  36  58  82 109 148 195 240 283 333
#     4  11  21  33  53  79 113 150 185 229 282 344
#
# _framework density 19.764225
#
# number of rings (size 3 to 8) (size 9 to 14) (size 15 to 20)
#    0.000    1.714    2.857    2.143    0.000    3.143 
#    0.000    2.143    0.000    3.857    0.000    0.000 
#    0.000    0.000    0.000    0.000    0.000    0.000 
#
# Total GULP energy -347015.400249 kJ/mol
# GULP energy per Si atom -12393.407152 kJ/mol
# Density = 1.971924 g / cm^3
# Si number density = 19.764225 Si / 1000 Ang^3
#
#
#
# Elastic Constant Matrix: (Units=GPa)
#
#
# Indices 1 2 3 4 5 6 
#
# 1 97.4783 22.6785 44.8813 0.0000 10.6587 0.0000
# 2 22.6785 35.9070 31.8266 0.0000 6.5276 0.0000
# 3 44.8813 31.8266 141.3237 0.0000 4.6772 0.0000
# 4 0.0000 0.0000 0.0000 16.7748 0.0000 6.0358
# 5 10.6587 6.5276 4.6772 0.0000 31.5973 0.0000
# 6 0.0000 0.0000 0.0000 6.0358 0.0000 25.9575
#
#
#
# Elastic Compliance Matrix: (Units=1/GPa)
#
#
# Indices 1 2 3 4 5 6 
#
# 1 0.013121 -0.005182 -0.002903 0.000000 -0.002926 0.000000
# 2 -0.005182 0.038035 -0.006751 0.000000 -0.005110 0.000000
# 3 -0.002903 -0.006751 0.009486 0.000000 0.000970 0.000000
# 4 0.000000 0.000000 0.000000 0.065056 0.000000 -0.015127
# 5 -0.002926 -0.005110 0.000970 0.000000 0.033547 0.000000
# 6 0.000000 0.000000 0.000000 -0.015127 0.000000 0.042042
#
#
# Mechanical properties :
#
#
# Convention : Reuss Voigt Hill
#
# Bulk Modulus (GPa) = 32.28872 52.60909 42.44891
# Shear Modulus (GPa) = 20.72251 26.55409 23.63830
#
# Velocity S-wave (km/s) = 3.24155 3.66941 3.46210
# Velocity P-wave (km/s) = 5.51204 6.68049 6.12419
#
# Compressibility (1/GPa) = 0.03097057
#
# Stress axis : x y z
#
# Youngs Moduli (GPa) = 76.21471 26.29129 105.41688
#
# Poissons Ratio (x) = 0.13624 0.30603
# Poissons Ratio (y) = 0.39494 0.71166
# Poissons Ratio (z) = 0.22126 0.17749
#
# Static dielectric constant tensor:
#      x y z
#    x 3.613760 0.000000 0.150190 
#    y 0.000000 3.387120 0.000000 
#    z 0.150190 0.000000 3.968320 
# 
# 
# High freq. dielectric constant tensor:
#      x y z
#    x 1.752890 0.000000 0.015340 
#    y 0.000000 1.751730 0.000000 
#    z 0.015340 0.000000 1.781160 
# 
# From -- ./inp_files/187721.got.cif
#   From: 2010.06.25/outbox.cif.g09.slc.cpg/sg12_94_cif.got.tgz:187721.got - 2010.06.28 00:19:55.
