data_PCOD8095430
_publ_section_title
;
Structure prediction by ZEFSAII (Michael W. Deem and Ramdas Pophale) SiO2 
 PCOD8095430
Probable space group: C 2/M
;
_chemical_formula_sum "Si O2"
_cell_formula_units_Z 56
_cell_length_a 27.262674
_cell_length_b 9.021693
_cell_length_c 13.632335
_cell_angle_alpha 90.000000
_cell_angle_beta 119.880368
_cell_angle_gamma 90.000000
_cell_volume 2907.231753
_symmetry_space_group_name_H-M "C 2/M"
_symmetry_group_IT_number 12
_symmetry_cell_setting 'monoclinic'
loop_
_space_group_symop_operation_xyz
x,y,z
-x,y,-z
-x,-y,-z
x,-y,z
1/2+x,1/2+y,z
1/2-x,1/2+y,-z
1/2-x,1/2-y,-z
1/2+x,1/2-y,z
loop_
_atom_site_type_symbol
_atom_site_label
_atom_site_fract_x
_atom_site_fract_y
_atom_site_fract_z
Si Si1 0.746693 0.824342 0.602468
Si Si2 0.533888 0.164920 0.172049
Si Si3 0.966165 0.666560 0.596136
Si Si4 0.077088 0.829570 0.714121
Si Si5 0.422944 0.671339 0.065468
Si Si6 0.637798 0.328325 0.184863
Si Si7 0.359216 0.329141 0.409589
O O1 0.750000 0.750000 0.500000
O O2 0.800578 0.773630 0.720297
O O3 0.692462 0.770859 0.608038
O O4 0.743204 0.000000 0.585162
O O5 0.529755 0.163729 0.283862
O O6 0.477350 0.243996 0.075382
O O7 0.591079 0.246141 0.201269
O O8 0.535533 0.000000 0.130046
O O9 0.957007 0.500000 0.545323
O O10 0.915778 0.775840 0.518885
O O11 0.026196 0.731251 0.617577
O O12 0.093844 0.777767 0.841082
O O13 0.131810 0.810218 0.698884
O O14 0.056631 0.000000 0.694219
O O15 0.439579 0.500000 0.081693
O O16 0.370531 0.703475 0.939861
O O17 0.630718 0.500000 0.202080
O O18 0.347866 0.500000 0.426729
#
# Coordination Sequence:
#
# PCOD8095430 Si02
#       7
#     8   8   8   8   8   8   8
#     4  11  24  41  59  80 106 137 176 220 264 312
#     4  10  20  32  50  80 113 140 170 213 264 314
#     4  10  20  33  52  80 112 144 177 217 266 316
#     4   9  19  35  55  79 108 141 176 216 262 315
#     4   9  18  35  56  77 105 140 176 213 257 312
#     4  10  21  36  55  77 102 138 180 218 259 311
#     4  11  22  36  55  79 107 141 180 219 263 314
#
# _framework density 19.262309999999999
#
# number of rings (size 3 to 8) (size 9 to 14) (size 15 to 20)
#    0.000    2.000    0.000    3.429    0.000   10.286 
#    0.000    0.714    0.000    0.000    0.000    0.000 
#    0.000    0.000    0.000    0.000    0.000    0.000 
#
# Total GULP energy -347207.801471 kJ/mol
# GULP energy per Si atom -12400.278624 kJ/mol
# Density = 1.921847 g / cm^3
# Si number density = 19.262310 Si / 1000 Ang^3
#
#
#
# Elastic Constant Matrix: (Units=GPa)
#
#
# Indices 1 2 3 4 5 6 
#
# 1 122.1924 40.5605 56.1585 0.0000 7.9516 0.0000
# 2 40.5605 69.5645 44.5231 0.0000 2.5988 0.0000
# 3 56.1585 44.5231 106.5770 0.0000 17.5373 0.0000
# 4 0.0000 0.0000 0.0000 22.0745 0.0000 1.8476
# 5 7.9516 2.5988 17.5373 0.0000 17.8837 0.0000
# 6 0.0000 0.0000 0.0000 1.8476 0.0000 31.0628
#
#
#
# Elastic Compliance Matrix: (Units=1/GPa)
#
#
# Indices 1 2 3 4 5 6 
#
# 1 0.011513 -0.003885 -0.004405 0.000000 -0.000235 0.000000
# 2 -0.003885 0.021523 -0.008006 0.000000 0.006450 0.000000
# 3 -0.004405 -0.008006 0.017331 0.000000 -0.013874 0.000000
# 4 0.000000 0.000000 0.000000 0.045528 0.000000 -0.002708
# 5 -0.000235 0.006450 -0.013874 0.000000 0.068689 0.000000
# 6 0.000000 0.000000 0.000000 -0.002708 0.000000 0.032354
#
#
# Mechanical properties :
#
#
# Convention : Reuss Voigt Hill
#
# Bulk Modulus (GPa) = 56.25430 64.53534 60.39482
# Shear Modulus (GPa) = 21.23546 24.67699 22.95622
#
# Velocity S-wave (km/s) = 3.32390 3.58313 3.45595
# Velocity P-wave (km/s) = 6.63316 7.12001 6.88089
#
# Compressibility (1/GPa) = 0.01777642
#
# Stress axis : x y z
#
# Youngs Moduli (GPa) = 86.85736 46.46153 57.69843
#
# Poissons Ratio (x) = 0.18049 0.25417
# Poissons Ratio (y) = 0.33742 0.46193
# Poissons Ratio (z) = 0.38262 0.37197
#
# Static dielectric constant tensor:
#      x y z
#    x 3.494350 0.000000 -0.158630 
#    y 0.000000 3.727360 0.000000 
#    z -0.158630 0.000000 3.726890 
# 
# 
# High freq. dielectric constant tensor:
#      x y z
#    x 1.740280 0.000000 -0.017120 
#    y 0.000000 1.755910 0.000000 
#    z -0.017120 0.000000 1.753960 
# 
# From -- ./inp_files/238970.got.cif
#   From: 2010.06.25/outbox.cif.g09.slc.cpg/sg12_120_cif.got.tgz:238970.got - 2010.06.28 00:19:55.
