data_PCOD8095304
_publ_section_title
;
Structure prediction by ZEFSAII (Michael W. Deem and Ramdas Pophale) SiO2 
 PCOD8095304
Probable space group: C 2/M
;
_chemical_formula_sum "Si O2"
_cell_formula_units_Z 64
_cell_length_a 21.871549
_cell_length_b 9.108687
_cell_length_c 20.360147
_cell_angle_alpha 90.000000
_cell_angle_beta 126.680323
_cell_angle_gamma 90.000000
_cell_volume 3252.971227
_symmetry_space_group_name_H-M "C 2/M"
_symmetry_group_IT_number 12
_symmetry_cell_setting 'monoclinic'
loop_
_space_group_symop_operation_xyz
x,y,z
-x,y,-z
-x,-y,-z
x,-y,z
1/2+x,1/2+y,z
1/2-x,1/2+y,-z
1/2-x,1/2-y,-z
1/2+x,1/2-y,z
loop_
_atom_site_type_symbol
_atom_site_label
_atom_site_fract_x
_atom_site_fract_y
_atom_site_fract_z
Si Si1 0.210871 0.167015 0.393022
Si Si2 0.312930 0.333222 0.893069
Si Si3 0.559117 0.172989 0.092899
Si Si4 0.638573 0.826849 0.807607
Si Si5 0.829180 0.168949 0.048644
Si Si6 0.430837 0.665492 0.771722
Si Si7 0.499621 0.329421 0.325974
Si Si8 0.635124 0.832396 0.459773
O O1 0.161602 0.184624 0.294416
O O2 0.302651 0.187671 0.440804
O O3 0.181933 0.289418 0.424893
O O4 0.195709 0.000000 0.410567
O O5 0.317375 0.500000 0.870520
O O6 0.356171 0.230351 0.869506
O O7 0.224475 0.285037 0.841636
O O8 0.357252 0.319003 0.991519
O O9 0.535787 0.231724 0.149782
O O10 0.560238 0.000000 0.096339
O O11 0.500000 0.230265 0.000000
O O12 0.616974 0.750801 0.864107
O O13 0.579771 0.759146 0.717103
O O14 0.628012 0.000000 0.807789
O O15 0.819814 0.000000 0.063912
O O16 0.750000 0.250000 0.000000
O O17 0.453162 0.500000 0.805749
O O18 0.466662 0.705077 0.724303
O O19 0.485110 0.500000 0.329583
O O20 0.559930 0.268903 0.418888
O O21 0.607364 0.000000 0.436673
#
# Coordination Sequence:
#
# PCOD8095304 Si02
#       8
#     8   8   8   8   8   8   8   8
#     4   8  15  28  46  69  98 131 168 203 243 298
#     4   9  20  37  54  71  92 126 168 204 247 303
#     4  11  25  39  51  72  98 128 169 217 257 289
#     4  10  20  33  51  75 100 128 163 205 252 301
#     4   9  17  30  48  71  94 120 158 199 245 295
#     4   9  19  35  52  71  98 135 172 206 245 298
#     4  10  20  32  48  75 108 138 168 201 245 302
#     4   9  15  25  44  71 102 134 163 199 245 294
#
# _framework density 19.674320000000002
#
# number of rings (size 3 to 8) (size 9 to 14) (size 15 to 20)
#    0.000    2.625    0.000    3.375    1.750    7.000 
#    0.000    0.000    0.000    0.000    0.000    0.875 
#    0.000    7.000    0.000    0.000    0.000    0.000 
#
# Total GULP energy -396516.428364 kJ/mol
# GULP energy per Si atom -12391.138386 kJ/mol
# Density = 1.962954 g / cm^3
# Si number density = 19.674320 Si / 1000 Ang^3
#
#
#
# Elastic Constant Matrix: (Units=GPa)
#
#
# Indices 1 2 3 4 5 6 
#
# 1 33.2840 16.9181 7.6044 0.0000 10.1017 0.0000
# 2 16.9181 89.1257 25.5778 0.0000 10.1408 0.0000
# 3 7.6044 25.5778 77.8235 0.0000 25.2816 0.0000
# 4 0.0000 0.0000 0.0000 31.4157 0.0000 5.8411
# 5 10.1017 10.1408 25.2816 0.0000 26.8415 0.0000
# 6 0.0000 0.0000 0.0000 5.8411 0.0000 20.2975
#
#
#
# Elastic Compliance Matrix: (Units=1/GPa)
#
#
# Indices 1 2 3 4 5 6 
#
# 1 0.036907 -0.006264 0.003164 0.000000 -0.014504 0.000000
# 2 -0.006264 0.013479 -0.004221 0.000000 0.001241 0.000000
# 3 0.003164 -0.004221 0.019879 0.000000 -0.018320 0.000000
# 4 0.000000 0.000000 0.000000 0.033631 0.000000 -0.009678
# 5 -0.014504 0.001241 -0.018320 0.000000 0.059501 0.000000
# 6 0.000000 0.000000 0.000000 -0.009678 0.000000 0.052052
#
#
# Mechanical properties :
#
#
# Convention : Reuss Voigt Hill
#
# Bulk Modulus (GPa) = 17.97786 33.38151 25.67969
# Shear Modulus (GPa) = 20.11003 25.71980 22.91491
#
# Velocity S-wave (km/s) = 3.20057 3.61955 3.41649
# Velocity P-wave (km/s) = 4.77659 5.87129 5.35200
#
# Compressibility (1/GPa) = 0.05562397
#
# Stress axis : x y z
#
# Youngs Moduli (GPa) = 27.09500 74.18761 50.30400
#
# Poissons Ratio (x) = 0.46468 -0.15916
# Poissons Ratio (y) = 0.16971 0.21234
# Poissons Ratio (z) = -0.08573 0.31316
#
# Static dielectric constant tensor:
#      x y z
#    x 3.114720 0.000000 0.342340 
#    y 0.000000 3.597750 0.000000 
#    z 0.342340 0.000000 4.036360 
# 
# 
# High freq. dielectric constant tensor:
#      x y z
#    x 1.713980 0.000000 0.037770 
#    y 0.000000 1.772400 0.000000 
#    z 0.037770 0.000000 1.768360 
# 
# From -- ./inp_files/348574.got.cif
#   From: 2010.06.25/outbox.cif.g09.slc.cpg/sg12_175_cif.got.tgz:348574.got - 2010.06.28 00:19:55.
