data_PCOD8095717
_publ_section_title
;
Structure prediction by ZEFSAII (Michael W. Deem and Ramdas Pophale) SiO2 
 PCOD8095717
Probable space group: C 2/M
;
_chemical_formula_sum "Si O2"
_cell_formula_units_Z 56
_cell_length_a 19.191955
_cell_length_b 9.115895
_cell_length_c 20.137870
_cell_angle_alpha 90.000000
_cell_angle_beta 57.194915
_cell_angle_gamma 90.000000
_cell_volume 2961.279177
_symmetry_space_group_name_H-M "C 2/M"
_symmetry_group_IT_number 12
_symmetry_cell_setting 'monoclinic'
loop_
_space_group_symop_operation_xyz
x,y,z
-x,y,-z
-x,-y,-z
x,-y,z
1/2+x,1/2+y,z
1/2-x,1/2+y,-z
1/2-x,1/2-y,-z
1/2+x,1/2-y,z
loop_
_atom_site_type_symbol
_atom_site_label
_atom_site_fract_x
_atom_site_fract_y
_atom_site_fract_z
Si Si1 0.184601 0.826480 0.580773
Si Si2 0.018998 0.331785 0.673236
Si Si3 0.164270 0.674301 0.243047
Si Si4 0.299802 0.327309 0.275266
Si Si5 0.924137 0.332080 0.991278
Si Si6 0.038270 0.664873 0.817223
Si Si7 0.761963 0.173372 0.064494
O O1 0.250000 0.750000 0.500000
O O2 0.093195 0.768986 0.607553
O O3 0.208307 0.779440 0.643585
O O4 0.187172 0.000000 0.569491
O O5 0.035729 0.500000 0.642935
O O6 0.013169 0.316273 0.754719
O O7 0.929910 0.273445 0.692883
O O8 0.166223 0.500000 0.242289
O O9 0.222909 0.735634 0.271952
O O10 0.195197 0.726438 0.154197
O O11 0.303944 0.500000 0.266790
O O12 0.385072 0.266288 0.201183
O O13 0.892828 0.500000 0.013221
O O14 0.955629 0.296314 0.900675
O O15 0.850912 0.221229 0.047402
O O16 0.000000 0.300145 0.000000
O O17 0.066792 0.500000 0.819344
O O18 0.758082 0.000000 0.055947
O O19 0.750000 0.250000 0.000000
#
# Coordination Sequence:
#
# PCOD8095717 Si02
#       7
#     8   8   8   8   8   8   8
#     4  10  20  35  56  81 106 130 160 199 244 299
#     4   9  17  32  54  74  96 130 167 202 245 297
#     4   9  18  34  54  75 101 134 172 214 258 302
#     4   9  18  33  54  78 101 129 170 214 251 296
#     4  10  20  33  49  72 103 137 176 223 271 316
#     4   9  17  30  48  70  98 133 170 208 255 307
#     4  11  22  35  52  74 104 142 182 223 267 314
#
# _framework density 18.910747000000001
#
# number of rings (size 3 to 8) (size 9 to 14) (size 15 to 20)
#    0.000    2.429    0.000    2.571    0.000    3.714 
#    0.000    6.429    0.000    4.286    0.000    0.000 
#    0.000    0.000    0.000    0.000    0.000    0.000 
#
# Total GULP energy -347126.509190 kJ/mol
# GULP energy per Si atom -12397.375328 kJ/mol
# Density = 1.886771 g / cm^3
# Si number density = 18.910747 Si / 1000 Ang^3
#
#
#
# Elastic Constant Matrix: (Units=GPa)
#
#
# Indices 1 2 3 4 5 6 
#
# 1 111.7313 30.6269 33.2264 0.0001 -16.5420 -0.0002
# 2 30.6269 48.8076 28.2599 0.0001 -4.9336 -0.0006
# 3 33.2264 28.2599 72.2877 0.0000 -15.6001 0.0000
# 4 0.0001 0.0001 0.0000 27.1384 0.0000 -5.9435
# 5 -16.5420 -4.9336 -15.6001 0.0000 25.3162 0.0000
# 6 -0.0002 -0.0006 0.0000 -5.9435 0.0000 29.6099
#
#
#
# Elastic Compliance Matrix: (Units=1/GPa)
#
#
# Indices 1 2 3 4 5 6 
#
# 1 0.011943 -0.005745 -0.002077 0.000000 0.005404 0.000000
# 2 -0.005745 0.029290 -0.009675 0.000000 -0.004008 0.000001
# 3 -0.002077 -0.009675 0.020612 0.000000 0.009459 0.000000
# 4 0.000000 0.000000 0.000000 0.038543 0.000000 0.007737
# 5 0.005404 -0.004008 0.009459 0.000000 0.048079 0.000000
# 6 0.000000 0.000001 0.000000 0.007737 0.000000 0.035325
#
#
# Mechanical properties :
#
#
# Convention : Reuss Voigt Hill
#
# Bulk Modulus (GPa) = 37.24310 46.33920 41.79115
# Shear Modulus (GPa) = 21.95526 25.79380 23.87453
#
# Velocity S-wave (km/s) = 3.41103 3.69721 3.55700
# Velocity P-wave (km/s) = 5.93721 6.54089 6.24634
#
# Compressibility (1/GPa) = 0.02685061
#
# Stress axis : x y z
#
# Youngs Moduli (GPa) = 83.73395 34.14096 48.51588
#
# Poissons Ratio (x) = 0.19614 0.10078
# Poissons Ratio (y) = 0.48106 0.46938
# Poissons Ratio (z) = 0.17393 0.33031
#
# Static dielectric constant tensor:
#      x y z
#    x 3.861220 0.000000 -0.069060 
#    y 0.000000 3.348690 0.000000 
#    z -0.069060 0.000000 3.597450 
# 
# 
# High freq. dielectric constant tensor:
#      x y z
#    x 1.741630 0.000000 -0.006440 
#    y 0.000000 1.714220 0.000000 
#    z -0.006440 0.000000 1.727860 
# 
# From -- ./inp_files/341915.got.cif
#   From: 2010.06.25/outbox.cif.g09.slc.cpg/sg12_171_cif.got.tgz:341915.got - 2010.06.28 00:19:55.
