data_PCOD8095851
_publ_section_title
;
Structure prediction by ZEFSAII (Michael W. Deem and Ramdas Pophale) SiO2 
 PCOD8095851
Probable space group: C 2/M
;
_chemical_formula_sum "Si O2"
_cell_formula_units_Z 56
_cell_length_a 14.033375
_cell_length_b 9.532641
_cell_length_c 25.944744
_cell_angle_alpha 90.000000
_cell_angle_beta 123.274206
_cell_angle_gamma 90.000000
_cell_volume 2901.745479
_symmetry_space_group_name_H-M "C 2/M"
_symmetry_group_IT_number 12
_symmetry_cell_setting 'monoclinic'
loop_
_space_group_symop_operation_xyz
x,y,z
-x,y,-z
-x,-y,-z
x,-y,z
1/2+x,1/2+y,z
1/2-x,1/2+y,-z
1/2-x,1/2-y,-z
1/2+x,1/2-y,z
loop_
_atom_site_type_symbol
_atom_site_label
_atom_site_fract_x
_atom_site_fract_y
_atom_site_fract_z
Si Si1 0.734237 0.335647 0.309510
Si Si2 0.524219 0.836263 0.229212
Si Si3 0.570300 0.342578 0.442899
Si Si4 0.618435 0.162741 0.011000
Si Si5 0.174717 0.158550 0.577204
Si Si6 0.667087 0.162006 0.908507
Si Si7 0.975489 0.660401 0.331384
O O1 0.709078 0.500000 0.308247
O O2 0.633311 0.259315 0.248333
O O3 0.741342 0.265172 0.368472
O O4 0.847920 0.304900 0.311278
O O5 0.425599 0.791823 0.160766
O O6 0.481660 0.798579 0.273682
O O7 0.555960 0.000000 0.232592
O O8 0.597579 0.500000 0.432653
O O9 0.447708 0.336206 0.432865
O O10 0.662779 0.294737 0.513619
O O11 0.570571 0.243524 0.392832
O O12 0.614677 0.193080 0.949018
O O13 0.639373 0.000000 0.029350
O O14 0.500000 0.215030 0.000000
O O15 0.719684 0.248385 0.067923
O O16 0.224228 0.000000 0.595854
O O17 0.700582 0.000000 0.912147
O O18 0.005474 0.500000 0.350045
#
# Coordination Sequence:
#
# PCOD8095851 Si02
#       7
#     8   8   8   8   8   8   8
#     4  10  20  33  50  74 100 128 168 215 257 298
#     4  10  21  37  53  71 102 141 173 202 244 300
#     4   8  14  26  47  72  95 123 164 210 255 306
#     4   9  18  34  56  82 110 135 163 205 251 289
#     4   8  14  27  47  70  96 127 162 205 259 311
#     4   9  19  35  54  77 105 138 173 204 240 293
#     4   9  19  34  50  70  99 132 166 209 258 302
#
# _framework density 19.298729000000002
#
# number of rings (size 3 to 8) (size 9 to 14) (size 15 to 20)
#    0.000    3.000    0.000    1.286    0.000    3.714 
#    0.000    3.571    0.000    0.000    0.000    0.000 
#    0.000    0.000    0.000    0.000    0.000    0.000 
#
# Total GULP energy -347187.388896 kJ/mol
# GULP energy per Si atom -12399.549603 kJ/mol
# Density = 1.925480 g / cm^3
# Si number density = 19.298729 Si / 1000 Ang^3
#
#
#
# Elastic Constant Matrix: (Units=GPa)
#
#
# Indices 1 2 3 4 5 6 
#
# 1 56.6283 21.7277 26.6554 0.0000 6.7158 0.0000
# 2 21.7277 65.4382 47.1494 0.0000 7.1125 0.0000
# 3 26.6554 47.1494 130.5444 0.0000 8.9818 0.0000
# 4 0.0000 0.0000 0.0000 35.0066 0.0000 3.4688
# 5 6.7158 7.1125 8.9818 0.0000 24.4777 0.0000
# 6 0.0000 0.0000 0.0000 3.4688 0.0000 20.0463
#
#
#
# Elastic Compliance Matrix: (Units=1/GPa)
#
#
# Indices 1 2 3 4 5 6 
#
# 1 0.021048 -0.004982 -0.002258 0.000000 -0.003499 0.000000
# 2 -0.004982 0.022108 -0.006791 0.000000 -0.002565 0.000000
# 3 -0.002258 -0.006791 0.010665 0.000000 -0.001321 0.000000
# 4 0.000000 0.000000 0.000000 0.029064 0.000000 -0.005029
# 5 -0.003499 -0.002565 -0.001321 0.000000 0.043043 0.000000
# 6 0.000000 0.000000 0.000000 -0.005029 0.000000 0.050755
#
#
# Mechanical properties :
#
#
# Convention : Reuss Voigt Hill
#
# Bulk Modulus (GPa) = 38.82043 49.29733 44.05888
# Shear Modulus (GPa) = 23.43782 26.37802 24.90792
#
# Velocity S-wave (km/s) = 3.48871 3.70107 3.59646
# Velocity P-wave (km/s) = 6.03219 6.62297 6.33447
#
# Compressibility (1/GPa) = 0.02575963
#
# Stress axis : x y z
#
# Youngs Moduli (GPa) = 47.51021 45.23350 93.76604
#
# Poissons Ratio (x) = 0.22534 0.21170
# Poissons Ratio (y) = 0.23668 0.63677
# Poissons Ratio (z) = 0.10727 0.30718
#
# Static dielectric constant tensor:
#      x y z
#    x 3.417790 0.000000 -0.023240 
#    y 0.000000 3.517440 0.000000 
#    z -0.023240 0.000000 3.656510 
# 
# 
# High freq. dielectric constant tensor:
#      x y z
#    x 1.745260 0.000000 0.003200 
#    y 0.000000 1.744610 0.000000 
#    z 0.003200 0.000000 1.749850 
# 
# From -- ./inp_files/359649.got.cif
#   From: 2010.06.25/outbox.cif.g09.slc.cpg/sg12_180_cif.got.tgz:359649.got - 2010.06.28 00:19:55.
