data_PCOD8095376
_publ_section_title
;
Structure prediction by ZEFSAII (Michael W. Deem and Ramdas Pophale) SiO2 
 PCOD8095376
Probable space group: C 2/M
;
_chemical_formula_sum "Si O2"
_cell_formula_units_Z 56
_cell_length_a 8.813943
_cell_length_b 32.439030
_cell_length_c 14.584119
_cell_angle_alpha 90.000000
_cell_angle_beta 136.610034
_cell_angle_gamma 90.000000
_cell_volume 2864.507141
_symmetry_space_group_name_H-M "C 2/M"
_symmetry_group_IT_number 12
_symmetry_cell_setting 'monoclinic'
loop_
_space_group_symop_operation_xyz
x,y,z
-x,y,-z
-x,-y,-z
x,-y,z
1/2+x,1/2+y,z
1/2-x,1/2+y,-z
1/2-x,1/2-y,-z
1/2+x,1/2-y,z
loop_
_atom_site_type_symbol
_atom_site_label
_atom_site_fract_x
_atom_site_fract_y
_atom_site_fract_z
Si Si1 0.411950 0.605799 0.282469
Si Si2 0.326098 0.824863 0.171509
Si Si3 0.261870 0.229242 0.860890
Si Si4 0.427828 0.342229 0.115987
Si Si5 0.755420 0.954325 0.347864
Si Si6 0.315617 0.683799 0.351631
Si Si7 0.808214 0.453259 0.486919
O O1 0.363487 0.620650 0.157479
O O2 0.223183 0.576996 0.247968
O O3 0.437593 0.645709 0.357074
O O4 0.632745 0.579666 0.376235
O O5 0.274411 0.776810 0.136257
O O6 0.588654 0.830995 0.302523
O O7 0.181527 0.844485 0.190752
O O8 0.248602 0.846599 0.043412
O O9 0.085945 0.202125 0.840153
O O10 0.244341 0.219895 0.745298
O O11 0.500000 0.214682 0.000000
O O12 0.602439 0.943963 0.369659
O O13 0.000000 0.950172 0.500000
O O14 0.706966 0.000000 0.288642
O O15 0.500000 0.702610 0.500000
O O16 0.708251 0.500000 0.442150
O O17 0.000000 0.449144 0.500000
#
# Coordination Sequence:
#
# PCOD8095376 Si02
#       7
#     8   8   8   8   8   8   8
#     4  10  20  32  49  79 120 151 188 233 294 345
#     4  11  21  38  59  79 109 145 211 258 295 356
#     4  11  19  38  65  83 105 149 205 258 298 363
#     4  10  21  33  57  90 102 147 201 256 302 344
#     4   8  14  28  50  74 106 150 188 218 268 342
#     4  11  24  36  54  84 118 154 189 245 322 366
#     4   9  17  31  56  86 117 158 201 235 280 347
#
# _framework density 19.549609
#
# number of rings (size 3 to 8) (size 9 to 14) (size 15 to 20)
#    0.000    2.000    2.857    3.857    0.000    2.857 
#    0.000    2.143    0.000    0.000    0.000   16.000 
#    0.000    0.000    0.000    0.000    0.000    0.000 
#
# Total GULP energy -346954.761939 kJ/mol
# GULP energy per Si atom -12391.241498 kJ/mol
# Density = 1.950511 g / cm^3
# Si number density = 19.549609 Si / 1000 Ang^3
#
#
#
# Elastic Constant Matrix: (Units=GPa)
#
#
# Indices 1 2 3 4 5 6 
#
# 1 138.9055 37.8841 56.1913 0.0000 -18.1740 0.0000
# 2 37.8841 93.5285 35.9403 0.0000 -21.2327 0.0000
# 3 56.1913 35.9403 108.0608 0.0000 -6.1500 0.0000
# 4 0.0000 0.0000 0.0000 23.7586 0.0000 -6.3093
# 5 -18.1740 -21.2327 -6.1500 0.0000 35.2715 0.0000
# 6 0.0000 0.0000 0.0000 -6.3093 0.0000 29.1490
#
#
#
# Elastic Compliance Matrix: (Units=1/GPa)
#
#
# Indices 1 2 3 4 5 6 
#
# 1 0.009845 -0.001520 -0.004421 0.000000 0.003387 0.000000
# 2 -0.001520 0.014313 -0.003559 0.000000 0.007212 0.000000
# 3 -0.004421 -0.003559 0.012610 0.000000 -0.002222 0.000000
# 4 0.000000 0.000000 0.000000 0.044657 0.000000 0.009666
# 5 0.003387 0.007212 -0.002222 0.000000 0.034051 0.000000
# 6 0.000000 0.000000 0.000000 0.009666 0.000000 0.036399
#
#
# Mechanical properties :
#
#
# Convention : Reuss Voigt Hill
#
# Bulk Modulus (GPa) = 56.28380 66.72513 61.50447
# Shear Modulus (GPa) = 28.28074 31.66776 29.97425
#
# Velocity S-wave (km/s) = 3.80756 4.02912 3.91991
# Velocity P-wave (km/s) = 6.94138 7.47331 7.21225
#
# Compressibility (1/GPa) = 0.01776710
#
# Stress axis : x y z
#
# Youngs Moduli (GPa) = 101.57058 69.86803 79.29918
#
# Poissons Ratio (x) = 0.10620 0.35060
# Poissons Ratio (y) = 0.15439 0.28226
# Poissons Ratio (z) = 0.44907 0.24869
#
# Static dielectric constant tensor:
#      x y z
#    x 4.183410 0.000000 -0.288120 
#    y 0.000000 3.543140 0.000000 
#    z -0.288120 0.000000 3.225390 
# 
# 
# High freq. dielectric constant tensor:
#      x y z
#    x 1.785390 0.000000 -0.020630 
#    y 0.000000 1.753130 0.000000 
#    z -0.020630 0.000000 1.713220 
# 
# From -- ./inp_files/200974.got.cif
#   From: 2010.06.25/outbox.cif.g09.slc.cpg/sg12_101_cif.got.tgz:200974.got - 2010.06.28 00:19:55.
