data_PCOD8095783
_publ_section_title
;
Structure prediction by ZEFSAII (Michael W. Deem and Ramdas Pophale) SiO2 
 PCOD8095783
Probable space group: C 2/M
;
_chemical_formula_sum "Si O2"
_cell_formula_units_Z 56
_cell_length_a 32.752811
_cell_length_b 9.259603
_cell_length_c 18.176008
_cell_angle_alpha 90.000000
_cell_angle_beta 36.486672
_cell_angle_gamma 90.000000
_cell_volume 3277.860664
_symmetry_space_group_name_H-M "C 2/M"
_symmetry_group_IT_number 12
_symmetry_cell_setting 'monoclinic'
loop_
_space_group_symop_operation_xyz
x,y,z
-x,y,-z
-x,-y,-z
x,-y,z
1/2+x,1/2+y,z
1/2-x,1/2+y,-z
1/2-x,1/2-y,-z
1/2+x,1/2-y,z
loop_
_atom_site_type_symbol
_atom_site_label
_atom_site_fract_x
_atom_site_fract_y
_atom_site_fract_z
Si Si1 0.646462 0.832861 0.176557
Si Si2 0.390938 0.832133 0.490506
Si Si3 0.346441 0.159233 0.398310
Si Si4 0.762935 0.832268 0.236301
Si Si5 0.809379 0.840409 0.324053
Si Si6 0.009183 0.831077 0.400963
Si Si7 0.241041 0.666524 0.900887
O O1 0.573514 0.756478 0.276683
O O2 0.691537 0.754413 0.173166
O O3 0.638140 0.000000 0.211440
O O4 0.681156 0.816942 0.046988
O O5 0.388012 0.782742 0.409035
O O6 0.317635 0.809700 0.634360
O O7 0.442590 0.726300 0.456038
O O8 0.413455 0.000000 0.464129
O O9 0.266692 0.155308 0.533464
O O10 0.359196 0.251062 0.305879
O O11 0.372897 0.000000 0.341186
O O12 0.805559 0.778686 0.246369
O O13 0.787625 0.733805 0.132982
O O14 0.778695 0.000000 0.197235
O O15 0.840681 0.000000 0.276255
O O16 0.000000 0.800009 0.500000
O O17 0.019182 0.000000 0.370063
O O18 0.262022 0.500000 0.859372
#
# Coordination Sequence:
#
# PCOD8095783 Si02
#       7
#     8   8   8   8   8   8   8
#     4  10  21  36  52  68  90 123 156 187 230 278
#     4   9  18  31  46  66  94 128 161 188 224 278
#     4   8  14  25  40  60  88 121 155 188 222 265
#     4   9  17  29  46  69  97 128 157 186 227 277
#     4   8  14  24  39  62  91 121 153 186 222 268
#     4  11  23  35  48  70  96 120 153 195 231 267
#     4  10  20  33  50  72  94 117 152 195 231 268
#
# _framework density 17.084313000000002
#
# number of rings (size 3 to 8) (size 9 to 14) (size 15 to 20)
#    0.000    2.714    0.000    3.857    0.000    6.857 
#    0.000    2.857    0.000    0.000    0.000    1.000 
#    0.000    8.000    0.000    0.000    0.000    0.000 
#
# Total GULP energy -347109.391629 kJ/mol
# GULP energy per Si atom -12396.763987 kJ/mol
# Density = 1.704543 g / cm^3
# Si number density = 17.084313 Si / 1000 Ang^3
#
#
#
# Elastic Constant Matrix: (Units=GPa)
#
#
# Indices 1 2 3 4 5 6 
#
# 1 128.9548 68.6332 31.4097 0.0006 25.6111 -0.0009
# 2 68.6332 106.8499 35.6729 -0.0002 13.3854 -0.0003
# 3 31.4097 35.6729 35.4286 0.0001 8.2835 -0.0002
# 4 0.0006 -0.0002 0.0001 23.4843 -0.0005 3.4809
# 5 25.6111 13.3854 8.2835 -0.0005 24.7245 0.0010
# 6 -0.0009 -0.0003 -0.0002 3.4809 0.0010 34.5421
#
#
#
# Elastic Compliance Matrix: (Units=1/GPa)
#
#
# Indices 1 2 3 4 5 6 
#
# 1 0.014104 -0.006659 -0.003500 -0.000001 -0.009832 0.000001
# 2 -0.006659 0.017468 -0.012028 0.000000 0.001471 0.000000
# 3 -0.003500 -0.012028 0.044561 0.000000 -0.004792 0.000000
# 4 -0.000001 0.000000 0.000000 0.043227 0.000002 -0.004356
# 5 -0.009832 0.001471 -0.004792 0.000002 0.051439 -0.000002
# 6 0.000001 0.000000 0.000000 -0.004356 -0.000002 0.029389
#
#
# Mechanical properties :
#
#
# Convention : Reuss Voigt Hill
#
# Bulk Modulus (GPa) = 31.48932 60.29610 45.89271
# Shear Modulus (GPa) = 19.59635 25.58471 22.59053
#
# Velocity S-wave (km/s) = 3.39047 3.87402 3.64028
# Velocity P-wave (km/s) = 5.81367 7.44182 6.67755
#
# Compressibility (1/GPa) = 0.03175679
#
# Stress axis : x y z
#
# Youngs Moduli (GPa) = 70.90124 57.24784 22.44134
#
# Poissons Ratio (x) = 0.38123 0.07855
# Poissons Ratio (y) = 0.47215 0.26993
# Poissons Ratio (z) = 0.24817 0.68860
#
# Static dielectric constant tensor:
#      x y z
#    x 3.331870 -0.000010 0.228050 
#    y -0.000010 3.377200 0.000010 
#    z 0.228050 0.000010 2.833210 
# 
# 
# High freq. dielectric constant tensor:
#      x y z
#    x 1.664310 0.000000 0.022550 
#    y 0.000000 1.664810 0.000000 
#    z 0.022550 0.000000 1.615960 
# 
# From -- ./inp_files/295074.got.cif
#   From: 2010.06.25/outbox.cif.g09.slc.cpg/sg12_148_cif.got.tgz:295074.got - 2010.06.28 00:19:55.
