data_PCOD8095700
_publ_section_title
;
Structure prediction by ZEFSAII (Michael W. Deem and Ramdas Pophale) SiO2 
 PCOD8095700
Probable space group: C 2/M
;
_chemical_formula_sum "Si O2"
_cell_formula_units_Z 64
_cell_length_a 9.087148
_cell_length_b 19.489134
_cell_length_c 22.262058
_cell_angle_alpha 90.000000
_cell_angle_beta 114.091158
_cell_angle_gamma 90.000000
_cell_volume 3599.211094
_symmetry_space_group_name_H-M "C 2/M"
_symmetry_group_IT_number 12
_symmetry_cell_setting 'monoclinic'
loop_
_space_group_symop_operation_xyz
x,y,z
-x,y,-z
-x,-y,-z
x,-y,z
1/2+x,1/2+y,z
1/2-x,1/2+y,-z
1/2-x,1/2-y,-z
1/2+x,1/2-y,z
loop_
_atom_site_type_symbol
_atom_site_label
_atom_site_fract_x
_atom_site_fract_y
_atom_site_fract_z
Si Si1 0.433108 0.819843 0.260349
Si Si2 0.161526 0.081223 0.500000
Si Si3 0.062517 0.819470 0.890381
Si Si4 0.469322 0.420010 0.642326
Si Si5 0.087591 0.819843 0.260349
Si Si6 0.825408 0.076696 0.000000
Si Si7 0.218244 0.680530 0.890381
Si Si8 0.184670 0.579990 0.357674
O O1 0.271438 0.811905 0.271438
O O2 0.533269 0.750000 0.283269
O O3 0.396910 0.836812 0.184834
O O4 0.536999 0.881711 0.303041
O O5 0.167017 0.102578 0.430453
O O6 0.306111 0.102578 0.569547
O O7 0.000000 0.114586 0.500000
O O8 0.144122 0.000000 0.500000
O O9 0.163384 0.882618 0.935047
O O10 0.163961 0.750000 0.913961
O O11 0.027243 0.836812 0.815166
O O12 0.900025 0.807359 0.900026
O O13 0.454338 0.500000 0.654208
O O14 0.430918 0.381711 0.696959
O O15 0.647842 0.402445 0.647842
O O16 0.756421 0.000000 0.000000
O O17 0.706711 0.117382 0.935047
O O18 0.000000 0.071054 0.000000
O O19 0.145923 0.500000 0.345792
#
# Coordination Sequence:
#
# PCOD8095700 Si02
#       8
#     8   8   8   8   8   8   8   8
#     4  10  20  33  49  71  99 129 163 202 242 285
#     4   7  12  26  48  71  94 123 159 195 234 285
#     4   9  18  32  51  71  92 124 161 196 233 278
#     4   9  17  31  52  75  98 126 160 198 241 289
#     4  10  20  33  49  71  99 129 163 202 242 285
#     4   9  17  30  49  73  98 123 154 192 234 279
#     4   9  18  32  51  71  92 124 161 196 233 278
#     4   9  17  31  52  75  98 126 160 198 241 289
#
# _framework density 17.781675
#
# number of rings (size 3 to 8) (size 9 to 14) (size 15 to 20)
#    0.000    3.000    0.000    2.625    0.000    2.500 
#    0.000    3.750    0.000    3.750    0.000    0.000 
#    0.000    0.000    0.000    0.000    0.000    0.000 
#
# Total GULP energy -396566.907043 kJ/mol
# GULP energy per Si atom -12392.715845 kJ/mol
# Density = 1.774120 g / cm^3
# Si number density = 17.781675 Si / 1000 Ang^3
#
#
#
# Elastic Constant Matrix: (Units=GPa)
#
#
# Indices 1 2 3 4 5 6 
#
# 1 48.5266 40.6419 39.8336 0.0000 -0.9045 0.0000
# 2 40.6419 112.9443 76.8677 0.0000 -1.4203 0.0000
# 3 39.8336 76.8677 123.0170 0.0000 -2.0161 0.0000
# 4 0.0000 0.0000 0.0000 17.0625 0.0000 0.4326
# 5 -0.9045 -1.4203 -2.0161 0.0000 15.9244 0.0000
# 6 0.0000 0.0000 0.0000 0.4326 0.0000 28.0943
#
#
#
# Elastic Compliance Matrix: (Units=1/GPa)
#
#
# Indices 1 2 3 4 5 6 
#
# 1 0.031443 -0.007629 -0.005408 0.000000 0.000421 0.000000
# 2 -0.007629 0.017257 -0.008312 0.000000 0.000054 0.000000
# 3 -0.005408 -0.008312 0.015088 0.000000 0.000862 0.000000
# 4 0.000000 0.000000 0.000000 0.058631 0.000000 -0.000903
# 5 0.000421 0.000054 0.000862 0.000000 0.062935 0.000000
# 6 0.000000 0.000000 0.000000 -0.000903 0.000000 0.035608
#
#
# Mechanical properties :
#
#
# Convention : Reuss Voigt Hill
#
# Bulk Modulus (GPa) = 47.41333 66.57491 56.99412
# Shear Modulus (GPa) = 18.47142 20.69255 19.58198
#
# Velocity S-wave (km/s) = 3.22652 3.41501 3.32210
# Velocity P-wave (km/s) = 6.37202 7.28500 6.84375
#
# Compressibility (1/GPa) = 0.02109111
#
# Stress axis : x y z
#
# Youngs Moduli (GPa) = 31.80312 57.94895 66.27916
#
# Poissons Ratio (x) = 0.44209 0.35842
# Poissons Ratio (y) = 0.24263 0.55089
# Poissons Ratio (z) = 0.17198 0.48165
#
# Static dielectric constant tensor:
#      x y z
#    x 3.025680 0.000000 -0.023350 
#    y 0.000000 3.241920 0.000000 
#    z -0.023350 0.000000 3.621220 
# 
# 
# High freq. dielectric constant tensor:
#      x y z
#    x 1.659200 0.000000 -0.001790 
#    y 0.000000 1.672930 0.000000 
#    z -0.001790 0.000000 1.704950 
# 
# From -- ./inp_files/258094.got.cif
#   From: 2010.06.25/outbox.cif.g09.slc.cpg/sg12_130_cif.got.tgz:258094.got - 2010.06.28 00:19:55.
