data_PCOD8095987
_publ_section_title
;
Structure prediction by ZEFSAII (Michael W. Deem and Ramdas Pophale) SiO2 
 PCOD8095987
Probable space group: C 2/M
;
_chemical_formula_sum "Si O2"
_cell_formula_units_Z 48
_cell_length_a 28.094759
_cell_length_b 8.698582
_cell_length_c 11.367484
_cell_angle_alpha 90.000000
_cell_angle_beta 77.702260
_cell_angle_gamma 90.000000
_cell_volume 2714.292715
_symmetry_space_group_name_H-M "C 2/M"
_symmetry_group_IT_number 12
_symmetry_cell_setting 'monoclinic'
loop_
_space_group_symop_operation_xyz
x,y,z
-x,y,-z
-x,-y,-z
x,-y,z
1/2+x,1/2+y,z
1/2-x,1/2+y,-z
1/2-x,1/2-y,-z
1/2+x,1/2-y,z
loop_
_atom_site_type_symbol
_atom_site_label
_atom_site_fract_x
_atom_site_fract_y
_atom_site_fract_z
Si Si1 0.792995 0.320074 0.901643
Si Si2 0.821996 0.321464 0.419375
Si Si3 0.403915 0.316315 0.221956
Si Si4 0.508492 0.332632 0.132893
Si Si5 0.887971 0.183373 0.964440
Si Si6 0.276046 0.677772 0.662665
O O1 0.792175 0.500000 0.921680
O O2 0.844414 0.255819 0.915767
O O3 0.785588 0.282281 0.769748
O O4 0.750000 0.250000 0.000000
O O5 0.824258 0.500000 0.451566
O O6 0.872299 0.267654 0.336447
O O7 0.778702 0.287953 0.350736
O O8 0.814086 0.224185 0.541622
O O9 0.401825 0.500000 0.238505
O O10 0.459682 0.252294 0.210558
O O11 0.384126 0.269438 0.103439
O O12 0.512290 0.500000 0.190962
O O13 0.561215 0.249824 0.119634
O O14 0.500000 0.355993 0.000000
O O15 0.887067 0.000000 0.953350
O O16 0.283605 0.500000 0.691346
#
# Coordination Sequence:
#
# PCOD8095987 Si02
#       6
#     8   8   8   8   8   8
#     4  12  24  36  51  73 102 133 166 201 242 292
#     4  10  20  33  51  75 101 128 161 204 249 292
#     4   9  16  28  50  77 102 131 167 203 241 289
#     4   7  12  25  46  72  99 128 164 203 241 285
#     4   9  17  31  51  74 102 134 167 204 245 288
#     4  10  21  37  54  72  97 130 167 203 244 293
#
# _framework density 17.684166000000001
#
# number of rings (size 3 to 8) (size 9 to 14) (size 15 to 20)
#    0.000    2.500    0.000    5.500    0.000    5.333 
#    0.000    0.833    0.000    4.000    0.000    7.000 
#    0.000    0.000    0.000    0.000    0.000    0.000 
#
# Total GULP energy -297433.678864 kJ/mol
# GULP energy per Si atom -12393.069953 kJ/mol
# Density = 1.764392 g / cm^3
# Si number density = 17.684166 Si / 1000 Ang^3
#
#
#
# Elastic Constant Matrix: (Units=GPa)
#
#
# Indices 1 2 3 4 5 6 
#
# 1 132.2656 29.6810 55.3595 0.0000 -23.1197 0.0000
# 2 29.6810 37.2984 15.0877 0.0000 -4.4401 0.0000
# 3 55.3595 15.0877 75.2069 0.0000 -16.9123 0.0000
# 4 0.0000 0.0000 0.0000 26.3644 0.0000 -1.4604
# 5 -23.1197 -4.4401 -16.9123 0.0000 31.1434 0.0000
# 6 0.0000 0.0000 0.0000 -1.4604 0.0000 16.4582
#
#
#
# Elastic Compliance Matrix: (Units=1/GPa)
#
#
# Indices 1 2 3 4 5 6 
#
# 1 0.012868 -0.006829 -0.007032 0.000000 0.004761 0.000000
# 2 -0.006829 0.032837 -0.001877 0.000000 -0.001408 0.000000
# 3 -0.007032 -0.001877 0.020066 0.000000 0.005409 0.000000
# 4 0.000000 0.000000 0.000000 0.038117 0.000000 0.003382
# 5 0.004761 -0.001408 0.005409 0.000000 0.038380 0.000000
# 6 0.000000 0.000000 0.000000 0.003382 0.000000 0.061060
#
#
# Mechanical properties :
#
#
# Convention : Reuss Voigt Hill
#
# Bulk Modulus (GPa) = 29.15901 49.44749 39.30325
# Shear Modulus (GPa) = 20.30569 24.43604 22.37087
#
# Velocity S-wave (km/s) = 3.39225 3.72129 3.56057
# Velocity P-wave (km/s) = 5.64515 6.81808 6.25915
#
# Compressibility (1/GPa) = 0.03429471
#
# Stress axis : x y z
#
# Youngs Moduli (GPa) = 77.71042 30.45348 49.83653
#
# Poissons Ratio (x) = 0.20797 0.35043
# Poissons Ratio (y) = 0.53069 0.09356
# Poissons Ratio (z) = 0.54644 0.05717
#
# Static dielectric constant tensor:
#      x y z
#    x 3.598770 0.000000 -0.237250 
#    y 0.000000 3.104770 0.000000 
#    z -0.237250 0.000000 3.139860 
# 
# 
# High freq. dielectric constant tensor:
#      x y z
#    x 1.691520 0.000000 -0.021030 
#    y 0.000000 1.668610 0.000000 
#    z -0.021030 0.000000 1.663790 
# 
# From -- ./inp_files/179182.got.cif
#   From: 2010.06.25/outbox.cif.g09.slc.cpg/sg12_90_cif.got.tgz:179182.got - 2010.06.28 00:19:55.
