data_PCOD8095811
_publ_section_title
;
Structure prediction by ZEFSAII (Michael W. Deem and Ramdas Pophale) SiO2 
 PCOD8095811
Probable space group: C 2/M
;
_chemical_formula_sum "Si O2"
_cell_formula_units_Z 56
_cell_length_a 26.080248
_cell_length_b 14.370418
_cell_length_c 8.591644
_cell_angle_alpha 90.000000
_cell_angle_beta 115.978376
_cell_angle_gamma 90.000000
_cell_volume 2894.659486
_symmetry_space_group_name_H-M "C 2/M"
_symmetry_group_IT_number 12
_symmetry_cell_setting 'monoclinic'
loop_
_space_group_symop_operation_xyz
x,y,z
-x,y,-z
-x,-y,-z
x,-y,z
1/2+x,1/2+y,z
1/2-x,1/2+y,-z
1/2-x,1/2-y,-z
1/2+x,1/2-y,z
loop_
_atom_site_type_symbol
_atom_site_label
_atom_site_fract_x
_atom_site_fract_y
_atom_site_fract_z
Si Si1 0.885879 0.397947 0.694598
Si Si2 0.835059 0.892183 0.773618
Si Si3 0.458003 0.599339 0.804376
Si Si4 0.293777 0.772361 0.924337
Si Si5 0.101919 0.604886 0.920980
Si Si6 0.992356 0.288482 0.803369
Si Si7 0.736394 0.108440 0.399585
O O1 0.892581 0.500000 0.630918
O O2 0.933128 0.336032 0.673013
O O3 0.821167 0.361724 0.582644
O O4 0.897640 0.400108 0.893456
O O5 0.897114 0.866765 0.790356
O O6 0.821518 0.823561 0.898232
O O7 0.790437 0.872223 0.577469
O O8 0.831815 0.000000 0.825223
O O9 0.450980 0.500000 0.703706
O O10 0.485401 0.681330 0.735135
O O11 0.500000 0.579509 0.000000
O O12 0.258785 0.828301 0.746637
O O13 0.250000 0.750000 0.000000
O O14 0.343327 0.837248 0.063790
O O15 0.102434 0.500000 0.851602
O O16 0.044656 0.658995 0.789871
O O17 0.000000 0.287849 0.000000
O O18 0.731394 0.000000 0.343136
#
# Coordination Sequence:
#
# PCOD8095811 Si02
#       7
#     8   8   8   8   8   8   8
#     4   8  13  22  40  66  91 116 148 193 246 290
#     4  10  20  33  50  73 100 133 171 210 256 309
#     4   9  16  26  42  67  98 125 154 203 261 308
#     4  11  21  32  49  72 101 136 171 208 252 298
#     4   9  17  29  44  65  95 127 159 198 245 297
#     4   9  14  22  39  63  91 121 154 192 242 298
#     4   9  18  33  51  72 101 132 166 212 259 304
#
# _framework density 19.345970000000001
#
# number of rings (size 3 to 8) (size 9 to 14) (size 15 to 20)
#    0.000    2.714    0.000    5.571    0.000    2.857 
#    0.000    0.000    0.000    0.000    0.000    9.000 
#    0.000   24.000    0.000    0.000    0.000    0.000 
#
# Total GULP energy -346958.647104 kJ/mol
# GULP energy per Si atom -12391.380254 kJ/mol
# Density = 1.930194 g / cm^3
# Si number density = 19.345970 Si / 1000 Ang^3
#
#
#
# Elastic Constant Matrix: (Units=GPa)
#
#
# Indices 1 2 3 4 5 6 
#
# 1 138.0633 80.8550 39.4927 0.0000 29.0267 0.0000
# 2 80.8550 158.4692 26.2861 0.0000 3.4082 0.0000
# 3 39.4927 26.2861 25.3220 0.0000 16.0946 0.0000
# 4 0.0000 0.0000 0.0000 14.4200 0.0000 11.6523
# 5 29.0267 3.4082 16.0946 0.0000 24.9408 0.0000
# 6 0.0000 0.0000 0.0000 11.6523 0.0000 34.1840
#
#
#
# Elastic Compliance Matrix: (Units=1/GPa)
#
#
# Indices 1 2 3 4 5 6 
#
# 1 0.016776 -0.006111 -0.013464 0.000000 -0.010001 0.000000
# 2 -0.006111 0.010618 -0.008629 0.000000 0.011230 0.000000
# 3 -0.013464 -0.008629 0.099584 0.000000 -0.047414 0.000000
# 4 0.000000 0.000000 0.000000 0.095711 0.000000 -0.032625
# 5 -0.010001 0.011230 -0.047414 0.000000 0.080796 0.000000
# 6 0.000000 0.000000 0.000000 -0.032625 0.000000 0.040374
#
#
# Mechanical properties :
#
#
# Convention : Reuss Voigt Hill
#
# Bulk Modulus (GPa) = 14.17037 68.34692 41.25865
# Shear Modulus (GPa) = 11.79829 26.39036 19.09432
#
# Velocity S-wave (km/s) = 2.47221 3.69742 3.14505
# Velocity P-wave (km/s) = 3.93570 7.32348 5.87890
#
# Compressibility (1/GPa) = 0.07056977
#
# Stress axis : x y z
#
# Youngs Moduli (GPa) = 59.61011 94.17771 10.04182
#
# Poissons Ratio (x) = 0.57552 0.13520
# Poissons Ratio (y) = 0.36428 0.08665
# Poissons Ratio (z) = 0.80257 0.81268
#
# Static dielectric constant tensor:
#      x y z
#    x 3.595270 0.000000 0.536730 
#    y 0.000000 4.144830 0.000000 
#    z 0.536730 0.000000 2.944430 
# 
# 
# High freq. dielectric constant tensor:
#      x y z
#    x 1.747800 0.000000 0.051170 
#    y 0.000000 1.783950 0.000000 
#    z 0.051170 0.000000 1.678800 
# 
# From -- ./inp_files/104108.got.cif
#   From: 2010.06.25/outbox.cif.g09.slc.cpg/sg12_53_cif.got.tgz:104108.got - 2010.06.28 00:19:55.
