data_PCOD8095801
_publ_section_title
;
Structure prediction by ZEFSAII (Michael W. Deem and Ramdas Pophale) SiO2 
 PCOD8095801
Probable space group: C 2/M
;
_chemical_formula_sum "Si O2"
_cell_formula_units_Z 32
_cell_length_a 22.412474
_cell_length_b 9.070280
_cell_length_c 31.066818
_cell_angle_alpha 90.000000
_cell_angle_beta 16.492083
_cell_angle_gamma 90.000000
_cell_volume 1792.860212
_symmetry_space_group_name_H-M "C 2/M"
_symmetry_group_IT_number 12
_symmetry_cell_setting 'monoclinic'
loop_
_space_group_symop_operation_xyz
x,y,z
-x,y,-z
-x,-y,-z
x,-y,z
1/2+x,1/2+y,z
1/2-x,1/2+y,-z
1/2-x,1/2-y,-z
1/2+x,1/2-y,z
loop_
_atom_site_type_symbol
_atom_site_label
_atom_site_fract_x
_atom_site_fract_y
_atom_site_fract_z
Si Si1 0.970300 0.162877 0.223870
Si Si2 0.359713 0.669495 0.055150
Si Si3 0.038580 0.336071 0.096844
Si Si4 0.423930 0.675168 0.350811
O O1 0.908991 0.271054 0.227181
O O2 0.868939 0.215291 0.339148
O O3 0.888680 0.000000 0.268185
O O4 0.218681 0.158350 0.058940
O O5 0.301694 0.500000 0.085443
O O6 0.149111 0.761658 0.208570
O O7 0.500000 0.684749 0.000000
O O8 0.493676 0.733829 0.922547
O O9 0.952952 0.500000 0.146372
O O10 0.427956 0.500000 0.354806
O O11 0.250000 0.750000 0.500000
#
# Coordination Sequence:
#
# PCOD8095801 Si02
#       4
#     8   8   8   8
#     4   8  15  27  43  66  94 123 156 194 237 284
#     4  10  20  33  50  72  99 131 164 199 241 288
#     4   9  16  26  44  69  94 122 157 199 242 281
#     4  10  20  33  51  74 100 130 162 199 242 288
#
# _framework density 17.848573999999999
#
# number of rings (size 3 to 8) (size 9 to 14) (size 15 to 20)
#    0.000    2.750    0.000    3.750    0.000    9.000 
#    0.000    0.000    0.000    1.500    0.000   10.500 
#    0.000    0.000    0.000    0.000    0.000    0.000 
#
# Total GULP energy -198555.656256 kJ/mol
# GULP energy per Si atom -12409.728516 kJ/mol
# Density = 1.780795 g / cm^3
# Si number density = 17.848574 Si / 1000 Ang^3
#
#
#
# Elastic Constant Matrix: (Units=GPa)
#
#
# Indices 1 2 3 4 5 6 
#
# 1 91.2701 68.0748 45.1250 0.8757 30.8068 0.8026
# 2 68.0748 146.3445 54.4910 -1.9626 24.2398 -0.7306
# 3 45.1250 54.4910 79.1231 2.2909 28.6025 1.9400
# 4 0.8757 -1.9626 2.2909 28.3867 1.8376 9.2885
# 5 30.8068 24.2398 28.6025 1.8376 27.0677 0.4909
# 6 0.8026 -0.7306 1.9400 9.2885 0.4909 30.1805
#
#
#
# Elastic Compliance Matrix: (Units=1/GPa)
#
#
# Indices 1 2 3 4 5 6 
#
# 1 0.023363 -0.007179 -0.001755 0.000262 -0.018316 -0.000465
# 2 -0.007179 0.011548 -0.004993 0.001094 0.003024 0.000405
# 3 -0.001755 -0.004993 0.023887 -0.000646 -0.018709 -0.001107
# 4 0.000262 0.001094 -0.000646 0.039486 -0.003059 -0.012041
# 5 -0.018316 0.003024 -0.018709 -0.003059 0.075032 0.001484
# 6 -0.000465 0.000405 -0.001107 -0.012041 0.001484 0.036909
#
#
# Mechanical properties :
#
#
# Convention : Reuss Voigt Hill
#
# Bulk Modulus (GPa) = 32.31813 72.45771 52.38792
# Shear Modulus (GPa) = 20.12939 27.06342 23.59640
#
# Velocity S-wave (km/s) = 3.36190 3.89817 3.63992
# Velocity P-wave (km/s) = 5.76333 7.80672 6.86152
#
# Compressibility (1/GPa) = 0.03094238
#
# Stress axis : x y z
#
# Youngs Moduli (GPa) = 42.80355 86.59743 41.86357
#
# Poissons Ratio (x) = 0.62169 0.07347
# Poissons Ratio (y) = 0.30729 0.20904
# Poissons Ratio (z) = 0.07512 0.43241
#
# Static dielectric constant tensor:
#      x y z
#    x 3.290450 -0.001130 0.499890 
#    y -0.001130 3.642400 -0.001150 
#    z 0.499890 -0.001150 3.079990 
# 
# 
# High freq. dielectric constant tensor:
#      x y z
#    x 1.678570 0.000030 0.042120 
#    y 0.000030 1.708530 0.000080 
#    z 0.042120 0.000080 1.650470 
# 
# From -- ./inp_files/138807.got.cif
#   From: 2010.06.25/outbox.cif.g09.slc.cpg/sg12_70_cif.got.tgz:138807.got - 2010.06.28 00:19:55.
