data_PCOD8095933
_publ_section_title
;
Structure prediction by ZEFSAII (Michael W. Deem and Ramdas Pophale) SiO2 
 PCOD8095933
Probable space group: C 2/M
;
_chemical_formula_sum "Si O2"
_cell_formula_units_Z 56
_cell_length_a 27.009664
_cell_length_b 9.337798
_cell_length_c 20.528609
_cell_angle_alpha 90.000000
_cell_angle_beta 146.293121
_cell_angle_gamma 90.000000
_cell_volume 2873.244482
_symmetry_space_group_name_H-M "C 2/M"
_symmetry_group_IT_number 12
_symmetry_cell_setting 'monoclinic'
loop_
_space_group_symop_operation_xyz
x,y,z
-x,y,-z
-x,-y,-z
x,-y,z
1/2+x,1/2+y,z
1/2-x,1/2+y,-z
1/2-x,1/2-y,-z
1/2+x,1/2-y,z
loop_
_atom_site_type_symbol
_atom_site_label
_atom_site_fract_x
_atom_site_fract_y
_atom_site_fract_z
Si Si1 0.010954 0.332076 0.200672
Si Si2 0.727741 0.339530 0.230331
Si Si3 0.686228 0.341986 0.887084
Si Si4 0.073371 0.330168 0.525139
Si Si5 0.938413 0.836807 0.871040
Si Si6 0.485745 0.671624 0.667380
Si Si7 0.329755 0.155977 0.944604
O O1 0.035776 0.500000 0.235316
O O2 0.050524 0.243141 0.305342
O O3 0.049622 0.271340 0.175633
O O4 0.903624 0.306672 0.080658
O O5 0.738710 0.500000 0.218052
O O6 0.827740 0.277484 0.345712
O O7 0.667819 0.328067 0.229666
O O8 0.666347 0.265761 0.109364
O O9 0.681317 0.500000 0.912848
O O10 0.588094 0.279550 0.772308
O O11 0.730185 0.344772 0.864054
O O12 0.750000 0.250000 0.000000
O O13 0.070190 0.500000 0.506765
O O14 0.000000 0.289612 0.500000
O O15 0.060682 0.241291 0.445469
O O16 0.963406 0.000000 0.878237
O O17 0.000000 0.790866 0.000000
O O18 0.471279 0.500000 0.652495
O O19 0.353467 0.000000 0.941757
#
# Coordination Sequence:
#
# PCOD8095933 Si02
#       7
#     8   8   8   8   8   8   8
#     4  11  22  36  57  85 119 154 191 237 293 351
#     4  10  21  37  59  85 113 152 195 236 289 348
#     4  10  20  33  50  78 113 148 186 228 281 342
#     4  10  22  41  63  87 117 154 197 242 288 344
#     4  10  20  36  58  85 119 153 191 241 293 347
#     4  11  23  38  59  85 117 157 198 242 293 347
#     4  10  20  33  52  82 117 149 185 234 286 342
#
# _framework density 19.490162000000002
#
# number of rings (size 3 to 8) (size 9 to 14) (size 15 to 20)
#    0.000    1.714    2.857    1.714    0.000    3.429 
#    0.000    0.714    0.000    0.000    0.000    0.000 
#    0.000    0.000    0.000    0.000    0.000    0.000 
#
# Total GULP energy -347035.815578 kJ/mol
# GULP energy per Si atom -12394.136271 kJ/mol
# Density = 1.944580 g / cm^3
# Si number density = 19.490162 Si / 1000 Ang^3
#
#
#
# Elastic Constant Matrix: (Units=GPa)
#
#
# Indices 1 2 3 4 5 6 
#
# 1 88.2123 39.1000 35.2922 0.0000 -8.9547 0.0000
# 2 39.1000 83.4644 43.9437 0.0000 -20.1117 0.0000
# 3 35.2922 43.9437 83.2081 0.0000 -11.5569 0.0000
# 4 0.0000 0.0000 0.0000 28.6630 0.0000 -7.9479
# 5 -8.9547 -20.1117 -11.5569 0.0000 38.7329 0.0000
# 6 0.0000 0.0000 0.0000 -7.9479 0.0000 33.1405
#
#
#
# Elastic Compliance Matrix: (Units=1/GPa)
#
#
# Indices 1 2 3 4 5 6 
#
# 1 0.015087 -0.005196 -0.003699 0.000000 -0.000314 0.000000
# 2 -0.005196 0.019981 -0.007380 0.000000 0.006972 0.000000
# 3 -0.003699 -0.007380 0.017561 0.000000 0.000553 0.000000
# 4 0.000000 0.000000 0.000000 0.037374 0.000000 0.008963
# 5 -0.000314 0.006972 0.000553 0.000000 0.029530 0.000000
# 6 0.000000 0.000000 0.000000 0.008963 0.000000 0.032324
#
#
# Mechanical properties :
#
#
# Convention : Reuss Voigt Hill
#
# Bulk Modulus (GPa) = 49.80143 54.61741 52.20942
# Shear Modulus (GPa) = 26.16431 29.21052 27.68742
#
# Velocity S-wave (km/s) = 3.66790 3.87555 3.77315
# Velocity P-wave (km/s) = 6.59891 6.93616 6.76964
#
# Compressibility (1/GPa) = 0.02007974
#
# Stress axis : x y z
#
# Youngs Moduli (GPa) = 66.28053 50.04803 56.94412
#
# Poissons Ratio (x) = 0.26006 0.21061
# Poissons Ratio (y) = 0.34440 0.42025
# Poissons Ratio (z) = 0.24514 0.36936
#
# Static dielectric constant tensor:
#      x y z
#    x 3.640310 0.000000 0.214420 
#    y 0.000000 3.582490 0.000000 
#    z 0.214420 0.000000 3.513760 
# 
# 
# High freq. dielectric constant tensor:
#      x y z
#    x 1.759140 0.000000 0.004630 
#    y 0.000000 1.760950 0.000000 
#    z 0.004630 0.000000 1.742090 
# 
# From -- ./inp_files/237369.got.cif
#   From: 2010.06.25/outbox.cif.g09.slc.cpg/sg12_119_cif.got.tgz:237369.got - 2010.06.28 00:19:55.
