data_PCOD8095884
_publ_section_title
;
Structure prediction by ZEFSAII (Michael W. Deem and Ramdas Pophale) SiO2 
 PCOD8095884
Probable space group: C 2/M
;
_chemical_formula_sum "Si O2"
_cell_formula_units_Z 64
_cell_length_a 22.750769
_cell_length_b 8.844404
_cell_length_c 20.297485
_cell_angle_alpha 90.000000
_cell_angle_beta 119.157901
_cell_angle_gamma 90.000000
_cell_volume 3566.650444
_symmetry_space_group_name_H-M "C 2/M"
_symmetry_group_IT_number 12
_symmetry_cell_setting 'monoclinic'
loop_
_space_group_symop_operation_xyz
x,y,z
-x,y,-z
-x,-y,-z
x,-y,z
1/2+x,1/2+y,z
1/2-x,1/2+y,-z
1/2-x,1/2-y,-z
1/2+x,1/2-y,z
loop_
_atom_site_type_symbol
_atom_site_label
_atom_site_fract_x
_atom_site_fract_y
_atom_site_fract_z
Si Si1 0.447068 0.174304 0.212784
Si Si2 0.939214 0.675333 0.515572
Si Si3 0.254279 0.672858 0.913075
Si Si4 0.642343 0.328281 0.931740
Si Si5 0.560689 0.323604 0.349346
Si Si6 0.685135 0.323106 0.619853
Si Si7 0.171681 0.671036 0.749054
Si Si8 0.215495 0.823114 0.417977
O O1 0.418938 0.221807 0.125121
O O2 0.513099 0.272947 0.263405
O O3 0.390278 0.208679 0.236454
O O4 0.467380 0.000000 0.222022
O O5 0.918846 0.500000 0.504756
O O6 0.962793 0.727519 0.600312
O O7 0.875629 0.773937 0.460180
O O8 0.000000 0.708011 0.500000
O O9 0.231904 0.500000 0.919551
O O10 0.208536 0.795224 0.924805
O O11 0.241927 0.693158 0.827821
O O12 0.332608 0.697791 0.978313
O O13 0.619235 0.500000 0.907799
O O14 0.551435 0.500000 0.359104
O O15 0.636960 0.283413 0.372535
O O16 0.695058 0.500000 0.617973
O O17 0.669983 0.283351 0.687010
O O18 0.752711 0.241658 0.631831
O O19 0.165142 0.500000 0.718488
O O20 0.250000 0.750000 0.500000
O O21 0.228627 0.000000 0.428858
#
# Coordination Sequence:
#
# PCOD8095884 Si02
#       8
#     8   8   8   8   8   8   8   8
#     4  10  20  33  50  74 107 143 173 206 255 310
#     4  11  23  37  54  75 102 137 169 202 253 310
#     4   8  15  27  44  68 100 138 174 207 251 304
#     4   9  15  25  44  70 101 136 173 211 248 296
#     4  11  23  37  55  78 100 128 169 215 258 302
#     4  12  24  36  53  77 102 133 172 214 258 302
#     4   9  18  33  50  72 105 141 174 208 251 305
#     4  11  23  40  60  78  98 128 169 217 264 308
#
# _framework density 17.944006000000002
#
# number of rings (size 3 to 8) (size 9 to 14) (size 15 to 20)
#    0.000    1.875    1.250    4.500    0.000    8.500 
#    0.000    0.000    0.000    0.000    0.000    0.875 
#    0.000    7.000    0.000    0.000    0.000    0.000 
#
# Total GULP energy -396736.966687 kJ/mol
# GULP energy per Si atom -12398.030209 kJ/mol
# Density = 1.790316 g / cm^3
# Si number density = 17.944006 Si / 1000 Ang^3
#
#
#
# Elastic Constant Matrix: (Units=GPa)
#
#
# Indices 1 2 3 4 5 6 
#
# 1 56.8031 37.6601 21.6961 0.0000 17.4289 0.0000
# 2 37.6601 80.9733 23.8235 0.0000 11.6597 0.0000
# 3 21.6961 23.8235 91.8089 0.0000 29.1582 0.0000
# 4 0.0000 0.0000 0.0000 31.2753 0.0000 3.0519
# 5 17.4289 11.6597 29.1582 0.0000 18.9368 0.0000
# 6 0.0000 0.0000 0.0000 3.0519 0.0000 20.6750
#
#
#
# Elastic Compliance Matrix: (Units=1/GPa)
#
#
# Indices 1 2 3 4 5 6 
#
# 1 0.033564 -0.012667 0.005263 0.000000 -0.031196 0.000000
# 2 -0.012667 0.018468 -0.003699 0.000000 0.005983 0.000000
# 3 0.005263 -0.003699 0.022356 0.000000 -0.036989 0.000000
# 4 0.000000 0.000000 0.000000 0.032441 0.000000 -0.004789
# 5 -0.031196 0.005983 -0.036989 0.000000 0.134791 0.000000
# 6 0.000000 0.000000 0.000000 -0.004789 0.000000 0.049074
#
#
# Mechanical properties :
#
#
# Convention : Reuss Voigt Hill
#
# Bulk Modulus (GPa) = 19.16354 43.99385 31.57870
# Shear Modulus (GPa) = 15.13798 23.93779 19.53789
#
# Velocity S-wave (km/s) = 2.90767 3.65640 3.30331
# Velocity P-wave (km/s) = 4.68781 6.51123 5.67326
#
# Compressibility (1/GPa) = 0.05218242
#
# Stress axis : x y z
#
# Youngs Moduli (GPa) = 29.79340 54.14827 44.73068
#
# Poissons Ratio (x) = 0.68589 -0.23541
# Poissons Ratio (y) = 0.37739 0.16545
# Poissons Ratio (z) = -0.15680 0.20029
#
# Static dielectric constant tensor:
#      x y z
#    x 3.088780 0.000000 0.181380 
#    y 0.000000 3.372750 0.000000 
#    z 0.181380 0.000000 3.644750 
# 
# 
# High freq. dielectric constant tensor:
#      x y z
#    x 1.645710 0.000000 0.019500 
#    y 0.000000 1.707350 0.000000 
#    z 0.019500 0.000000 1.705950 
# 
# From -- ./inp_files/323754.got.cif
#   From: 2010.06.25/outbox.cif.g09.slc.cpg/sg12_162_cif.got.tgz:323754.got - 2010.06.28 00:19:55.
