data_PCOD8095677
_publ_section_title
;
Structure prediction by ZEFSAII (Michael W. Deem and Ramdas Pophale) SiO2 
 PCOD8095677
Probable space group: C 2/M
;
_chemical_formula_sum "Si O2"
_cell_formula_units_Z 64
_cell_length_a 22.117298
_cell_length_b 9.058913
_cell_length_c 23.023944
_cell_angle_alpha 90.000000
_cell_angle_beta 55.768051
_cell_angle_gamma 90.000000
_cell_volume 3813.915111
_symmetry_space_group_name_H-M "C 2/M"
_symmetry_group_IT_number 12
_symmetry_cell_setting 'monoclinic'
loop_
_space_group_symop_operation_xyz
x,y,z
-x,y,-z
-x,-y,-z
x,-y,z
1/2+x,1/2+y,z
1/2-x,1/2+y,-z
1/2-x,1/2-y,-z
1/2+x,1/2-y,z
loop_
_atom_site_type_symbol
_atom_site_label
_atom_site_fract_x
_atom_site_fract_y
_atom_site_fract_z
Si Si1 0.080996 0.164505 0.624783
Si Si2 0.528722 0.673873 0.226339
Si Si3 0.578686 0.173244 0.932487
Si Si4 0.156500 0.671155 0.100198
Si Si5 0.324925 0.671526 0.027314
Si Si6 0.408067 0.328162 0.195329
Si Si7 0.801828 0.175983 0.518701
Si Si8 0.707914 0.335965 0.651200
O O1 0.010636 0.240720 0.693608
O O2 0.114895 0.227080 0.545440
O O3 0.146594 0.164492 0.635192
O O4 0.054561 0.000000 0.626449
O O5 0.544614 0.500000 0.223911
O O6 0.603941 0.761449 0.177673
O O7 0.476293 0.703591 0.200182
O O8 0.641114 0.257841 0.933911
O O9 0.582955 0.222824 0.864011
O O10 0.593244 0.000000 0.929323
O O11 0.500000 0.217453 0.000000
O O12 0.139162 0.500000 0.100383
O O13 0.238447 0.698402 0.077599
O O14 0.141220 0.752106 0.047720
O O15 0.344984 0.500000 0.013219
O O16 0.406662 0.500000 0.177708
O O17 0.331349 0.284495 0.268104
O O18 0.750000 0.250000 0.500000
O O19 0.776845 0.231667 0.596072
O O20 0.794764 0.000000 0.519284
O O21 0.739903 0.500000 0.641656
#
# Coordination Sequence:
#
# PCOD8095677 Si02
#       8
#     8   8   8   8   8   8   8   8
#     4   7  12  22  35  54  81 112 146 178 207 250
#     4   9  16  28  46  65  88 122 155 179 214 265
#     4  11  23  35  48  69  94 115 142 186 227 255
#     4  10  20  33  49  70  92 111 141 187 226 256
#     4  10  21  36  52  67  86 117 150 177 216 270
#     4   9  18  31  46  64  89 122 155 182 214 266
#     4   9  14  21  34  52  77 110 146 181 215 252
#     4   8  14  25  38  54  79 111 147 182 212 249
#
# _framework density 16.780656
#
# number of rings (size 3 to 8) (size 9 to 14) (size 15 to 20)
#    0.000    2.875    0.000    4.500    0.000    5.500 
#    0.000    5.625    0.000    0.000    0.000    0.000 
#    0.000    1.000    0.000   11.250    0.000    7.625 
#
# Total GULP energy -396430.803302 kJ/mol
# GULP energy per Si atom -12388.462603 kJ/mol
# Density = 1.674246 g / cm^3
# Si number density = 16.780656 Si / 1000 Ang^3
#
#
#
# Elastic Constant Matrix: (Units=GPa)
#
#
# Indices 1 2 3 4 5 6 
#
# 1 31.0264 25.4403 24.0683 -0.0003 -3.8890 0.0008
# 2 25.4403 76.6324 58.1696 -0.0009 -7.6820 0.0038
# 3 24.0683 58.1696 163.0833 0.0000 -18.8960 0.0004
# 4 -0.0003 -0.0009 0.0000 31.1115 0.0000 -0.7362
# 5 -3.8890 -7.6820 -18.8960 0.0000 15.6194 -0.0005
# 6 0.0008 0.0038 0.0004 -0.7362 -0.0005 19.0348
#
#
#
# Elastic Compliance Matrix: (Units=1/GPa)
#
#
# Indices 1 2 3 4 5 6 
#
# 1 0.044761 -0.013455 -0.001491 0.000000 0.002723 0.000001
# 2 -0.013455 0.021960 -0.005796 0.000000 0.000438 -0.000004
# 3 -0.001491 -0.005796 0.009358 0.000000 0.008099 0.000001
# 4 0.000000 0.000000 0.000000 0.032172 0.000000 0.001244
# 5 0.002723 0.000438 0.008099 0.000000 0.074714 0.000002
# 6 0.000001 -0.000004 0.000001 0.001244 0.000002 0.052584
#
#
# Mechanical properties :
#
#
# Convention : Reuss Voigt Hill
#
# Bulk Modulus (GPa) = 28.90680 54.01096 41.45888
# Shear Modulus (GPa) = 17.32718 24.02407 20.67562
#
# Velocity S-wave (km/s) = 3.21685 3.78782 3.51395
# Velocity P-wave (km/s) = 5.57325 7.16843 6.42058
#
# Compressibility (1/GPa) = 0.03459394
#
# Stress axis : x y z
#
# Youngs Moduli (GPa) = 22.34083 45.53801 106.86312
#
# Poissons Ratio (x) = 0.61270 0.15937
# Poissons Ratio (y) = 0.30059 0.61941
# Poissons Ratio (z) = 0.03332 0.26395
#
# Static dielectric constant tensor:
#      x y z
#    x 2.639300 0.000000 -0.129950 
#    y 0.000000 3.205810 -0.000010 
#    z -0.129950 -0.000010 3.898860 
# 
# 
# High freq. dielectric constant tensor:
#      x y z
#    x 1.581170 0.000000 -0.013650 
#    y 0.000000 1.640920 0.000000 
#    z -0.013650 0.000000 1.672690 
# 
# From -- ./inp_files/346018.got.cif
#   From: 2010.06.25/outbox.cif.g09.slc.cpg/sg12_174_cif.got.tgz:346018.got - 2010.06.28 00:19:55.
