data_PCOD8095253
_publ_section_title
;
Structure prediction by ZEFSAII (Michael W. Deem and Ramdas Pophale) SiO2 
 PCOD8095253
Probable space group: C 2/M
;
_chemical_formula_sum "Si O2"
_cell_formula_units_Z 56
_cell_length_a 18.966201
_cell_length_b 8.942440
_cell_length_c 18.655037
_cell_angle_alpha 90.000000
_cell_angle_beta 63.158513
_cell_angle_gamma 90.000000
_cell_volume 2823.081979
_symmetry_space_group_name_H-M "C 2/M"
_symmetry_group_IT_number 12
_symmetry_cell_setting 'monoclinic'
loop_
_space_group_symop_operation_xyz
x,y,z
-x,y,-z
-x,-y,-z
x,-y,z
1/2+x,1/2+y,z
1/2-x,1/2+y,-z
1/2-x,1/2-y,-z
1/2+x,1/2-y,z
loop_
_atom_site_type_symbol
_atom_site_label
_atom_site_fract_x
_atom_site_fract_y
_atom_site_fract_z
Si Si1 0.324427 0.331016 0.995053
Si Si2 0.659931 0.822185 0.753698
Si Si3 0.820377 0.324999 0.731818
Si Si4 0.487811 0.825519 0.587126
Si Si5 0.076718 0.177188 0.920550
Si Si6 0.901328 0.170161 0.816998
Si Si7 0.432434 0.324601 0.323009
O O1 0.298623 0.500000 0.012625
O O2 0.395446 0.309447 0.905326
O O3 0.250000 0.250000 0.000000
O O4 0.350342 0.277054 0.061502
O O5 0.746375 0.763170 0.733995
O O6 0.592332 0.763373 0.839565
O O7 0.639221 0.760543 0.683790
O O8 0.659910 0.000000 0.753326
O O9 0.800261 0.500000 0.740034
O O10 0.898079 0.284682 0.649798
O O11 0.837557 0.274245 0.805571
O O12 0.500000 0.776057 0.500000
O O13 0.553143 0.736165 0.603374
O O14 0.504114 0.000000 0.591372
O O15 0.072052 0.000000 0.906883
O O16 0.000000 0.230264 0.000000
O O17 0.989657 0.216265 0.757563
O O18 0.883870 0.000000 0.801380
O O19 0.413440 0.500000 0.334336
#
# Coordination Sequence:
#
# PCOD8095253 Si02
#       7
#     8   8   8   8   8   8   8
#     4  10  20  32  48  71  99 133 173 220 272 320
#     4  12  24  37  54  79 113 149 189 234 277 325
#     4  10  20  35  57  83 111 146 184 222 272 331
#     4   9  19  38  63  90 118 144 174 219 274 331
#     4  10  21  38  57  76 103 143 189 235 284 332
#     4   9  18  34  54  76 103 137 179 226 274 325
#     4  10  20  36  59  83 108 142 184 225 269 326
#
# _framework density 19.836476000000001
#
# number of rings (size 3 to 8) (size 9 to 14) (size 15 to 20)
#    0.000    2.000    0.000    3.857    0.000    7.429 
#    0.000    2.143    0.000    0.000    0.000    0.000 
#    0.000    0.000    0.000    0.000    0.000    0.000 
#
# Total GULP energy -347179.689473 kJ/mol
# GULP energy per Si atom -12399.274624 kJ/mol
# Density = 1.979133 g / cm^3
# Si number density = 19.836476 Si / 1000 Ang^3
#
#
#
# Elastic Constant Matrix: (Units=GPa)
#
#
# Indices 1 2 3 4 5 6 
#
# 1 88.5152 52.1273 20.1964 0.0000 19.5971 0.0001
# 2 52.1273 98.9895 32.4019 0.0001 16.7466 0.0004
# 3 20.1964 32.4019 68.8265 0.0000 21.0636 0.0000
# 4 0.0000 0.0001 0.0000 28.0681 0.0000 5.7666
# 5 19.5971 16.7466 21.0636 0.0000 29.0800 0.0000
# 6 0.0001 0.0004 0.0000 5.7666 0.0000 33.8017
#
#
#
# Elastic Compliance Matrix: (Units=1/GPa)
#
#
# Indices 1 2 3 4 5 6 
#
# 1 0.017724 -0.008370 0.001182 0.000000 -0.007980 0.000000
# 2 -0.008370 0.016197 -0.005191 0.000000 0.000074 0.000000
# 3 0.001182 -0.005191 0.020500 0.000000 -0.012655 0.000000
# 4 0.000000 0.000000 0.000000 0.036922 0.000000 -0.006299
# 5 -0.007980 0.000074 -0.012655 0.000000 0.048890 0.000000
# 6 0.000000 0.000000 0.000000 -0.006299 0.000000 0.030659
#
#
# Mechanical properties :
#
#
# Convention : Reuss Voigt Hill
#
# Bulk Modulus (GPa) = 33.71491 51.75363 42.73427
# Shear Modulus (GPa) = 24.32656 28.29699 26.31178
#
# Velocity S-wave (km/s) = 3.50573 3.78102 3.64598
# Velocity P-wave (km/s) = 5.78102 6.72371 6.27011
#
# Compressibility (1/GPa) = 0.02966047
#
# Stress axis : x y z
#
# Youngs Moduli (GPa) = 56.42133 61.74168 48.78163
#
# Poissons Ratio (x) = 0.51678 -0.05765
# Poissons Ratio (y) = 0.47225 0.25324
# Poissons Ratio (z) = -0.06668 0.32053
#
# Static dielectric constant tensor:
#      x y z
#    x 4.100000 0.000000 -0.404460 
#    y 0.000000 3.538630 0.000000 
#    z -0.404460 0.000000 4.309160 
# 
# 
# High freq. dielectric constant tensor:
#      x y z
#    x 1.779800 0.000000 0.012220 
#    y 0.000000 1.767440 0.000000 
#    z 0.012220 0.000000 1.763280 
# 
# From -- ./inp_files/275006.got.cif
#   From: 2010.06.25/outbox.cif.g09.slc.cpg/sg12_138_cif.got.tgz:275006.got - 2010.06.28 00:19:55.
