data_PCOD8095332
_publ_section_title
;
Structure prediction by ZEFSAII (Michael W. Deem and Ramdas Pophale) SiO2 
 PCOD8095332
Probable space group: C 2/M
;
_chemical_formula_sum "Si O2"
_cell_formula_units_Z 56
_cell_length_a 19.024793
_cell_length_b 8.882676
_cell_length_c 20.050912
_cell_angle_alpha 90.000000
_cell_angle_beta 57.407946
_cell_angle_gamma 90.000000
_cell_volume 2854.840014
_symmetry_space_group_name_H-M "C 2/M"
_symmetry_group_IT_number 12
_symmetry_cell_setting 'monoclinic'
loop_
_space_group_symop_operation_xyz
x,y,z
-x,y,-z
-x,-y,-z
x,-y,z
1/2+x,1/2+y,z
1/2-x,1/2+y,-z
1/2-x,1/2-y,-z
1/2+x,1/2-y,z
loop_
_atom_site_type_symbol
_atom_site_label
_atom_site_fract_x
_atom_site_fract_y
_atom_site_fract_z
Si Si1 0.917128 0.177882 0.742882
Si Si2 0.750268 0.673179 0.816536
Si Si3 0.950485 0.678081 0.224939
Si Si4 0.318834 0.171529 0.506654
Si Si5 0.436329 0.677100 0.089500
Si Si6 0.501937 0.178491 0.422070
Si Si7 0.718375 0.328545 0.682078
O O1 0.822568 0.224452 0.812221
O O2 0.979482 0.250680 0.763917
O O3 0.933291 0.236777 0.659018
O O4 0.926523 0.000000 0.740467
O O5 0.770833 0.500000 0.822377
O O6 0.657076 0.716556 0.889284
O O7 0.751598 0.707708 0.737715
O O8 0.960748 0.500000 0.221895
O O9 0.960605 0.735716 0.144164
O O10 0.859074 0.722840 0.299095
O O11 0.250000 0.250000 0.500000
O O12 0.411009 0.226042 0.440927
O O13 0.298690 0.199883 0.594761
O O14 0.311653 0.000000 0.491533
O O15 0.442032 0.500000 0.102487
O O16 0.500000 0.728240 0.000000
O O17 0.500000 0.231853 0.500000
O O18 0.519626 0.000000 0.409255
O O19 0.685671 0.500000 0.693918
#
# Coordination Sequence:
#
# PCOD8095332 Si02
#       7
#     8   8   8   8   8   8   8
#     4  12  24  37  54  79 113 150 192 236 276 324
#     4   9  18  35  59  83 108 141 179 219 269 328
#     4  11  22  36  57  84 114 149 188 228 274 327
#     4  10  20  32  49  73 100 134 176 225 278 328
#     4   9  19  39  66  92 117 144 175 216 270 331
#     4  10  21  38  57  76 103 143 189 235 286 336
#     4   9  18  35  56  77 104 140 183 229 278 332
#
# _framework density 19.615808999999999
#
# number of rings (size 3 to 8) (size 9 to 14) (size 15 to 20)
#    0.000    2.000    0.000    5.143    0.000    8.571 
#    0.000    2.143    0.000    0.000    0.000    0.000 
#    0.000    0.000    0.000    0.000    0.000    0.000 
#
# Total GULP energy -347107.188353 kJ/mol
# GULP energy per Si atom -12396.685298 kJ/mol
# Density = 1.957116 g / cm^3
# Si number density = 19.615809 Si / 1000 Ang^3
#
#
#
# Elastic Constant Matrix: (Units=GPa)
#
#
# Indices 1 2 3 4 5 6 
#
# 1 93.6640 55.7932 32.8160 -0.0001 -11.7704 -0.0004
# 2 55.7932 100.9665 28.4259 0.0001 -6.6404 -0.0013
# 3 32.8160 28.4259 55.7363 0.0001 -19.7923 -0.0001
# 4 -0.0001 0.0001 0.0001 25.0047 0.0000 -1.0195
# 5 -11.7704 -6.6404 -19.7923 0.0000 26.4556 0.0000
# 6 -0.0004 -0.0013 -0.0001 -1.0195 0.0000 34.7956
#
#
#
# Elastic Compliance Matrix: (Units=1/GPa)
#
#
# Indices 1 2 3 4 5 6 
#
# 1 0.017682 -0.008048 -0.005760 0.000000 0.001537 0.000000
# 2 -0.008048 0.015311 -0.004054 0.000000 -0.002770 0.000000
# 3 -0.005760 -0.004054 0.030135 0.000000 0.018965 0.000000
# 4 0.000000 0.000000 0.000000 0.040040 0.000000 0.001173
# 5 0.001537 -0.002770 0.018965 0.000000 0.051976 0.000000
# 6 0.000000 0.000000 0.000000 0.001173 0.000000 0.028774
#
#
# Mechanical properties :
#
#
# Convention : Reuss Voigt Hill
#
# Bulk Modulus (GPa) = 36.49166 53.82633 45.15899
# Shear Modulus (GPa) = 21.85547 26.13996 23.99771
#
# Velocity S-wave (km/s) = 3.34155 3.65443 3.50149
# Velocity P-wave (km/s) = 5.79064 6.73100 6.27845
#
# Compressibility (1/GPa) = 0.02740352
#
# Stress axis : x y z
#
# Youngs Moduli (GPa) = 56.55559 65.31403 33.18398
#
# Poissons Ratio (x) = 0.52565 0.19114
# Poissons Ratio (y) = 0.45516 0.13452
# Poissons Ratio (z) = 0.32576 0.26478
#
# Static dielectric constant tensor:
#      x y z
#    x 3.490470 0.000000 -0.437900 
#    y 0.000000 3.453480 0.000000 
#    z -0.437900 0.000000 3.416130 
# 
# 
# High freq. dielectric constant tensor:
#      x y z
#    x 1.772830 0.000000 -0.012620 
#    y 0.000000 1.750270 0.000000 
#    z -0.012620 0.000000 1.755770 
# 
# From -- ./inp_files/313808.got.cif
#   From: 2010.06.25/outbox.cif.g09.slc.cpg/sg12_157_cif.got.tgz:313808.got - 2010.06.28 00:19:55.
