data_PCOD8095704
_publ_section_title
;
Structure prediction by ZEFSAII (Michael W. Deem and Ramdas Pophale) SiO2 
 PCOD8095704
Probable space group: C 2/M
;
_chemical_formula_sum "Si O2"
_cell_formula_units_Z 56
_cell_length_a 22.773240
_cell_length_b 9.321172
_cell_length_c 16.512956
_cell_angle_alpha 90.000000
_cell_angle_beta 121.450441
_cell_angle_gamma 90.000000
_cell_volume 2990.308057
_symmetry_space_group_name_H-M "C 2/M"
_symmetry_group_IT_number 12
_symmetry_cell_setting 'monoclinic'
loop_
_space_group_symop_operation_xyz
x,y,z
-x,y,-z
-x,-y,-z
x,-y,z
1/2+x,1/2+y,z
1/2-x,1/2+y,-z
1/2-x,1/2-y,-z
1/2+x,1/2-y,z
loop_
_atom_site_type_symbol
_atom_site_label
_atom_site_fract_x
_atom_site_fract_y
_atom_site_fract_z
Si Si1 0.082100 0.340911 0.557921
Si Si2 0.085521 0.830175 0.714160
Si Si3 0.554507 0.833868 0.366773
Si Si4 0.780204 0.835591 0.096787
Si Si5 0.539969 0.659169 0.945393
Si Si6 0.152840 0.664598 0.105452
Si Si7 0.077054 0.335357 0.208477
O O1 0.111565 0.500000 0.597731
O O2 0.110765 0.230631 0.645040
O O3 0.100723 0.291874 0.478796
O O4 0.000000 0.342324 0.500000
O O5 0.142670 0.788974 0.822869
O O6 0.014037 0.761213 0.689765
O O7 0.077512 0.000000 0.699634
O O8 0.600891 0.812137 0.318963
O O9 0.531031 0.000000 0.358645
O O10 0.732964 0.812318 0.143127
O O11 0.779059 0.000000 0.069098
O O12 0.750000 0.750000 0.000000
O O13 0.555588 0.500000 0.921893
O O14 0.492636 0.744270 0.848909
O O15 0.500000 0.648812 0.000000
O O16 0.611324 0.741175 0.010395
O O17 0.130492 0.500000 0.076971
O O18 0.135939 0.712552 0.186363
O O19 0.057355 0.500000 0.178204
#
# Coordination Sequence:
#
# PCOD8095704 Si02
#       7
#     8   8   8   8   8   8   8
#     4   8  15  30  50  72  98 126 158 196 240 290
#     4  10  20  33  49  72 100 129 162 199 243 290
#     4   9  18  31  50  77 102 124 156 198 243 294
#     4  10  23  38  51  70  96 130 171 207 237 282
#     4   9  17  28  43  66  95 124 154 194 242 286
#     4   9  18  34  51  66  90 127 168 203 236 282
#     4   9  17  30  50  72  94 124 160 199 243 287
#
# _framework density 18.727167000000001
#
# number of rings (size 3 to 8) (size 9 to 14) (size 15 to 20)
#    0.000    2.857    0.000    1.714    2.000    6.571 
#    0.000    0.000    0.000    0.857    0.000    0.000 
#    0.000    0.000    0.000    0.000    0.000    1.429 
#
# Total GULP energy -346959.065864 kJ/mol
# GULP energy per Si atom -12391.395209 kJ/mol
# Density = 1.868454 g / cm^3
# Si number density = 18.727167 Si / 1000 Ang^3
#
#
#
# Elastic Constant Matrix: (Units=GPa)
#
#
# Indices 1 2 3 4 5 6 
#
# 1 53.9216 21.2744 27.9881 0.0000 -14.4494 0.0000
# 2 21.2744 76.6298 39.3922 0.0000 -3.6445 0.0000
# 3 27.9881 39.3922 95.3731 0.0000 -23.3138 0.0000
# 4 0.0000 0.0000 0.0000 25.1930 0.0000 -1.3912
# 5 -14.4494 -3.6445 -23.3138 0.0000 30.5770 0.0000
# 6 0.0000 0.0000 0.0000 -1.3912 0.0000 16.2362
#
#
#
# Elastic Compliance Matrix: (Units=1/GPa)
#
#
# Indices 1 2 3 4 5 6 
#
# 1 0.024319 -0.004765 -0.003070 0.000000 0.008583 0.000000
# 2 -0.004765 0.017906 -0.007407 0.000000 -0.005765 0.000000
# 3 -0.003070 -0.007407 0.017053 0.000000 0.010669 0.000000
# 4 0.000000 0.000000 0.000000 0.039882 0.000000 0.003417
# 5 0.008583 -0.005765 0.010669 0.000000 0.044208 0.000000
# 6 0.000000 0.000000 0.000000 0.003417 0.000000 0.061883
#
#
# Mechanical properties :
#
#
# Convention : Reuss Voigt Hill
#
# Bulk Modulus (GPa) = 34.72902 44.80377 39.76639
# Shear Modulus (GPa) = 20.38038 23.55257 21.96648
#
# Velocity S-wave (km/s) = 3.30249 3.55021 3.42859
# Velocity P-wave (km/s) = 5.75559 6.38606 6.07900
#
# Compressibility (1/GPa) = 0.02879437
#
# Stress axis : x y z
#
# Youngs Moduli (GPa) = 41.11975 55.84758 58.63968
#
# Poissons Ratio (x) = 0.26612 0.18005
# Poissons Ratio (y) = 0.19594 0.43432
# Poissons Ratio (z) = 0.12625 0.41364
#
# Static dielectric constant tensor:
#      x y z
#    x 3.406630 0.000000 -0.423860 
#    y 0.000000 3.554090 0.000000 
#    z -0.423860 0.000000 3.596060 
# 
# 
# High freq. dielectric constant tensor:
#      x y z
#    x 1.706210 0.000000 -0.034990 
#    y 0.000000 1.725970 0.000000 
#    z -0.034990 0.000000 1.711060 
# 
# From -- ./inp_files/291975.got.cif
#   From: 2010.06.25/outbox.cif.g09.slc.cpg/sg12_146_cif.got.tgz:291975.got - 2010.06.28 00:19:55.
