data_PCOD8095786
_publ_section_title
;
Structure prediction by ZEFSAII (Michael W. Deem and Ramdas Pophale) SiO2 
 PCOD8095786
Probable space group: C 2/M
;
_chemical_formula_sum "Si O2"
_cell_formula_units_Z 48
_cell_length_a 18.325403
_cell_length_b 9.245326
_cell_length_c 19.068249
_cell_angle_alpha 90.000000
_cell_angle_beta 122.308342
_cell_angle_gamma 90.000000
_cell_volume 2730.472820
_symmetry_space_group_name_H-M "C 2/M"
_symmetry_group_IT_number 12
_symmetry_cell_setting 'monoclinic'
loop_
_space_group_symop_operation_xyz
x,y,z
-x,y,-z
-x,-y,-z
x,-y,z
1/2+x,1/2+y,z
1/2-x,1/2+y,-z
1/2-x,1/2-y,-z
1/2+x,1/2-y,z
loop_
_atom_site_type_symbol
_atom_site_label
_atom_site_fract_x
_atom_site_fract_y
_atom_site_fract_z
Si Si1 0.078430 0.166855 0.093103
Si Si2 0.410807 0.831605 0.250103
Si Si3 0.918459 0.668985 0.415717
Si Si4 0.933475 0.330057 0.770435
Si Si5 0.755022 0.337236 0.835235
Si Si6 0.254985 0.340352 0.336504
O O1 0.049712 0.238928 0.151130
O O2 0.159956 0.247724 0.099694
O O3 0.103262 0.000000 0.119449
O O4 0.000000 0.182084 0.000000
O O5 0.430673 0.790545 0.340707
O O6 0.494377 0.788296 0.248690
O O7 0.330002 0.741633 0.178185
O O8 0.388058 0.000000 0.231397
O O9 0.910658 0.500000 0.424196
O O10 0.830316 0.735435 0.402162
O O11 0.000000 0.732590 0.500000
O O12 0.934788 0.500000 0.790891
O O13 0.840501 0.290288 0.687602
O O14 0.760561 0.500000 0.868801
O O15 0.748597 0.339944 0.748844
O O16 0.276307 0.500000 0.376132
#
# Coordination Sequence:
#
# PCOD8095786 Si02
#       6
#     8   8   8   8   8   8
#     4  10  20  33  50  72  96 122 154 192 234 281
#     4   9  17  31  50  70  95 126 158 194 235 276
#     4   9  17  29  46  68  93 123 158 193 231 276
#     4   9  18  32  50  71  94 123 158 195 235 278
#     4   9  17  30  49  71  94 123 159 193 228 277
#     4   8  15  28  45  65  89 119 155 191 229 275
#
# _framework density 17.579371999999999
#
# number of rings (size 3 to 8) (size 9 to 14) (size 15 to 20)
#    0.000    3.000    0.000    2.000    0.000    6.333 
#    0.000    1.667    0.000    0.000    0.000    0.000 
#    0.000    0.000    0.000    0.000    0.000    0.000 
#
# Total GULP energy -297529.175614 kJ/mol
# GULP energy per Si atom -12397.048984 kJ/mol
# Density = 1.753936 g / cm^3
# Si number density = 17.579372 Si / 1000 Ang^3
#
#
#
# Elastic Constant Matrix: (Units=GPa)
#
#
# Indices 1 2 3 4 5 6 
#
# 1 152.0065 64.2684 48.2177 0.0000 29.1000 0.0000
# 2 64.2684 91.9319 48.5639 0.0000 18.0982 0.0000
# 3 48.2177 48.5639 69.9737 0.0000 23.5244 0.0000
# 4 0.0000 0.0000 0.0000 22.2083 0.0000 8.3597
# 5 29.1000 18.0982 23.5244 0.0000 25.8287 0.0000
# 6 0.0000 0.0000 0.0000 8.3597 0.0000 30.2236
#
#
#
# Elastic Compliance Matrix: (Units=1/GPa)
#
#
# Indices 1 2 3 4 5 6 
#
# 1 0.010583 -0.005383 -0.001176 0.000000 -0.007080 0.000000
# 2 -0.005383 0.019964 -0.010785 0.000000 0.001899 0.000000
# 3 -0.001176 -0.010785 0.028251 0.000000 -0.016848 0.000000
# 4 0.000000 0.000000 0.000000 0.050261 0.000000 -0.013902
# 5 -0.007080 0.001899 -0.016848 0.000000 0.060709 0.000000
# 6 0.000000 0.000000 0.000000 -0.013902 0.000000 0.036932
#
#
# Mechanical properties :
#
#
# Convention : Reuss Voigt Hill
#
# Bulk Modulus (GPa) = 41.47664 70.66798 56.07231
# Shear Modulus (GPa) = 20.04609 25.84293 22.94451
#
# Velocity S-wave (km/s) = 3.38052 3.83831 3.61667
# Velocity P-wave (km/s) = 6.23558 7.74146 7.02896
#
# Compressibility (1/GPa) = 0.02410996
#
# Stress axis : x y z
#
# Youngs Moduli (GPa) = 94.48809 50.08920 35.39743
#
# Poissons Ratio (x) = 0.26965 0.04163
# Poissons Ratio (y) = 0.50867 0.38175
# Poissons Ratio (z) = 0.11113 0.54019
#
# Static dielectric constant tensor:
#      x y z
#    x 3.500090 0.000000 0.327940 
#    y 0.000000 3.406990 0.000000 
#    z 0.327940 0.000000 3.041340 
# 
# 
# High freq. dielectric constant tensor:
#      x y z
#    x 1.680820 0.000000 0.028290 
#    y 0.000000 1.682010 0.000000 
#    z 0.028290 0.000000 1.648930 
# 
# From -- ./inp_files/273622.got.cif
#   From: 2010.06.25/outbox.cif.g09.slc.cpg/sg12_137_cif.got.tgz:273622.got - 2010.06.28 00:19:55.
