data_PCOD8095631
_publ_section_title
;
Structure prediction by ZEFSAII (Michael W. Deem and Ramdas Pophale) SiO2 
 PCOD8095631
Probable space group: C 2/M
;
_chemical_formula_sum "Si O2"
_cell_formula_units_Z 64
_cell_length_a 14.907478
_cell_length_b 17.793026
_cell_length_c 15.580347
_cell_angle_alpha 90.000000
_cell_angle_beta 62.962116
_cell_angle_gamma 90.000000
_cell_volume 3680.997883
_symmetry_space_group_name_H-M "C 2/M"
_symmetry_group_IT_number 12
_symmetry_cell_setting 'monoclinic'
loop_
_space_group_symop_operation_xyz
x,y,z
-x,y,-z
-x,-y,-z
x,-y,z
1/2+x,1/2+y,z
1/2-x,1/2+y,-z
1/2-x,1/2-y,-z
1/2+x,1/2-y,z
loop_
_atom_site_type_symbol
_atom_site_label
_atom_site_fract_x
_atom_site_fract_y
_atom_site_fract_z
Si Si1 0.550062 0.583323 0.111811
Si Si2 0.964063 0.918607 0.420668
Si Si3 0.658771 0.583628 0.894571
Si Si4 0.466087 0.698640 0.729504
Si Si5 0.297796 0.805474 0.735967
Si Si6 0.896293 0.415057 0.574995
Si Si7 0.689969 0.234091 0.616941
Si Si8 0.236872 0.585188 0.532662
O O1 0.566173 0.500000 0.147415
O O2 0.443958 0.582853 0.111976
O O3 0.549588 0.653189 0.176365
O O4 0.638477 0.597266 0.004194
O O5 0.850602 0.887773 0.465959
O O6 0.000000 0.928470 0.500000
O O7 0.040413 0.862089 0.343149
O O8 0.966968 0.000000 0.372885
O O9 0.709422 0.500000 0.859907
O O10 0.720294 0.655514 0.834374
O O11 0.370760 0.752511 0.759460
O O12 0.574556 0.738973 0.673821
O O13 0.364380 0.873636 0.673992
O O14 0.248214 0.763973 0.675537
O O15 0.917663 0.500000 0.593256
O O16 0.812878 0.408645 0.538469
O O17 0.000000 0.376524 0.500000
O O18 0.750000 0.250000 0.500000
O O19 0.686210 0.142544 0.622525
O O20 0.230749 0.500000 0.572187
#
# Coordination Sequence:
#
# PCOD8095631 Si02
#       8
#     8   8   8   8   8   8   8   8
#     4   9  19  39  64  87 111 140 184 243 300 349
#     4  10  20  33  48  71 103 143 189 228 264 320
#     4   9  19  39  64  87 111 140 184 243 300 349
#     4  12  23  33  55  83 115 150 184 232 288 344
#     4  12  23  33  55  83 115 150 184 232 288 344
#     4  10  20  33  48  71 103 143 189 228 264 320
#     4  12  22  36  51  77 114 152 194 232 275 334
#     4  10  20  34  50  66  97 151 194 229 268 310
#
# _framework density 17.386589000000001
#
# number of rings (size 3 to 8) (size 9 to 14) (size 15 to 20)
#    0.000    1.500    3.750    3.000    0.000    0.500 
#    0.000    1.250    0.000    0.000    0.000    0.000 
#    0.000    3.000    0.000    0.000    0.000    0.000 
#
# Total GULP energy -396480.465135 kJ/mol
# GULP energy per Si atom -12390.014535 kJ/mol
# Density = 1.734702 g / cm^3
# Si number density = 17.386589 Si / 1000 Ang^3
#
#
#
# Elastic Constant Matrix: (Units=GPa)
#
#
# Indices 1 2 3 4 5 6 
#
# 1 73.2214 31.2812 33.5358 0.0000 -4.3506 0.0000
# 2 31.2812 122.7366 66.5064 0.0000 -3.4439 0.0000
# 3 33.5358 66.5064 97.4054 0.0000 -4.2110 0.0000
# 4 0.0000 0.0000 0.0000 40.3762 0.0000 -2.2571
# 5 -4.3506 -3.4439 -4.2110 0.0000 18.7775 0.0000
# 6 0.0000 0.0000 0.0000 -2.2571 0.0000 33.3562
#
#
#
# Elastic Compliance Matrix: (Units=1/GPa)
#
#
# Indices 1 2 3 4 5 6 
#
# 1 0.016575 -0.001778 -0.004383 0.000000 0.002531 0.000000
# 2 -0.001778 0.013126 -0.008344 0.000000 0.000124 0.000000
# 3 -0.004383 -0.008344 0.017533 0.000000 0.001386 0.000000
# 4 0.000000 0.000000 0.000000 0.024861 0.000000 0.001682
# 5 0.002531 0.000124 0.001386 0.000000 0.054175 0.000000
# 6 0.000000 0.000000 0.000000 0.001682 0.000000 0.030093
#
#
# Mechanical properties :
#
#
# Convention : Reuss Voigt Hill
#
# Bulk Modulus (GPa) = 54.87898 61.77892 58.32895
# Shear Modulus (GPa) = 26.11678 29.30465 27.71072
#
# Velocity S-wave (km/s) = 3.87993 4.10991 3.99657
# Velocity P-wave (km/s) = 7.19057 7.62440 7.41066
#
# Compressibility (1/GPa) = 0.01822191
#
# Stress axis : x y z
#
# Youngs Moduli (GPa) = 60.33283 76.18615 57.03655
#
# Poissons Ratio (x) = 0.13549 0.24998
# Poissons Ratio (y) = 0.10729 0.47593
# Poissons Ratio (z) = 0.26443 0.63572
#
# Static dielectric constant tensor:
#      x y z
#    x 3.110820 0.000000 -0.089380 
#    y 0.000000 3.809850 0.000000 
#    z -0.089380 0.000000 3.174810 
# 
# 
# High freq. dielectric constant tensor:
#      x y z
#    x 1.662270 0.000000 -0.004070 
#    y 0.000000 1.691390 0.000000 
#    z -0.004070 0.000000 1.649240 
# 
# From -- ./inp_files/216350.got.cif
#   From: 2010.06.25/outbox.cif.g09.slc.cpg/sg12_109_cif.got.tgz:216350.got - 2010.06.28 00:19:55.
