data_PCOD8095551
_publ_section_title
;
Structure prediction by ZEFSAII (Michael W. Deem and Ramdas Pophale) SiO2 
 PCOD8095551
Probable space group: C 2/M
;
_chemical_formula_sum "Si O2"
_cell_formula_units_Z 52
_cell_length_a 15.043088
_cell_length_b 17.686687
_cell_length_c 11.232906
_cell_angle_alpha 90.000000
_cell_angle_beta 87.425216
_cell_angle_gamma 90.000000
_cell_volume 2985.636572
_symmetry_space_group_name_H-M "C 2/M"
_symmetry_group_IT_number 12
_symmetry_cell_setting 'monoclinic'
loop_
_space_group_symop_operation_xyz
x,y,z
-x,y,-z
-x,-y,-z
x,-y,z
1/2+x,1/2+y,z
1/2-x,1/2+y,-z
1/2-x,1/2-y,-z
1/2+x,1/2-y,z
loop_
_atom_site_type_symbol
_atom_site_label
_atom_site_fract_x
_atom_site_fract_y
_atom_site_fract_z
Si Si1 0.082786 0.758176 0.658141
Si Si2 0.615965 0.265196 0.385521
Si Si3 0.102869 0.500000 0.965102
Si Si4 0.991689 0.500000 0.640652
Si Si5 0.242682 0.859254 0.669442
Si Si6 0.811373 0.500000 0.785415
Si Si7 0.786366 0.083174 0.582554
Si Si8 0.623458 0.105593 0.754105
O O1 0.105135 0.734887 0.520862
O O2 0.139836 0.832566 0.687190
O O3 0.117212 0.695674 0.749055
O O4 0.977026 0.767282 0.680114
O O5 0.688344 0.211015 0.317393
O O6 0.644290 0.352769 0.382921
O O7 0.125475 0.575716 0.889177
O O8 0.159365 0.500000 0.080603
O O9 0.000000 0.500000 0.000000
O O10 0.036566 0.574693 0.691293
O O11 0.000000 0.500000 0.500000
O O12 0.889834 0.500000 0.684621
O O13 0.259304 0.895496 0.539451
O O14 0.255401 0.923340 0.768489
O O15 0.710992 0.075425 0.685673
O O16 0.832754 0.000000 0.569734
#
# Coordination Sequence:
#
# PCOD8095551 Si02
#       8
#     8   8   4   4   8   4   8   8
#     4  10  20  34  53  85 114 154 180 227 278 338
#     4  10  20  32  55  85 123 149 182 226 284 343
#     4  11  24  40  50  85 113 146 186 243 291 334
#     4  11  21  28  52  87 104 137 180 216 284 357
#     4  11  20  36  56  82 122 143 190 234 283 340
#     4  12  23  37  54  78 114 152 182 234 297 322
#     4  11  18  34  55  87 113 149 186 231 278 343
#     4  11  19  34  57  74 115 141 181 231 281 334
#
# _framework density 17.416720999999999
#
# number of rings (size 3 to 8) (size 9 to 14) (size 15 to 20)
#    0.000    1.231    6.923    2.769    2.154    0.000 
#    1.385    2.308    0.000    0.000    0.000    1.077 
#    0.000    0.000    0.000    0.000    0.000    0.000 
#
# Total GULP energy -322343.398182 kJ/mol
# GULP energy per Si atom -12397.823007 kJ/mol
# Density = 1.737708 g / cm^3
# Si number density = 17.416721 Si / 1000 Ang^3
#
#
#
# Elastic Constant Matrix: (Units=GPa)
#
#
# Indices 1 2 3 4 5 6 
#
# 1 91.1336 49.3429 30.7782 0.0000 10.0022 0.0000
# 2 49.3429 136.9748 39.5791 0.0000 8.9036 0.0000
# 3 30.7782 39.5791 91.8353 0.0000 14.2949 0.0000
# 4 0.0000 0.0000 0.0000 36.5808 0.0000 11.1666
# 5 10.0022 8.9036 14.2949 0.0000 20.9654 0.0000
# 6 0.0000 0.0000 0.0000 11.1666 0.0000 31.7157
#
#
#
# Elastic Compliance Matrix: (Units=1/GPa)
#
#
# Indices 1 2 3 4 5 6 
#
# 1 0.014507 -0.004287 -0.002484 0.000000 -0.003407 0.000000
# 2 -0.004287 0.009634 -0.002681 0.000000 -0.000218 0.000000
# 3 -0.002484 -0.002681 0.014002 0.000000 -0.007223 0.000000
# 4 0.000000 0.000000 0.000000 0.030629 0.000000 -0.010784
# 5 -0.003407 -0.000218 -0.007223 0.000000 0.054340 0.000000
# 6 0.000000 0.000000 0.000000 -0.010784 0.000000 0.035327
#
#
# Mechanical properties :
#
#
# Convention : Reuss Voigt Hill
#
# Bulk Modulus (GPa) = 51.98124 62.14934 57.06529
# Shear Modulus (GPa) = 27.21025 31.20195 29.20610
#
# Velocity S-wave (km/s) = 3.95689 4.23720 4.09944
# Velocity P-wave (km/s) = 7.12645 7.72655 7.43256
#
# Compressibility (1/GPa) = 0.01923771
#
# Stress axis : x y z
#
# Youngs Moduli (GPa) = 68.93400 103.80192 71.42081
#
# Poissons Ratio (x) = 0.44495 0.17742
# Poissons Ratio (y) = 0.29549 0.19151
# Poissons Ratio (z) = 0.17124 0.27833
#
# Static dielectric constant tensor:
#      x y z
#    x 3.228710 0.000000 -0.131990 
#    y 0.000000 3.322580 0.000000 
#    z -0.131990 0.000000 2.692000 
# 
# 
# High freq. dielectric constant tensor:
#      x y z
#    x 1.669750 0.000000 -0.001070 
#    y 0.000000 1.683430 0.000000 
#    z -0.001070 0.000000 1.627660 
# 
# From -- ./inp_files/144867.got.cif
#   From: 2010.06.25/outbox.cif.g09.slc.cpg/sg12_73_cif.got.tgz:144867.got - 2010.06.28 00:19:55.
