data_PCOD8095590
_publ_section_title
;
Structure prediction by ZEFSAII (Michael W. Deem and Ramdas Pophale) SiO2 
 PCOD8095590
Probable space group: C 2/M
;
_chemical_formula_sum "Si O2"
_cell_formula_units_Z 64
_cell_length_a 24.951884
_cell_length_b 8.914705
_cell_length_c 22.302779
_cell_angle_alpha 90.000000
_cell_angle_beta 129.281818
_cell_angle_gamma 90.000000
_cell_volume 3840.018866
_symmetry_space_group_name_H-M "C 2/M"
_symmetry_group_IT_number 12
_symmetry_cell_setting 'monoclinic'
loop_
_space_group_symop_operation_xyz
x,y,z
-x,y,-z
-x,-y,-z
x,-y,z
1/2+x,1/2+y,z
1/2-x,1/2+y,-z
1/2-x,1/2-y,-z
1/2+x,1/2-y,z
loop_
_atom_site_type_symbol
_atom_site_label
_atom_site_fract_x
_atom_site_fract_y
_atom_site_fract_z
Si Si1 0.929688 0.177415 0.710214
Si Si2 0.362897 0.165492 0.838068
Si Si3 0.071602 0.832541 0.014875
Si Si4 0.654289 0.173202 0.569842
Si Si5 0.203302 0.678645 0.328293
Si Si6 0.940458 0.169056 0.408777
Si Si7 0.464265 0.826770 0.611625
Si Si8 0.995615 0.333020 0.133811
O O1 0.856777 0.255185 0.672768
O O2 0.951939 0.223490 0.659895
O O3 0.989912 0.230632 0.798143
O O4 0.921091 0.000000 0.709102
O O5 0.366668 0.270855 0.899063
O O6 0.308406 0.225057 0.749866
O O7 0.436664 0.158489 0.858538
O O8 0.341644 0.000000 0.845191
O O9 0.091643 0.000000 0.010472
O O10 0.000000 0.828607 0.000000
O O11 0.066038 0.736609 0.949935
O O12 0.724601 0.253132 0.598638
O O13 0.626955 0.252549 0.610834
O O14 0.600879 0.192598 0.478057
O O15 0.668135 0.000000 0.594199
O O16 0.202430 0.500000 0.335279
O O17 0.000000 0.164766 0.500000
O O18 0.966026 0.267180 0.370688
O O19 0.921525 0.000000 0.374867
O O20 0.474638 0.000000 0.637235
O O21 0.973859 0.500000 0.139178
#
# Coordination Sequence:
#
# PCOD8095590 Si02
#       8
#     8   8   8   8   8   8   8   8
#     4  11  21  32  46  65  91 122 156 191 228 272
#     4   8  15  26  39  56  80 113 148 181 220 264
#     4   9  15  22  36  58  81 108 144 183 219 258
#     4  10  20  33  50  70  91 118 152 190 230 272
#     4  10  20  33  47  64  91 125 157 189 227 272
#     4   9  17  31  51  72  91 112 143 186 233 274
#     4  10  20  34  50  68  91 119 152 189 230 274
#     4   9  16  27  41  57  82 115 148 182 221 265
#
# _framework density 16.666585999999999
#
# number of rings (size 3 to 8) (size 9 to 14) (size 15 to 20)
#    0.000    2.500    0.000    4.125    0.000    8.500 
#    0.000    0.000    0.000    0.000    0.000    0.000 
#    0.000    1.000    0.000    3.750    0.000    7.000 
#
# Total GULP energy -396741.217900 kJ/mol
# GULP energy per Si atom -12398.163059 kJ/mol
# Density = 1.662865 g / cm^3
# Si number density = 16.666586 Si / 1000 Ang^3
#
#
#
# Elastic Constant Matrix: (Units=GPa)
#
#
# Indices 1 2 3 4 5 6 
#
# 1 49.1783 21.8099 19.7345 0.0000 -15.0320 0.0000
# 2 21.8099 112.9601 30.1726 0.0000 -12.6491 0.0000
# 3 19.7345 30.1726 47.7565 0.0000 -14.7968 0.0000
# 4 0.0000 0.0000 0.0000 28.1469 0.0000 -4.1600
# 5 -15.0320 -12.6491 -14.7968 0.0000 6.8934 0.0000
# 6 0.0000 0.0000 0.0000 -4.1600 0.0000 24.6278
#
#
#
# Elastic Compliance Matrix: (Units=1/GPa)
#
#
# Indices 1 2 3 4 5 6 
#
# 1 0.155040 0.005922 0.120356 0.000000 0.607300 0.000000
# 2 0.005922 0.011440 0.002479 0.000000 0.039226 0.000000
# 3 0.120356 0.002479 0.156351 0.000000 0.602612 0.000000
# 4 0.000000 0.000000 0.000000 0.036438 0.000000 0.006155
# 5 0.607300 0.039226 0.602612 0.000000 2.834871 0.000000
# 6 0.000000 0.000000 0.000000 0.006155 0.000000 0.041644
#
#
# Mechanical properties :
#
#
# Convention : Reuss Voigt Hill
#
# Bulk Modulus (GPa) = 1.72312 39.25877 20.49095
# Shear Modulus (GPa) = 1.57643 21.14548 11.36095
#
# Velocity S-wave (km/s) = 0.97361 3.56579 2.61370
# Velocity P-wave (km/s) = 1.51658 6.36865 4.62924
#
# Compressibility (1/GPa) = 0.58034354
#
# Stress axis : x y z
#
# Youngs Moduli (GPa) = 6.44994 87.41575 6.39587
#
# Poissons Ratio (x) = -0.51765 -0.76978
# Poissons Ratio (y) = -0.03819 -0.01586
# Poissons Ratio (z) = -0.77629 -0.21670
#
# Static dielectric constant tensor:
#      x y z
#    x 2.751910 0.000000 -0.077600 
#    y 0.000000 3.362770 0.000000 
#    z -0.077600 0.000000 3.191210 
# 
# 
# High freq. dielectric constant tensor:
#      x y z
#    x 1.590100 0.000000 -0.013110 
#    y 0.000000 1.662360 0.000000 
#    z -0.013110 0.000000 1.631060 
# 
# From -- ./inp_files/324240.got.cif
#   From: 2010.06.25/outbox.cif.g09.slc.cpg/sg12_163_cif.got.tgz:324240.got - 2010.06.28 00:19:55.
