data_PCOD8095497
_publ_section_title
;
Structure prediction by ZEFSAII (Michael W. Deem and Ramdas Pophale) SiO2 
 PCOD8095497
Probable space group: C 2/M
;
_chemical_formula_sum "Si O2"
_cell_formula_units_Z 56
_cell_length_a 30.938100
_cell_length_b 7.913512
_cell_length_c 19.125762
_cell_angle_alpha 90.000000
_cell_angle_beta 140.481766
_cell_angle_gamma 90.000000
_cell_volume 2979.612489
_symmetry_space_group_name_H-M "C 2/M"
_symmetry_group_IT_number 12
_symmetry_cell_setting 'monoclinic'
loop_
_space_group_symop_operation_xyz
x,y,z
-x,y,-z
-x,-y,-z
x,-y,z
1/2+x,1/2+y,z
1/2-x,1/2+y,-z
1/2-x,1/2-y,-z
1/2+x,1/2-y,z
loop_
_atom_site_type_symbol
_atom_site_label
_atom_site_fract_x
_atom_site_fract_y
_atom_site_fract_z
Si Si1 0.386107 0.192274 0.104156
Si Si2 0.187000 0.697766 0.124341
Si Si3 0.535931 0.802935 0.247794
Si Si4 0.656379 0.301757 0.665934
Si Si5 0.556388 0.808935 0.428266
Si Si6 0.396827 0.500000 0.917000
Si Si7 0.911961 0.812052 0.283778
Si Si8 0.546961 0.500000 0.163242
O O1 0.456678 0.244161 0.156105
O O2 0.374063 0.282657 0.162929
O O3 0.390187 0.000000 0.131144
O O4 0.326254 0.231849 0.974776
O O5 0.169235 0.500000 0.119771
O O6 0.264526 0.742316 0.235678
O O7 0.142223 0.826630 0.113477
O O8 0.572003 0.763025 0.367047
O O9 0.566012 0.671698 0.229123
O O10 0.546622 0.000000 0.237979
O O11 0.644370 0.500000 0.644363
O O12 0.624080 0.218468 0.556862
O O13 0.621499 0.215762 0.691427
O O14 0.492921 0.707347 0.380395
O O15 0.530946 0.000000 0.399023
O O16 0.405594 0.500000 0.844986
O O17 0.468122 0.500000 0.045310
O O18 0.894995 0.000000 0.283629
#
# Coordination Sequence:
#
# PCOD8095497 Si02
#       8
#     8   8   8   8   8   4   8   4
#     4   9  18  33  53  77 111 151 186 225 281 328
#     4  10  22  40  57  78 117 154 188 229 278 341
#     4   9  19  35  56  86 116 145 181 227 285 337
#     4  10  22  37  52  78 109 154 197 230 279 329
#     4  10  21  34  53  82 110 147 192 237 280 325
#     4  11  24  38  60  96 112 142 185 223 286 349
#     4  10  20  32  52  80 113 146 191 244 278 318
#     4  11  22  36  64  94 116 135 182 230 281 353
#
# _framework density 18.794391000000001
#
# number of rings (size 3 to 8) (size 9 to 14) (size 15 to 20)
#    0.000    2.143    1.429    2.143    7.000    4.000 
#    0.000    1.429    0.000    0.857    0.000    0.000 
#    0.000    0.000    0.000    0.000    0.000    0.000 
#
# Total GULP energy -347035.932427 kJ/mol
# GULP energy per Si atom -12394.140444 kJ/mol
# Density = 1.875161 g / cm^3
# Si number density = 18.794391 Si / 1000 Ang^3
#
#
#
# Elastic Constant Matrix: (Units=GPa)
#
#
# Indices 1 2 3 4 5 6 
#
# 1 94.7431 50.7037 62.3327 0.0000 -17.9315 0.0000
# 2 50.7037 78.7964 33.4913 0.0000 -12.6281 0.0000
# 3 62.3327 33.4913 113.0952 0.0000 -21.5909 0.0000
# 4 0.0000 0.0000 0.0000 25.9524 0.0000 -8.8223
# 5 -17.9315 -12.6281 -21.5909 0.0000 20.3193 0.0000
# 6 0.0000 0.0000 0.0000 -8.8223 0.0000 9.2566
#
#
#
# Elastic Compliance Matrix: (Units=1/GPa)
#
#
# Indices 1 2 3 4 5 6 
#
# 1 0.022385 -0.010076 -0.008503 0.000000 0.004458 0.000000
# 2 -0.010076 0.019578 0.000478 0.000000 0.003783 0.000000
# 3 -0.008503 0.000478 0.015068 0.000000 0.008804 0.000000
# 4 0.000000 0.000000 0.000000 0.056999 0.000000 0.054325
# 5 0.004458 0.003783 0.008804 0.000000 0.064855 0.000000
# 6 0.000000 0.000000 0.000000 0.054325 0.000000 0.159807
#
#
# Mechanical properties :
#
#
# Convention : Reuss Voigt Hill
#
# Bulk Modulus (GPa) = 48.00978 64.41000 56.20989
# Shear Modulus (GPa) = 13.09466 20.44612 16.77039
#
# Velocity S-wave (km/s) = 2.64243 3.30189 2.99039
# Velocity P-wave (km/s) = 5.90848 6.99156 6.47271
#
# Compressibility (1/GPa) = 0.02082909
#
# Stress axis : x y z
#
# Youngs Moduli (GPa) = 44.67322 51.07860 66.36747
#
# Poissons Ratio (x) = 0.51466 0.56430
# Poissons Ratio (y) = 0.45012 -0.03172
# Poissons Ratio (z) = 0.37984 -0.02441
#
# Static dielectric constant tensor:
#      x y z
#    x 3.247870 0.000000 -0.065110 
#    y 0.000000 3.476490 0.000000 
#    z -0.065110 0.000000 3.766160 
# 
# 
# High freq. dielectric constant tensor:
#      x y z
#    x 1.699980 0.000000 -0.021880 
#    y 0.000000 1.737170 0.000000 
#    z -0.021880 0.000000 1.729930 
# 
# From -- ./inp_files/292634.got.cif
#   From: 2010.06.25/outbox.cif.g09.slc.cpg/sg12_147_cif.got.tgz:292634.got - 2010.06.28 00:19:55.
