data_PCOD8095653
_publ_section_title
;
Structure prediction by ZEFSAII (Michael W. Deem and Ramdas Pophale) SiO2 
 PCOD8095653
Probable space group: C 2/M
;
_chemical_formula_sum "Si O2"
_cell_formula_units_Z 64
_cell_length_a 20.175607
_cell_length_b 9.826598
_cell_length_c 23.067882
_cell_angle_alpha 90.000000
_cell_angle_beta 58.938756
_cell_angle_gamma 90.000000
_cell_volume 3917.633868
_symmetry_space_group_name_H-M "C 2/M"
_symmetry_group_IT_number 12
_symmetry_cell_setting 'monoclinic'
loop_
_space_group_symop_operation_xyz
x,y,z
-x,y,-z
-x,-y,-z
x,-y,z
1/2+x,1/2+y,z
1/2-x,1/2+y,-z
1/2-x,1/2-y,-z
1/2+x,1/2-y,z
loop_
_atom_site_type_symbol
_atom_site_label
_atom_site_fract_x
_atom_site_fract_y
_atom_site_fract_z
Si Si1 0.174711 0.851094 0.198121
Si Si2 0.791967 0.340277 0.527999
Si Si3 0.270527 0.159397 0.045300
Si Si4 0.415514 0.161954 0.054411
Si Si5 0.248718 0.844585 0.677669
Si Si6 0.398937 0.156472 0.686136
Si Si7 0.032718 0.338756 0.544419
Si Si8 0.828418 0.651861 0.203940
O O1 0.200814 0.813958 0.121625
O O2 0.113992 0.741237 0.249272
O O3 0.249384 0.854101 0.204608
O O4 0.135170 0.000000 0.216953
O O5 0.784627 0.500000 0.516502
O O6 0.750000 0.250000 0.500000
O O7 0.755713 0.308358 0.607022
O O8 0.880261 0.289967 0.485556
O O9 0.275529 0.000000 0.026253
O O10 0.250000 0.250000 0.000000
O O11 0.351897 0.210837 0.036160
O O12 0.415317 0.000000 0.054492
O O13 0.500000 0.221328 0.000000
O O14 0.393399 0.209434 0.129882
O O15 0.331865 0.819090 0.669273
O O16 0.181816 0.751188 0.736407
O O17 0.222921 0.000000 0.698294
O O18 0.479253 0.208039 0.622120
O O19 0.403011 0.000000 0.703034
O O20 0.028973 0.500000 0.540278
O O21 0.000000 0.273121 0.500000
O O22 0.850071 0.500000 0.216486
#
# Coordination Sequence:
#
# PCOD8095653 Si02
#       8
#     8   8   8   8   8   8   8   8
#     4   8  15  27  41  63  95 123 145 177 228 276
#     4  10  20  33  49  68  93 124 154 186 227 274
#     4   9  17  29  47  69  93 123 154 185 224 270
#     4   8  14  27  48  71  92 116 150 191 229 263
#     4   9  16  27  45  68  91 116 147 185 228 270
#     4   9  15  25  47  73  89 108 148 196 231 260
#     4   9  15  28  50  72  91 114 150 194 232 264
#     4   8  14  25  44  68  90 114 147 186 225 265
#
# _framework density 16.336390000000002
#
# number of rings (size 3 to 8) (size 9 to 14) (size 15 to 20)
#    0.000    3.250    1.250    1.500    0.000    1.000 
#    0.000    2.500    2.750    2.250    0.000    0.000 
#    0.000    0.000    0.000    0.000    0.000    0.000 
#
# Total GULP energy -396602.782391 kJ/mol
# GULP energy per Si atom -12393.836950 kJ/mol
# Density = 1.629921 g / cm^3
# Si number density = 16.336390 Si / 1000 Ang^3
#
#
#
# Elastic Constant Matrix: (Units=GPa)
#
#
# Indices 1 2 3 4 5 6 
#
# 1 68.6647 39.3530 62.5956 0.0000 -1.3774 0.0001
# 2 39.3530 69.3049 72.7451 0.0001 4.9745 0.0003
# 3 62.5956 72.7451 152.8264 0.0000 -4.5374 0.0000
# 4 0.0000 0.0001 0.0000 30.1511 0.0000 5.1024
# 5 -1.3774 4.9745 -4.5374 0.0000 24.8530 0.0000
# 6 0.0001 0.0003 0.0000 5.1024 0.0000 19.9458
#
#
#
# Elastic Compliance Matrix: (Units=1/GPa)
#
#
# Indices 1 2 3 4 5 6 
#
# 1 0.024815 -0.007165 -0.006706 0.000000 0.001585 0.000000
# 2 -0.007165 0.032726 -0.012919 0.000000 -0.009306 0.000000
# 3 -0.006706 -0.012919 0.015590 0.000000 0.005060 0.000000
# 4 0.000000 0.000000 0.000000 0.034667 0.000000 -0.008868
# 5 0.001585 -0.009306 0.005060 0.000000 0.043111 0.000000
# 6 0.000000 0.000000 0.000000 -0.008868 0.000000 0.052404
#
#
# Mechanical properties :
#
#
# Convention : Reuss Voigt Hill
#
# Bulk Modulus (GPa) = 51.15113 71.13147 61.14130
# Shear Modulus (GPa) = 18.98173 22.73014 20.85593
#
# Velocity S-wave (km/s) = 3.41241 3.73417 3.57691
# Velocity P-wave (km/s) = 6.84873 7.88849 7.38693
#
# Compressibility (1/GPa) = 0.01954991
#
# Stress axis : x y z
#
# Youngs Moduli (GPa) = 40.29743 30.55697 64.14465
#
# Poissons Ratio (x) = 0.21895 0.43017
# Poissons Ratio (y) = 0.28875 0.82867
# Poissons Ratio (z) = 0.27025 0.39476
#
# Static dielectric constant tensor:
#      x y z
#    x 2.826810 0.000000 -0.177120 
#    y 0.000000 3.010350 0.000000 
#    z -0.177120 0.000000 3.436970 
# 
# 
# High freq. dielectric constant tensor:
#      x y z
#    x 1.589750 0.000000 -0.003660 
#    y 0.000000 1.604410 0.000000 
#    z -0.003660 0.000000 1.642380 
# 
# From -- ./inp_files/320961.got.cif
#   From: 2010.06.25/outbox.cif.g09.slc.cpg/sg12_161_cif.got.tgz:320961.got - 2010.06.28 00:19:55.
