data_PCOD8095101
_publ_section_title
;
Structure prediction by ZEFSAII (Michael W. Deem and Ramdas Pophale) SiO2 
 PCOD8095101
Probable space group: C 2/M
;
_chemical_formula_sum "Si O2"
_cell_formula_units_Z 64
_cell_length_a 27.491459
_cell_length_b 9.235500
_cell_length_c 22.423003
_cell_angle_alpha 90.000000
_cell_angle_beta 132.728103
_cell_angle_gamma 90.000000
_cell_volume 4182.078551
_symmetry_space_group_name_H-M "C 2/M"
_symmetry_group_IT_number 12
_symmetry_cell_setting 'monoclinic'
loop_
_space_group_symop_operation_xyz
x,y,z
-x,y,-z
-x,-y,-z
x,-y,z
1/2+x,1/2+y,z
1/2-x,1/2+y,-z
1/2-x,1/2-y,-z
1/2+x,1/2-y,z
loop_
_atom_site_type_symbol
_atom_site_label
_atom_site_fract_x
_atom_site_fract_y
_atom_site_fract_z
Si Si1 0.905921 0.164792 0.647813
Si Si2 0.653775 0.328548 0.528555
Si Si3 0.838285 0.335061 0.062373
Si Si4 0.577962 0.166578 0.566949
Si Si5 0.629124 0.830408 0.738532
Si Si6 0.728708 0.334096 0.889783
Si Si7 0.767340 0.831612 0.574420
Si Si8 0.536039 0.164804 0.768829
O O1 0.882434 0.217831 0.562887
O O2 0.846947 0.183070 0.647662
O O3 0.968665 0.250973 0.723538
O O4 0.928207 0.000000 0.661109
O O5 0.664941 0.500000 0.541810
O O6 0.609757 0.274123 0.546142
O O7 0.725587 0.248035 0.591810
O O8 0.820538 0.500000 0.069042
O O9 0.807320 0.216365 0.080072
O O10 0.918014 0.316972 0.133528
O O11 0.807916 0.312475 0.970103
O O12 0.500000 0.187567 0.500000
O O13 0.603578 0.216197 0.652781
O O14 0.597202 0.000000 0.569136
O O15 0.700917 0.756854 0.810626
O O16 0.575937 0.777784 0.743772
O O17 0.640039 0.000000 0.752479
O O18 0.711841 0.500000 0.862549
O O19 0.750000 0.750000 0.500000
O O20 0.746837 0.000000 0.553409
O O21 0.515740 0.000000 0.740866
#
# Coordination Sequence:
#
# PCOD8095101 Si02
#       8
#     8   8   8   8   8   8   8   8
#     4   9  18  29  41  61  86 108 133 169 210 248
#     4  10  20  32  45  62  84 110 142 180 215 246
#     4   8  15  26  37  54  80 107 136 168 202 243
#     4  10  20  33  47  61  81 114 150 178 209 248
#     4   9  18  30  41  57  82 110 143 178 207 241
#     4   9  15  24  40  57  75 104 139 172 206 242
#     4   9  17  30  46  63  83 107 137 173 212 253
#     4   9  16  26  41  59  82 112 141 169 201 243
#
# _framework density 15.303394000000001
#
# number of rings (size 3 to 8) (size 9 to 14) (size 15 to 20)
#    0.000    2.875    0.000    3.375    0.000    7.250 
#    0.000    0.000    0.000    0.000    0.000    0.000 
#    0.000    1.000    0.000   11.250    0.000    5.250 
#
# Total GULP energy -396466.113396 kJ/mol
# GULP energy per Si atom -12389.566044 kJ/mol
# Density = 1.526856 g / cm^3
# Si number density = 15.303394 Si / 1000 Ang^3
#
#
#
# Elastic Constant Matrix: (Units=GPa)
#
#
# Indices 1 2 3 4 5 6 
#
# 1 58.1776 33.2240 35.3222 0.0000 13.1142 0.0000
# 2 33.2240 65.3847 41.8429 0.0000 11.0468 0.0000
# 3 35.3222 41.8429 116.9369 0.0000 11.9282 0.0000
# 4 0.0000 0.0000 0.0000 25.6589 0.0000 4.3120
# 5 13.1142 11.0468 11.9282 0.0000 16.9925 0.0000
# 6 0.0000 0.0000 0.0000 4.3120 0.0000 23.9504
#
#
#
# Elastic Compliance Matrix: (Units=1/GPa)
#
#
# Indices 1 2 3 4 5 6 
#
# 1 0.027744 -0.009636 -0.003648 0.000000 -0.012586 0.000000
# 2 -0.009636 0.024400 -0.005343 0.000000 -0.004675 0.000000
# 3 -0.003648 -0.005343 0.011767 0.000000 -0.001970 0.000000
# 4 0.000000 0.000000 0.000000 0.040189 0.000000 -0.007236
# 5 -0.012586 -0.004675 -0.001970 0.000000 0.072985 0.000000
# 6 0.000000 0.000000 0.000000 -0.007236 0.000000 0.043056
#
#
# Mechanical properties :
#
#
# Convention : Reuss Voigt Hill
#
# Bulk Modulus (GPa) = 37.51725 51.25305 44.38515
# Shear Modulus (GPa) = 18.77714 21.99436 20.38575
#
# Velocity S-wave (km/s) = 3.50664 3.79518 3.65376
# Velocity P-wave (km/s) = 6.40033 7.26420 6.84590
#
# Compressibility (1/GPa) = 0.02665441
#
# Stress axis : x y z
#
# Youngs Moduli (GPa) = 36.04368 40.98395 84.98625
#
# Poissons Ratio (x) = 0.39494 0.31007
# Poissons Ratio (y) = 0.34733 0.45410
# Poissons Ratio (z) = 0.13150 0.21899
#
# Static dielectric constant tensor:
#      x y z
#    x 2.863060 0.000000 0.208710 
#    y 0.000000 3.017580 0.000000 
#    z 0.208710 0.000000 3.192000 
# 
# 
# High freq. dielectric constant tensor:
#      x y z
#    x 1.539090 0.000000 0.020940 
#    y 0.000000 1.596880 0.000000 
#    z 0.020940 0.000000 1.583160 
# 
# From -- ./inp_files/326803.got.cif
#   From: 2010.06.25/outbox.cif.g09.slc.cpg/sg12_164_cif.got.tgz:326803.got - 2010.06.28 00:19:55.
