data_PCOD8095569
_publ_section_title
;
Structure prediction by ZEFSAII (Michael W. Deem and Ramdas Pophale) SiO2 
 PCOD8095569
Probable space group: C 2/M
;
_chemical_formula_sum "Si O2"
_cell_formula_units_Z 60
_cell_length_a 29.129226
_cell_length_b 8.940452
_cell_length_c 12.450342
_cell_angle_alpha 90.000000
_cell_angle_beta 72.692144
_cell_angle_gamma 90.000000
_cell_volume 3095.606360
_symmetry_space_group_name_H-M "C 2/M"
_symmetry_group_IT_number 12
_symmetry_cell_setting 'monoclinic'
loop_
_space_group_symop_operation_xyz
x,y,z
-x,y,-z
-x,-y,-z
x,-y,z
1/2+x,1/2+y,z
1/2-x,1/2+y,-z
1/2-x,1/2-y,-z
1/2+x,1/2-y,z
loop_
_atom_site_type_symbol
_atom_site_label
_atom_site_fract_x
_atom_site_fract_y
_atom_site_fract_z
Si Si1 0.099761 0.675238 0.111383
Si Si2 0.902006 0.827142 0.310942
Si Si3 0.162020 0.177123 0.245569
Si Si4 0.500000 0.752034 0.500000
Si Si5 0.860244 0.173378 0.113689
Si Si6 0.246253 0.175420 0.886946
Si Si7 0.604659 0.834503 0.468536
Si Si8 0.510093 0.664085 0.257939
O O1 0.109245 0.500000 0.119177
O O2 0.138993 0.767761 0.150479
O O3 0.046386 0.710683 0.190389
O O4 0.105485 0.724791 0.984205
O O5 0.871107 0.783199 0.228761
O O6 0.883442 0.726713 0.421762
O O7 0.957958 0.794373 0.247307
O O8 0.895091 0.000000 0.348026
O O9 0.214371 0.251999 0.219878
O O10 0.128551 0.223367 0.367271
O O11 0.167131 0.000000 0.238515
O O12 0.547585 0.850244 0.487099
O O13 0.508423 0.652484 0.388489
O O14 0.804857 0.210104 0.130496
O O15 0.872368 0.000000 0.083472
O O16 0.255781 0.000000 0.892526
O O17 0.250000 0.250000 0.000000
O O18 0.626982 0.000000 0.441370
O O19 0.526507 0.500000 0.205423
#
# Coordination Sequence:
#
# PCOD8095569 Si02
#       8
#     8   8   8   4   8   8   8   8
#     4  12  24  36  57  88 123 156 196 246 299 354
#     4   9  21  41  62  86 117 160 205 241 285 351
#     4  12  24  39  60  88 122 156 196 246 301 354
#     4  10  20  32  58  84 120 156 196 242 292 346
#     4  10  22  42  65  86 117 158 199 242 294 355
#     4  11  22  38  63  92 120 152 195 246 301 357
#     4  11  22  37  59  89 123 156 195 244 298 349
#     4  10  20  35  57  85 119 158 202 242 288 347
#
# _framework density 19.382308999999999
#
# number of rings (size 3 to 8) (size 9 to 14) (size 15 to 20)
#    0.000    1.333    2.667    3.600    0.000    4.800 
#    0.000    3.333    0.000    0.000    0.000    0.000 
#    0.000    0.000    0.000    0.000    0.000    0.000 
#
# Total GULP energy -372084.579216 kJ/mol
# GULP energy per Si atom -12402.819307 kJ/mol
# Density = 1.933819 g / cm^3
# Si number density = 19.382309 Si / 1000 Ang^3
#
#
#
# Elastic Constant Matrix: (Units=GPa)
#
#
# Indices 1 2 3 4 5 6 
#
# 1 105.3040 40.7846 55.0572 0.0000 12.4185 0.0000
# 2 40.7846 118.9577 43.1029 0.0000 1.1163 0.0000
# 3 55.0572 43.1029 101.2194 0.0000 5.8508 0.0000
# 4 0.0000 0.0000 0.0000 32.7793 0.0000 -6.1938
# 5 12.4185 1.1163 5.8508 0.0000 33.4851 0.0000
# 6 0.0000 0.0000 0.0000 -6.1938 0.0000 23.5911
#
#
#
# Elastic Compliance Matrix: (Units=1/GPa)
#
#
# Indices 1 2 3 4 5 6 
#
# 1 0.014356 -0.002530 -0.006494 0.000000 -0.004105 0.000000
# 2 -0.002530 0.010392 -0.003114 0.000000 0.001136 0.000000
# 3 -0.006494 -0.003114 0.014742 0.000000 -0.000064 0.000000
# 4 0.000000 0.000000 0.000000 0.032099 0.000000 0.008428
# 5 -0.004105 0.001136 -0.000064 0.000000 0.031360 0.000000
# 6 0.000000 0.000000 0.000000 0.008428 0.000000 0.044602
#
#
# Mechanical properties :
#
#
# Convention : Reuss Voigt Hill
#
# Bulk Modulus (GPa) = 65.73847 67.04115 66.38981
# Shear Modulus (GPa) = 28.26493 30.40686 29.33589
#
# Velocity S-wave (km/s) = 3.82289 3.96510 3.89464
# Velocity P-wave (km/s) = 7.31275 7.45832 7.38590
#
# Compressibility (1/GPa) = 0.01521179
#
# Stress axis : x y z
#
# Youngs Moduli (GPa) = 69.65892 96.23048 67.83485
#
# Poissons Ratio (x) = 0.24350 0.44051
# Poissons Ratio (y) = 0.17626 0.21127
# Poissons Ratio (z) = 0.45235 0.29971
#
# Static dielectric constant tensor:
#      x y z
#    x 3.646110 0.000000 -0.054180 
#    y 0.000000 3.464450 0.000000 
#    z -0.054180 0.000000 3.508380 
# 
# 
# High freq. dielectric constant tensor:
#      x y z
#    x 1.747850 0.000000 -0.005750 
#    y 0.000000 1.757630 0.000000 
#    z -0.005750 0.000000 1.751430 
# 
# From -- ./inp_files/187381.got.cif
#   From: 2010.06.25/outbox.cif.g09.slc.cpg/sg12_94_cif.got.tgz:187381.got - 2010.06.28 00:19:55.
