data_PCOD8095459
_publ_section_title
;
Structure prediction by ZEFSAII (Michael W. Deem and Ramdas Pophale) SiO2 
 PCOD8095459
Probable space group: C 2/M
;
_chemical_formula_sum "Si O2"
_cell_formula_units_Z 52
_cell_length_a 23.631822
_cell_length_b 13.646676
_cell_length_c 12.212301
_cell_angle_alpha 90.000000
_cell_angle_beta 45.956472
_cell_angle_gamma 90.000000
_cell_volume 2830.980116
_symmetry_space_group_name_H-M "C 2/M"
_symmetry_group_IT_number 12
_symmetry_cell_setting 'monoclinic'
loop_
_space_group_symop_operation_xyz
x,y,z
-x,y,-z
-x,-y,-z
x,-y,z
1/2+x,1/2+y,z
1/2-x,1/2+y,-z
1/2-x,1/2-y,-z
1/2+x,1/2-y,z
loop_
_atom_site_type_symbol
_atom_site_label
_atom_site_fract_x
_atom_site_fract_y
_atom_site_fract_z
Si Si1 0.457225 0.385974 0.847356
Si Si2 0.280816 0.298001 0.791633
Si Si3 0.500000 0.262124 0.000000
Si Si4 0.282897 0.609880 0.438019
Si Si5 0.899506 0.889433 0.482314
Si Si6 0.280373 0.387347 0.022998
Si Si7 0.330146 0.792717 0.254180
O O1 0.466199 0.500000 0.862484
O O2 0.486687 0.328782 0.912871
O O3 0.511335 0.359372 0.668922
O O4 0.368669 0.357036 0.937278
O O5 0.365262 0.316649 0.620472
O O6 0.269283 0.370199 0.909148
O O7 0.211124 0.327514 0.801909
O O8 0.277966 0.184029 0.831478
O O9 0.576062 0.193193 0.880086
O O10 0.274423 0.500000 0.403593
O O11 0.350214 0.618477 0.437597
O O12 0.306929 0.678260 0.303744
O O13 0.199925 0.643792 0.602136
O O14 0.895819 0.000000 0.534216
O O15 0.261008 0.500000 0.077551
#
# Coordination Sequence:
#
# PCOD8095459 Si02
#       7
#     8   8   4   8   8   8   8
#     4  10  20  32  51  81 112 138 165 208 271 324
#     4  10  20  35  52  76 107 139 177 217 255 306
#     4  12  19  32  51  80 114 136 164 220 262 320
#     4   9  18  33  51  76 108 138 173 214 255 315
#     4   9  17  31  53  80 108 139 170 206 261 319
#     4  10  21  36  54  79 106 137 177 216 262 314
#     4  10  20  32  53  80 104 140 177 208 268 312
#
# _framework density 18.368198
#
# number of rings (size 3 to 8) (size 9 to 14) (size 15 to 20)
#    0.000    2.154    3.077    0.692    0.000    2.462 
#    0.000    2.692    0.000    0.000    0.000    9.692 
#    0.000    0.000    0.000    0.000    0.000    0.000 
#
# Total GULP energy -322403.425099 kJ/mol
# GULP energy per Si atom -12400.131735 kJ/mol
# Density = 1.832639 g / cm^3
# Si number density = 18.368198 Si / 1000 Ang^3
#
#
#
# Elastic Constant Matrix: (Units=GPa)
#
#
# Indices 1 2 3 4 5 6 
#
# 1 54.0962 15.2252 23.4305 0.0000 6.1155 0.0000
# 2 15.2252 69.9945 29.3726 0.0000 -6.7049 0.0000
# 3 23.4305 29.3726 90.5061 0.0000 -7.8078 0.0000
# 4 0.0000 0.0000 0.0000 28.7908 0.0000 -0.6977
# 5 6.1155 -6.7049 -7.8078 0.0000 23.5100 0.0000
# 6 0.0000 0.0000 0.0000 -0.6977 0.0000 21.0946
#
#
#
# Elastic Compliance Matrix: (Units=1/GPa)
#
#
# Indices 1 2 3 4 5 6 
#
# 1 0.022861 -0.003488 -0.005544 0.000000 -0.008783 0.000000
# 2 -0.003488 0.017282 -0.004326 0.000000 0.004399 0.000000
# 3 -0.005544 -0.004326 0.014317 0.000000 0.004963 0.000000
# 4 0.000000 0.000000 0.000000 0.034761 0.000000 0.001150
# 5 -0.008783 0.004399 0.004963 0.000000 0.047723 0.000000
# 6 0.000000 0.000000 0.000000 0.001150 0.000000 0.047443
#
#
# Mechanical properties :
#
#
# Convention : Reuss Voigt Hill
#
# Bulk Modulus (GPa) = 36.04394 38.96148 37.50271
# Shear Modulus (GPa) = 22.69099 24.45031 23.57065
#
# Velocity S-wave (km/s) = 3.51856 3.65241 3.58611
# Velocity P-wave (km/s) = 6.01436 6.24854 6.13257
#
# Compressibility (1/GPa) = 0.02774392
#
# Stress axis : x y z
#
# Youngs Moduli (GPa) = 43.74192 57.86234 69.84941
#
# Poissons Ratio (x) = 0.20180 0.38726
# Poissons Ratio (y) = 0.15255 0.30220
# Poissons Ratio (z) = 0.24252 0.25034
#
# Static dielectric constant tensor:
#      x y z
#    x 3.335720 0.000000 -0.116880 
#    y 0.000000 3.311870 0.000000 
#    z -0.116880 0.000000 3.575360 
# 
# 
# High freq. dielectric constant tensor:
#      x y z
#    x 1.699610 0.000000 0.004700 
#    y 0.000000 1.690360 0.000000 
#    z 0.004700 0.000000 1.720170 
# 
# From -- ./inp_files/176025.got.cif
#   From: 2010.06.25/outbox.cif.g09.slc.cpg/sg12_89_cif.got.tgz:176025.got - 2010.06.28 00:19:55.
