data_PCOD8095970
_publ_section_title
;
Structure prediction by ZEFSAII (Michael W. Deem and Ramdas Pophale) SiO2 
 PCOD8095970
Probable space group: C 2/M
;
_chemical_formula_sum "Si O2"
_cell_formula_units_Z 40
_cell_length_a 27.823075
_cell_length_b 9.657327
_cell_length_c 22.581357
_cell_angle_alpha 90.000000
_cell_angle_beta 159.248455
_cell_angle_gamma 90.000000
_cell_volume 2149.825332
_symmetry_space_group_name_H-M "C 2/M"
_symmetry_group_IT_number 12
_symmetry_cell_setting 'monoclinic'
loop_
_space_group_symop_operation_xyz
x,y,z
-x,y,-z
-x,-y,-z
x,-y,z
1/2+x,1/2+y,z
1/2-x,1/2+y,-z
1/2-x,1/2-y,-z
1/2+x,1/2-y,z
loop_
_atom_site_type_symbol
_atom_site_label
_atom_site_fract_x
_atom_site_fract_y
_atom_site_fract_z
Si Si1 0.599028 0.845070 0.382624
Si Si2 0.638481 0.835549 0.688605
Si Si3 0.834701 0.339738 0.145673
Si Si4 0.596447 0.340395 0.270212
Si Si5 0.083545 0.835524 0.041818
O O1 0.495126 0.828221 0.316755
O O2 0.559033 0.738192 0.286392
O O3 0.752138 0.813821 0.580406
O O4 0.592028 0.000000 0.347956
O O5 0.500000 0.774313 0.500000
O O6 0.674024 0.782917 0.796569
O O7 0.759384 0.789509 0.783116
O O8 0.626143 0.000000 0.678660
O O9 0.785647 0.500000 0.084639
O O10 0.750000 0.250000 0.000000
O O11 0.569947 0.500000 0.253247
O O12 0.492458 0.280531 0.103338
O O13 0.074750 0.000000 0.036153
O O14 0.000000 0.768687 0.000000
#
# Coordination Sequence:
#
# PCOD8095970 Si02
#       5
#     8   8   8   8   8
#     4   9  18  30  47  71  97 127 159 198 242 290
#     4   9  18  30  46  70 100 130 162 204 250 295
#     4  10  20  33  51  74 101 132 168 205 250 298
#     4   9  17  30  48  71  99 125 158 200 242 287
#     4   9  17  27  44  68  93 123 159 198 241 286
#
# _framework density 18.606162000000001
#
# number of rings (size 3 to 8) (size 9 to 14) (size 15 to 20)
#    0.000    2.800    0.000    1.200    2.800    2.400 
#    0.000    0.000    0.000    1.200    0.000    0.000 
#    0.000    0.000    0.000    0.000    0.000    0.000 
#
# Total GULP energy -247807.843220 kJ/mol
# GULP energy per Si atom -12390.392161 kJ/mol
# Density = 1.856381 g / cm^3
# Si number density = 18.606162 Si / 1000 Ang^3
#
#
#
# Elastic Constant Matrix: (Units=GPa)
#
#
# Indices 1 2 3 4 5 6 
#
# 1 112.8229 19.3797 59.8123 0.0001 11.1415 0.0001
# 2 19.3797 29.0319 20.3571 0.0000 -5.2959 0.0000
# 3 59.8123 20.3571 124.0703 0.0001 -2.4964 0.0000
# 4 0.0001 0.0000 0.0001 14.4145 0.0001 3.7608
# 5 11.1415 -5.2959 -2.4964 0.0001 29.8930 0.0000
# 6 0.0001 0.0000 0.0000 3.7608 0.0000 6.1449
#
#
#
# Elastic Compliance Matrix: (Units=1/GPa)
#
#
# Indices 1 2 3 4 5 6 
#
# 1 0.013608 -0.006334 -0.005655 0.000000 -0.006666 0.000000
# 2 -0.006334 0.043123 -0.003827 0.000000 0.009681 0.000001
# 3 -0.005655 -0.003827 0.011462 0.000000 0.002387 0.000000
# 4 0.000000 0.000000 0.000000 0.082557 0.000000 -0.050527
# 5 -0.006666 0.009681 0.002387 0.000000 0.037852 0.000000
# 6 0.000000 0.000001 0.000000 -0.050527 0.000000 0.193660
#
#
# Mechanical properties :
#
#
# Convention : Reuss Voigt Hill
#
# Bulk Modulus (GPa) = 27.35233 51.66926 39.51080
# Shear Modulus (GPa) = 11.73486 21.18221 16.45854
#
# Velocity S-wave (km/s) = 2.51409 3.37776 2.97741
# Velocity P-wave (km/s) = 4.81250 6.56068 5.75338
#
# Compressibility (1/GPa) = 0.03655995
#
# Stress axis : x y z
#
# Youngs Moduli (GPa) = 73.48775 23.18967 87.24472
#
# Poissons Ratio (x) = 0.14689 0.49336
# Poissons Ratio (y) = 0.46550 0.33388
# Poissons Ratio (z) = 0.41556 0.08875
#
# Static dielectric constant tensor:
#      x y z
#    x 3.570530 0.000000 0.128540 
#    y 0.000000 2.991250 0.000000 
#    z 0.128540 0.000000 3.647220 
# 
# 
# High freq. dielectric constant tensor:
#      x y z
#    x 1.727750 0.000000 0.015350 
#    y 0.000000 1.662040 0.000000 
#    z 0.015350 0.000000 1.735640 
# 
# From -- ./inp_files/83565.got.cif
#   From: 2010.06.25/outbox.cif.g09.slc.cpg/sg12_42_cif.got.tgz:83565.got - 2010.06.28 00:19:55.
