data_PCOD8095964
_publ_section_title
;
Structure prediction by ZEFSAII (Michael W. Deem and Ramdas Pophale) SiO2 
 PCOD8095964
Probable space group: C 2/M
;
_chemical_formula_sum "Si O2"
_cell_formula_units_Z 64
_cell_length_a 22.548279
_cell_length_b 9.014693
_cell_length_c 18.862585
_cell_angle_alpha 90.000000
_cell_angle_beta 112.827003
_cell_angle_gamma 90.000000
_cell_volume 3533.832095
_symmetry_space_group_name_H-M "C 2/M"
_symmetry_group_IT_number 12
_symmetry_cell_setting 'monoclinic'
loop_
_space_group_symop_operation_xyz
x,y,z
-x,y,-z
-x,-y,-z
x,-y,z
1/2+x,1/2+y,z
1/2-x,1/2+y,-z
1/2-x,1/2-y,-z
1/2+x,1/2-y,z
loop_
_atom_site_type_symbol
_atom_site_label
_atom_site_fract_x
_atom_site_fract_y
_atom_site_fract_z
Si Si1 0.573058 0.665071 0.200036
Si Si2 0.201251 0.333708 0.770517
Si Si3 0.800246 0.175801 0.575125
Si Si4 0.933255 0.826211 0.135386
Si Si5 0.560153 0.830631 0.714484
Si Si6 0.302600 0.826305 0.726914
Si Si7 0.807524 0.671112 0.066178
Si Si8 0.941905 0.835684 0.638603
O O1 0.592841 0.500000 0.183584
O O2 0.503666 0.709870 0.133454
O O3 0.629569 0.778780 0.205315
O O4 0.564175 0.665097 0.279873
O O5 0.227320 0.500000 0.767502
O O6 0.128409 0.319028 0.705240
O O7 0.245772 0.212069 0.754747
O O8 0.199940 0.303441 0.853671
O O9 0.750000 0.250000 0.500000
O O10 0.789982 0.239851 0.648597
O O11 0.871594 0.213872 0.577616
O O12 0.789600 0.000000 0.573914
O O13 0.935600 0.778723 0.217758
O O14 0.875357 0.739288 0.069820
O O15 0.918643 0.000000 0.124475
O O16 0.498811 0.775822 0.639098
O O17 0.548591 0.000000 0.734228
O O18 0.303420 0.000000 0.712096
O O19 0.807300 0.500000 0.045363
O O20 0.750000 0.750000 0.000000
O O21 0.959081 0.000000 0.618726
#
# Coordination Sequence:
#
# PCOD8095964 Si02
#       8
#     8   8   8   8   8   8   8   8
#     4   8  15  28  45  66  94 126 157 195 241 285
#     4   9  19  34  49  69  99 132 162 195 239 288
#     4  10  20  34  51  72 100 131 162 198 241 289
#     4   9  16  27  45  68  94 124 158 196 239 283
#     4   9  16  26  44  69  94 122 158 199 240 281
#     4  11  21  31  49  75  99 128 164 201 242 285
#     4  10  20  33  51  74 100 130 162 199 243 289
#     4   8  15  27  44  67  94 123 154 193 240 284
#
# _framework density 18.110651000000001
#
# number of rings (size 3 to 8) (size 9 to 14) (size 15 to 20)
#    0.000    2.750    0.000    4.875    0.000    8.500 
#    0.000    0.000    0.000    1.500    0.000   10.500 
#    0.000    0.000    0.000    0.000    0.000    0.000 
#
# Total GULP energy -396522.052245 kJ/mol
# GULP energy per Si atom -12391.314133 kJ/mol
# Density = 1.806943 g / cm^3
# Si number density = 18.110651 Si / 1000 Ang^3
#
#
#
# Elastic Constant Matrix: (Units=GPa)
#
#
# Indices 1 2 3 4 5 6 
#
# 1 113.1500 67.0962 45.7823 0.0000 38.1279 0.0000
# 2 67.0962 120.9476 42.9656 0.0000 25.9745 0.0000
# 3 45.7823 42.9656 58.7494 0.0000 33.5766 0.0000
# 4 0.0000 0.0000 0.0000 26.5044 0.0000 8.8479
# 5 38.1279 25.9745 33.5766 0.0000 34.4987 0.0000
# 6 0.0000 0.0000 0.0000 8.8479 0.0000 33.4909
#
#
#
# Elastic Compliance Matrix: (Units=1/GPa)
#
#
# Indices 1 2 3 4 5 6 
#
# 1 0.017760 -0.006458 -0.001528 0.000000 -0.013279 0.000000
# 2 -0.006458 0.013535 -0.007033 0.000000 0.003792 0.000000
# 3 -0.001528 -0.007033 0.043637 0.000000 -0.035487 0.000000
# 4 0.000000 0.000000 0.000000 0.041379 0.000000 -0.010932
# 5 -0.013279 0.003792 -0.035487 0.000000 0.075346 0.000000
# 6 0.000000 0.000000 0.000000 -0.010932 0.000000 0.032747
#
#
# Mechanical properties :
#
#
# Convention : Reuss Voigt Hill
#
# Bulk Modulus (GPa) = 22.27452 67.17058 44.72255
# Shear Modulus (GPa) = 18.55932 28.03233 23.29583
#
# Velocity S-wave (km/s) = 3.20468 3.93852 3.59040
# Velocity P-wave (km/s) = 5.10090 7.60606 6.47577
#
# Compressibility (1/GPa) = 0.04489436
#
# Stress axis : x y z
#
# Youngs Moduli (GPa) = 56.30587 73.88423 22.91625
#
# Poissons Ratio (x) = 0.47714 0.03501
# Poissons Ratio (y) = 0.36362 0.16117
# Poissons Ratio (z) = 0.08603 0.51963
#
# Static dielectric constant tensor:
#      x y z
#    x 3.776920 0.000000 0.739550 
#    y 0.000000 3.472470 0.000000 
#    z 0.739550 0.000000 3.188950 
# 
# 
# High freq. dielectric constant tensor:
#      x y z
#    x 1.701050 0.000000 0.047130 
#    y 0.000000 1.710380 0.000000 
#    z 0.047130 0.000000 1.653330 
# 
# From -- ./inp_files/323716.got.cif
#   From: 2010.06.25/outbox.cif.g09.slc.cpg/sg12_162_cif.got.tgz:323716.got - 2010.06.28 00:19:55.
