data_PCOD8095838
_publ_section_title
;
Structure prediction by ZEFSAII (Michael W. Deem and Ramdas Pophale) SiO2 
 PCOD8095838
Probable space group: C 2/M
;
_chemical_formula_sum "Si O2"
_cell_formula_units_Z 64
_cell_length_a 10.636970
_cell_length_b 14.871620
_cell_length_c 21.685318
_cell_angle_alpha 90.000000
_cell_angle_beta 112.275566
_cell_angle_gamma 90.000000
_cell_volume 3174.374106
_symmetry_space_group_name_H-M "C 2/M"
_symmetry_group_IT_number 12
_symmetry_cell_setting 'monoclinic'
loop_
_space_group_symop_operation_xyz
x,y,z
-x,y,-z
-x,-y,-z
x,-y,z
1/2+x,1/2+y,z
1/2-x,1/2+y,-z
1/2-x,1/2-y,-z
1/2+x,1/2-y,z
loop_
_atom_site_type_symbol
_atom_site_label
_atom_site_fract_x
_atom_site_fract_y
_atom_site_fract_z
Si Si1 0.409021 0.756261 0.042336
Si Si2 0.903044 0.106480 0.729533
Si Si3 0.936552 0.394190 0.722453
Si Si4 0.839179 0.900933 0.284932
Si Si5 0.578698 0.397236 0.127076
Si Si6 0.546591 0.666621 0.572876
Si Si7 0.668857 0.746232 0.379234
Si Si8 0.868493 0.397540 0.134333
O O1 0.454059 0.662007 0.080527
O O2 0.437822 0.835366 0.096289
O O3 0.500000 0.779097 0.000000
O O4 0.250000 0.750000 0.000000
O O5 0.873590 0.126983 0.795041
O O6 0.810361 0.166272 0.667602
O O7 0.056200 0.144259 0.743248
O O8 0.884884 0.000000 0.710642
O O9 0.920965 0.500000 0.700852
O O10 0.810654 0.358545 0.742150
O O11 0.925444 0.330538 0.661047
O O12 0.072880 0.377590 0.786431
O O13 0.902006 0.902951 0.365993
O O14 0.820440 0.000000 0.256409
O O15 0.528685 0.500000 0.114786
O O16 0.707044 0.380397 0.106471
O O17 0.500000 0.619680 0.500000
O O18 0.413136 0.716873 0.575127
O O19 0.674723 0.729695 0.578126
O O20 0.901380 0.500000 0.122197
#
# Coordination Sequence:
#
# PCOD8095838 Si02
#       8
#     8   8   8   8   8   8   8   8
#     4  12  25  43  63  87 120 157 199 238 277 335
#     4   9  18  34  57  84 110 138 180 231 287 339
#     4   9  18  34  57  83 111 138 175 231 291 340
#     4   8  16  32  53  80 108 136 179 236 286 332
#     4  10  22  40  63  88 118 156 193 236 291 350
#     4  10  20  33  50  73 106 151 191 224 269 327
#     4  10  20  34  54  79 110 143 182 232 280 330
#     4  10  22  40  62  89 119 152 192 240 293 348
#
# _framework density 20.161455
#
# number of rings (size 3 to 8) (size 9 to 14) (size 15 to 20)
#    0.000    2.250    1.250    1.125    1.750    2.250 
#    4.500    1.250    0.000    3.000    0.000    0.000 
#    0.000    0.000    0.000    0.000    0.000    0.000 
#
# Total GULP energy -396439.129937 kJ/mol
# GULP energy per Si atom -12388.722811 kJ/mol
# Density = 2.011557 g / cm^3
# Si number density = 20.161455 Si / 1000 Ang^3
#
#
#
# Elastic Constant Matrix: (Units=GPa)
#
#
# Indices 1 2 3 4 5 6 
#
# 1 88.2796 15.8017 23.5998 0.0000 -3.0604 0.0000
# 2 15.8017 75.8243 35.8223 0.0000 -5.9080 0.0000
# 3 23.5998 35.8223 80.9176 0.0000 -8.2567 0.0000
# 4 0.0000 0.0000 0.0000 23.1908 0.0000 0.9205
# 5 -3.0604 -5.9080 -8.2567 0.0000 28.8449 0.0000
# 6 0.0000 0.0000 0.0000 0.9205 0.0000 24.1651
#
#
#
# Elastic Compliance Matrix: (Units=1/GPa)
#
#
# Indices 1 2 3 4 5 6 
#
# 1 0.012359 -0.001096 -0.003099 0.000000 0.000200 0.000000
# 2 -0.001096 0.016824 -0.006993 0.000000 0.001328 0.000000
# 3 -0.003099 -0.006993 0.016665 0.000000 0.003009 0.000000
# 4 0.000000 0.000000 0.000000 0.043186 0.000000 -0.001645
# 5 0.000200 0.001328 0.003009 0.000000 0.035823 0.000000
# 6 0.000000 0.000000 0.000000 -0.001645 0.000000 0.041445
#
#
# Mechanical properties :
#
#
# Convention : Reuss Voigt Hill
#
# Bulk Modulus (GPa) = 42.60332 43.94101 43.27216
# Shear Modulus (GPa) = 25.44518 26.56002 26.00260
#
# Velocity S-wave (km/s) = 3.55642 3.63349 3.59516
# Velocity P-wave (km/s) = 6.16775 6.28052 6.22439
#
# Compressibility (1/GPa) = 0.02347235
#
# Stress axis : x y z
#
# Youngs Moduli (GPa) = 80.91133 59.43914 60.00651
#
# Poissons Ratio (x) = 0.06514 0.18596
# Poissons Ratio (y) = 0.08868 0.41961
# Poissons Ratio (z) = 0.25075 0.41565
#
# Static dielectric constant tensor:
#      x y z
#    x 3.892090 0.000000 -0.067420 
#    y 0.000000 3.643490 0.000000 
#    z -0.067420 0.000000 3.461830 
# 
# 
# High freq. dielectric constant tensor:
#      x y z
#    x 1.795460 0.000000 -0.001670 
#    y 0.000000 1.779240 0.000000 
#    z -0.001670 0.000000 1.770340 
# 
# From -- ./inp_files/305466.got.cif
#   From: 2010.06.25/outbox.cif.g09.slc.cpg/sg12_153_cif.got.tgz:305466.got - 2010.06.28 00:19:55.
