data_PCOD8095373
_publ_section_title
;
Structure prediction by ZEFSAII (Michael W. Deem and Ramdas Pophale) SiO2 
 PCOD8095373
Probable space group: C 2/M
;
_chemical_formula_sum "Si O2"
_cell_formula_units_Z 48
_cell_length_a 9.229535
_cell_length_b 21.685921
_cell_length_c 21.590096
_cell_angle_alpha 90.000000
_cell_angle_beta 34.263135
_cell_angle_gamma 90.000000
_cell_volume 2432.855680
_symmetry_space_group_name_H-M "C 2/M"
_symmetry_group_IT_number 12
_symmetry_cell_setting 'monoclinic'
loop_
_space_group_symop_operation_xyz
x,y,z
-x,y,-z
-x,-y,-z
x,-y,z
1/2+x,1/2+y,z
1/2-x,1/2+y,-z
1/2-x,1/2-y,-z
1/2+x,1/2-y,z
loop_
_atom_site_type_symbol
_atom_site_label
_atom_site_fract_x
_atom_site_fract_y
_atom_site_fract_z
Si Si1 0.977569 0.133671 0.815380
Si Si2 0.308472 0.311031 0.704900
Si Si3 0.789799 0.569815 0.198682
Si Si4 0.734084 0.242786 0.076561
Si Si5 0.277169 0.787949 0.623691
Si Si6 0.391656 0.428825 0.972344
O O1 0.863312 0.080915 0.811305
O O2 0.777862 0.190646 0.886078
O O3 0.024167 0.107959 0.868277
O O4 0.242533 0.162613 0.692491
O O5 0.323082 0.385592 0.706743
O O6 0.366711 0.279748 0.617672
O O7 0.505318 0.280895 0.684412
O O8 0.012242 0.297541 0.822398
O O9 0.743514 0.500000 0.237471
O O10 0.087246 0.582267 0.078950
O O11 0.750000 0.250000 0.000000
O O12 0.000000 0.208394 0.000000
O O13 0.500000 0.813148 0.500000
O O14 0.463670 0.500000 0.937256
O O15 0.500000 0.405415 0.000000
#
# Coordination Sequence:
#
# PCOD8095373 Si02
#       6
#     8   8   8   8   8   8
#     4  10  20  34  54  78 106 146 188 222 275 331
#     4  10  21  35  55  83 109 144 185 225 281 333
#     4  10  20  35  54  76 109 150 186 218 262 333
#     4  11  20  31  49  78 113 139 170 218 270 335
#     4  10  21  38  58  82 110 142 188 242 286 325
#     4  10  20  32  49  78 114 149 183 219 266 331
#
# _framework density 19.729899
#
# number of rings (size 3 to 8) (size 9 to 14) (size 15 to 20)
#    0.000    1.833    0.000    6.500    0.000    6.667 
#    0.000    0.000    0.000   13.000    0.000    0.000 
#    0.000    0.000    0.000    0.000    0.000    0.000 
#
# Total GULP energy -297326.861395 kJ/mol
# GULP energy per Si atom -12388.619225 kJ/mol
# Density = 1.968499 g / cm^3
# Si number density = 19.729899 Si / 1000 Ang^3
#
#
#
# Elastic Constant Matrix: (Units=GPa)
#
#
# Indices 1 2 3 4 5 6 
#
# 1 115.3368 43.5979 48.4985 -0.0466 3.4619 -0.0050
# 2 43.5979 121.8597 41.1716 -0.0170 13.5104 -0.0351
# 3 48.4985 41.1716 109.0982 -0.0975 15.3769 -0.0018
# 4 -0.0466 -0.0170 -0.0975 22.1428 0.0937 10.6324
# 5 3.4619 13.5104 15.3769 0.0937 22.3359 -0.0185
# 6 -0.0050 -0.0351 -0.0018 10.6324 -0.0185 25.7803
#
#
#
# Elastic Compliance Matrix: (Units=1/GPa)
#
#
# Indices 1 2 3 4 5 6 
#
# 1 0.011577 -0.002977 -0.004456 -0.000013 0.003074 0.000006
# 2 -0.002977 0.010439 -0.001983 0.000009 -0.004487 0.000007
# 3 -0.004456 -0.001983 0.012879 0.000099 -0.006976 -0.000048
# 4 -0.000013 0.000009 0.000099 0.056316 -0.000327 -0.023226
# 5 0.003074 -0.004487 -0.006976 -0.000327 0.051813 0.000166
# 6 0.000006 0.000007 -0.000048 -0.023226 0.000166 0.048368
#
#
# Mechanical properties :
#
#
# Convention : Reuss Voigt Hill
#
# Bulk Modulus (GPa) = 62.26239 68.09232 65.17735
# Shear Modulus (GPa) = 23.19320 28.25358 25.72339
#
# Velocity S-wave (km/s) = 3.43233 3.78831 3.61470
# Velocity P-wave (km/s) = 6.87995 7.32954 7.10830
#
# Compressibility (1/GPa) = 0.01606106
#
# Stress axis : x y z
#
# Youngs Moduli (GPa) = 86.37621 95.79481 77.64583
#
# Poissons Ratio (x) = 0.28521 0.34602
# Poissons Ratio (y) = 0.25716 0.15401
# Poissons Ratio (z) = 0.38492 0.19001
#
# Static dielectric constant tensor:
#      x y z
#    x 3.655480 -0.000140 0.140640 
#    y -0.000140 3.950820 0.000250 
#    z 0.140640 0.000250 3.487750 
# 
# 
# High freq. dielectric constant tensor:
#      x y z
#    x 1.774320 -0.000010 0.004180 
#    y -0.000010 1.765080 0.000010 
#    z 0.004180 0.000010 1.740800 
# 
# From -- ./inp_files/121943.got.cif
#   From: 2010.06.25/outbox.cif.g09.slc.cpg/sg12_61_cif.got.tgz:121943.got - 2010.06.28 00:19:55.
