data_PCOD8095295
_publ_section_title
;
Structure prediction by ZEFSAII (Michael W. Deem and Ramdas Pophale) SiO2 
 PCOD8095295
Probable space group: C 2/M
;
_chemical_formula_sum "Si O2"
_cell_formula_units_Z 56
_cell_length_a 18.731930
_cell_length_b 9.294748
_cell_length_c 20.362524
_cell_angle_alpha 90.000000
_cell_angle_beta 61.144173
_cell_angle_gamma 90.000000
_cell_volume 3105.095586
_symmetry_space_group_name_H-M "C 2/M"
_symmetry_group_IT_number 12
_symmetry_cell_setting 'monoclinic'
loop_
_space_group_symop_operation_xyz
x,y,z
-x,y,-z
-x,-y,-z
x,-y,z
1/2+x,1/2+y,z
1/2-x,1/2+y,-z
1/2-x,1/2-y,-z
1/2+x,1/2-y,z
loop_
_atom_site_type_symbol
_atom_site_label
_atom_site_fract_x
_atom_site_fract_y
_atom_site_fract_z
Si Si1 0.161579 0.832139 0.349738
Si Si2 0.680545 0.331139 0.491245
Si Si3 0.452553 0.834856 0.775407
Si Si4 0.629888 0.169769 0.922828
Si Si5 0.488297 0.667684 0.369763
Si Si6 0.225085 0.334635 0.203142
Si Si7 0.525637 0.169341 0.089479
O O1 0.185484 0.788485 0.412740
O O2 0.220522 0.742720 0.275757
O O3 0.066840 0.792863 0.379188
O O4 0.176935 0.000000 0.329671
O O5 0.693407 0.500000 0.495445
O O6 0.750000 0.250000 0.500000
O O7 0.591887 0.282703 0.555953
O O8 0.510457 0.749866 0.699912
O O9 0.359453 0.818289 0.796718
O O10 0.462646 0.764959 0.843222
O O11 0.481148 0.000000 0.761731
O O12 0.710493 0.258309 0.872376
O O13 0.563977 0.208645 0.896318
O O14 0.648988 0.000000 0.914933
O O15 0.595011 0.224827 0.008383
O O16 0.486514 0.500000 0.354633
O O17 0.249226 0.500000 0.203734
O O18 0.536379 0.000000 0.087907
#
# Coordination Sequence:
#
# PCOD8095295 Si02
#       7
#     8   8   8   8   8   8   8
#     4   9  18  35  56  72  92 130 172 201 233 285
#     4  10  21  35  52  76 103 129 160 201 245 287
#     4   9  18  33  51  72  99 129 161 199 245 293
#     4   9  17  32  53  72  93 128 170 204 237 285
#     4   9  18  34  54  74  96 125 165 207 241 280
#     4  10  20  32  48  74 104 128 155 200 252 293
#     4   8  16  32  52  71  93 127 170 206 235 281
#
# _framework density 18.034870000000002
#
# number of rings (size 3 to 8) (size 9 to 14) (size 15 to 20)
#    0.000    2.857    0.000    1.714    0.000    5.143 
#    0.000    7.143    0.000    4.286    0.000    0.000 
#    0.000    0.000    0.000    0.000    0.000    0.000 
#
# Total GULP energy -347190.135668 kJ/mol
# GULP energy per Si atom -12399.647702 kJ/mol
# Density = 1.799382 g / cm^3
# Si number density = 18.034870 Si / 1000 Ang^3
#
#
#
# Elastic Constant Matrix: (Units=GPa)
#
#
# Indices 1 2 3 4 5 6 
#
# 1 50.2993 21.6495 28.9869 0.0000 20.4623 0.0000
# 2 21.6495 47.5723 32.5137 0.0000 4.2526 0.0000
# 3 28.9869 32.5137 85.7361 0.0000 22.5596 0.0001
# 4 0.0000 0.0000 0.0000 29.9515 0.0000 -0.9621
# 5 20.4623 4.2526 22.5596 0.0000 36.7671 0.0000
# 6 0.0000 0.0000 0.0001 -0.9621 0.0000 22.7938
#
#
#
# Elastic Compliance Matrix: (Units=1/GPa)
#
#
# Indices 1 2 3 4 5 6 
#
# 1 0.032592 -0.011711 -0.002578 0.000000 -0.015202 0.000000
# 2 -0.011711 0.033075 -0.011081 0.000000 0.009491 0.000000
# 3 -0.002578 -0.011081 0.019108 0.000000 -0.009008 0.000000
# 4 0.000000 0.000000 0.000000 0.033433 0.000000 0.001411
# 5 -0.015202 0.009491 -0.009008 0.000000 0.040088 0.000000
# 6 0.000000 0.000000 0.000000 0.001411 0.000000 0.043931
#
#
# Mechanical properties :
#
#
# Convention : Reuss Voigt Hill
#
# Bulk Modulus (GPa) = 29.38181 38.87866 34.13024
# Shear Modulus (GPa) = 18.91705 24.59965 21.75835
#
# Velocity S-wave (km/s) = 3.24221 3.69725 3.47718
# Velocity P-wave (km/s) = 5.50844 6.31114 5.92340
#
# Compressibility (1/GPa) = 0.03403466
#
# Stress axis : x y z
#
# Youngs Moduli (GPa) = 30.68265 30.23399 52.33501
#
# Poissons Ratio (x) = 0.35408 0.13490
# Poissons Ratio (y) = 0.35934 0.57993
# Poissons Ratio (z) = 0.07909 0.33502
#
# Static dielectric constant tensor:
#      x y z
#    x 3.345760 0.000000 0.204780 
#    y 0.000000 3.168840 0.000000 
#    z 0.204780 0.000000 3.619920 
# 
# 
# High freq. dielectric constant tensor:
#      x y z
#    x 1.692440 0.000000 0.003060 
#    y 0.000000 1.677860 0.000000 
#    z 0.003060 0.000000 1.710920 
# 
# From -- ./inp_files/313681.got.cif
#   From: 2010.06.25/outbox.cif.g09.slc.cpg/sg12_157_cif.got.tgz:313681.got - 2010.06.28 00:19:55.
