data_PCOD8095347
_publ_section_title
;
Structure prediction by ZEFSAII (Michael W. Deem and Ramdas Pophale) SiO2 
 PCOD8095347
Probable space group: C 2/M
;
_chemical_formula_sum "Si O2"
_cell_formula_units_Z 64
_cell_length_a 28.206581
_cell_length_b 8.947266
_cell_length_c 15.821688
_cell_angle_alpha 90.000000
_cell_angle_beta 63.123937
_cell_angle_gamma 90.000000
_cell_volume 3561.655245
_symmetry_space_group_name_H-M "C 2/M"
_symmetry_group_IT_number 12
_symmetry_cell_setting 'monoclinic'
loop_
_space_group_symop_operation_xyz
x,y,z
-x,y,-z
-x,-y,-z
x,-y,z
1/2+x,1/2+y,z
1/2-x,1/2+y,-z
1/2-x,1/2-y,-z
1/2+x,1/2-y,z
loop_
_atom_site_type_symbol
_atom_site_label
_atom_site_fract_x
_atom_site_fract_y
_atom_site_fract_z
Si Si1 0.104364 0.672555 0.372834
Si Si2 0.038851 0.672886 0.267493
Si Si3 0.418766 0.326556 0.113938
Si Si4 0.329522 0.671599 0.448510
Si Si5 0.055909 0.168997 0.562820
Si Si6 0.784554 0.676749 0.643184
Si Si7 0.821034 0.677027 0.274831
Si Si8 0.529319 0.327793 0.104503
O O1 0.098143 0.500000 0.402803
O O2 0.089583 0.702835 0.287235
O O3 0.062502 0.761186 0.464487
O O4 0.164914 0.724258 0.340377
O O5 0.026594 0.500000 0.268548
O O6 0.052141 0.735924 0.164656
O O7 0.986686 0.745683 0.347626
O O8 0.404637 0.500000 0.141859
O O9 0.369615 0.221266 0.175479
O O10 0.469283 0.278934 0.129961
O O11 0.432002 0.299277 0.005342
O O12 0.309649 0.500000 0.461158
O O13 0.389471 0.680785 0.431238
O O14 0.291856 0.766045 0.541220
O O15 0.328007 0.743986 0.358550
O O16 0.036903 0.000000 0.566510
O O17 0.775298 0.500000 0.650552
O O18 0.733382 0.760736 0.723260
O O19 0.818672 0.500000 0.286977
O O20 0.529145 0.500000 0.130503
#
# Coordination Sequence:
#
# PCOD8095347 Si02
#       8
#     8   8   8   8   8   8   8   8
#     4   9  20  36  51  70  99 136 173 209 251 295
#     4  11  21  32  50  76 105 134 166 206 251 300
#     4   9  19  37  57  77 103 133 164 200 245 296
#     4  10  20  34  50  72 104 137 170 207 247 294
#     4  10  20  32  49  74 103 136 173 209 244 290
#     4  10  20  36  54  70  96 135 175 212 250 292
#     4  12  23  33  50  77 104 131 167 207 250 300
#     4   9  19  36  57  79 103 131 164 202 244 295
#
# _framework density 17.969173999999999
#
# number of rings (size 3 to 8) (size 9 to 14) (size 15 to 20)
#    0.000    2.000    0.000    4.875    0.000    8.500 
#    0.000    1.250    0.000    0.750    0.000    0.000 
#    0.000    0.000    0.000    0.000    0.000    0.000 
#
# Total GULP energy -396882.554662 kJ/mol
# GULP energy per Si atom -12402.579833 kJ/mol
# Density = 1.792828 g / cm^3
# Si number density = 17.969174 Si / 1000 Ang^3
#
#
#
# Elastic Constant Matrix: (Units=GPa)
#
#
# Indices 1 2 3 4 5 6 
#
# 1 59.1258 43.7050 54.1116 0.0000 0.6384 0.0000
# 2 43.7050 96.8834 42.8517 0.0000 1.9946 0.0001
# 3 54.1116 42.8517 80.7208 0.0000 2.2573 0.0000
# 4 0.0000 0.0000 0.0000 34.0476 0.0000 -0.7277
# 5 0.6384 1.9946 2.2573 0.0000 30.8278 0.0000
# 6 0.0000 0.0001 0.0000 -0.7277 0.0000 27.5217
#
#
#
# Elastic Compliance Matrix: (Units=1/GPa)
#
#
# Indices 1 2 3 4 5 6 
#
# 1 0.050530 -0.010228 -0.028491 0.000000 0.001702 0.000000
# 2 -0.010228 0.015563 -0.001386 0.000000 -0.000694 0.000000
# 3 -0.028491 -0.001386 0.032270 0.000000 -0.001683 0.000000
# 4 0.000000 0.000000 0.000000 0.029387 0.000000 0.000777
# 5 0.001702 -0.000694 -0.001683 0.000000 0.032571 0.000000
# 6 0.000000 0.000000 0.000000 0.000777 0.000000 0.036356
#
#
# Mechanical properties :
#
#
# Convention : Reuss Voigt Hill
#
# Bulk Modulus (GPa) = 55.08641 57.56296 56.32469
# Shear Modulus (GPa) = 17.67169 24.88351 21.27760
#
# Velocity S-wave (km/s) = 3.13939 3.72531 3.44483
# Velocity P-wave (km/s) = 6.62297 7.11391 6.87282
#
# Compressibility (1/GPa) = 0.01815330
#
# Stress axis : x y z
#
# Youngs Moduli (GPa) = 19.79023 64.25519 30.98819
#
# Poissons Ratio (x) = 0.65720 0.88288
# Poissons Ratio (y) = 0.20241 0.04295
# Poissons Ratio (z) = 0.56384 0.08906
#
# Static dielectric constant tensor:
#      x y z
#    x 3.503250 0.000000 -0.023950 
#    y 0.000000 3.436670 0.000000 
#    z -0.023950 0.000000 3.193060 
# 
# 
# High freq. dielectric constant tensor:
#      x y z
#    x 1.698950 0.000000 -0.000850 
#    y 0.000000 1.704510 0.000000 
#    z -0.000850 0.000000 1.676620 
# 
# From -- ./inp_files/249001.got.cif
#   From: 2010.06.25/outbox.cif.g09.slc.cpg/sg12_125_cif.got.tgz:249001.got - 2010.06.28 00:19:55.
