data_PCOD8095530
_publ_section_title
;
Structure prediction by ZEFSAII (Michael W. Deem and Ramdas Pophale) SiO2 
 PCOD8095530
Probable space group: C 2/M
;
_chemical_formula_sum "Si O2"
_cell_formula_units_Z 56
_cell_length_a 9.385933
_cell_length_b 22.130182
_cell_length_c 13.323897
_cell_angle_alpha 90.000000
_cell_angle_beta 93.047859
_cell_angle_gamma 90.000000
_cell_volume 2763.623931
_symmetry_space_group_name_H-M "C 2/M"
_symmetry_group_IT_number 12
_symmetry_cell_setting 'monoclinic'
loop_
_space_group_symop_operation_xyz
x,y,z
-x,y,-z
-x,-y,-z
x,-y,z
1/2+x,1/2+y,z
1/2-x,1/2+y,-z
1/2-x,1/2-y,-z
1/2+x,1/2-y,z
loop_
_atom_site_type_symbol
_atom_site_label
_atom_site_fract_x
_atom_site_fract_y
_atom_site_fract_z
Si Si1 0.383564 0.253119 0.791437
Si Si2 0.334306 0.808748 0.971303
Si Si3 0.894908 0.141296 0.408285
Si Si4 0.125487 0.930035 0.293759
Si Si5 0.867910 0.727560 0.342854
Si Si6 0.887896 0.867608 0.913885
Si Si7 0.654116 0.887568 0.537879
O O1 0.323329 0.194107 0.848911
O O2 0.261887 0.293363 0.733146
O O3 0.487213 0.225026 0.713445
O O4 0.447940 0.303136 0.871622
O O5 0.500000 0.807938 0.000000
O O6 0.250000 0.750000 0.000000
O O7 0.259827 0.863466 0.027557
O O8 0.830206 0.203454 0.366047
O O9 0.761882 0.103229 0.448052
O O10 0.000000 0.161213 0.500000
O O11 0.985502 0.104829 0.329772
O O12 0.141162 0.914653 0.176821
O O13 0.272729 0.917162 0.360824
O O14 0.090556 0.000000 0.304148
O O15 0.873327 0.683539 0.438753
O O16 0.000000 0.892391 0.000000
O O17 0.500000 0.916235 0.500000
#
# Coordination Sequence:
#
# PCOD8095530 Si02
#       7
#     8   8   8   8   8   8   8
#     4  11  19  31  55  91 127 168 197 240 306 374
#     4  10  20  32  53  88 128 162 205 247 304 376
#     4  10  21  39  61  90 127 167 208 255 310 376
#     4  11  25  46  68  89 119 168 223 265 302 363
#     4  12  19  33  58  92 132 163 196 246 318 380
#     4  11  21  41  61  89 126 163 211 260 315 368
#     4  11  23  39  62  96 128 163 200 256 327 379
#
# _framework density 20.263248999999998
#
# number of rings (size 3 to 8) (size 9 to 14) (size 15 to 20)
#    0.000    1.143    2.857    6.857    0.000    3.143 
#    0.000    0.000    0.000    0.429    0.000    0.000 
#    0.000    0.000    0.000    0.000    0.000    0.000 
#
# Total GULP energy -346917.409252 kJ/mol
# GULP energy per Si atom -12389.907473 kJ/mol
# Density = 2.021713 g / cm^3
# Si number density = 20.263249 Si / 1000 Ang^3
#
#
#
# Elastic Constant Matrix: (Units=GPa)
#
#
# Indices 1 2 3 4 5 6 
#
# 1 136.8072 0.4031 46.9842 0.0000 -3.5103 0.0000
# 2 0.4031 64.0248 12.6951 0.0000 2.3250 0.0000
# 3 46.9842 12.6951 107.2930 0.0000 -1.8916 0.0000
# 4 0.0000 0.0000 0.0000 14.9743 0.0000 -0.8710
# 5 -3.5103 2.3250 -1.8916 0.0000 35.7871 0.0000
# 6 0.0000 0.0000 0.0000 -0.8710 0.0000 8.1052
#
#
#
# Elastic Compliance Matrix: (Units=1/GPa)
#
#
# Indices 1 2 3 4 5 6 
#
# 1 0.008648 0.000689 -0.003858 0.000000 0.000600 0.000000
# 2 0.000689 0.016096 -0.002225 0.000000 -0.001096 0.000000
# 3 -0.003858 -0.002225 0.011279 0.000000 0.000362 0.000000
# 4 0.000000 0.000000 0.000000 0.067201 0.000000 0.007222
# 5 0.000600 -0.001096 0.000362 0.000000 0.028092 0.000000
# 6 0.000000 0.000000 0.000000 0.007222 0.000000 0.124153
#
#
# Mechanical properties :
#
#
# Convention : Reuss Voigt Hill
#
# Bulk Modulus (GPa) = 39.62936 47.58776 43.60856
# Shear Modulus (GPa) = 18.20369 28.30951 23.25660
#
# Velocity S-wave (km/s) = 3.00052 3.74182 3.39148
# Velocity P-wave (km/s) = 5.62173 6.49646 6.07486
#
# Compressibility (1/GPa) = 0.02523382
#
# Stress axis : x y z
#
# Youngs Moduli (GPa) = 115.63603 62.12858 88.65768
#
# Poissons Ratio (x) = -0.04279 0.34203
# Poissons Ratio (y) = -0.07964 0.19730
# Poissons Ratio (z) = 0.44611 0.13826
#
# Static dielectric constant tensor:
#      x y z
#    x 3.892000 0.000000 -0.264270 
#    y 0.000000 3.412480 0.000000 
#    z -0.264270 0.000000 3.990530 
# 
# 
# High freq. dielectric constant tensor:
#      x y z
#    x 1.800970 0.000000 -0.003940 
#    y 0.000000 1.729510 0.000000 
#    z -0.003940 0.000000 1.810280 
# 
# From -- ./inp_files/197530.got.cif
#   From: 2010.06.25/outbox.cif.g09.slc.cpg/sg12_99_cif.got.tgz:197530.got - 2010.06.28 00:19:55.
