data_PCOD8095504
_publ_section_title
;
Structure prediction by ZEFSAII (Michael W. Deem and Ramdas Pophale) SiO2 
 PCOD8095504
Probable space group: C 2/M
;
_chemical_formula_sum "Si O2"
_cell_formula_units_Z 56
_cell_length_a 28.507786
_cell_length_b 8.770334
_cell_length_c 14.200077
_cell_angle_alpha 90.000000
_cell_angle_beta 119.945345
_cell_angle_gamma 90.000000
_cell_volume 3076.379254
_symmetry_space_group_name_H-M "C 2/M"
_symmetry_group_IT_number 12
_symmetry_cell_setting 'monoclinic'
loop_
_space_group_symop_operation_xyz
x,y,z
-x,y,-z
-x,-y,-z
x,-y,z
1/2+x,1/2+y,z
1/2-x,1/2+y,-z
1/2-x,1/2-y,-z
1/2+x,1/2-y,z
loop_
_atom_site_type_symbol
_atom_site_label
_atom_site_fract_x
_atom_site_fract_y
_atom_site_fract_z
Si Si1 0.051516 0.179924 0.491278
Si Si2 0.243835 0.179327 0.890075
Si Si3 0.410627 0.830747 0.150846
Si Si4 0.848666 0.823976 0.936168
Si Si5 0.944568 0.819743 0.894415
Si Si6 0.862524 0.325850 0.298220
Si Si7 0.465748 0.175495 0.725495
O O1 0.107771 0.252224 0.582920
O O2 0.046917 0.224834 0.378156
O O3 0.000000 0.240945 0.500000
O O4 0.055655 0.000000 0.505072
O O5 0.293930 0.226529 0.873180
O O6 0.191024 0.235332 0.782962
O O7 0.241602 0.000000 0.900526
O O8 0.250000 0.250000 0.000000
O O9 0.405767 0.813674 0.257559
O O10 0.472041 0.804272 0.183930
O O11 0.390913 0.000000 0.099772
O O12 0.373816 0.703899 0.064687
O O13 0.892848 0.770487 0.904384
O O14 0.833767 0.000000 0.910158
O O15 0.933833 0.739211 0.783674
O O16 0.947233 0.000000 0.881907
O O17 0.000000 0.762944 0.000000
O O18 0.846907 0.500000 0.305235
O O19 0.450449 0.000000 0.690467
#
# Coordination Sequence:
#
# PCOD8095504 Si02
#       7
#     8   8   8   8   8   8   8
#     4  11  23  37  57  84 116 154 192 233 284 340
#     4  12  24  38  57  83 116 151 192 235 285 340
#     4  10  20  32  52  82 117 152 187 232 279 333
#     4  11  22  36  57  82 115 154 192 233 283 340
#     4  10  21  37  56  83 116 152 190 234 286 340
#     4  11  22  38  58  83 117 152 191 234 284 339
#     4  11  22  36  56  83 116 154 193 235 283 336
#
# _framework density 18.203216999999999
#
# number of rings (size 3 to 8) (size 9 to 14) (size 15 to 20)
#    0.000    1.143    4.286    3.000    0.000    3.143 
#    0.000    0.000    0.000    0.857    0.000    0.000 
#    0.000    0.000    0.000    0.000    0.000    0.000 
#
# Total GULP energy -347266.111218 kJ/mol
# GULP energy per Si atom -12402.361115 kJ/mol
# Density = 1.816179 g / cm^3
# Si number density = 18.203217 Si / 1000 Ang^3
#
#
#
# Elastic Constant Matrix: (Units=GPa)
#
#
# Indices 1 2 3 4 5 6 
#
# 1 101.9058 44.8471 42.4914 0.0000 3.6773 0.0000
# 2 44.8471 96.5728 38.6615 0.0000 6.6404 0.0000
# 3 42.4914 38.6615 94.2547 0.0000 0.2881 0.0000
# 4 0.0000 0.0000 0.0000 33.3536 0.0000 1.1932
# 5 3.6773 6.6404 0.2881 0.0000 25.1699 0.0000
# 6 0.0000 0.0000 0.0000 1.1932 0.0000 28.2731
#
#
#
# Elastic Compliance Matrix: (Units=1/GPa)
#
#
# Indices 1 2 3 4 5 6 
#
# 1 0.013631 -0.004571 -0.004268 0.000000 -0.000737 0.000000
# 2 -0.004571 0.014187 -0.003749 0.000000 -0.003032 0.000000
# 3 -0.004268 -0.003749 0.014067 0.000000 0.001452 0.000000
# 4 0.000000 0.000000 0.000000 0.030027 0.000000 -0.001267
# 5 -0.000737 -0.003032 0.001452 0.000000 0.040621 0.000000
# 6 0.000000 0.000000 0.000000 -0.001267 0.000000 0.035423
#
#
# Mechanical properties :
#
#
# Convention : Reuss Voigt Hill
#
# Bulk Modulus (GPa) = 59.84874 60.52591 60.18733
# Shear Modulus (GPa) = 27.97972 28.47487 28.22730
#
# Velocity S-wave (km/s) = 3.92481 3.95938 3.94213
# Velocity P-wave (km/s) = 7.31357 7.36374 7.33870
#
# Compressibility (1/GPa) = 0.01670879
#
# Stress axis : x y z
#
# Youngs Moduli (GPa) = 73.36452 70.48731 71.08801
#
# Poissons Ratio (x) = 0.32217 0.30339
# Poissons Ratio (y) = 0.33532 0.26654
# Poissons Ratio (z) = 0.31311 0.26429
#
# Static dielectric constant tensor:
#      x y z
#    x 3.448740 0.000000 0.041360 
#    y 0.000000 3.400510 0.000000 
#    z 0.041360 0.000000 3.175750 
# 
# 
# High freq. dielectric constant tensor:
#      x y z
#    x 1.698620 0.000000 0.001900 
#    y 0.000000 1.715490 0.000000 
#    z 0.001900 0.000000 1.689740 
# 
# From -- ./inp_files/181139.got.cif
#   From: 2010.06.25/outbox.cif.g09.slc.cpg/sg12_91_cif.got.tgz:181139.got - 2010.06.28 00:19:55.
