data_PCOD8095216
_publ_section_title
;
Structure prediction by ZEFSAII (Michael W. Deem and Ramdas Pophale) SiO2 
 PCOD8095216
Probable space group: C 2/M
;
_chemical_formula_sum "Si O2"
_cell_formula_units_Z 64
_cell_length_a 22.638810
_cell_length_b 23.168769
_cell_length_c 9.020661
_cell_angle_alpha 90.000000
_cell_angle_beta 133.268077
_cell_angle_gamma 90.000000
_cell_volume 3445.233067
_symmetry_space_group_name_H-M "C 2/M"
_symmetry_group_IT_number 12
_symmetry_cell_setting 'monoclinic'
loop_
_space_group_symop_operation_xyz
x,y,z
-x,y,-z
-x,-y,-z
x,-y,z
1/2+x,1/2+y,z
1/2-x,1/2+y,-z
1/2-x,1/2-y,-z
1/2+x,1/2-y,z
loop_
_atom_site_type_symbol
_atom_site_label
_atom_site_fract_x
_atom_site_fract_y
_atom_site_fract_z
Si Si1 0.773500 0.933255 0.399283
Si Si2 0.998530 0.628334 0.829760
Si Si3 0.732587 0.866222 0.042662
Si Si4 0.176259 0.348361 0.428262
Si Si5 0.866201 0.716084 0.931104
Si Si6 0.576820 0.933499 0.721054
Si Si7 0.092342 0.933533 0.137756
Si Si8 0.180849 0.840441 0.104455
O O1 0.775633 0.907247 0.237854
O O2 0.705406 0.903560 0.384152
O O3 0.861251 0.924062 0.626517
O O4 0.749985 0.000000 0.346657
O O5 0.905033 0.635242 0.619532
O O6 0.048562 0.576251 0.841000
O O7 0.000000 0.609335 0.000000
O O8 0.046057 0.688439 0.884059
O O9 0.700699 0.809141 0.070562
O O10 0.659795 0.899602 0.832697
O O11 0.797707 0.849026 0.030838
O O12 0.159056 0.296468 0.283050
O O13 0.239914 0.328375 0.660215
O O14 0.875167 0.784125 0.973639
O O15 0.500000 0.907251 0.500000
O O16 0.591482 0.000000 0.707774
O O17 0.132259 0.896265 0.075886
O O18 0.097962 0.000000 0.096345
O O19 0.000000 0.913767 0.000000
#
# Coordination Sequence:
#
# PCOD8095216 Si02
#       8
#     8   8   8   8   8   8   8   8
#     4   9  18  34  55  77 105 138 165 201 257 311
#     4   9  18  32  49  71 101 133 169 207 247 294
#     4  10  20  33  50  74 106 137 172 213 254 299
#     4   9  18  32  52  78 102 130 173 216 250 294
#     4   9  19  34  49  71 103 138 170 210 260 300
#     4  10  20  32  47  71 106 144 175 206 248 294
#     4   9  20  38  57  78 102 127 162 213 267 311
#     4  11  20  33  56  77  98 132 174 213 252 308
#
# _framework density 18.576392999999999
#
# number of rings (size 3 to 8) (size 9 to 14) (size 15 to 20)
#    0.000    2.500    0.000    2.625    0.000    3.250 
#    0.000    3.125    0.000    6.750    0.000    0.000 
#    0.000    0.000    0.000    0.000    0.000    0.000 
#
# Total GULP energy -396748.727823 kJ/mol
# GULP energy per Si atom -12398.397744 kJ/mol
# Density = 1.853411 g / cm^3
# Si number density = 18.576393 Si / 1000 Ang^3
#
#
#
# Elastic Constant Matrix: (Units=GPa)
#
#
# Indices 1 2 3 4 5 6 
#
# 1 76.9449 17.7192 23.7265 0.0000 2.1097 0.0000
# 2 17.7192 71.9653 20.0161 0.0000 -1.8393 0.0000
# 3 23.7265 20.0161 68.5734 0.0000 7.8721 0.0000
# 4 0.0000 0.0000 0.0000 20.1829 0.0000 0.9276
# 5 2.1097 -1.8393 7.8721 0.0000 30.0162 0.0000
# 6 0.0000 0.0000 0.0000 0.9276 0.0000 16.6583
#
#
#
# Elastic Compliance Matrix: (Units=1/GPa)
#
#
# Indices 1 2 3 4 5 6 
#
# 1 0.014931 -0.002439 -0.004451 0.000000 -0.000032 0.000000
# 2 -0.002439 0.015658 -0.003976 0.000000 0.002174 0.000000
# 3 -0.004451 -0.003976 0.017812 0.000000 -0.004602 0.000000
# 4 0.000000 0.000000 0.000000 0.049674 0.000000 -0.002766
# 5 -0.000032 0.002174 -0.004602 0.000000 0.034658 0.000000
# 6 0.000000 0.000000 0.000000 -0.002766 0.000000 0.060184
#
#
# Mechanical properties :
#
#
# Convention : Reuss Voigt Hill
#
# Bulk Modulus (GPa) = 37.49669 37.82301 37.65985
# Shear Modulus (GPa) = 22.36759 23.77293 23.07026
#
# Velocity S-wave (km/s) = 3.47376 3.58122 3.52790
# Velocity P-wave (km/s) = 6.02647 6.12415 6.07550
#
# Compressibility (1/GPa) = 0.02666902
#
# Stress axis : x y z
#
# Youngs Moduli (GPa) = 66.97344 63.86690 56.14294
#
# Poissons Ratio (x) = 0.15579 0.24987
# Poissons Ratio (y) = 0.16337 0.22322
# Poissons Ratio (z) = 0.29807 0.25393
#
# Static dielectric constant tensor:
#      x y z
#    x 3.414320 0.000000 0.088080 
#    y 0.000000 3.247680 0.000000 
#    z 0.088080 0.000000 3.577860 
# 
# 
# High freq. dielectric constant tensor:
#      x y z
#    x 1.713750 0.000000 -0.000170 
#    y 0.000000 1.711300 0.000000 
#    z -0.000170 0.000000 1.720390 
# 
# From -- ./inp_files/90695.got.cif
#   From: 2010.06.25/outbox.cif.g09.slc.cpg/sg12_46_cif.got.tgz:90695.got - 2010.06.28 00:19:55.
