data_PCOD8095357
_publ_section_title
;
Structure prediction by ZEFSAII (Michael W. Deem and Ramdas Pophale) SiO2 
 PCOD8095357
Probable space group: C 2/M
;
_chemical_formula_sum "Si O2"
_cell_formula_units_Z 48
_cell_length_a 23.768582
_cell_length_b 10.415135
_cell_length_c 28.292444
_cell_angle_alpha 90.000000
_cell_angle_beta 158.370745
_cell_angle_gamma 90.000000
_cell_volume 2581.624553
_symmetry_space_group_name_H-M "C 2/M"
_symmetry_group_IT_number 12
_symmetry_cell_setting 'monoclinic'
loop_
_space_group_symop_operation_xyz
x,y,z
-x,y,-z
-x,-y,-z
x,-y,z
1/2+x,1/2+y,z
1/2-x,1/2+y,-z
1/2-x,1/2-y,-z
1/2+x,1/2-y,z
loop_
_atom_site_type_symbol
_atom_site_label
_atom_site_fract_x
_atom_site_fract_y
_atom_site_fract_z
Si Si1 0.108150 0.847709 0.650431
Si Si2 0.815194 0.146064 0.188038
Si Si3 0.504577 0.735391 0.201605
Si Si4 0.859639 0.861686 0.601271
Si Si5 0.215261 0.151682 0.634199
Si Si6 0.250767 0.856873 0.063689
O O1 0.196399 0.803464 0.766905
O O2 0.203332 0.799051 0.679239
O O3 0.932836 0.795737 0.510318
O O4 0.099686 0.000000 0.644453
O O5 0.729481 0.247210 0.087171
O O6 0.993431 0.145542 0.316706
O O7 0.748730 0.000000 0.129266
O O8 0.594814 0.645408 0.308334
O O9 0.625940 0.804553 0.263322
O O10 0.404844 0.837383 0.153633
O O11 0.394225 0.648213 0.083926
O O12 0.750000 0.750000 0.500000
O O13 0.778712 0.000000 0.530210
O O14 0.211985 0.000000 0.631044
O O15 0.257920 0.000000 0.091678
#
# Coordination Sequence:
#
# PCOD8095357 Si02
#       6
#     8   8   8   8   8   8
#     4   8  15  29  50  76 104 130 161 206 254 296
#     4   9  18  33  51  72 101 132 164 207 253 293
#     4  10  20  33  51  72 101 133 167 207 249 294
#     4  10  20  32  49  75 103 131 162 201 251 302
#     4   9  16  28  50  78 103 130 165 205 250 299
#     4  10  21  35  52  73  99 135 173 207 246 294
#
# _framework density 18.592943999999999
#
# number of rings (size 3 to 8) (size 9 to 14) (size 15 to 20)
#    0.000    2.667    0.000    3.000    0.000    9.333 
#    0.000    0.833    0.000    6.000    0.000    7.000 
#    0.000    0.000    0.000    0.000    0.000    0.000 
#
# Total GULP energy -297418.379757 kJ/mol
# GULP energy per Si atom -12392.432490 kJ/mol
# Density = 1.855063 g / cm^3
# Si number density = 18.592944 Si / 1000 Ang^3
#
#
#
# Elastic Constant Matrix: (Units=GPa)
#
#
# Indices 1 2 3 4 5 6 
#
# 1 105.4961 24.1087 40.1209 0.0065 -17.8773 0.0004
# 2 24.1087 101.2862 41.5149 0.0147 -21.9312 0.0004
# 3 40.1209 41.5149 76.3613 0.0047 -13.7918 -0.0024
# 4 0.0065 0.0147 0.0047 19.6460 0.0041 -3.8121
# 5 -17.8773 -21.9312 -13.7918 0.0041 27.3445 -0.0005
# 6 0.0004 0.0004 -0.0024 -3.8121 -0.0005 15.7412
#
#
#
# Elastic Compliance Matrix: (Units=1/GPa)
#
#
# Indices 1 2 3 4 5 6 
#
# 1 0.012554 0.000692 -0.005930 -0.000005 0.005772 -0.000002
# 2 0.000692 0.014256 -0.006565 -0.000012 0.008575 -0.000004
# 3 -0.005930 -0.006565 0.019946 0.000003 0.000918 0.000004
# 4 -0.000005 -0.000012 0.000003 0.053411 -0.000019 0.012935
# 5 0.005772 0.008575 0.000918 -0.000019 0.047684 -0.000004
# 6 -0.000002 -0.000004 0.000004 0.012935 -0.000004 0.066660
#
#
# Mechanical properties :
#
#
# Convention : Reuss Voigt Hill
#
# Bulk Modulus (GPa) = 43.19617 54.95918 49.07767
# Shear Modulus (GPa) = 20.33887 24.37293 22.35590
#
# Velocity S-wave (km/s) = 3.31101 3.62452 3.47131
# Velocity P-wave (km/s) = 6.15630 6.86582 6.52072
#
# Compressibility (1/GPa) = 0.02315020
#
# Stress axis : x y z
#
# Youngs Moduli (GPa) = 79.65516 70.14618 50.13452
#
# Poissons Ratio (x) = -0.04855 0.29729
# Poissons Ratio (y) = -0.05513 0.32915
# Poissons Ratio (z) = 0.47234 0.46053
#
# Static dielectric constant tensor:
#      x y z
#    x 3.759730 0.000000 -0.159980 
#    y 0.000000 3.242300 -0.000010 
#    z -0.159980 -0.000010 3.466390 
# 
# 
# High freq. dielectric constant tensor:
#      x y z
#    x 1.720990 0.000000 -0.016130 
#    y 0.000000 1.691360 0.000000 
#    z -0.016130 0.000000 1.713150 
# 
# From -- ./inp_files/173063.got.cif
#   From: 2010.06.25/outbox.cif.g09.slc.cpg/sg12_87_cif.got.tgz:173063.got - 2010.06.28 00:19:55.
