data_PCOD8095067
_publ_section_title
;
Structure prediction by ZEFSAII (Michael W. Deem and Ramdas Pophale) SiO2 
 PCOD8095067
Probable space group: C 2/M
;
_chemical_formula_sum "Si O2"
_cell_formula_units_Z 56
_cell_length_a 9.696883
_cell_length_b 17.602409
_cell_length_c 19.191245
_cell_angle_alpha 90.000000
_cell_angle_beta 120.752825
_cell_angle_gamma 90.000000
_cell_volume 2815.096341
_symmetry_space_group_name_H-M "C 2/M"
_symmetry_group_IT_number 12
_symmetry_cell_setting 'monoclinic'
loop_
_space_group_symop_operation_xyz
x,y,z
-x,y,-z
-x,-y,-z
x,-y,z
1/2+x,1/2+y,z
1/2-x,1/2+y,-z
1/2-x,1/2-y,-z
1/2+x,1/2-y,z
loop_
_atom_site_type_symbol
_atom_site_label
_atom_site_fract_x
_atom_site_fract_y
_atom_site_fract_z
Si Si1 0.203480 0.587193 0.837841
Si Si2 0.636677 0.410795 0.268142
Si Si3 0.827719 0.333177 0.438403
Si Si4 0.315886 0.725256 0.944326
Si Si5 0.390991 0.165029 0.718869
Si Si6 0.826581 0.158448 0.455905
Si Si7 0.633841 0.699898 0.771654
O O1 0.228300 0.500000 0.864273
O O2 0.296485 0.609329 0.791027
O O3 0.279781 0.636768 0.919573
O O4 0.013322 0.604171 0.783157
O O5 0.627395 0.500000 0.278267
O O6 0.760990 0.374610 0.353856
O O7 0.457895 0.377960 0.233023
O O8 0.842629 0.243520 0.428853
O O9 0.715995 0.347903 0.475072
O O10 0.000000 0.368988 0.500000
O O11 0.240197 0.776418 0.864499
O O12 0.500000 0.741881 0.000000
O O13 0.250000 0.750000 0.000000
O O14 0.306294 0.123103 0.630621
O O15 0.494729 0.237930 0.719701
O O16 0.253173 0.189515 0.737660
O O17 0.000000 0.117523 0.500000
#
# Coordination Sequence:
#
# PCOD8095067 Si02
#       7
#     8   8   8   8   8   8   8
#     4  10  23  41  63  91 122 161 198 238 297 360
#     4  11  22  39  61  86 123 164 205 249 295 356
#     4  10  20  32  52  80 118 153 202 252 302 344
#     4  11  22  39  64  93 120 150 189 245 299 357
#     4  11  21  36  63  84 120 160 204 256 292 353
#     4  10  20  31  52  83 114 154 198 257 303 340
#     4  11  22  38  61  90 118 155 204 245 300 358
#
# _framework density 19.892748000000001
#
# number of rings (size 3 to 8) (size 9 to 14) (size 15 to 20)
#    0.000    1.429    1.429    6.000    4.000    1.143 
#    0.000    1.429    0.000    3.429    0.000    0.000 
#    0.000    0.000    0.000    0.000    0.000    0.000 
#
# Total GULP energy -347160.539365 kJ/mol
# GULP energy per Si atom -12398.590692 kJ/mol
# Density = 1.984747 g / cm^3
# Si number density = 19.892748 Si / 1000 Ang^3
#
#
#
# Elastic Constant Matrix: (Units=GPa)
#
#
# Indices 1 2 3 4 5 6 
#
# 1 126.6247 24.9777 19.7294 0.0000 3.5650 0.0000
# 2 24.9777 72.5761 20.8627 0.0000 -9.9526 0.0000
# 3 19.7294 20.8627 85.4787 0.0000 2.1281 0.0000
# 4 0.0000 0.0000 0.0000 20.0471 0.0000 -4.8463
# 5 3.5650 -9.9526 2.1281 0.0000 41.0257 0.0000
# 6 0.0000 0.0000 0.0000 -4.8463 0.0000 23.0654
#
#
#
# Elastic Compliance Matrix: (Units=1/GPa)
#
#
# Indices 1 2 3 4 5 6 
#
# 1 0.008690 -0.002809 -0.001286 0.000000 -0.001370 0.000000
# 2 -0.002809 0.016338 -0.003449 0.000000 0.004387 0.000000
# 3 -0.001286 -0.003449 0.012872 0.000000 -0.001393 0.000000
# 4 0.000000 0.000000 0.000000 0.052552 0.000000 0.011042
# 5 -0.001370 0.004387 -0.001393 0.000000 0.025630 0.000000
# 6 0.000000 0.000000 0.000000 0.011042 0.000000 0.045675
#
#
# Mechanical properties :
#
#
# Convention : Reuss Voigt Hill
#
# Bulk Modulus (GPa) = 43.83406 46.20214 45.01810
# Shear Modulus (GPa) = 27.10767 31.43495 29.27131
#
# Velocity S-wave (km/s) = 3.69547 3.97951 3.84012
# Velocity P-wave (km/s) = 6.34757 6.66269 6.50704
#
# Compressibility (1/GPa) = 0.02281331
#
# Stress axis : x y z
#
# Youngs Moduli (GPa) = 115.06919 61.20607 77.68791
#
# Poissons Ratio (x) = 0.17193 0.09992
# Poissons Ratio (y) = 0.32323 0.26791
# Poissons Ratio (z) = 0.14800 0.21107
#
# Static dielectric constant tensor:
#      x y z
#    x 3.695400 0.000000 0.172400 
#    y 0.000000 3.420290 0.000000 
#    z 0.172400 0.000000 3.815860 
# 
# 
# High freq. dielectric constant tensor:
#      x y z
#    x 1.796300 0.000000 0.006270 
#    y 0.000000 1.742000 0.000000 
#    z 0.006270 0.000000 1.786250 
# 
# From -- ./inp_files/257217.got.cif
#   From: 2010.06.25/outbox.cif.g09.slc.cpg/sg12_129_cif.got.tgz:257217.got - 2010.06.28 00:19:55.
