data_PCOD8095002
_publ_section_title
;
Structure prediction by ZEFSAII (Michael W. Deem and Ramdas Pophale) SiO2 
 PCOD8095002
Probable space group: C 2/M
;
_chemical_formula_sum "Si O2"
_cell_formula_units_Z 56
_cell_length_a 18.803163
_cell_length_b 8.960424
_cell_length_c 29.325931
_cell_angle_alpha 90.000000
_cell_angle_beta 142.618075
_cell_angle_gamma 90.000000
_cell_volume 2999.780911
_symmetry_space_group_name_H-M "C 2/M"
_symmetry_group_IT_number 12
_symmetry_cell_setting 'monoclinic'
loop_
_space_group_symop_operation_xyz
x,y,z
-x,y,-z
-x,-y,-z
x,-y,z
1/2+x,1/2+y,z
1/2-x,1/2+y,-z
1/2-x,1/2-y,-z
1/2+x,1/2-y,z
loop_
_atom_site_type_symbol
_atom_site_label
_atom_site_fract_x
_atom_site_fract_y
_atom_site_fract_z
Si Si1 0.958085 0.677666 0.929727
Si Si2 0.984852 0.822328 0.628398
Si Si3 0.803243 0.822532 0.206183
Si Si4 0.829163 0.828814 0.631803
Si Si5 0.876182 0.323345 0.067262
Si Si6 0.949398 0.171712 0.194503
Si Si7 0.088494 0.823000 0.507038
O O1 0.954527 0.500000 0.928596
O O2 0.827457 0.741240 0.853451
O O3 0.045983 0.734738 0.935511
O O4 0.000000 0.739403 0.000000
O O5 0.885931 0.769762 0.613657
O O6 0.953513 0.756188 0.562979
O O7 0.111949 0.762329 0.710154
O O8 0.988327 0.000000 0.629389
O O9 0.853930 0.772995 0.182879
O O10 0.803749 0.000000 0.207617
O O11 0.717090 0.730212 0.585970
O O12 0.920610 0.809722 0.719417
O O13 0.790561 0.000000 0.607072
O O14 0.862148 0.500000 0.058589
O O15 0.940910 0.275877 0.146295
O O16 0.750000 0.250000 0.000000
O O17 0.924845 0.000000 0.168447
O O18 0.000000 0.762073 0.500000
O O19 0.088401 0.000000 0.505286
#
# Coordination Sequence:
#
# PCOD8095002 Si02
#       7
#     8   8   8   8   8   8   8
#     4   9  17  29  48  74  98 124 163 203 236 280
#     4   8  15  29  48  70  96 128 165 202 245 296
#     4   8  14  28  51  73  94 125 166 208 243 285
#     4   9  18  33  53  73  95 130 169 200 240 298
#     4  11  22  34  52  77 103 132 164 201 245 290
#     4   9  18  34  55  76  98 126 162 204 247 293
#     4  10  20  31  46  72 103 131 163 209 256 291
#
# _framework density 18.668030999999999
#
# number of rings (size 3 to 8) (size 9 to 14) (size 15 to 20)
#    0.000    2.857    0.000    3.429    0.000    4.286 
#    0.000    2.857    0.000    8.571    0.000    0.000 
#    0.000    0.000    0.000    0.000    0.000    0.000 
#
# Total GULP energy -347141.992860 kJ/mol
# GULP energy per Si atom -12397.928316 kJ/mol
# Density = 1.862554 g / cm^3
# Si number density = 18.668031 Si / 1000 Ang^3
#
#
#
# Elastic Constant Matrix: (Units=GPa)
#
#
# Indices 1 2 3 4 5 6 
#
# 1 151.7080 27.4893 85.3492 0.0000 8.4186 -0.0002
# 2 27.4893 22.9321 24.2584 0.0001 -1.6524 -0.0005
# 3 85.3492 24.2584 122.2546 0.0000 6.1853 -0.0001
# 4 0.0000 0.0001 0.0000 26.1565 0.0000 1.3871
# 5 8.4186 -1.6524 6.1853 0.0000 37.7455 0.0001
# 6 -0.0002 -0.0005 -0.0001 1.3871 0.0001 18.5496
#
#
#
# Elastic Compliance Matrix: (Units=1/GPa)
#
#
# Indices 1 2 3 4 5 6 
#
# 1 0.011755 -0.007139 -0.006697 0.000000 -0.001837 0.000000
# 2 -0.007139 0.060211 -0.007237 0.000000 0.005414 0.000001
# 3 -0.006697 -0.007237 0.014350 0.000000 -0.001175 0.000000
# 4 0.000000 0.000000 0.000000 0.038384 0.000000 -0.002870
# 5 -0.001837 0.005414 -0.001175 0.000000 0.027332 0.000000
# 6 0.000000 0.000001 0.000000 -0.002870 0.000000 0.054124
#
#
# Mechanical properties :
#
#
# Convention : Reuss Voigt Hill
#
# Bulk Modulus (GPa) = 22.63997 63.45426 43.04711
# Shear Modulus (GPa) = 19.00959 27.14351 23.07655
#
# Velocity S-wave (km/s) = 3.19454 3.81729 3.51971
# Velocity P-wave (km/s) = 5.07551 7.31393 6.29501
#
# Compressibility (1/GPa) = 0.04416968
#
# Stress axis : x y z
#
# Youngs Moduli (GPa) = 85.07311 16.60833 69.68478
#
# Poissons Ratio (x) = 0.11856 0.46666
# Poissons Ratio (y) = 0.60733 0.50434
# Poissons Ratio (z) = 0.56971 0.12020
#
# Static dielectric constant tensor:
#      x y z
#    x 3.587420 0.000000 -0.023440 
#    y 0.000000 2.925350 0.000000 
#    z -0.023440 0.000000 3.715600 
# 
# 
# High freq. dielectric constant tensor:
#      x y z
#    x 1.727480 0.000000 0.001910 
#    y 0.000000 1.672720 0.000000 
#    z 0.001910 0.000000 1.740360 
# 
# From -- ./inp_files/342243.got.cif
#   From: 2010.06.25/outbox.cif.g09.slc.cpg/sg12_172_cif.got.tgz:342243.got - 2010.06.28 00:19:55.
