data_PCOD8095457
_publ_section_title
;
Structure prediction by ZEFSAII (Michael W. Deem and Ramdas Pophale) SiO2 
 PCOD8095457
Probable space group: C 2/M
;
_chemical_formula_sum "Si O2"
_cell_formula_units_Z 60
_cell_length_a 9.688549
_cell_length_b 24.459201
_cell_length_c 22.904943
_cell_angle_alpha 90.000000
_cell_angle_beta 143.297569
_cell_angle_gamma 90.000000
_cell_volume 3244.022107
_symmetry_space_group_name_H-M "C 2/M"
_symmetry_group_IT_number 12
_symmetry_cell_setting 'monoclinic'
loop_
_space_group_symop_operation_xyz
x,y,z
-x,y,-z
-x,-y,-z
x,-y,z
1/2+x,1/2+y,z
1/2-x,1/2+y,-z
1/2-x,1/2-y,-z
1/2+x,1/2-y,z
loop_
_atom_site_type_symbol
_atom_site_label
_atom_site_fract_x
_atom_site_fract_y
_atom_site_fract_z
Si Si1 0.442225 0.668303 0.770598
Si Si2 0.765677 0.813582 0.019018
Si Si3 0.335403 0.858484 0.823352
Si Si4 0.498247 0.137731 0.317832
Si Si5 0.630904 0.699216 0.489054
Si Si6 0.671499 0.211701 0.284297
Si Si7 0.500000 0.381389 0.000000
Si Si8 0.036584 0.435824 0.801882
O O1 0.576071 0.640294 0.761648
O O2 0.241695 0.629505 0.728644
O O3 0.314505 0.723230 0.705677
O O4 0.635611 0.681721 0.882964
O O5 0.524904 0.847902 0.938049
O O6 0.750000 0.750000 0.000000
O O7 0.935506 0.842228 0.031095
O O8 0.402745 0.806570 0.805100
O O9 0.368343 0.913078 0.795868
O O10 0.703047 0.148517 0.435220
O O11 0.490765 0.191074 0.272662
O O12 0.536246 0.086288 0.287451
O O13 0.500000 0.724905 0.500000
O O14 0.750000 0.750000 0.500000
O O15 0.419897 0.680372 0.376016
O O16 0.703632 0.419914 0.092707
O O17 0.006958 0.500000 0.789731
#
# Coordination Sequence:
#
# PCOD8095457 Si02
#       8
#     8   8   8   8   8   8   4   8
#     4  12  20  32  52  80 119 152 183 224 272 341
#     4  11  22  30  49  80 123 155 179 214 275 343
#     4  10  23  34  51  79 110 148 191 229 282 339
#     4  10  21  36  53  83 111 146 195 228 271 345
#     4  10  20  32  51  80 119 151 181 216 273 339
#     4  10  20  33  51  77 120 152 182 214 271 344
#     4  10  21  36  56  86 106 152 201 232 268 350
#     4  10  21  42  62  75 104 149 200 254 293 321
#
# _framework density 18.495557999999999
#
# number of rings (size 3 to 8) (size 9 to 14) (size 15 to 20)
#    0.000    1.600    4.000    1.400    3.733    0.000 
#    0.000    0.667    0.000   11.600    0.000    0.000 
#    0.000   18.667    0.000    0.000    0.000    0.000 
#
# Total GULP energy -371714.765998 kJ/mol
# GULP energy per Si atom -12390.492200 kJ/mol
# Density = 1.845346 g / cm^3
# Si number density = 18.495558 Si / 1000 Ang^3
#
#
#
# Elastic Constant Matrix: (Units=GPa)
#
#
# Indices 1 2 3 4 5 6 
#
# 1 114.9814 41.1390 31.6147 0.0000 21.2675 0.0002
# 2 41.1390 116.4618 33.0746 0.0000 2.2948 0.0000
# 3 31.6147 33.0746 90.9054 0.0002 3.9649 0.0002
# 4 0.0000 0.0000 0.0002 18.1281 0.0001 -1.2292
# 5 21.2675 2.2948 3.9649 0.0001 25.2650 0.0004
# 6 0.0002 0.0000 0.0002 -1.2292 0.0004 14.3478
#
#
#
# Elastic Compliance Matrix: (Units=1/GPa)
#
#
# Indices 1 2 3 4 5 6 
#
# 1 0.012471 -0.003459 -0.002652 0.000000 -0.009767 0.000000
# 2 -0.003459 0.010538 -0.002735 0.000000 0.002384 0.000000
# 3 -0.002652 -0.002735 0.012898 0.000000 0.000457 0.000000
# 4 0.000000 0.000000 0.000000 0.055485 0.000000 0.004754
# 5 -0.009767 0.002384 0.000457 0.000000 0.047514 -0.000001
# 6 0.000000 0.000000 0.000000 0.004754 -0.000001 0.070104
#
#
# Mechanical properties :
#
#
# Convention : Reuss Voigt Hill
#
# Bulk Modulus (GPa) = 54.90491 59.33391 57.11941
# Shear Modulus (GPa) = 21.47994 25.98286 23.73140
#
# Velocity S-wave (km/s) = 3.41157 3.75215 3.58591
# Velocity P-wave (km/s) = 6.72817 7.13591 6.93504
#
# Compressibility (1/GPa) = 0.01821331
#
# Stress axis : x y z
#
# Youngs Moduli (GPa) = 80.18844 94.89205 77.53112
#
# Poissons Ratio (x) = 0.32827 0.20564
# Poissons Ratio (y) = 0.27741 0.21205
# Poissons Ratio (z) = 0.21269 0.25954
#
# Static dielectric constant tensor:
#      x y z
#    x 3.675680 0.000000 -0.074240 
#    y 0.000000 2.962050 0.000000 
#    z -0.074240 0.000000 3.808340 
# 
# 
# High freq. dielectric constant tensor:
#      x y z
#    x 1.728630 0.000000 -0.000630 
#    y 0.000000 1.658630 0.000000 
#    z -0.000630 0.000000 1.729120 
# 
# From -- ./inp_files/334091.got.cif
#   From: 2010.06.25/outbox.cif.g09.slc.cpg/sg12_168_cif.got.tgz:334091.got - 2010.06.28 00:19:55.
