data_PCOD8095247
_publ_section_title
;
Structure prediction by ZEFSAII (Michael W. Deem and Ramdas Pophale) SiO2 
 PCOD8095247
Probable space group: C 2/M
;
_chemical_formula_sum "Si O2"
_cell_formula_units_Z 64
_cell_length_a 22.641688
_cell_length_b 9.265614
_cell_length_c 18.646620
_cell_angle_alpha 90.000000
_cell_angle_beta 114.312432
_cell_angle_gamma 90.000000
_cell_volume 3564.931188
_symmetry_space_group_name_H-M "C 2/M"
_symmetry_group_IT_number 12
_symmetry_cell_setting 'monoclinic'
loop_
_space_group_symop_operation_xyz
x,y,z
-x,y,-z
-x,-y,-z
x,-y,z
1/2+x,1/2+y,z
1/2-x,1/2+y,-z
1/2-x,1/2-y,-z
1/2+x,1/2-y,z
loop_
_atom_site_type_symbol
_atom_site_label
_atom_site_fract_x
_atom_site_fract_y
_atom_site_fract_z
Si Si1 0.565838 0.661983 0.202459
Si Si2 0.199819 0.330794 0.761506
Si Si3 0.808983 0.334037 0.564019
Si Si4 0.945086 0.660455 0.142431
Si Si5 0.554448 0.840262 0.686933
Si Si6 0.309117 0.834716 0.733903
Si Si7 0.800981 0.669749 0.074213
Si Si8 0.934269 0.837783 0.626694
O O1 0.571176 0.500000 0.174638
O O2 0.499842 0.732828 0.138685
O O3 0.627139 0.753056 0.205401
O O4 0.564277 0.661001 0.287106
O O5 0.213555 0.500000 0.757097
O O6 0.126615 0.291965 0.700449
O O7 0.245982 0.237361 0.735205
O O8 0.210992 0.286296 0.849496
O O9 0.808718 0.500000 0.538339
O O10 0.750000 0.250000 0.500000
O O11 0.803338 0.322264 0.646122
O O12 0.874970 0.259691 0.569422
O O13 0.957371 0.500000 0.117360
O O14 0.949491 0.652876 0.229799
O O15 0.873361 0.716184 0.085406
O O16 0.501286 0.728928 0.629750
O O17 0.539209 0.000000 0.648778
O O18 0.313963 0.000000 0.761235
O O19 0.792531 0.500000 0.060276
O O20 0.750000 0.750000 0.000000
O O21 0.926690 0.000000 0.592854
#
# Coordination Sequence:
#
# PCOD8095247 Si02
#       8
#     8   8   8   8   8   8   8   8
#     4   9  16  26  43  67  92 119 153 192 232 274
#     4   9  18  32  49  70  97 128 160 193 232 279
#     4  10  20  33  49  70  96 125 157 192 233 280
#     4   8  14  26  43  64  91 120 152 191 232 272
#     4   8  14  26  44  65  90 120 153 190 230 271
#     4  10  20  32  48  71  97 125 156 192 235 280
#     4   9  18  31  48  71  98 128 159 193 234 279
#     4   9  16  26  43  68  94 119 151 191 232 273
#
# _framework density 17.952660999999999
#
# number of rings (size 3 to 8) (size 9 to 14) (size 15 to 20)
#    0.000    3.000    0.000    3.000    0.000    6.000 
#    0.000    2.500    0.000    1.500    0.000   10.500 
#    0.000    0.000    0.000    0.000    0.000    0.000 
#
# Total GULP energy -396693.643020 kJ/mol
# GULP energy per Si atom -12396.676344 kJ/mol
# Density = 1.791180 g / cm^3
# Si number density = 17.952661 Si / 1000 Ang^3
#
#
#
# Elastic Constant Matrix: (Units=GPa)
#
#
# Indices 1 2 3 4 5 6 
#
# 1 130.7214 83.0649 29.5007 0.0000 36.6020 0.0000
# 2 83.0649 141.2037 37.9507 0.0000 30.5280 0.0000
# 3 29.5007 37.9507 41.0590 0.0000 28.9219 0.0000
# 4 0.0000 0.0000 0.0000 26.2323 0.0000 8.7636
# 5 36.6020 30.5280 28.9219 0.0000 30.8211 0.0000
# 6 0.0000 0.0000 0.0000 8.7636 0.0000 35.0726
#
#
#
# Elastic Compliance Matrix: (Units=1/GPa)
#
#
# Indices 1 2 3 4 5 6 
#
# 1 0.016220 -0.007750 0.010827 0.000000 -0.021746 0.000000
# 2 -0.007750 0.013250 -0.011555 0.000000 0.006923 0.000000
# 3 0.010827 -0.011555 0.083336 0.000000 -0.079614 0.000000
# 4 0.000000 0.000000 0.000000 0.041593 0.000000 -0.010393
# 5 -0.021746 0.006923 -0.079614 0.000000 0.126121 0.000000
# 6 0.000000 0.000000 0.000000 -0.010393 0.000000 0.031109
#
#
# Mechanical properties :
#
#
# Convention : Reuss Voigt Hill
#
# Bulk Modulus (GPa) = 10.43293 68.22409 39.32851
# Shear Modulus (GPa) = 13.86830 29.25638 21.56234
#
# Velocity S-wave (km/s) = 2.78239 4.04126 3.46940
# Velocity P-wave (km/s) = 4.01824 7.73695 6.16468
#
# Compressibility (1/GPa) = 0.09585031
#
# Stress axis : x y z
#
# Youngs Moduli (GPa) = 61.65234 75.47181 11.99966
#
# Poissons Ratio (x) = 0.58492 -0.12992
# Poissons Ratio (y) = 0.47782 0.13865
# Poissons Ratio (z) = -0.66752 0.87205
#
# Static dielectric constant tensor:
#      x y z
#    x 3.412880 0.000000 0.357070 
#    y 0.000000 3.532850 0.000000 
#    z 0.357070 0.000000 2.959940 
# 
# 
# High freq. dielectric constant tensor:
#      x y z
#    x 1.694970 0.000000 0.034550 
#    y 0.000000 1.702930 0.000000 
#    z 0.034550 0.000000 1.647450 
# 
# From -- ./inp_files/323715.got.cif
#   From: 2010.06.25/outbox.cif.g09.slc.cpg/sg12_162_cif.got.tgz:323715.got - 2010.06.28 00:19:55.
