data_PCOD8095521
_publ_section_title
;
Structure prediction by ZEFSAII (Michael W. Deem and Ramdas Pophale) SiO2 
 PCOD8095521
Probable space group: C 2/M
;
_chemical_formula_sum "Si O2"
_cell_formula_units_Z 40
_cell_length_a 19.985070
_cell_length_b 19.096285
_cell_length_c 9.224733
_cell_angle_alpha 90.000000
_cell_angle_beta 33.357622
_cell_angle_gamma 90.000000
_cell_volume 1935.810974
_symmetry_space_group_name_H-M "C 2/M"
_symmetry_group_IT_number 12
_symmetry_cell_setting 'monoclinic'
loop_
_space_group_symop_operation_xyz
x,y,z
-x,y,-z
-x,-y,-z
x,-y,z
1/2+x,1/2+y,z
1/2-x,1/2+y,-z
1/2-x,1/2-y,-z
1/2+x,1/2-y,z
loop_
_atom_site_type_symbol
_atom_site_label
_atom_site_fract_x
_atom_site_fract_y
_atom_site_fract_z
Si Si1 0.891158 0.715351 0.071562
Si Si2 0.059560 0.166459 0.678035
Si Si3 0.317493 0.581762 0.056736
Si Si4 0.761296 0.822763 0.898486
Si Si5 0.740705 0.159276 0.451268
O O1 0.856862 0.669484 0.992239
O O2 0.775011 0.768366 0.305317
O O3 0.887008 0.667514 0.226880
O O4 0.014815 0.758288 0.822857
O O5 0.115082 0.175433 0.418403
O O6 0.154008 0.136613 0.624545
O O7 0.947194 0.114033 0.865609
O O8 0.330978 0.500000 0.008149
O O9 0.263322 0.613709 0.007623
O O10 0.226329 0.598884 0.356084
O O11 0.750000 0.750000 0.000000
#
# Coordination Sequence:
#
# PCOD8095521 Si02
#       5
#     8   8   8   8   8
#     4   9  17  32  51  74 110 134 180 232 257 309
#     4  10  20  32  53  83 111 138 181 220 273 323
#     4  11  22  35  51  79 120 150 171 215 276 336
#     4  11  20  33  52  79 112 142 185 223 266 319
#     4   9  18  32  51  79 110 137 178 218 268 321
#
# _framework density 20.663174999999999
#
# number of rings (size 3 to 8) (size 9 to 14) (size 15 to 20)
#    0.000    2.000    4.000    3.000    0.000    3.200 
#    0.000    3.000    0.000    0.000    0.000    5.600 
#    0.000    0.000    0.000    0.000    0.000    0.000 
#
# Total GULP energy -247879.661969 kJ/mol
# GULP energy per Si atom -12393.983098 kJ/mol
# Density = 2.061614 g / cm^3
# Si number density = 20.663175 Si / 1000 Ang^3
#
#
#
# Elastic Constant Matrix: (Units=GPa)
#
#
# Indices 1 2 3 4 5 6 
#
# 1 102.6450 49.6786 35.2983 0.0000 33.5779 0.0000
# 2 49.6786 107.4604 43.5500 0.0000 18.7536 0.0000
# 3 35.2983 43.5500 120.6179 0.0000 31.2101 0.0000
# 4 0.0000 0.0000 0.0000 16.3476 0.0000 6.3460
# 5 33.5779 18.7536 31.2101 0.0000 33.2224 0.0000
# 6 0.0000 0.0000 0.0000 6.3460 0.0000 24.7287
#
#
#
# Elastic Compliance Matrix: (Units=1/GPa)
#
#
# Indices 1 2 3 4 5 6 
#
# 1 0.017028 -0.005642 0.000902 0.000000 -0.014873 0.000000
# 2 -0.005642 0.013042 -0.003472 0.000000 0.001603 0.000000
# 3 0.000902 -0.003472 0.011902 0.000000 -0.010133 0.000000
# 4 0.000000 0.000000 0.000000 0.067939 0.000000 -0.017435
# 5 -0.014873 0.001603 -0.010133 0.000000 0.053747 0.000000
# 6 0.000000 0.000000 0.000000 -0.017435 0.000000 0.044913
#
#
# Mechanical properties :
#
#
# Convention : Reuss Voigt Hill
#
# Bulk Modulus (GPa) = 39.14225 65.30857 52.22541
# Shear Modulus (GPa) = 21.41223 28.33952 24.87587
#
# Velocity S-wave (km/s) = 3.22258 3.70739 3.47345
# Velocity P-wave (km/s) = 5.72982 7.07115 6.43553
#
# Compressibility (1/GPa) = 0.02554784
#
# Stress axis : x y z
#
# Youngs Moduli (GPa) = 58.72635 76.67761 84.01749
#
# Poissons Ratio (x) = 0.43263 -0.07582
# Poissons Ratio (y) = 0.33134 0.29174
# Poissons Ratio (z) = -0.05299 0.26625
#
# Static dielectric constant tensor:
#      x y z
#    x 4.056650 0.000000 0.428490 
#    y 0.000000 3.342190 0.000000 
#    z 0.428490 0.000000 4.341610 
# 
# 
# High freq. dielectric constant tensor:
#      x y z
#    x 1.823610 0.000000 0.024470 
#    y 0.000000 1.743790 0.000000 
#    z 0.024470 0.000000 1.821400 
# 
# From -- ./inp_files/87636.got.cif
#   From: 2010.06.25/outbox.cif.g09.slc.cpg/sg12_44_cif.got.tgz:87636.got - 2010.06.28 00:19:55.
