data_PCOD8095974
_publ_section_title
;
Structure prediction by ZEFSAII (Michael W. Deem and Ramdas Pophale) SiO2 
 PCOD8095974
Probable space group: C 2/M
;
_chemical_formula_sum "Si O2"
_cell_formula_units_Z 64
_cell_length_a 19.580381
_cell_length_b 9.047461
_cell_length_c 24.924560
_cell_angle_alpha 90.000000
_cell_angle_beta 54.476799
_cell_angle_gamma 90.000000
_cell_volume 3593.650996
_symmetry_space_group_name_H-M "C 2/M"
_symmetry_group_IT_number 12
_symmetry_cell_setting 'monoclinic'
loop_
_space_group_symop_operation_xyz
x,y,z
-x,y,-z
-x,-y,-z
x,-y,z
1/2+x,1/2+y,z
1/2-x,1/2+y,-z
1/2-x,1/2-y,-z
1/2+x,1/2-y,z
loop_
_atom_site_type_symbol
_atom_site_label
_atom_site_fract_x
_atom_site_fract_y
_atom_site_fract_z
Si Si1 0.738918 0.328316 0.924350
Si Si2 0.203085 0.334141 0.834884
Si Si3 0.238413 0.673207 0.448945
Si Si4 0.150978 0.169884 0.697877
Si Si5 0.877473 0.172646 0.923345
Si Si6 0.548223 0.170478 0.826096
Si Si7 0.093109 0.169646 0.450556
Si Si8 0.790048 0.166115 0.693477
O O1 0.761063 0.500000 0.913860
O O2 0.704491 0.281484 0.882239
O O3 0.823776 0.240392 0.899094
O O4 0.667111 0.290836 0.000075
O O5 0.198652 0.500000 0.860656
O O6 0.122844 0.301936 0.834170
O O7 0.287319 0.314856 0.759428
O O8 0.223572 0.500000 0.463496
O O9 0.250000 0.750000 0.500000
O O10 0.323616 0.702890 0.375510
O O11 0.156738 0.738731 0.457655
O O12 0.073900 0.268141 0.755286
O O13 0.233377 0.206430 0.694384
O O14 0.126463 0.000000 0.717484
O O15 0.968425 0.244040 0.884943
O O16 0.886289 0.000000 0.908832
O O17 0.525026 0.000000 0.830585
O O18 0.118206 0.180872 0.375596
O O19 0.000000 0.235581 0.500000
O O20 0.095629 0.000000 0.469094
O O21 0.753469 0.000000 0.697205
#
# Coordination Sequence:
#
# PCOD8095974 Si02
#       8
#     8   8   8   8   8   8   8   8
#     4  10  21  36  54  75 100 133 171 208 249 299
#     4   9  18  32  51  75 102 132 165 205 252 300
#     4  10  20  33  51  74 101 135 172 210 252 298
#     4   9  17  30  49  73  99 130 168 208 252 298
#     4  10  21  37  55  74 100 134 169 207 251 299
#     4  10  20  34  54  79 104 131 165 205 250 300
#     4   9  17  31  52  75 100 132 169 209 252 299
#     4   8  15  29  48  71  99 132 167 202 248 302
#
# _framework density 17.809186
#
# number of rings (size 3 to 8) (size 9 to 14) (size 15 to 20)
#    0.000    2.625    0.000    2.625    0.000    6.250 
#    0.000    3.750    0.000    6.000    0.000    0.000 
#    0.000    0.000    0.000    0.000    0.000    0.000 
#
# Total GULP energy -396632.266798 kJ/mol
# GULP energy per Si atom -12394.758337 kJ/mol
# Density = 1.776865 g / cm^3
# Si number density = 17.809186 Si / 1000 Ang^3
#
#
#
# Elastic Constant Matrix: (Units=GPa)
#
#
# Indices 1 2 3 4 5 6 
#
# 1 65.3782 42.4937 56.8992 0.0000 -1.8050 0.0003
# 2 42.4937 92.9471 61.2925 -0.0001 3.4653 0.0003
# 3 56.8992 61.2925 119.4190 0.0000 -1.8065 0.0000
# 4 0.0000 -0.0001 0.0000 30.8957 0.0000 0.3939
# 5 -1.8050 3.4653 -1.8065 0.0000 27.5402 0.0000
# 6 0.0003 0.0003 0.0000 0.3939 0.0000 29.4583
#
#
#
# Elastic Compliance Matrix: (Units=1/GPa)
#
#
# Indices 1 2 3 4 5 6 
#
# 1 0.028358 -0.006270 -0.010264 0.000000 0.001974 0.000000
# 2 -0.006270 0.017837 -0.006214 0.000000 -0.003063 0.000000
# 3 -0.010264 -0.006214 0.016471 0.000000 0.001190 0.000000
# 4 0.000000 0.000000 0.000000 0.032373 0.000000 -0.000433
# 5 0.001974 -0.003063 0.001190 0.000000 0.036903 0.000000
# 6 0.000000 0.000000 0.000000 -0.000433 0.000000 0.033952
#
#
# Mechanical properties :
#
#
# Convention : Reuss Voigt Hill
#
# Bulk Modulus (GPa) = 58.23631 66.56833 62.40232
# Shear Modulus (GPa) = 23.02939 25.38275 24.20607
#
# Velocity S-wave (km/s) = 3.59990 3.77936 3.69072
# Velocity P-wave (km/s) = 7.07461 7.51695 7.29913
#
# Compressibility (1/GPa) = 0.01717142
#
# Stress axis : x y z
#
# Youngs Moduli (GPa) = 35.26338 56.06234 60.71124
#
# Poissons Ratio (x) = 0.35152 0.62311
# Poissons Ratio (y) = 0.22111 0.37725
# Poissons Ratio (z) = 0.36193 0.34836
#
# Static dielectric constant tensor:
#      x y z
#    x 2.929220 0.000000 -0.064090 
#    y 0.000000 3.369260 0.000000 
#    z -0.064090 0.000000 3.663750 
# 
# 
# High freq. dielectric constant tensor:
#      x y z
#    x 1.647200 0.000000 -0.003890 
#    y 0.000000 1.699580 0.000000 
#    z -0.003890 0.000000 1.704930 
# 
# From -- ./inp_files/346040.got.cif
#   From: 2010.06.25/outbox.cif.g09.slc.cpg/sg12_174_cif.got.tgz:346040.got - 2010.06.28 00:19:55.
