data_PCOD8095993
_publ_section_title
;
Structure prediction by ZEFSAII (Michael W. Deem and Ramdas Pophale) SiO2 
 PCOD8095993
Probable space group: C 2/M
;
_chemical_formula_sum "Si O2"
_cell_formula_units_Z 64
_cell_length_a 25.006175
_cell_length_b 9.054681
_cell_length_c 23.550857
_cell_angle_alpha 90.000000
_cell_angle_beta 46.108077
_cell_angle_gamma 90.000000
_cell_volume 3842.827025
_symmetry_space_group_name_H-M "C 2/M"
_symmetry_group_IT_number 12
_symmetry_cell_setting 'monoclinic'
loop_
_space_group_symop_operation_xyz
x,y,z
-x,y,-z
-x,-y,-z
x,-y,z
1/2+x,1/2+y,z
1/2-x,1/2+y,-z
1/2-x,1/2-y,-z
1/2+x,1/2-y,z
loop_
_atom_site_type_symbol
_atom_site_label
_atom_site_fract_x
_atom_site_fract_y
_atom_site_fract_z
Si Si1 0.800962 0.171538 0.838201
Si Si2 0.169210 0.672353 0.416095
Si Si3 0.128794 0.826683 0.332798
Si Si4 0.018667 0.328431 0.594292
Si Si5 0.276341 0.825153 0.423189
Si Si6 0.554497 0.827619 0.694567
Si Si7 0.421867 0.330095 0.839892
Si Si8 0.797949 0.171174 0.012079
O O1 0.821053 0.206942 0.758920
O O2 0.867727 0.228107 0.829529
O O3 0.724208 0.256419 0.911081
O O4 0.786845 0.000000 0.859452
O O5 0.189755 0.500000 0.399337
O O6 0.167564 0.737682 0.354442
O O7 0.090570 0.698340 0.503402
O O8 0.232379 0.760205 0.402698
O O9 0.045671 0.770194 0.384792
O O10 0.125759 0.000000 0.348953
O O11 0.994891 0.500000 0.610859
O O12 0.036461 0.271114 0.644380
O O13 0.250000 0.750000 0.500000
O O14 0.362182 0.785111 0.350065
O O15 0.263944 0.000000 0.437542
O O16 0.499339 0.755715 0.780876
O O17 0.542074 0.000000 0.706239
O O18 0.439816 0.500000 0.815559
O O19 0.384031 0.306467 0.929958
O O20 0.777365 0.000000 0.028742
O O21 0.750000 0.250000 0.000000
#
# Coordination Sequence:
#
# PCOD8095993 Si02
#       8
#     8   8   8   8   8   8   8   8
#     4   9  18  31  46  69 102 134 167 203 244 297
#     4  11  23  39  54  73 100 135 176 217 258 303
#     4  11  22  35  51  76 105 136 174 213 252 302
#     4  10  20  35  51  72 103 136 171 211 253 302
#     4  11  22  38  56  76 100 131 172 217 260 303
#     4  10  20  33  51  75 101 132 170 208 253 302
#     4   9  17  30  46  71 102 131 165 206 246 296
#     4   9  17  28  44  68  99 132 166 201 243 296
#
# _framework density 16.654405000000001
#
# number of rings (size 3 to 8) (size 9 to 14) (size 15 to 20)
#    0.000    2.000    2.500    2.625    0.000    7.000 
#    0.000    0.000    0.000    0.000    0.000    0.875 
#    0.000    7.000    0.000    0.000    0.000    0.000 
#
# Total GULP energy -396779.378760 kJ/mol
# GULP energy per Si atom -12399.355586 kJ/mol
# Density = 1.661650 g / cm^3
# Si number density = 16.654405 Si / 1000 Ang^3
#
#
#
# Elastic Constant Matrix: (Units=GPa)
#
#
# Indices 1 2 3 4 5 6 
#
# 1 93.6561 49.3854 53.2244 0.0003 -0.5732 -0.0005
# 2 49.3854 74.4323 58.5901 0.0011 -11.9627 0.0003
# 3 53.2244 58.5901 120.2456 0.0003 -13.8438 -0.0001
# 4 0.0003 0.0011 0.0003 33.8443 -0.0002 -1.2975
# 5 -0.5732 -11.9627 -13.8438 -0.0002 13.8538 0.0003
# 6 -0.0005 0.0003 -0.0001 -1.2975 0.0003 26.7379
#
#
#
# Elastic Compliance Matrix: (Units=1/GPa)
#
#
# Indices 1 2 3 4 5 6 
#
# 1 0.019114 -0.011301 -0.004505 0.000000 -0.013469 0.000001
# 2 -0.011301 0.029583 -0.007374 -0.000001 0.017709 -0.000001
# 3 -0.004505 -0.007374 0.014858 0.000000 0.008294 0.000000
# 4 0.000000 -0.000001 0.000000 0.029602 0.000000 0.001436
# 5 -0.013469 0.017709 0.008294 0.000000 0.095205 -0.000002
# 6 0.000001 -0.000001 0.000000 0.001436 -0.000002 0.037470
#
#
# Mechanical properties :
#
#
# Convention : Reuss Voigt Hill
#
# Bulk Modulus (GPa) = 58.14983 67.85931 63.00457
# Shear Modulus (GPa) = 17.99061 23.36280 20.67670
#
# Velocity S-wave (km/s) = 3.29025 3.74946 3.52734
# Velocity P-wave (km/s) = 7.03034 7.71872 7.38256
#
# Compressibility (1/GPa) = 0.01719695
#
# Stress axis : x y z
#
# Youngs Moduli (GPa) = 52.31798 33.80267 67.30377
#
# Poissons Ratio (x) = 0.38199 0.30319
# Poissons Ratio (y) = 0.59123 0.49628
# Poissons Ratio (z) = 0.23568 0.24925
#
# Static dielectric constant tensor:
#      x y z
#    x 3.104420 0.000000 -0.067820 
#    y 0.000000 3.531680 0.000020 
#    z -0.067820 0.000020 3.622250 
# 
# 
# High freq. dielectric constant tensor:
#      x y z
#    x 1.603720 0.000000 -0.005300 
#    y 0.000000 1.651990 0.000000 
#    z -0.005300 0.000000 1.649770 
# 
# From -- ./inp_files/324145.got.cif
#   From: 2010.06.25/outbox.cif.g09.slc.cpg/sg12_163_cif.got.tgz:324145.got - 2010.06.28 00:19:55.
