data_PCOD8095761
_publ_section_title
;
Structure prediction by ZEFSAII (Michael W. Deem and Ramdas Pophale) SiO2 
 PCOD8095761
Probable space group: C 2/M
;
_chemical_formula_sum "Si O2"
_cell_formula_units_Z 64
_cell_length_a 21.859305
_cell_length_b 9.274042
_cell_length_c 18.779805
_cell_angle_alpha 90.000000
_cell_angle_beta 96.632183
_cell_angle_gamma 90.000000
_cell_volume 3781.642248
_symmetry_space_group_name_H-M "C 2/M"
_symmetry_group_IT_number 12
_symmetry_cell_setting 'monoclinic'
loop_
_space_group_symop_operation_xyz
x,y,z
-x,y,-z
-x,-y,-z
x,-y,z
1/2+x,1/2+y,z
1/2-x,1/2+y,-z
1/2-x,1/2-y,-z
1/2+x,1/2-y,z
loop_
_atom_site_type_symbol
_atom_site_label
_atom_site_fract_x
_atom_site_fract_y
_atom_site_fract_z
Si Si1 0.603175 0.339782 0.616060
Si Si2 0.996906 0.166940 0.196505
Si Si3 0.295786 0.166260 0.101153
Si Si4 0.537129 0.340373 0.354241
Si Si5 0.339457 0.333079 0.973605
Si Si6 0.358831 0.332980 0.226699
Si Si7 0.453236 0.831473 0.930034
Si Si8 0.570467 0.839004 0.484902
O O1 0.624123 0.500000 0.596612
O O2 0.532302 0.342652 0.628005
O O3 0.641927 0.287346 0.690069
O O4 0.613575 0.236992 0.549727
O O5 0.037388 0.207430 0.271700
O O6 0.016196 0.275345 0.137727
O O7 0.925509 0.194252 0.202086
O O8 0.008162 0.000000 0.176613
O O9 0.223561 0.183217 0.078128
O O10 0.309555 0.232258 0.180422
O O11 0.316492 0.000000 0.100245
O O12 0.335216 0.254752 0.048924
O O13 0.565442 0.500000 0.365492
O O14 0.577894 0.235269 0.408713
O O15 0.356267 0.500000 0.989245
O O16 0.391033 0.257007 0.933574
O O17 0.340048 0.500000 0.216039
O O18 0.437708 0.000000 0.920783
O O19 0.500000 0.800709 0.000000
O O20 0.500000 0.834472 0.500000
O O21 0.595088 0.000000 0.480088
#
# Coordination Sequence:
#
# PCOD8095761 Si02
#       8
#     8   8   8   8   8   8   8   8
#     4   8  14  24  37  55  81 114 150 181 211 256
#     4   9  18  31  46  65  89 120 156 187 220 268
#     4  10  20  33  50  71  92 114 145 187 229 265
#     4   8  14  25  39  54  77 112 150 183 214 255
#     4  10  21  36  52  68  88 118 152 183 220 269
#     4   9  17  29  46  67  91 122 155 184 221 269
#     4  11  23  35  48  69  94 118 147 186 229 266
#     4   9  15  21  32  53  80 111 146 182 221 259
#
# _framework density 16.923864999999999
#
# number of rings (size 3 to 8) (size 9 to 14) (size 15 to 20)
#    0.000    2.750    0.000    3.750    0.000    7.500 
#    0.000    2.500    0.000    0.000    0.000    0.000 
#    0.000    1.000    0.000    3.250    0.000    4.375 
#
# Total GULP energy -396729.164097 kJ/mol
# GULP energy per Si atom -12397.786378 kJ/mol
# Density = 1.688535 g / cm^3
# Si number density = 16.923865 Si / 1000 Ang^3
#
#
#
# Elastic Constant Matrix: (Units=GPa)
#
#
# Indices 1 2 3 4 5 6 
#
# 1 26.8555 28.4474 20.3474 0.0000 2.8890 0.0000
# 2 28.4474 126.3326 81.0137 0.0000 10.8882 0.0000
# 3 20.3474 81.0137 139.0336 0.0000 18.0442 0.0000
# 4 0.0000 0.0000 0.0000 29.2875 0.0000 4.6164
# 5 2.8890 10.8882 18.0442 0.0000 16.5299 0.0000
# 6 0.0000 0.0000 0.0000 4.6164 0.0000 19.1083
#
#
#
# Elastic Compliance Matrix: (Units=1/GPa)
#
#
# Indices 1 2 3 4 5 6 
#
# 1 0.049027 -0.010277 -0.001110 0.000000 -0.000587 0.000000
# 2 -0.010277 0.014794 -0.007089 0.000000 -0.000210 0.000000
# 3 -0.001110 -0.007089 0.012646 0.000000 -0.008941 0.000000
# 4 0.000000 0.000000 0.000000 0.035496 0.000000 -0.008576
# 5 -0.000587 -0.000210 -0.008941 0.000000 0.070498 0.000000
# 6 0.000000 0.000000 0.000000 -0.008576 0.000000 0.054405
#
#
# Mechanical properties :
#
#
# Convention : Reuss Voigt Hill
#
# Bulk Modulus (GPa) = 25.30754 61.31542 43.31148
# Shear Modulus (GPa) = 17.42220 23.81268 20.61744
#
# Velocity S-wave (km/s) = 3.21198 3.75513 3.49413
# Velocity P-wave (km/s) = 5.36115 7.42362 6.47503
#
# Compressibility (1/GPa) = 0.03951391
#
# Stress axis : x y z
#
# Youngs Moduli (GPa) = 20.39687 67.59552 79.07584
#
# Poissons Ratio (x) = 0.69469 0.08781
# Poissons Ratio (y) = 0.20962 0.56056
# Poissons Ratio (z) = 0.02265 0.47918
#
# Static dielectric constant tensor:
#      x y z
#    x 2.661580 0.000000 0.151180 
#    y 0.000000 3.322380 0.000000 
#    z 0.151180 0.000000 3.383240 
# 
# 
# High freq. dielectric constant tensor:
#      x y z
#    x 1.590710 0.000000 0.015420 
#    y 0.000000 1.661180 0.000000 
#    z 0.015420 0.000000 1.664030 
# 
# From -- ./inp_files/287705.got.cif
#   From: 2010.06.25/outbox.cif.g09.slc.cpg/sg12_144_cif.got.tgz:287705.got - 2010.06.28 00:19:55.
