data_PCOD8095355
_publ_section_title
;
Structure prediction by ZEFSAII (Michael W. Deem and Ramdas Pophale) SiO2 
 PCOD8095355
Probable space group: C 2/M
;
_chemical_formula_sum "Si O2"
_cell_formula_units_Z 56
_cell_length_a 18.607895
_cell_length_b 9.235775
_cell_length_c 25.177973
_cell_angle_alpha 90.000000
_cell_angle_beta 135.497646
_cell_angle_gamma 90.000000
_cell_volume 3032.992324
_symmetry_space_group_name_H-M "C 2/M"
_symmetry_group_IT_number 12
_symmetry_cell_setting 'monoclinic'
loop_
_space_group_symop_operation_xyz
x,y,z
-x,y,-z
-x,-y,-z
x,-y,z
1/2+x,1/2+y,z
1/2-x,1/2+y,-z
1/2-x,1/2-y,-z
1/2+x,1/2-y,z
loop_
_atom_site_type_symbol
_atom_site_label
_atom_site_fract_x
_atom_site_fract_y
_atom_site_fract_z
Si Si1 0.521370 0.334720 0.199958
Si Si2 0.589390 0.332483 0.506832
Si Si3 0.885342 0.833696 0.231351
Si Si4 0.318978 0.833933 0.653816
Si Si5 0.659727 0.170807 0.093987
Si Si6 0.050643 0.669913 0.379244
Si Si7 0.977805 0.329031 0.073249
O O1 0.543833 0.500000 0.196782
O O2 0.441507 0.320006 0.205201
O O3 0.629000 0.261855 0.272997
O O4 0.468059 0.254973 0.122933
O O5 0.500000 0.285190 0.500000
O O6 0.577561 0.500000 0.483848
O O7 0.697929 0.304948 0.592548
O O8 0.587233 0.234855 0.453790
O O9 0.772226 0.765229 0.164464
O O10 0.942587 0.740855 0.306201
O O11 0.881462 0.000000 0.248762
O O12 0.362807 0.792504 0.618848
O O13 0.345359 0.000000 0.680524
O O14 0.586035 0.213354 0.103620
O O15 0.667365 0.000000 0.093114
O O16 0.613303 0.226241 0.013527
O O17 0.034562 0.500000 0.377344
O O18 0.970759 0.500000 0.079919
#
# Coordination Sequence:
#
# PCOD8095355 Si02
#       7
#     8   8   8   8   8   8   8
#     4  10  20  32  49  75 103 130 161 200 247 293
#     4  10  21  36  54  76 100 128 164 202 241 289
#     4   9  18  34  53  72  98 131 167 203 239 288
#     4   9  19  36  55  73  96 130 168 201 238 289
#     4   8  16  32  53  73  93 128 173 206 238 286
#     4  10  20  34  53  76 101 129 162 201 246 291
#     4   9  17  32  53  73  96 128 167 207 244 288
#
# _framework density 18.463615000000001
#
# number of rings (size 3 to 8) (size 9 to 14) (size 15 to 20)
#    0.000    2.714    0.000    2.143    0.000    3.714 
#    0.000    8.571    0.000    0.000    0.000    0.000 
#    0.000    0.000    0.000    0.000    0.000    0.000 
#
# Total GULP energy -347220.736701 kJ/mol
# GULP energy per Si atom -12400.740596 kJ/mol
# Density = 1.842159 g / cm^3
# Si number density = 18.463615 Si / 1000 Ang^3
#
#
#
# Elastic Constant Matrix: (Units=GPa)
#
#
# Indices 1 2 3 4 5 6 
#
# 1 30.4377 12.9035 12.6964 0.0000 12.6092 0.0000
# 2 12.9035 60.4512 22.9965 0.0000 -2.8382 0.0000
# 3 12.6964 22.9965 67.0776 0.0000 18.5171 0.0000
# 4 0.0000 0.0000 0.0000 30.1990 0.0000 -9.8227
# 5 12.6092 -2.8382 18.5171 0.0000 37.0205 0.0000
# 6 0.0000 0.0000 0.0000 -9.8227 0.0000 18.0566
#
#
#
# Elastic Compliance Matrix: (Units=1/GPa)
#
#
# Indices 1 2 3 4 5 6 
#
# 1 0.043598 -0.009757 -0.000698 0.000000 -0.015248 0.000000
# 2 -0.009757 0.022214 -0.008303 0.000000 0.009179 0.000000
# 3 -0.000698 -0.008303 0.020880 0.000000 -0.010843 0.000000
# 4 0.000000 0.000000 0.000000 0.040233 0.000000 0.021886
# 5 -0.015248 0.009179 -0.010843 0.000000 0.038333 0.000000
# 6 0.000000 0.000000 0.000000 0.021886 0.000000 0.067287
#
#
# Mechanical properties :
#
#
# Convention : Reuss Voigt Hill
#
# Bulk Modulus (GPa) = 20.33461 28.35104 24.34283
# Shear Modulus (GPa) = 17.45488 24.34656 20.90072
#
# Velocity S-wave (km/s) = 3.07802 3.63523 3.36816
# Velocity P-wave (km/s) = 4.86513 5.74528 5.32343
#
# Compressibility (1/GPa) = 0.04917723
#
# Stress axis : x y z
#
# Youngs Moduli (GPa) = 22.93678 45.01580 47.89284
#
# Poissons Ratio (x) = 0.43920 0.03343
# Poissons Ratio (y) = 0.22378 0.39766
# Poissons Ratio (z) = 0.01601 0.37377
#
# Static dielectric constant tensor:
#      x y z
#    x 3.342050 0.000000 0.216900 
#    y 0.000000 3.273170 0.000000 
#    z 0.216900 0.000000 3.625810 
# 
# 
# High freq. dielectric constant tensor:
#      x y z
#    x 1.706980 0.000000 0.002790 
#    y 0.000000 1.699350 0.000000 
#    z 0.002790 0.000000 1.726790 
# 
# From -- ./inp_files/342550.got.cif
#   From: 2010.06.25/outbox.cif.g09.slc.cpg/sg12_172_cif.got.tgz:342550.got - 2010.06.28 00:19:55.
