data_PCOD8095034
_publ_section_title
;
Structure prediction by ZEFSAII (Michael W. Deem and Ramdas Pophale) SiO2 
 PCOD8095034
Probable space group: C 2/M
;
_chemical_formula_sum "Si O2"
_cell_formula_units_Z 56
_cell_length_a 9.715287
_cell_length_b 18.647382
_cell_length_c 21.252603
_cell_angle_alpha 90.000000
_cell_angle_beta 125.540844
_cell_angle_gamma 90.000000
_cell_volume 3132.929836
_symmetry_space_group_name_H-M "C 2/M"
_symmetry_group_IT_number 12
_symmetry_cell_setting 'monoclinic'
loop_
_space_group_symop_operation_xyz
x,y,z
-x,y,-z
-x,-y,-z
x,-y,z
1/2+x,1/2+y,z
1/2-x,1/2+y,-z
1/2-x,1/2-y,-z
1/2+x,1/2-y,z
loop_
_atom_site_type_symbol
_atom_site_label
_atom_site_fract_x
_atom_site_fract_y
_atom_site_fract_z
Si Si1 0.836139 0.416957 0.140830
Si Si2 0.684666 0.338724 0.541346
Si Si3 0.699190 0.315399 0.283039
Si Si4 0.153149 0.414743 0.997425
Si Si5 0.029609 0.675531 0.290417
Si Si6 0.520532 0.416646 0.139097
Si Si7 0.315077 0.831859 0.445994
O O1 0.881889 0.500000 0.152675
O O2 0.862123 0.384495 0.077758
O O3 0.642182 0.404614 0.111160
O O4 0.965768 0.381448 0.223216
O O5 0.500000 0.372962 0.500000
O O6 0.825996 0.364375 0.629235
O O7 0.681774 0.253683 0.548801
O O8 0.719362 0.364292 0.479874
O O9 0.601207 0.241601 0.269204
O O10 0.582741 0.369340 0.213538
O O11 0.731896 0.355084 0.358148
O O12 0.877223 0.298422 0.295591
O O13 0.147922 0.500000 0.994156
O O14 0.332644 0.389478 0.072834
O O15 0.000000 0.384463 0.000000
O O16 0.521758 0.500000 0.159592
O O17 0.500000 0.864811 0.500000
#
# Coordination Sequence:
#
# PCOD8095034 Si02
#       7
#     8   8   8   8   8   8   8
#     4   9  18  34  55  74  96 129 164 199 239 288
#     4   9  17  27  44  68  94 126 166 201 238 280
#     4  10  20  31  49  75 101 129 161 203 246 286
#     4   9  17  31  52  77  99 123 161 202 239 285
#     4  10  20  32  48  75 102 127 163 202 245 289
#     4   9  18  34  54  74  98 128 164 199 238 290
#     4   9  15  27  44  66  95 125 162 203 236 279
#
# _framework density 17.874642999999999
#
# number of rings (size 3 to 8) (size 9 to 14) (size 15 to 20)
#    0.000    2.714    1.429    0.429    6.000    2.857 
#    0.000    0.714    0.000    1.714    0.000    0.000 
#    0.000    0.000    0.000    0.000    0.000    0.000 
#
# Total GULP energy -347019.769915 kJ/mol
# GULP energy per Si atom -12393.563211 kJ/mol
# Density = 1.783396 g / cm^3
# Si number density = 17.874643 Si / 1000 Ang^3
#
#
#
# Elastic Constant Matrix: (Units=GPa)
#
#
# Indices 1 2 3 4 5 6 
#
# 1 155.3858 30.8198 97.3590 0.0000 -1.5912 0.0000
# 2 30.8198 28.5215 36.4081 0.0000 -1.9154 0.0000
# 3 97.3590 36.4081 163.8966 0.0000 -2.2581 0.0000
# 4 0.0000 0.0000 0.0000 0.4792 0.0000 2.2592
# 5 -1.5912 -1.9154 -2.2581 0.0000 36.7660 0.0000
# 6 0.0000 0.0000 0.0000 2.2592 0.0000 14.7161
#
#
#
# Elastic Compliance Matrix: (Units=1/GPa)
#
#
# Indices 1 2 3 4 5 6 
#
# 1 0.010705 -0.004824 -0.005289 -0.000001 -0.000113 0.000000
# 2 -0.004824 0.051243 -0.008491 -0.000002 0.001939 0.000000
# 3 -0.005289 -0.008491 0.011130 0.000003 0.000012 0.000000
# 4 -0.000001 -0.000002 0.000003 7.555155 0.000005 -1.159878
# 5 -0.000113 0.001939 0.000012 0.000005 0.027296 -0.000001
# 6 0.000000 0.000000 0.000000 -1.159878 -0.000001 0.246019
#
#
# Mechanical properties :
#
#
# Convention : Reuss Voigt Hill
#
# Bulk Modulus (GPa) = 27.87845 75.21977 51.54911
# Shear Modulus (GPa) = 0.62887 22.60672 11.61780
#
# Velocity S-wave (km/s) = 0.59379 3.56017 2.55220
# Velocity P-wave (km/s) = 4.01256 7.68589 6.13081
#
# Compressibility (1/GPa) = 0.03587000
#
# Stress axis : x y z
#
# Youngs Moduli (GPa) = 93.41255 19.51489 89.84966
#
# Poissons Ratio (x) = 0.09413 0.47523
# Poissons Ratio (y) = 0.45059 0.76292
# Poissons Ratio (z) = 0.49408 0.16570
#
# Static dielectric constant tensor:
#      x y z
#    x 3.673800 0.000000 -0.020120 
#    y 0.000000 2.738900 0.000000 
#    z -0.020120 0.000000 3.548740 
# 
# 
# High freq. dielectric constant tensor:
#      x y z
#    x 1.707930 0.000000 -0.001480 
#    y 0.000000 1.629070 0.000000 
#    z -0.001480 0.000000 1.708190 
# 
# From -- ./inp_files/198341.got.cif
#   From: 2010.06.25/outbox.cif.g09.slc.cpg/sg12_100_cif.got.tgz:198341.got - 2010.06.28 00:19:55.
