data_PCOD8095365
_publ_section_title
;
Structure prediction by ZEFSAII (Michael W. Deem and Ramdas Pophale) SiO2 
 PCOD8095365
Probable space group: C 2/M
;
_chemical_formula_sum "Si O2"
_cell_formula_units_Z 64
_cell_length_a 18.476360
_cell_length_b 14.255349
_cell_length_c 14.062591
_cell_angle_alpha 90.000000
_cell_angle_beta 89.104450
_cell_angle_gamma 90.000000
_cell_volume 3703.450660
_symmetry_space_group_name_H-M "C 2/M"
_symmetry_group_IT_number 12
_symmetry_cell_setting 'monoclinic'
loop_
_space_group_symop_operation_xyz
x,y,z
-x,y,-z
-x,-y,-z
x,-y,z
1/2+x,1/2+y,z
1/2-x,1/2+y,-z
1/2-x,1/2-y,-z
1/2+x,1/2-y,z
loop_
_atom_site_type_symbol
_atom_site_label
_atom_site_fract_x
_atom_site_fract_y
_atom_site_fract_z
Si Si1 0.148349 0.390079 0.205216
Si Si2 0.583119 0.888524 0.609015
Si Si3 0.374446 0.215511 0.213134
Si Si4 0.731710 0.735727 0.109707
Si Si5 0.599234 0.607999 0.080074
Si Si6 0.499410 0.894426 0.888128
Si Si7 0.080812 0.610288 0.398359
Si Si8 0.437975 0.608063 0.135515
O O1 0.164886 0.500000 0.195981
O O2 0.216029 0.335863 0.159397
O O3 0.136949 0.358635 0.315556
O O4 0.077879 0.359775 0.147328
O O5 0.630658 0.827243 0.680976
O O6 0.500069 0.855769 0.625847
O O7 0.607070 0.856593 0.502109
O O8 0.594519 0.000000 0.625743
O O9 0.299355 0.191255 0.163187
O O10 0.437258 0.167969 0.152228
O O11 0.394297 0.326702 0.211282
O O12 0.662795 0.668689 0.125323
O O13 0.750000 0.750000 0.000000
O O14 0.617988 0.500000 0.097990
O O15 0.523254 0.633409 0.132077
O O16 0.594775 0.627632 0.967877
O O17 0.512889 0.000000 0.851598
O O18 0.500000 0.886519 0.000000
O O19 0.074071 0.500000 0.402659
O O20 0.426594 0.500000 0.165813
#
# Coordination Sequence:
#
# PCOD8095365 Si02
#       8
#     8   8   8   8   8   8   8   8
#     4  10  20  36  55  75 104 143 179 213 254 315
#     4   9  17  31  54  87 110 127 162 214 278 328
#     4  12  21  30  52  77 110 136 166 218 264 316
#     4  12  24  34  46  76 113 145 174 206 262 319
#     4   9  19  36  52  65  90 137 187 221 247 286
#     4  10  20  32  49  76 106 136 169 210 264 320
#     4   8  15  32  57  80 106 132 167 215 262 324
#     4   9  19  35  54  68  87 133 193 228 241 278
#
# _framework density 17.281181
#
# number of rings (size 3 to 8) (size 9 to 14) (size 15 to 20)
#    0.000    2.125    2.500    3.375    1.750    2.000 
#    0.000    0.625    0.000    0.000    0.000    2.625 
#    0.000    0.000    0.000    0.000    0.000    0.000 
#
# Total GULP energy -396729.752492 kJ/mol
# GULP energy per Si atom -12397.804765 kJ/mol
# Density = 1.724185 g / cm^3
# Si number density = 17.281181 Si / 1000 Ang^3
#
#
#
# Elastic Constant Matrix: (Units=GPa)
#
#
# Indices 1 2 3 4 5 6 
#
# 1 24.6094 16.7407 47.4932 0.0000 10.5643 0.0000
# 2 16.7407 58.2777 41.1333 0.0000 3.4930 0.0000
# 3 47.4932 41.1333 94.1371 0.0000 9.7137 0.0000
# 4 0.0000 0.0000 0.0000 25.5398 0.0000 -3.1928
# 5 10.5643 3.4930 9.7137 0.0000 25.1778 0.0000
# 6 0.0000 0.0000 0.0000 -3.1928 0.0000 18.3678
#
#
#
# Elastic Compliance Matrix: (Units=1/GPa)
#
#
# Indices 1 2 3 4 5 6 
#
# 1 -0.958319 -0.091249 0.500481 0.000000 0.221668 0.000000
# 2 -0.091249 0.016137 0.036728 0.000000 0.021878 0.000000
# 3 0.500481 0.036728 -0.245503 0.000000 -0.120374 0.000000
# 4 0.000000 0.000000 0.000000 0.040024 0.000000 0.006957
# 5 0.221668 0.021878 -0.120374 0.000000 -0.009886 0.000000
# 6 0.000000 0.000000 0.000000 0.006957 0.000000 0.055653
#
#
# Mechanical properties :
#
#
# Convention : Reuss Voigt Hill
#
# Bulk Modulus (GPa) = -3.38105 43.08430 19.85162
# Shear Modulus (GPa) = -2.38960 18.59420 8.10230
#
# Velocity S-wave (km/s) = -1.17719 3.28377 2.16765
# Velocity P-wave (km/s) = 1.95152 6.27399 4.21631
#
# Compressibility (1/GPa) = -0.29576570
#
# Stress axis : x y z
#
# Youngs Moduli (GPa) = -1.04349 61.96955 -4.07327
#
# Poissons Ratio (x) = 5.65468 2.03860
# Poissons Ratio (y) = -0.09522 0.14960
# Poissons Ratio (z) = 0.52225 -2.27600
#
# Static dielectric constant tensor:
#      x y z
#    x 2.990910 0.000000 0.086100 
#    y 0.000000 3.237590 0.000000 
#    z 0.086100 0.000000 3.507250 
# 
# 
# High freq. dielectric constant tensor:
#      x y z
#    x 1.654980 0.000000 0.001220 
#    y 0.000000 1.657730 0.000000 
#    z 0.001220 0.000000 1.652650 
# 
# From -- ./inp_files/224737.got.cif
#   From: 2010.06.25/outbox.cif.g09.slc.cpg/sg12_113_cif.got.tgz:224737.got - 2010.06.28 00:19:55.
