data_PCOD8095753
_publ_section_title
;
Structure prediction by ZEFSAII (Michael W. Deem and Ramdas Pophale) SiO2 
 PCOD8095753
Probable space group: C 2/M
;
_chemical_formula_sum "Si O2"
_cell_formula_units_Z 48
_cell_length_a 28.588231
_cell_length_b 8.772011
_cell_length_c 11.193703
_cell_angle_alpha 90.000000
_cell_angle_beta 76.967971
_cell_angle_gamma 90.000000
_cell_volume 2734.815560
_symmetry_space_group_name_H-M "C 2/M"
_symmetry_group_IT_number 12
_symmetry_cell_setting 'monoclinic'
loop_
_space_group_symop_operation_xyz
x,y,z
-x,y,-z
-x,-y,-z
x,-y,z
1/2+x,1/2+y,z
1/2-x,1/2+y,-z
1/2-x,1/2-y,-z
1/2+x,1/2-y,z
loop_
_atom_site_type_symbol
_atom_site_label
_atom_site_fract_x
_atom_site_fract_y
_atom_site_fract_z
Si Si1 0.706177 0.180492 0.596977
Si Si2 0.182557 0.176732 0.106282
Si Si3 0.507929 0.180713 0.626915
Si Si4 0.728982 0.323290 0.829484
Si Si5 0.594452 0.179751 0.268551
Si Si6 0.609973 0.819684 0.533650
O O1 0.750000 0.250000 0.500000
O O2 0.707540 0.226831 0.733941
O O3 0.657128 0.249424 0.568847
O O4 0.708325 0.000000 0.583915
O O5 0.216693 0.272470 0.174469
O O6 0.128008 0.228500 0.158260
O O7 0.189540 0.000000 0.132345
O O8 0.195211 0.211124 0.961856
O O9 0.500000 0.247919 0.500000
O O10 0.461051 0.228742 0.731675
O O11 0.561600 0.236553 0.634321
O O12 0.508058 0.000000 0.619660
O O13 0.729966 0.500000 0.793673
O O14 0.607360 0.229203 0.396489
O O15 0.602156 0.000000 0.245735
O O16 0.612739 0.000000 0.539512
#
# Coordination Sequence:
#
# PCOD8095753 Si02
#       6
#     8   8   8   8   8   8
#     4  11  21  32  49  72  99 129 159 192 232 280
#     4  10  20  33  50  70  93 121 154 197 243 285
#     4   7  11  22  42  68  94 120 152 188 227 271
#     4  10  21  36  50  66  92 125 161 197 234 279
#     4   9  15  26  49  75  96 120 152 191 234 280
#     4   8  15  27  44  69  98 125 153 188 229 274
#
# _framework density 17.551456999999999
#
# number of rings (size 3 to 8) (size 9 to 14) (size 15 to 20)
#    0.000    2.833    0.000    4.500    0.000    3.333 
#    0.000    0.833    0.000    7.500    0.000    7.000 
#    0.000    0.000    0.000    0.000    0.000    0.000 
#
# Total GULP energy -297365.480434 kJ/mol
# GULP energy per Si atom -12390.228351 kJ/mol
# Density = 1.751151 g / cm^3
# Si number density = 17.551457 Si / 1000 Ang^3
#
#
#
# Elastic Constant Matrix: (Units=GPa)
#
#
# Indices 1 2 3 4 5 6 
#
# 1 166.0910 31.2402 59.3195 0.0000 -23.6672 0.0000
# 2 31.2402 41.6442 25.6406 0.0000 -4.6949 0.0000
# 3 59.3195 25.6406 68.2544 0.0000 -11.2863 0.0000
# 4 0.0000 0.0000 0.0000 24.7363 0.0000 -3.0284
# 5 -23.6672 -4.6949 -11.2863 0.0000 30.7077 0.0000
# 6 0.0000 0.0000 0.0000 -3.0284 0.0000 21.0533
#
#
#
# Elastic Compliance Matrix: (Units=1/GPa)
#
#
# Indices 1 2 3 4 5 6 
#
# 1 0.009479 -0.002588 -0.006520 0.000000 0.004514 0.000000
# 2 -0.002588 0.031952 -0.009876 0.000000 -0.000739 0.000000
# 3 -0.006520 -0.009876 0.024432 0.000000 0.002445 0.000000
# 4 0.000000 0.000000 0.000000 0.041151 0.000000 0.005919
# 5 0.004514 -0.000739 0.002445 0.000000 0.036830 0.000000
# 6 0.000000 0.000000 0.000000 0.005919 0.000000 0.048350
#
#
# Mechanical properties :
#
#
# Convention : Reuss Voigt Hill
#
# Bulk Modulus (GPa) = 35.84871 56.48781 46.16826
# Shear Modulus (GPa) = 20.88031 25.95207 23.41619
#
# Velocity S-wave (km/s) = 3.45289 3.84946 3.65656
# Velocity P-wave (km/s) = 6.03041 7.21192 6.64747
#
# Compressibility (1/GPa) = 0.02789500
#
# Stress axis : x y z
#
# Youngs Moduli (GPa) = 105.49240 31.29718 40.93026
#
# Poissons Ratio (x) = 0.08099 0.26686
# Poissons Ratio (y) = 0.27300 0.40424
# Poissons Ratio (z) = 0.68780 0.30910
#
# Static dielectric constant tensor:
#      x y z
#    x 3.844970 0.000000 -0.161220 
#    y 0.000000 2.974850 0.000000 
#    z -0.161220 0.000000 3.099420 
# 
# 
# High freq. dielectric constant tensor:
#      x y z
#    x 1.690560 0.000000 -0.023620 
#    y 0.000000 1.652710 0.000000 
#    z -0.023620 0.000000 1.650360 
# 
# From -- ./inp_files/179232.got.cif
#   From: 2010.06.25/outbox.cif.g09.slc.cpg/sg12_90_cif.got.tgz:179232.got - 2010.06.28 00:19:55.
