data_PCOD8095465
_publ_section_title
;
Structure prediction by ZEFSAII (Michael W. Deem and Ramdas Pophale) SiO2 
 PCOD8095465
Probable space group: C 2/M
;
_chemical_formula_sum "Si O2"
_cell_formula_units_Z 64
_cell_length_a 30.374449
_cell_length_b 9.417444
_cell_length_c 14.949237
_cell_angle_alpha 90.000000
_cell_angle_beta 132.877431
_cell_angle_gamma 90.000000
_cell_volume 3133.664156
_symmetry_space_group_name_H-M "C 2/M"
_symmetry_group_IT_number 12
_symmetry_cell_setting 'monoclinic'
loop_
_space_group_symop_operation_xyz
x,y,z
-x,y,-z
-x,-y,-z
x,-y,z
1/2+x,1/2+y,z
1/2-x,1/2+y,-z
1/2-x,1/2-y,-z
1/2+x,1/2-y,z
loop_
_atom_site_type_symbol
_atom_site_label
_atom_site_fract_x
_atom_site_fract_y
_atom_site_fract_z
Si Si1 0.879859 0.157838 0.676067
Si Si2 0.545622 0.335915 0.642234
Si Si3 0.571651 0.165744 0.848331
Si Si4 0.669573 0.662000 0.721686
Si Si5 0.691974 0.337926 0.254069
Si Si6 0.987854 0.840836 0.083235
Si Si7 0.803169 0.661510 0.913993
Si Si8 0.328686 0.837297 0.451018
O O1 0.851894 0.218669 0.729192
O O2 0.867784 0.265698 0.580614
O O3 0.950601 0.148523 0.778809
O O4 0.852883 0.000000 0.619468
O O5 0.500000 0.286237 0.500000
O O6 0.531939 0.500000 0.646378
O O7 0.536162 0.242333 0.718175
O O8 0.615560 0.313327 0.715551
O O9 0.554358 0.234027 0.920031
O O10 0.553940 0.000000 0.822845
O O11 0.644551 0.185809 0.939568
O O12 0.668645 0.500000 0.685719
O O13 0.735461 0.698261 0.856269
O O14 0.656580 0.764690 0.622001
O O15 0.677506 0.500000 0.210837
O O16 0.679668 0.252692 0.147861
O O17 0.759535 0.318264 0.382082
O O18 0.958807 0.000000 0.037128
O O19 0.000000 0.781818 0.000000
O O20 0.804363 0.500000 0.882911
O O21 0.347924 0.000000 0.469224
#
# Coordination Sequence:
#
# PCOD8095465 Si02
#       8
#     8   8   8   8   8   8   8   8
#     4  10  20  33  52  76 107 149 195 239 284 340
#     4  10  23  42  64  88 115 152 199 245 287 344
#     4  11  24  40  60  89 122 155 191 240 302 357
#     4   9  19  38  61  83 112 151 192 237 285 337
#     4   9  18  33  53  80 112 149 192 237 283 333
#     4  10  22  40  61  84 112 153 203 246 285 340
#     4   9  19  36  58  84 115 150 188 232 290 352
#     4  10  20  32  51  82 116 147 186 235 288 345
#
# _framework density 20.423376000000001
#
# number of rings (size 3 to 8) (size 9 to 14) (size 15 to 20)
#    0.000    2.250    0.000    1.875    1.750    5.000 
#    0.000    0.000    0.000    0.000    0.000    0.000 
#    0.000    0.000    0.000    0.000    0.000    0.000 
#
# Total GULP energy -396696.100415 kJ/mol
# GULP energy per Si atom -12396.753138 kJ/mol
# Density = 2.037689 g / cm^3
# Si number density = 20.423376 Si / 1000 Ang^3
#
#
#
# Elastic Constant Matrix: (Units=GPa)
#
#
# Indices 1 2 3 4 5 6 
#
# 1 74.3995 37.8006 29.7211 0.0000 -1.4859 0.0000
# 2 37.8006 92.4985 48.1178 0.0000 -9.2999 0.0000
# 3 29.7211 48.1178 107.3894 0.0000 -2.6829 0.0000
# 4 0.0000 0.0000 0.0000 13.9231 0.0000 20.4758
# 5 -1.4859 -9.2999 -2.6829 0.0000 19.8956 0.0000
# 6 0.0000 0.0000 0.0000 20.4758 0.0000 -14.3949
#
#
#
# Elastic Compliance Matrix: (Units=1/GPa)
#
#
# Indices 1 2 3 4 5 6 
#
# 1 0.017391 -0.006218 -0.002074 0.000000 -0.001887 0.000000
# 2 -0.006218 0.017009 -0.005733 0.000000 0.006713 0.000000
# 3 -0.002074 -0.005733 0.012426 0.000000 -0.001159 0.000000
# 4 0.000000 0.000000 0.000000 0.023230 0.000000 0.033043
# 5 -0.001887 0.006713 -0.001159 0.000000 0.053103 0.000000
# 6 0.000000 0.000000 0.000000 0.033043 0.000000 -0.022468
#
#
# Mechanical properties :
#
#
# Convention : Reuss Voigt Hill
#
# Bulk Modulus (GPa) = 53.25874 56.17403 54.71639
# Shear Modulus (GPa) = 37.03752 14.46129 25.74940
#
# Velocity S-wave (km/s) = 4.26312 2.66386 3.55460
# Velocity P-wave (km/s) = 7.09692 6.08490 6.61030
#
# Compressibility (1/GPa) = 0.01877626
#
# Stress axis : x y z
#
# Youngs Moduli (GPa) = 57.50113 58.79240 80.47856
#
# Poissons Ratio (x) = 0.36555 0.16694
# Poissons Ratio (y) = 0.35752 0.46136
# Poissons Ratio (z) = 0.11928 0.33704
#
# Static dielectric constant tensor:
#      x y z
#    x 3.662400 0.000000 0.206920 
#    y 0.000000 3.964360 0.000000 
#    z 0.206920 0.000000 3.719890 
# 
# 
# High freq. dielectric constant tensor:
#      x y z
#    x 1.792620 0.000000 0.015270 
#    y 0.000000 1.792700 0.000000 
#    z 0.015270 0.000000 1.799310 
# 
# From -- ./inp_files/250037.got.cif
#   From: 2010.06.25/outbox.cif.g09.slc.cpg/sg12_126_cif.got.tgz:250037.got - 2010.06.28 00:19:55.
