data_PCOD8095468
_publ_section_title
;
Structure prediction by ZEFSAII (Michael W. Deem and Ramdas Pophale) SiO2 
 PCOD8095468
Probable space group: C 2/M
;
_chemical_formula_sum "Si O2"
_cell_formula_units_Z 56
_cell_length_a 20.890340
_cell_length_b 14.567387
_cell_length_c 9.765938
_cell_angle_alpha 90.000000
_cell_angle_beta 59.402758
_cell_angle_gamma 90.000000
_cell_volume 2558.152910
_symmetry_space_group_name_H-M "C 2/M"
_symmetry_group_IT_number 12
_symmetry_cell_setting 'monoclinic'
loop_
_space_group_symop_operation_xyz
x,y,z
-x,y,-z
-x,-y,-z
x,-y,z
1/2+x,1/2+y,z
1/2-x,1/2+y,-z
1/2-x,1/2-y,-z
1/2+x,1/2-y,z
loop_
_atom_site_type_symbol
_atom_site_label
_atom_site_fract_x
_atom_site_fract_y
_atom_site_fract_z
Si Si1 0.054199 0.271685 0.062997
Si Si2 0.804868 0.349259 0.802736
Si Si3 0.156975 0.394712 0.777776
Si Si4 0.966094 0.398432 0.680397
Si Si5 0.666792 0.400603 0.386464
Si Si6 0.323917 0.219433 0.491986
Si Si7 0.338104 0.656221 0.894848
O O1 0.116866 0.343537 0.946144
O O2 0.008965 0.325067 0.231832
O O3 0.092715 0.179539 0.080247
O O4 0.000000 0.241449 0.000000
O O5 0.876629 0.406363 0.770373
O O6 0.802713 0.346625 0.640698
O O7 0.808767 0.247010 0.853699
O O8 0.728016 0.392322 0.945317
O O9 0.129732 0.500000 0.799943
O O10 0.244263 0.388022 0.711733
O O11 0.131336 0.342765 0.665742
O O12 0.997314 0.500000 0.680366
O O13 0.000000 0.362366 0.500000
O O14 0.645951 0.500000 0.476422
O O15 0.632386 0.313327 0.507533
O O16 0.637491 0.406134 0.260821
O O17 0.250000 0.250000 0.500000
#
# Coordination Sequence:
#
# PCOD8095468 Si02
#       7
#     8   8   8   8   8   8   8
#     4  11  23  37  55  78 114 160 202 236 293 355
#     4   9  17  31  52  73 105 149 195 238 287 329
#     4  10  20  32  51  82 118 156 195 230 280 355
#     4  10  22  37  52  79 121 159 192 230 276 350
#     4   9  17  32  57  85 111 143 191 246 302 356
#     4   9  17  30  49  78 115 150 185 241 293 342
#     4   9  17  33  54  78 103 142 197 255 290 336
#
# _framework density 21.890796000000002
#
# number of rings (size 3 to 8) (size 9 to 14) (size 15 to 20)
#    0.000    2.429    0.000    4.714    2.000    3.429 
#    0.000    0.000    0.000    3.000    0.000    1.000 
#    0.000    0.000    0.000    0.000    0.000    0.000 
#
# Total GULP energy -346958.041389 kJ/mol
# GULP energy per Si atom -12391.358621 kJ/mol
# Density = 2.184097 g / cm^3
# Si number density = 21.890796 Si / 1000 Ang^3
#
#
#
# Elastic Constant Matrix: (Units=GPa)
#
#
# Indices 1 2 3 4 5 6 
#
# 1 86.3311 14.5805 23.0383 0.0000 22.0232 0.0000
# 2 14.5805 87.3927 25.3825 0.0000 8.2112 0.0000
# 3 23.0383 25.3825 98.8528 0.0000 23.5482 0.0000
# 4 0.0000 0.0000 0.0000 19.3124 0.0000 7.5007
# 5 22.0232 8.2112 23.5482 0.0000 33.8578 0.0000
# 6 0.0000 0.0000 0.0000 7.5007 0.0000 11.4689
#
#
#
# Elastic Compliance Matrix: (Units=1/GPa)
#
#
# Indices 1 2 3 4 5 6 
#
# 1 0.014163 -0.001298 -0.001016 0.000000 -0.008191 0.000000
# 2 -0.001298 0.012509 -0.002862 0.000000 -0.000199 0.000000
# 3 -0.001016 -0.002862 0.012903 0.000000 -0.007619 0.000000
# 4 0.000000 0.000000 0.000000 0.069411 0.000000 -0.045395
# 5 -0.008191 -0.000199 -0.007619 0.000000 0.040210 0.000000
# 6 0.000000 0.000000 0.000000 -0.045395 0.000000 0.116881
#
#
# Mechanical properties :
#
#
# Convention : Reuss Voigt Hill
#
# Bulk Modulus (GPa) = 34.22091 44.28660 39.25375
# Shear Modulus (GPa) = 17.47205 26.89952 22.18578
#
# Velocity S-wave (km/s) = 2.82821 3.50923 3.18697
# Velocity P-wave (km/s) = 5.13143 6.05758 5.61363
#
# Compressibility (1/GPa) = 0.02922190
#
# Stress axis : x y z
#
# Youngs Moduli (GPa) = 70.60504 79.94162 77.50320
#
# Poissons Ratio (x) = 0.10378 0.07877
# Poissons Ratio (y) = 0.09166 0.22182
# Poissons Ratio (z) = 0.07176 0.22880
#
# Static dielectric constant tensor:
#      x y z
#    x 3.660730 0.000000 0.236540 
#    y 0.000000 3.978270 0.000000 
#    z 0.236540 0.000000 4.309050 
# 
# 
# High freq. dielectric constant tensor:
#      x y z
#    x 1.834680 0.000000 0.021040 
#    y 0.000000 1.835160 0.000000 
#    z 0.021040 0.000000 1.864670 
# 
# From -- ./inp_files/96271.got.cif
#   From: 2010.06.25/outbox.cif.g09.slc.cpg/sg12_49_cif.got.tgz:96271.got - 2010.06.28 00:19:55.
