data_PCOD8095972
_publ_section_title
;
Structure prediction by ZEFSAII (Michael W. Deem and Ramdas Pophale) SiO2 
 PCOD8095972
Probable space group: C 2/M
;
_chemical_formula_sum "Si O2"
_cell_formula_units_Z 64
_cell_length_a 20.329390
_cell_length_b 8.911366
_cell_length_c 19.738207
_cell_angle_alpha 90.000000
_cell_angle_beta 89.987513
_cell_angle_gamma 90.000000
_cell_volume 3575.825502
_symmetry_space_group_name_H-M "C 2/M"
_symmetry_group_IT_number 12
_symmetry_cell_setting 'monoclinic'
loop_
_space_group_symop_operation_xyz
x,y,z
-x,y,-z
-x,-y,-z
x,-y,z
1/2+x,1/2+y,z
1/2-x,1/2+y,-z
1/2-x,1/2-y,-z
1/2+x,1/2-y,z
loop_
_atom_site_type_symbol
_atom_site_label
_atom_site_fract_x
_atom_site_fract_y
_atom_site_fract_z
Si Si1 0.305716 0.677465 0.700186
Si Si2 0.805067 0.322226 0.046403
Si Si3 0.559795 0.174914 0.298716
Si Si4 0.442970 0.675800 0.053159
Si Si5 0.696448 0.823845 0.799833
Si Si6 0.804906 0.823151 0.545806
Si Si7 0.940006 0.324551 0.546351
Si Si8 0.050112 0.677827 0.805961
O O1 0.309279 0.500000 0.706283
O O2 0.375006 0.740957 0.725836
O O3 0.248657 0.748518 0.747650
O O4 0.291710 0.727243 0.623156
O O5 0.806951 0.500000 0.035834
O O6 0.876585 0.256968 0.027951
O O7 0.786575 0.277989 0.123360
O O8 0.750000 0.250000 0.000000
O O9 0.542082 0.214618 0.376155
O O10 0.499859 0.229719 0.252151
O O11 0.572671 0.000000 0.289590
O O12 0.428561 0.500000 0.059646
O O13 0.468254 0.739669 0.124621
O O14 0.500000 0.710991 0.000000
O O15 0.622695 0.770598 0.781702
O O16 0.701038 0.000000 0.790922
O O17 0.750000 0.750000 0.500000
O O18 0.875912 0.764810 0.522029
O O19 0.802203 0.000000 0.537099
O O20 0.925857 0.500000 0.536409
O O21 0.000000 0.269925 0.500000
O O22 0.048361 0.500000 0.819349
#
# Coordination Sequence:
#
# PCOD8095972 Si02
#       8
#     8   8   8   8   8   8   8   8
#     4   9  18  33  52  72  96 129 166 201 242 294
#     4  10  20  35  55  77 103 133 165 205 251 298
#     4   9  18  32  50  74 102 128 160 204 248 292
#     4  10  21  36  53  74 101 133 170 210 248 291
#     4   8  16  32  52  72  95 126 164 202 238 284
#     4  10  20  33  51  74 101 133 167 207 251 296
#     4   9  18  33  53  75 100 133 170 206 246 295
#     4   9  18  33  52  73  98 129 164 204 250 295
#
# _framework density 17.897964999999999
#
# number of rings (size 3 to 8) (size 9 to 14) (size 15 to 20)
#    0.000    2.750    0.000    1.875    0.000    4.250 
#    0.000   10.625    0.000    3.000    0.000    0.000 
#    0.000    0.000    0.000    0.000    0.000    0.000 
#
# Total GULP energy -396800.379584 kJ/mol
# GULP energy per Si atom -12400.011862 kJ/mol
# Density = 1.785723 g / cm^3
# Si number density = 17.897965 Si / 1000 Ang^3
#
#
#
# Elastic Constant Matrix: (Units=GPa)
#
#
# Indices 1 2 3 4 5 6 
#
# 1 170.4950 54.9435 110.2445 0.0000 3.0988 0.0000
# 2 54.9435 49.8290 40.0214 0.0000 2.4610 0.0000
# 3 110.2445 40.0214 111.6790 0.0000 1.7212 0.0000
# 4 0.0000 0.0000 0.0000 24.3610 0.0000 2.6101
# 5 3.0988 2.4610 1.7212 0.0000 43.5180 0.0000
# 6 0.0000 0.0000 0.0000 2.6101 0.0000 33.4076
#
#
#
# Elastic Compliance Matrix: (Units=1/GPa)
#
#
# Indices 1 2 3 4 5 6 
#
# 1 0.018200 -0.007904 -0.015130 0.000000 -0.000251 0.000000
# 2 -0.007904 0.031674 -0.003532 0.000000 -0.001089 0.000000
# 3 -0.015130 -0.003532 0.025151 0.000000 0.000282 0.000000
# 4 0.000000 0.000000 0.000000 0.041396 0.000000 -0.003234
# 5 -0.000251 -0.001089 0.000282 0.000000 0.023047 0.000000
# 6 0.000000 0.000000 0.000000 -0.003234 0.000000 0.030186
#
#
# Mechanical properties :
#
#
# Convention : Reuss Voigt Hill
#
# Bulk Modulus (GPa) = 45.67400 82.49130 64.08265
# Shear Modulus (GPa) = 21.73114 28.71023 25.22069
#
# Velocity S-wave (km/s) = 3.48827 4.00947 3.75792
# Velocity P-wave (km/s) = 6.46518 8.22340 7.39672
#
# Compressibility (1/GPa) = 0.02189430
#
# Stress axis : x y z
#
# Youngs Moduli (GPa) = 54.94386 31.57157 39.75915
#
# Poissons Ratio (x) = 0.24954 0.60157
# Poissons Ratio (y) = 0.43427 0.14041
# Poissons Ratio (z) = 0.83132 0.11150
#
# Static dielectric constant tensor:
#      x y z
#    x 3.688450 0.000000 -0.088150 
#    y 0.000000 3.205500 0.000000 
#    z -0.088150 0.000000 3.474720 
# 
# 
# High freq. dielectric constant tensor:
#      x y z
#    x 1.700730 0.000000 0.000060 
#    y 0.000000 1.682410 0.000000 
#    z 0.000060 0.000000 1.692330 
# 
# From -- ./inp_files/314166.got.cif
#   From: 2010.06.25/outbox.cif.g09.slc.cpg/sg12_158_cif.got.tgz:314166.got - 2010.06.28 00:19:55.
