data_PCOD8095751
_publ_section_title
;
Structure prediction by ZEFSAII (Michael W. Deem and Ramdas Pophale) SiO2 
 PCOD8095751
Probable space group: C 2/M
;
_chemical_formula_sum "Si O2"
_cell_formula_units_Z 56
_cell_length_a 20.523150
_cell_length_b 9.114353
_cell_length_c 17.610386
_cell_angle_alpha 90.000000
_cell_angle_beta 105.151058
_cell_angle_gamma 90.000000
_cell_volume 3179.611780
_symmetry_space_group_name_H-M "C 2/M"
_symmetry_group_IT_number 12
_symmetry_cell_setting 'monoclinic'
loop_
_space_group_symop_operation_xyz
x,y,z
-x,y,-z
-x,-y,-z
x,-y,z
1/2+x,1/2+y,z
1/2-x,1/2+y,-z
1/2-x,1/2-y,-z
1/2+x,1/2-y,z
loop_
_atom_site_type_symbol
_atom_site_label
_atom_site_fract_x
_atom_site_fract_y
_atom_site_fract_z
Si Si1 0.397030 0.171462 0.086223
Si Si2 0.630222 0.326061 0.076460
Si Si3 0.771923 0.326970 0.324397
Si Si4 0.780680 0.673988 0.159892
Si Si5 0.684175 0.829995 0.507093
Si Si6 0.954177 0.668369 0.822729
Si Si7 0.361183 0.830815 0.661501
O O1 0.336933 0.237130 0.119849
O O2 0.466493 0.201245 0.151696
O O3 0.386551 0.000000 0.065707
O O4 0.399901 0.257286 0.008576
O O5 0.625709 0.500000 0.069876
O O6 0.707138 0.271869 0.110760
O O7 0.585408 0.273662 0.132759
O O8 0.761809 0.500000 0.314474
O O9 0.795947 0.266263 0.249842
O O10 0.827584 0.285175 0.407511
O O11 0.698910 0.263487 0.321860
O O12 0.784970 0.500000 0.159989
O O13 0.750000 0.750000 0.500000
O O14 0.626714 0.794333 0.425701
O O15 0.701216 0.000000 0.511788
O O16 0.939505 0.500000 0.841674
O O17 0.929484 0.701081 0.729042
O O18 0.339800 0.000000 0.663511
#
# Coordination Sequence:
#
# PCOD8095751 Si02
#       7
#     8   8   8   8   8   8   8
#     4  10  21  36  50  66  92 127 160 188 228 283
#     4  11  21  34  52  72  92 116 154 203 241 270
#     4   9  15  27  46  68  92 120 151 185 228 271
#     4   9  18  32  50  70  93 122 156 191 230 276
#     4   8  14  23  40  65  93 118 144 183 225 265
#     4  10  20  33  50  69  94 127 157 187 228 279
#     4   9  16  27  43  68  95 119 150 187 225 266
#
# _framework density 17.612213000000001
#
# number of rings (size 3 to 8) (size 9 to 14) (size 15 to 20)
#    0.000    2.571    1.429    1.286    0.000    2.286 
#    0.000    1.429    0.000    0.857    0.000    6.000 
#    0.000    0.000    0.000   23.571    0.000   17.429 
#
# Total GULP energy -346886.271555 kJ/mol
# GULP energy per Si atom -12388.795413 kJ/mol
# Density = 1.757213 g / cm^3
# Si number density = 17.612213 Si / 1000 Ang^3
#
#
#
# Elastic Constant Matrix: (Units=GPa)
#
#
# Indices 1 2 3 4 5 6 
#
# 1 64.8693 17.7828 29.2592 0.0000 13.9091 0.0000
# 2 17.7828 30.7975 27.4735 0.0000 4.5045 0.0000
# 3 29.2592 27.4735 154.5114 0.0000 16.9287 0.0000
# 4 0.0000 0.0000 0.0000 16.9654 0.0000 0.7377
# 5 13.9091 4.5045 16.9287 0.0000 14.1803 0.0000
# 6 0.0000 0.0000 0.0000 0.7377 0.0000 16.9581
#
#
#
# Elastic Compliance Matrix: (Units=1/GPa)
#
#
# Indices 1 2 3 4 5 6 
#
# 1 0.022179 -0.009725 -0.000490 0.000000 -0.018081 0.000000
# 2 -0.009725 0.043127 -0.006179 0.000000 0.003216 0.000000
# 3 -0.000490 -0.006179 0.008509 0.000000 -0.007715 0.000000
# 4 0.000000 0.000000 0.000000 0.059055 0.000000 -0.002569
# 5 -0.018081 0.003216 -0.007715 0.000000 0.096444 0.000000
# 6 0.000000 0.000000 0.000000 -0.002569 0.000000 0.059081
#
#
# Mechanical properties :
#
#
# Convention : Reuss Voigt Hill
#
# Bulk Modulus (GPa) = 24.37398 44.35659 34.36529
# Shear Modulus (GPa) = 14.93163 21.33159 18.13161
#
# Velocity S-wave (km/s) = 2.91486 3.48398 3.21205
# Velocity P-wave (km/s) = 5.01974 6.43614 5.77156
#
# Compressibility (1/GPa) = 0.04102735
#
# Stress axis : x y z
#
# Youngs Moduli (GPa) = 45.08680 23.18712 117.52652
#
# Poissons Ratio (x) = 0.22550 0.05756
# Poissons Ratio (y) = 0.43847 0.72622
# Poissons Ratio (z) = 0.02208 0.14328
#
# Static dielectric constant tensor:
#      x y z
#    x 3.027200 0.000000 -0.006680 
#    y 0.000000 3.098730 0.000000 
#    z -0.006680 0.000000 4.084030 
# 
# 
# High freq. dielectric constant tensor:
#      x y z
#    x 1.636310 0.000000 0.002760 
#    y 0.000000 1.665030 0.000000 
#    z 0.002760 0.000000 1.712570 
# 
# From -- ./inp_files/275489.got.cif
#   From: 2010.06.25/outbox.cif.g09.slc.cpg/sg12_138_cif.got.tgz:275489.got - 2010.06.28 00:19:55.
