data_PCOD8095031
_publ_section_title
;
Structure prediction by ZEFSAII (Michael W. Deem and Ramdas Pophale) SiO2 
 PCOD8095031
Probable space group: C 2/M
;
_chemical_formula_sum "Si O2"
_cell_formula_units_Z 56
_cell_length_a 9.032004
_cell_length_b 26.450195
_cell_length_c 13.434138
_cell_angle_alpha 90.000000
_cell_angle_beta 108.657694
_cell_angle_gamma 90.000000
_cell_volume 3040.728303
_symmetry_space_group_name_H-M "C 2/M"
_symmetry_group_IT_number 12
_symmetry_cell_setting 'monoclinic'
loop_
_space_group_symop_operation_xyz
x,y,z
-x,y,-z
-x,-y,-z
x,-y,z
1/2+x,1/2+y,z
1/2-x,1/2+y,-z
1/2-x,1/2-y,-z
1/2+x,1/2-y,z
loop_
_atom_site_type_symbol
_atom_site_label
_atom_site_fract_x
_atom_site_fract_y
_atom_site_fract_z
Si Si1 0.595391 0.106283 0.226318
Si Si2 0.174154 0.944279 0.836865
Si Si3 0.876088 0.701983 0.888235
Si Si4 0.680161 0.059799 0.931518
Si Si5 0.018730 0.807810 0.889114
Si Si6 0.643810 0.403587 0.219330
Si Si7 0.065272 0.559504 0.623575
O O1 0.773034 0.087484 0.248259
O O2 0.593982 0.165663 0.200596
O O3 0.501094 0.074315 0.120580
O O4 0.544192 0.092125 0.326344
O O5 0.988170 0.946210 0.801963
O O6 0.242333 0.000000 0.842641
O O7 0.244572 0.918068 0.951660
O O8 0.917199 0.757117 0.854793
O O9 0.699832 0.700200 0.895346
O O10 0.000000 0.687012 0.000000
O O11 0.761684 0.089953 0.860982
O O12 0.707800 0.000000 0.929154
O O13 0.938813 0.848714 0.798114
O O14 0.000000 0.825682 0.000000
O O15 0.763303 0.414565 0.335955
O O16 0.070945 0.500000 0.656555
O O17 0.000000 0.565809 0.500000
#
# Coordination Sequence:
#
# PCOD8095031 Si02
#       7
#     8   8   8   8   8   8   8
#     4  11  21  34  56  81 110 151 189 231 279 335
#     4  11  19  30  48  81 119 145 176 220 273 341
#     4  11  23  36  56  87 123 160 195 229 272 332
#     4  10  20  31  48  77 117 158 185 213 263 339
#     4  11  23  36  56  87 123 160 195 229 272 332
#     4  11  21  34  56  81 110 151 189 231 279 335
#     4  10  23  43  64  83 106 145 195 242 292 348
#
# _framework density 18.416640999999998
#
# number of rings (size 3 to 8) (size 9 to 14) (size 15 to 20)
#    0.000    1.286    1.429    7.714    8.000    2.286 
#    0.000    0.714    0.000    3.429    0.000    0.000 
#    0.000    0.000    0.000    0.000    0.000    0.000 
#
# Total GULP energy -347009.877863 kJ/mol
# GULP energy per Si atom -12393.209924 kJ/mol
# Density = 1.837472 g / cm^3
# Si number density = 18.416641 Si / 1000 Ang^3
#
#
#
# Elastic Constant Matrix: (Units=GPa)
#
#
# Indices 1 2 3 4 5 6 
#
# 1 99.3421 35.1876 42.7058 0.0000 8.4119 0.0000
# 2 35.1876 100.3805 36.3228 0.0000 1.2797 0.0000
# 3 42.7058 36.3228 87.0921 0.0000 3.3247 0.0000
# 4 0.0000 0.0000 0.0000 21.7480 0.0000 -0.2778
# 5 8.4119 1.2797 3.3247 0.0000 15.8145 0.0000
# 6 0.0000 0.0000 0.0000 -0.2778 0.0000 33.6857
#
#
#
# Elastic Compliance Matrix: (Units=1/GPa)
#
#
# Indices 1 2 3 4 5 6 
#
# 1 0.013907 -0.002843 -0.005403 0.000000 -0.006031 0.000000
# 2 -0.002843 0.012314 -0.003792 0.000000 0.001313 0.000000
# 3 -0.005403 -0.003792 0.015718 0.000000 -0.000123 0.000000
# 4 0.000000 0.000000 0.000000 0.045986 0.000000 0.000379
# 5 -0.006031 0.001313 -0.000123 0.000000 0.066361 0.000000
# 6 0.000000 0.000000 0.000000 0.000379 0.000000 0.029689
#
#
# Mechanical properties :
#
#
# Convention : Reuss Voigt Hill
#
# Bulk Modulus (GPa) = 55.98315 57.24968 56.61642
# Shear Modulus (GPa) = 23.36397 25.75620 24.56009
#
# Velocity S-wave (km/s) = 3.56565 3.74375 3.65578
# Velocity P-wave (km/s) = 6.88592 7.05981 6.97341
#
# Compressibility (1/GPa) = 0.01786252
#
# Stress axis : x y z
#
# Youngs Moduli (GPa) = 71.90796 81.20867 63.62233
#
# Poissons Ratio (x) = 0.23086 0.34377
# Poissons Ratio (y) = 0.20442 0.24124
# Poissons Ratio (z) = 0.38854 0.30793
#
# Static dielectric constant tensor:
#      x y z
#    x 3.621950 0.000000 0.152510 
#    y 0.000000 3.445710 0.000000 
#    z 0.152510 0.000000 3.028710 
# 
# 
# High freq. dielectric constant tensor:
#      x y z
#    x 1.738910 0.000000 0.003920 
#    y 0.000000 1.721440 0.000000 
#    z 0.003920 0.000000 1.656290 
# 
# From -- ./inp_files/199421.got.cif
#   From: 2010.06.25/outbox.cif.g09.slc.cpg/sg12_100_cif.got.tgz:199421.got - 2010.06.28 00:19:55.
