data_PCOD8095736
_publ_section_title
;
Structure prediction by ZEFSAII (Michael W. Deem and Ramdas Pophale) SiO2 
 PCOD8095736
Probable space group: C 2/M
;
_chemical_formula_sum "Si O2"
_cell_formula_units_Z 48
_cell_length_a 28.943480
_cell_length_b 9.442771
_cell_length_c 18.819411
_cell_angle_alpha 90.000000
_cell_angle_beta 31.218990
_cell_angle_gamma 90.000000
_cell_volume 2665.914536
_symmetry_space_group_name_H-M "C 2/M"
_symmetry_group_IT_number 12
_symmetry_cell_setting 'monoclinic'
loop_
_space_group_symop_operation_xyz
x,y,z
-x,y,-z
-x,-y,-z
x,-y,z
1/2+x,1/2+y,z
1/2-x,1/2+y,-z
1/2-x,1/2-y,-z
1/2+x,1/2-y,z
loop_
_atom_site_type_symbol
_atom_site_label
_atom_site_fract_x
_atom_site_fract_y
_atom_site_fract_z
Si Si1 0.861974 0.832305 0.195820
Si Si2 0.901404 0.331820 0.621128
Si Si3 0.168833 0.335986 0.137301
Si Si4 0.494194 0.165064 0.750928
Si Si5 0.482862 0.667750 0.908157
Si Si6 0.335125 0.168671 0.558611
O O1 0.761926 0.771108 0.336504
O O2 0.922993 0.782130 0.181417
O O3 0.860564 0.000000 0.197626
O O4 0.904169 0.784353 0.065142
O O5 0.908819 0.500000 0.606399
O O6 0.842805 0.287259 0.765938
O O7 0.856907 0.270327 0.608232
O O8 0.000000 0.267010 0.500000
O O9 0.193631 0.500000 0.099656
O O10 0.077832 0.304258 0.215200
O O11 0.250000 0.250000 0.000000
O O12 0.467393 0.253357 0.854964
O O13 0.590225 0.218315 0.595766
O O14 0.497089 0.000000 0.767117
O O15 0.481081 0.500000 0.897086
O O16 0.334119 0.000000 0.563227
#
# Coordination Sequence:
#
# PCOD8095736 Si02
#       6
#     8   8   8   8   8   8
#     4   8  16  31  50  73  97 127 168 208 241 280
#     4   9  15  28  49  72  96 125 165 206 237 277
#     4  10  21  34  50  75 103 129 162 204 246 290
#     4  10  20  33  49  74 104 129 159 204 250 289
#     4   9  18  33  52  74 101 128 161 205 247 291
#     4   9  16  28  49  73  97 128 167 206 240 278
#
# _framework density 18.005078999999999
#
# number of rings (size 3 to 8) (size 9 to 14) (size 15 to 20)
#    0.000    2.833    1.667    1.000    2.333    1.333 
#    0.000    1.667    0.000    2.500    0.000    0.000 
#    0.000    0.000    0.000    0.000    0.000    0.000 
#
# Total GULP energy -297508.338649 kJ/mol
# GULP energy per Si atom -12396.180777 kJ/mol
# Density = 1.796410 g / cm^3
# Si number density = 18.005079 Si / 1000 Ang^3
#
#
#
# Elastic Constant Matrix: (Units=GPa)
#
#
# Indices 1 2 3 4 5 6 
#
# 1 42.9752 17.6797 16.1754 -0.0024 2.0643 0.0008
# 2 17.6797 25.5269 25.2606 -0.0081 3.4889 0.0040
# 3 16.1754 25.2606 96.8938 -0.0041 -9.6589 0.0020
# 4 -0.0024 -0.0081 -0.0041 24.5851 0.0014 4.2480
# 5 2.0643 3.4889 -9.6589 0.0014 40.2322 -0.0007
# 6 0.0008 0.0040 0.0020 4.2480 -0.0007 20.0426
#
#
#
# Elastic Compliance Matrix: (Units=1/GPa)
#
#
# Indices 1 2 3 4 5 6 
#
# 1 0.032577 -0.023318 0.000692 -0.000005 0.000517 0.000004
# 2 -0.023318 0.072177 -0.015807 0.000022 -0.008858 -0.000017
# 3 0.000692 -0.015807 0.014814 -0.000003 0.004892 0.000003
# 4 -0.000005 0.000022 -0.000003 0.042221 -0.000004 -0.008949
# 5 0.000517 -0.008858 0.004892 -0.000004 0.026772 0.000003
# 6 0.000004 -0.000017 0.000003 -0.008949 0.000003 0.051790
#
#
# Mechanical properties :
#
#
# Convention : Reuss Voigt Hill
#
# Bulk Modulus (GPa) = 23.41832 31.51416 27.46624
# Shear Modulus (GPa) = 15.08519 24.05731 19.57125
#
# Velocity S-wave (km/s) = 2.89767 3.65929 3.30052
# Velocity P-wave (km/s) = 4.92240 5.94935 5.46008
#
# Compressibility (1/GPa) = 0.04270162
#
# Stress axis : x y z
#
# Youngs Moduli (GPa) = 30.69670 13.85480 67.50540
#
# Poissons Ratio (x) = 0.32307 -0.04673
# Poissons Ratio (y) = 0.71579 1.06707
# Poissons Ratio (z) = -0.02125 0.21900
#
# Static dielectric constant tensor:
#      x y z
#    x 3.612200 0.000000 -0.188010 
#    y 0.000000 2.754580 0.000000 
#    z -0.188010 0.000000 3.579040 
# 
# 
# High freq. dielectric constant tensor:
#      x y z
#    x 1.707200 0.000000 -0.002510 
#    y 0.000000 1.633070 0.000000 
#    z -0.002510 0.000000 1.709280 
# 
# From -- ./inp_files/245846.got.cif
#   From: 2010.06.25/outbox.cif.g09.slc.cpg/sg12_123_cif.got.tgz:245846.got - 2010.06.28 00:19:55.
