data_PCOD8095461
_publ_section_title
;
Structure prediction by ZEFSAII (Michael W. Deem and Ramdas Pophale) SiO2 
 PCOD8095461
Probable space group: C 2/M
;
_chemical_formula_sum "Si O2"
_cell_formula_units_Z 48
_cell_length_a 11.551828
_cell_length_b 17.669992
_cell_length_c 12.527200
_cell_angle_alpha 90.000000
_cell_angle_beta 66.932099
_cell_angle_gamma 90.000000
_cell_volume 2352.601294
_symmetry_space_group_name_H-M "C 2/M"
_symmetry_group_IT_number 12
_symmetry_cell_setting 'monoclinic'
loop_
_space_group_symop_operation_xyz
x,y,z
-x,y,-z
-x,-y,-z
x,-y,z
1/2+x,1/2+y,z
1/2-x,1/2+y,-z
1/2-x,1/2-y,-z
1/2+x,1/2-y,z
loop_
_atom_site_type_symbol
_atom_site_label
_atom_site_fract_x
_atom_site_fract_y
_atom_site_fract_z
Si Si1 0.299849 0.413442 0.520099
Si Si2 0.495396 0.582104 0.714112
Si Si3 0.309511 0.691367 0.711361
Si Si4 0.205353 0.083769 0.817056
Si Si5 0.349900 0.731629 0.058823
Si Si6 0.869578 0.345909 0.593619
O O1 0.248606 0.500000 0.538094
O O2 0.444302 0.412666 0.426782
O O3 0.276185 0.378230 0.645185
O O4 0.229628 0.359203 0.463061
O O5 0.426449 0.500000 0.747485
O O6 0.402995 0.653340 0.764668
O O7 0.600402 0.586882 0.765150
O O8 0.190968 0.724841 0.818114
O O9 0.376426 0.757148 0.619701
O O10 0.166595 0.141251 0.924086
O O11 0.336502 0.107348 0.713189
O O12 0.218272 0.000000 0.862481
O O13 0.500000 0.751749 0.000000
O O14 0.250000 0.750000 0.000000
O O15 0.000000 0.375243 0.500000
#
# Coordination Sequence:
#
# PCOD8095461 Si02
#       6
#     8   8   8   8   8   8
#     4  10  20  33  52  82 117 149 184 227 276 343
#     4   9  17  33  58  89 120 147 185 233 281 346
#     4  11  21  34  57  82 111 148 189 235 293 349
#     4   9  20  38  61  86 111 148 195 238 283 343
#     4  11  25  44  63  85 114 150 200 258 302 336
#     4  10  20  32  51  81 118 151 179 217 277 356
#
# _framework density 20.402947999999999
#
# number of rings (size 3 to 8) (size 9 to 14) (size 15 to 20)
#    0.000    2.000    0.000    5.000    0.000    8.333 
#    0.000    1.667    0.000    3.500    0.000    0.000 
#    0.000    0.000    0.000    0.000    0.000    0.000 
#
# Total GULP energy -297363.874259 kJ/mol
# GULP energy per Si atom -12390.161427 kJ/mol
# Density = 2.035651 g / cm^3
# Si number density = 20.402948 Si / 1000 Ang^3
#
#
#
# Elastic Constant Matrix: (Units=GPa)
#
#
# Indices 1 2 3 4 5 6 
#
# 1 65.6551 40.7055 21.4288 0.0000 -14.5995 0.0000
# 2 40.7055 159.0813 33.9991 0.0000 -3.0782 0.0000
# 3 21.4288 33.9991 64.5165 0.0000 -8.6229 0.0000
# 4 0.0000 0.0000 0.0000 27.8835 0.0000 5.7827
# 5 -14.5995 -3.0782 -8.6229 0.0000 31.0664 0.0000
# 6 0.0000 0.0000 0.0000 5.7827 0.0000 27.2531
#
#
#
# Elastic Compliance Matrix: (Units=1/GPa)
#
#
# Indices 1 2 3 4 5 6 
#
# 1 0.021026 -0.004469 -0.003497 0.000000 0.008468 0.000000
# 2 -0.004469 0.008037 -0.003038 0.000000 -0.002147 0.000000
# 3 -0.003497 -0.003038 0.018696 0.000000 0.003245 0.000000
# 4 0.000000 0.000000 0.000000 0.037514 0.000000 -0.007960
# 5 0.008468 -0.002147 0.003245 0.000000 0.036856 0.000000
# 6 0.000000 0.000000 0.000000 -0.007960 0.000000 0.038382
#
#
# Mechanical properties :
#
#
# Convention : Reuss Voigt Hill
#
# Bulk Modulus (GPa) = 38.83258 53.50219 46.16739
# Shear Modulus (GPa) = 26.16371 30.11522 28.13946
#
# Velocity S-wave (km/s) = 3.58488 3.84607 3.71777
# Velocity P-wave (km/s) = 6.01741 6.78253 6.41140
#
# Compressibility (1/GPa) = 0.02575157
#
# Stress axis : x y z
#
# Youngs Moduli (GPa) = 47.56002 124.41875 53.48684
#
# Poissons Ratio (x) = 0.55602 0.18704
# Poissons Ratio (y) = 0.21254 0.16250
# Poissons Ratio (z) = 0.16631 0.37801
#
# Static dielectric constant tensor:
#      x y z
#    x 3.619150 0.000000 -0.094810 
#    y 0.000000 4.016530 0.000000 
#    z -0.094810 0.000000 3.687270 
# 
# 
# High freq. dielectric constant tensor:
#      x y z
#    x 1.776150 0.000000 0.003900 
#    y 0.000000 1.811590 0.000000 
#    z 0.003900 0.000000 1.787230 
# 
# From -- ./inp_files/131636.got.cif
#   From: 2010.06.25/outbox.cif.g09.slc.cpg/sg12_66_cif.got.tgz:131636.got - 2010.06.28 00:19:55.
