data_PCOD8095307
_publ_section_title
;
Structure prediction by ZEFSAII (Michael W. Deem and Ramdas Pophale) SiO2 
 PCOD8095307
Probable space group: C 2/M
;
_chemical_formula_sum "Si O2"
_cell_formula_units_Z 48
_cell_length_a 18.704199
_cell_length_b 8.945038
_cell_length_c 31.324868
_cell_angle_alpha 90.000000
_cell_angle_beta 28.664272
_cell_angle_gamma 90.000000
_cell_volume 2513.963355
_symmetry_space_group_name_H-M "C 2/M"
_symmetry_group_IT_number 12
_symmetry_cell_setting 'monoclinic'
loop_
_space_group_symop_operation_xyz
x,y,z
-x,y,-z
-x,-y,-z
x,-y,z
1/2+x,1/2+y,z
1/2-x,1/2+y,-z
1/2-x,1/2-y,-z
1/2+x,1/2-y,z
loop_
_atom_site_type_symbol
_atom_site_label
_atom_site_fract_x
_atom_site_fract_y
_atom_site_fract_z
Si Si1 0.406356 0.826657 0.336037
Si Si2 0.466982 0.177732 0.642417
Si Si3 0.652218 0.325682 0.838892
Si Si4 0.774617 0.670885 0.867588
Si Si5 0.604846 0.822691 0.482772
Si Si6 0.154820 0.676059 0.012758
O O1 0.438305 0.763210 0.366855
O O2 0.550363 0.800624 0.231242
O O3 0.270205 0.735988 0.387288
O O4 0.363446 0.000000 0.360270
O O5 0.295073 0.228540 0.736641
O O6 0.539367 0.242429 0.561422
O O7 0.468954 0.000000 0.642727
O O8 0.618278 0.500000 0.849079
O O9 0.682363 0.295656 0.873040
O O10 0.515025 0.229132 0.894222
O O11 0.746719 0.500000 0.896578
O O12 0.719438 0.781206 0.932890
O O13 0.500000 0.763390 0.500000
O O14 0.608422 0.000000 0.482083
O O15 0.161727 0.500000 0.014909
O O16 0.250000 0.750000 0.000000
#
# Coordination Sequence:
#
# PCOD8095307 Si02
#       6
#     8   8   8   8   8   8
#     4   9  18  34  56  78 101 135 178 219 259 309
#     4   8  16  33  55  77 103 138 177 215 260 314
#     4   9  18  36  60  80 104 142 182 221 269 321
#     4   9  19  37  59  81 106 138 178 223 271 322
#     4  10  20  32  48  75 110 143 176 216 262 310
#     4  12  25  38  54  79 111 143 177 218 266 321
#
# _framework density 19.093357000000001
#
# number of rings (size 3 to 8) (size 9 to 14) (size 15 to 20)
#    0.000    2.500    0.000    4.500    0.000    5.000 
#    0.000    5.000    0.000    0.000    0.000    0.000 
#    0.000    0.000    0.000    0.000    0.000    0.000 
#
# Total GULP energy -297618.958231 kJ/mol
# GULP energy per Si atom -12400.789926 kJ/mol
# Density = 1.904990 g / cm^3
# Si number density = 19.093357 Si / 1000 Ang^3
#
#
#
# Elastic Constant Matrix: (Units=GPa)
#
#
# Indices 1 2 3 4 5 6 
#
# 1 86.5341 35.6730 39.4073 -0.0004 -33.1925 0.0007
# 2 35.6730 67.4805 28.4890 -0.0007 -13.6229 0.0020
# 3 39.4073 28.4890 81.1778 -0.0002 -26.4152 -0.0001
# 4 -0.0004 -0.0007 -0.0002 29.5198 -0.0002 -5.8826
# 5 -33.1925 -13.6229 -26.4152 -0.0002 31.4275 -0.0003
# 6 0.0007 0.0020 -0.0001 -5.8826 -0.0003 25.8501
#
#
#
# Elastic Compliance Matrix: (Units=1/GPa)
#
#
# Indices 1 2 3 4 5 6 
#
# 1 0.022968 -0.007281 -0.002378 0.000000 0.019103 0.000000
# 2 -0.007281 0.019960 -0.004346 0.000000 -0.002691 -0.000001
# 3 -0.002378 -0.004346 0.018676 0.000000 0.011302 0.000001
# 4 0.000000 0.000000 0.000000 0.035485 0.000001 0.008075
# 5 0.019103 -0.002691 0.011302 0.000001 0.060328 0.000001
# 6 0.000000 -0.000001 0.000001 0.008075 0.000001 0.040522
#
#
# Mechanical properties :
#
#
# Convention : Reuss Voigt Hill
#
# Bulk Modulus (GPa) = 29.76812 49.14789 39.45801
# Shear Modulus (GPa) = 21.08390 26.13436 23.60913
#
# Velocity S-wave (km/s) = 3.32664 3.70370 3.52022
# Velocity P-wave (km/s) = 5.51181 6.63977 6.10191
#
# Compressibility (1/GPa) = 0.03359298
#
# Stress axis : x y z
#
# Youngs Moduli (GPa) = 43.53790 50.10077 53.54507
#
# Poissons Ratio (x) = 0.36481 0.12735
# Poissons Ratio (y) = 0.31702 0.23269
# Poissons Ratio (z) = 0.10355 0.21772
#
# Static dielectric constant tensor:
#      x y z
#    x 3.550120 0.000000 0.032610 
#    y 0.000000 3.163740 0.000000 
#    z 0.032610 0.000000 3.636730 
# 
# 
# High freq. dielectric constant tensor:
#      x y z
#    x 1.741990 0.000000 -0.006240 
#    y 0.000000 1.714170 0.000000 
#    z -0.006240 0.000000 1.755410 
# 
# From -- ./inp_files/274593.got.cif
#   From: 2010.06.25/outbox.cif.g09.slc.cpg/sg12_138_cif.got.tgz:274593.got - 2010.06.28 00:19:55.
