data_PCOD8095762
_publ_section_title
;
Structure prediction by ZEFSAII (Michael W. Deem and Ramdas Pophale) SiO2 
 PCOD8095762
Probable space group: C 2/M
;
_chemical_formula_sum "Si O2"
_cell_formula_units_Z 48
_cell_length_a 18.847163
_cell_length_b 9.313639
_cell_length_c 18.193118
_cell_angle_alpha 90.000000
_cell_angle_beta 58.778391
_cell_angle_gamma 90.000000
_cell_volume 2731.016880
_symmetry_space_group_name_H-M "C 2/M"
_symmetry_group_IT_number 12
_symmetry_cell_setting 'monoclinic'
loop_
_space_group_symop_operation_xyz
x,y,z
-x,y,-z
-x,-y,-z
x,-y,z
1/2+x,1/2+y,z
1/2-x,1/2+y,-z
1/2-x,1/2-y,-z
1/2+x,1/2-y,z
loop_
_atom_site_type_symbol
_atom_site_label
_atom_site_fract_x
_atom_site_fract_y
_atom_site_fract_z
Si Si1 0.189719 0.166003 0.765568
Si Si2 0.358661 0.337052 0.419659
Si Si3 0.768829 0.164284 0.604454
Si Si4 0.627212 0.833167 0.094335
Si Si5 0.477000 0.661863 0.234926
Si Si6 0.301615 0.333188 0.073354
O O1 0.264779 0.245408 0.681971
O O2 0.102141 0.196584 0.773812
O O3 0.185670 0.223808 0.850850
O O4 0.213441 0.000000 0.753084
O O5 0.326831 0.500000 0.417254
O O6 0.302443 0.216654 0.412420
O O7 0.354941 0.317166 0.510898
O O8 0.450635 0.320626 0.335207
O O9 0.753272 0.000000 0.634302
O O10 0.548804 0.773833 0.180302
O O11 0.707260 0.802797 0.101108
O O12 0.614010 0.000000 0.085987
O O13 0.635362 0.754288 0.011815
O O14 0.508629 0.500000 0.202517
O O15 0.324764 0.500000 0.053439
#
# Coordination Sequence:
#
# PCOD8095762 Si02
#       6
#     8   8   8   8   8   8
#     4   9  18  32  49  69  93 123 157 188 224 274
#     4   8  15  27  42  63  93 128 158 181 217 274
#     4   9  15  24  42  68  95 120 151 192 230 262
#     4  10  20  33  50  71  92 116 152 195 233 271
#     4   9  17  30  48  69  94 123 153 185 224 272
#     4   9  19  36  53  66  87 123 159 187 224 279
#
# _framework density 17.575869999999998
#
# number of rings (size 3 to 8) (size 9 to 14) (size 15 to 20)
#    0.000    3.000    0.000    2.000    0.000    5.333 
#    0.000    3.333    0.000    1.000    0.000    7.000 
#    0.000    0.000    0.000    0.000    0.000    0.000 
#
# Total GULP energy -297409.453035 kJ/mol
# GULP energy per Si atom -12392.060543 kJ/mol
# Density = 1.753587 g / cm^3
# Si number density = 17.575870 Si / 1000 Ang^3
#
#
#
# Elastic Constant Matrix: (Units=GPa)
#
#
# Indices 1 2 3 4 5 6 
#
# 1 25.4304 21.4246 30.2159 0.0000 -9.5144 -0.0001
# 2 21.4246 74.0488 57.5092 0.0000 -11.3195 -0.0004
# 3 30.2159 57.5092 130.3235 0.0000 -27.4122 0.0000
# 4 0.0000 0.0000 0.0000 36.3347 0.0000 -3.2901
# 5 -9.5144 -11.3195 -27.4122 0.0000 9.9886 0.0000
# 6 -0.0001 -0.0004 0.0000 -3.2901 0.0000 19.7418
#
#
#
# Elastic Compliance Matrix: (Units=1/GPa)
#
#
# Indices 1 2 3 4 5 6 
#
# 1 0.068908 -0.012314 0.000776 0.000000 0.053812 0.000000
# 2 -0.012314 0.022807 -0.010030 0.000000 -0.013408 0.000000
# 3 0.000776 -0.010030 0.022907 0.000000 0.052238 0.000000
# 4 0.000000 0.000000 0.000000 0.027944 0.000000 0.004657
# 5 0.053812 -0.013408 0.052238 0.000000 0.279538 0.000000
# 6 0.000000 0.000000 0.000000 0.004657 0.000000 0.051430
#
#
# Mechanical properties :
#
#
# Convention : Reuss Voigt Hill
#
# Bulk Modulus (GPa) = 13.98852 49.78914 31.88883
# Shear Modulus (GPa) = 9.25074 21.25655 15.25364
#
# Velocity S-wave (km/s) = 2.29668 3.48144 2.94917
# Velocity P-wave (km/s) = 3.87417 6.67459 5.45708
#
# Compressibility (1/GPa) = 0.07148718
#
# Stress axis : x y z
#
# Youngs Moduli (GPa) = 14.51214 43.84589 43.65509
#
# Poissons Ratio (x) = 0.53992 -0.03389
# Poissons Ratio (y) = 0.17870 0.43784
# Poissons Ratio (z) = -0.01127 0.43975
#
# Static dielectric constant tensor:
#      x y z
#    x 2.794180 0.000000 0.032460 
#    y 0.000000 3.303320 0.000000 
#    z 0.032460 0.000000 3.762550 
# 
# 
# High freq. dielectric constant tensor:
#      x y z
#    x 1.616850 0.000000 -0.002970 
#    y 0.000000 1.684230 0.000000 
#    z -0.002970 0.000000 1.704670 
# 
# From -- ./inp_files/274616.got.cif
#   From: 2010.06.25/outbox.cif.g09.slc.cpg/sg12_138_cif.got.tgz:274616.got - 2010.06.28 00:19:55.
