data_PCOD8095319
_publ_section_title
;
Structure prediction by ZEFSAII (Michael W. Deem and Ramdas Pophale) SiO2 
 PCOD8095319
Probable space group: C 2/M
;
_chemical_formula_sum "Si O2"
_cell_formula_units_Z 56
_cell_length_a 17.032566
_cell_length_b 23.778436
_cell_length_c 8.934913
_cell_angle_alpha 90.000000
_cell_angle_beta 117.843202
_cell_angle_gamma 90.000000
_cell_volume 3199.767909
_symmetry_space_group_name_H-M "C 2/M"
_symmetry_group_IT_number 12
_symmetry_cell_setting 'monoclinic'
loop_
_space_group_symop_operation_xyz
x,y,z
-x,y,-z
-x,-y,-z
x,-y,z
1/2+x,1/2+y,z
1/2-x,1/2+y,-z
1/2-x,1/2-y,-z
1/2+x,1/2-y,z
loop_
_atom_site_type_symbol
_atom_site_label
_atom_site_fract_x
_atom_site_fract_y
_atom_site_fract_z
Si Si1 0.709692 0.836762 0.458518
Si Si2 0.060481 0.436383 0.835851
Si Si3 0.136417 0.657642 0.716963
Si Si4 0.306695 0.698700 0.992275
Si Si5 0.135475 0.564089 0.219098
Si Si6 0.368535 0.275169 0.729035
Si Si7 0.040763 0.225160 0.692050
O O1 0.647711 0.841696 0.549248
O O2 0.706411 0.893908 0.358105
O O3 0.673771 0.786104 0.326822
O O4 0.811123 0.823064 0.592548
O O5 0.078037 0.500000 0.800490
O O6 0.082229 0.397190 0.714920
O O7 0.958581 0.427454 0.785641
O O8 0.123249 0.421445 0.033122
O O9 0.233673 0.652143 0.882959
O O10 0.080401 0.712252 0.713845
O O11 0.367797 0.714033 0.904673
O O12 0.250000 0.750000 0.000000
O O13 0.378380 0.683200 0.186157
O O14 0.169211 0.500000 0.269344
O O15 0.467590 0.276153 0.755883
O O16 0.000000 0.203668 0.500000
#
# Coordination Sequence:
#
# PCOD8095319 Si02
#       7
#     8   8   8   8   8   8   8
#     4  10  20  32  49  70 102 132 165 208 246 292
#     4   9  19  33  49  69  97 131 172 209 244 293
#     4  10  20  34  47  72 101 131 168 205 245 298
#     4   9  21  34  47  68  98 133 165 201 244 304
#     4   9  19  33  48  71  97 131 173 208 246 295
#     4  10  20  33  48  71 100 134 165 202 251 300
#     4  11  20  32  49  73 100 127 169 206 240 299
#
# _framework density 17.501268
#
# number of rings (size 3 to 8) (size 9 to 14) (size 15 to 20)
#    0.000    2.286    1.429    2.143    6.000    0.571 
#    0.000    1.429    0.000    0.000    0.000    1.000 
#    0.000    8.000    0.000    0.000    0.000    0.000 
#
# Total GULP energy -347031.158576 kJ/mol
# GULP energy per Si atom -12393.969949 kJ/mol
# Density = 1.746143 g / cm^3
# Si number density = 17.501268 Si / 1000 Ang^3
#
#
#
# Elastic Constant Matrix: (Units=GPa)
#
#
# Indices 1 2 3 4 5 6 
#
# 1 50.5427 -1.8043 13.5390 0.0000 -1.8204 0.0000
# 2 -1.8043 60.5902 22.3303 0.0000 2.1226 0.0000
# 3 13.5390 22.3303 81.7503 0.0000 16.3363 0.0000
# 4 0.0000 0.0000 0.0000 25.5683 0.0000 0.9086
# 5 -1.8204 2.1226 16.3363 0.0000 26.6207 0.0000
# 6 0.0000 0.0000 0.0000 0.9086 0.0000 19.8694
#
#
#
# Elastic Compliance Matrix: (Units=1/GPa)
#
#
# Indices 1 2 3 4 5 6 
#
# 1 0.021381 0.002347 -0.005057 0.000000 0.004378 0.000000
# 2 0.002347 0.018689 -0.005959 0.000000 0.002327 0.000000
# 3 -0.005057 -0.005959 0.016722 0.000000 -0.010133 0.000000
# 4 0.000000 0.000000 0.000000 0.039175 0.000000 -0.001791
# 5 0.004378 0.002327 -0.010133 0.000000 0.043897 0.000000
# 6 0.000000 0.000000 0.000000 -0.001791 0.000000 0.050411
#
#
# Mechanical properties :
#
#
# Convention : Reuss Voigt Hill
#
# Bulk Modulus (GPa) = 25.34515 29.00145 27.17330
# Shear Modulus (GPa) = 22.64869 24.99954 23.82411
#
# Velocity S-wave (km/s) = 3.60129 3.78357 3.69355
# Velocity P-wave (km/s) = 5.63965 5.97447 5.80947
#
# Compressibility (1/GPa) = 0.03945528
#
# Stress axis : x y z
#
# Youngs Moduli (GPa) = 46.76962 53.50828 59.80028
#
# Poissons Ratio (x) = -0.12559 0.30242
# Poissons Ratio (y) = -0.10977 0.35632
# Poissons Ratio (z) = 0.23652 0.31883
#
# Static dielectric constant tensor:
#      x y z
#    x 3.325070 0.000000 0.125610 
#    y 0.000000 3.001280 0.000000 
#    z 0.125610 0.000000 3.587340 
# 
# 
# High freq. dielectric constant tensor:
#      x y z
#    x 1.671870 0.000000 -0.005520 
#    y 0.000000 1.631560 0.000000 
#    z -0.005520 0.000000 1.691550 
# 
# From -- ./inp_files/66559.got.cif
#   From: 2010.06.25/outbox.cif.g09.slc.cpg/sg12_34_cif.got.tgz:66559.got - 2010.06.28 00:19:55.
