data_PCOD8095391
_publ_section_title
;
Structure prediction by ZEFSAII (Michael W. Deem and Ramdas Pophale) SiO2 
 PCOD8095391
Probable space group: C 2/M
;
_chemical_formula_sum "Si O2"
_cell_formula_units_Z 48
_cell_length_a 23.725288
_cell_length_b 9.313388
_cell_length_c 24.076500
_cell_angle_alpha 90.000000
_cell_angle_beta 28.739801
_cell_angle_gamma 90.000000
_cell_volume 2558.035321
_symmetry_space_group_name_H-M "C 2/M"
_symmetry_group_IT_number 12
_symmetry_cell_setting 'monoclinic'
loop_
_space_group_symop_operation_xyz
x,y,z
-x,y,-z
-x,-y,-z
x,-y,z
1/2+x,1/2+y,z
1/2-x,1/2+y,-z
1/2-x,1/2-y,-z
1/2+x,1/2-y,z
loop_
_atom_site_type_symbol
_atom_site_label
_atom_site_fract_x
_atom_site_fract_y
_atom_site_fract_z
Si Si1 0.188696 0.168290 0.189689
Si Si2 0.697588 0.337526 0.595259
Si Si3 0.882148 0.829768 0.630454
Si Si4 0.578649 0.661897 0.172529
Si Si5 0.421910 0.165990 0.934539
Si Si6 0.313111 0.831596 0.287271
O O1 0.136456 0.236479 0.291604
O O2 0.124466 0.231787 0.190623
O O3 0.163558 0.000000 0.213670
O O4 0.328755 0.198841 0.064080
O O5 0.746738 0.500000 0.553754
O O6 0.750000 0.250000 0.500000
O O7 0.559945 0.336930 0.706399
O O8 0.734808 0.257770 0.619377
O O9 0.766878 0.786938 0.695429
O O10 0.000000 0.766177 0.500000
O O11 0.893690 0.000000 0.624119
O O12 0.627461 0.500000 0.123888
O O13 0.622583 0.752672 0.082048
O O14 0.551797 0.211563 0.842653
O O15 0.421328 0.000000 0.918765
O O16 0.301301 0.000000 0.311247
#
# Coordination Sequence:
#
# PCOD8095391 Si02
#       6
#     8   8   8   8   8   8
#     4   9  17  29  47  73 100 130 165 203 246 288
#     4  10  20  32  50  74  99 131 166 204 246 293
#     4   9  18  30  48  72  98 131 171 210 242 286
#     4   9  18  31  49  73 100 128 163 202 242 297
#     4   9  17  30  49  74 104 127 155 205 255 294
#     4   9  18  32  50  73  99 129 164 205 249 292
#
# _framework density 18.764400999999999
#
# number of rings (size 3 to 8) (size 9 to 14) (size 15 to 20)
#    0.000    2.833    0.000    1.000    2.333    1.333 
#    0.000    3.333    0.000    2.500    0.000    4.667 
#    0.000    0.000    0.000    0.000    0.000    0.000 
#
# Total GULP energy -297493.476876 kJ/mol
# GULP energy per Si atom -12395.561537 kJ/mol
# Density = 1.872169 g / cm^3
# Si number density = 18.764401 Si / 1000 Ang^3
#
#
#
# Elastic Constant Matrix: (Units=GPa)
#
#
# Indices 1 2 3 4 5 6 
#
# 1 134.9233 23.0923 66.1433 -0.0001 8.6095 0.0001
# 2 23.0923 41.8705 21.4549 0.0002 8.7773 0.0000
# 3 66.1433 21.4549 109.1088 -0.0003 25.0283 0.0003
# 4 -0.0001 0.0002 -0.0003 17.6786 -0.0002 3.8554
# 5 8.6095 8.7773 25.0283 -0.0002 27.2969 0.0002
# 6 0.0001 0.0000 0.0003 3.8554 0.0002 20.5142
#
#
#
# Elastic Compliance Matrix: (Units=1/GPa)
#
#
# Indices 1 2 3 4 5 6 
#
# 1 0.011186 -0.003408 -0.007032 0.000000 0.004015 0.000000
# 2 -0.003408 0.028093 -0.002068 -0.000001 -0.006063 0.000000
# 3 -0.007032 -0.002068 0.016682 0.000000 -0.012413 0.000000
# 4 0.000000 -0.000001 0.000000 0.058983 0.000000 -0.011085
# 5 0.004015 -0.006063 -0.012413 0.000000 0.048699 0.000000
# 6 0.000000 0.000000 0.000000 -0.011085 0.000000 0.050830
#
#
# Mechanical properties :
#
#
# Convention : Reuss Voigt Hill
#
# Bulk Modulus (GPa) = 32.31419 56.36485 44.33952
# Shear Modulus (GPa) = 20.01579 24.77874 22.39727
#
# Velocity S-wave (km/s) = 3.26956 3.63784 3.45861
# Velocity P-wave (km/s) = 5.61354 6.91003 6.29525
#
# Compressibility (1/GPa) = 0.03094615
#
# Stress axis : x y z
#
# Youngs Moduli (GPa) = 89.39788 35.59616 59.94465
#
# Poissons Ratio (x) = 0.12130 0.42154
# Poissons Ratio (y) = 0.30464 0.12395
# Poissons Ratio (z) = 0.62865 0.07360
#
# Static dielectric constant tensor:
#      x y z
#    x 3.891110 -0.000060 -0.603490 
#    y -0.000060 3.120560 0.000120 
#    z -0.603490 0.000120 4.911800 
# 
# 
# High freq. dielectric constant tensor:
#      x y z
#    x 1.729100 0.000000 -0.003550 
#    y 0.000000 1.684410 0.000000 
#    z -0.003550 0.000000 1.737410 
# 
# From -- ./inp_files/348744.got.cif
#   From: 2010.06.25/outbox.cif.g09.slc.cpg/sg12_175_cif.got.tgz:348744.got - 2010.06.28 00:19:55.
