data_PCOD8095665
_publ_section_title
;
Structure prediction by ZEFSAII (Michael W. Deem and Ramdas Pophale) SiO2 
 PCOD8095665
Probable space group: C 2/M
;
_chemical_formula_sum "Si O2"
_cell_formula_units_Z 60
_cell_length_a 26.249636
_cell_length_b 12.703428
_cell_length_c 19.338511
_cell_angle_alpha 90.000000
_cell_angle_beta 33.108438
_cell_angle_gamma 90.000000
_cell_volume 3522.403312
_symmetry_space_group_name_H-M "C 2/M"
_symmetry_group_IT_number 12
_symmetry_cell_setting 'monoclinic'
loop_
_space_group_symop_operation_xyz
x,y,z
-x,y,-z
-x,-y,-z
x,-y,z
1/2+x,1/2+y,z
1/2-x,1/2+y,-z
1/2-x,1/2-y,-z
1/2+x,1/2-y,z
loop_
_atom_site_type_symbol
_atom_site_label
_atom_site_fract_x
_atom_site_fract_y
_atom_site_fract_z
Si Si1 0.419730 0.741358 0.540049
Si Si2 0.963088 0.745043 0.268300
Si Si3 0.201037 0.120593 0.218415
Si Si4 0.540323 0.379234 0.298861
Si Si5 0.659585 0.122359 0.486348
Si Si6 0.000000 0.754112 0.000000
Si Si7 0.877061 0.122938 0.245879
Si Si8 0.085452 0.377322 0.023574
O O1 0.500000 0.783624 0.500000
O O2 0.332988 0.693895 0.680456
O O3 0.460658 0.649277 0.445032
O O4 0.385017 0.839784 0.534898
O O5 0.883994 0.682771 0.399391
O O6 0.912451 0.828062 0.276850
O O7 0.032314 0.807513 0.240302
O O8 0.023763 0.661607 0.157318
O O9 0.141814 0.141814 0.216371
O O10 0.188618 0.000000 0.256411
O O11 0.307472 0.147295 0.080124
O O12 0.526886 0.500000 0.292659
O O13 0.768504 0.147081 0.361234
O O14 0.637819 0.000000 0.519496
O O15 0.940440 0.680957 0.017363
O O16 0.071331 0.827548 0.878111
O O17 0.898904 0.000000 0.222980
O O18 0.066762 0.500000 0.033856
#
# Coordination Sequence:
#
# PCOD8095665 Si02
#       8
#     8   8   8   8   8   4   8   8
#     4   9  17  30  49  72  96 122 154 193 235 276
#     4  10  20  33  49  69  95 126 158 191 228 273
#     4   9  17  30  49  72  96 122 154 193 235 276
#     4   9  17  30  49  72  96 122 154 193 235 276
#     4  10  20  33  49  69  95 126 158 191 228 273
#     4  10  20  34  52  72  94 120 152 192 236 280
#     4  10  20  34  52  72  94 120 152 192 236 280
#     4  10  20  33  49  69  95 126 158 191 228 273
#
# _framework density 17.033823999999999
#
# number of rings (size 3 to 8) (size 9 to 14) (size 15 to 20)
#    0.000    2.400    0.000    2.800    0.000    2.400 
#    0.000    0.000    0.000   13.600    0.000    0.000 
#    0.000    0.000    0.000    0.000    0.000    0.000 
#
# Total GULP energy -372085.791092 kJ/mol
# GULP energy per Si atom -12402.859703 kJ/mol
# Density = 1.699505 g / cm^3
# Si number density = 17.033824 Si / 1000 Ang^3
#
#
#
# Elastic Constant Matrix: (Units=GPa)
#
#
# Indices 1 2 3 4 5 6 
#
# 1 114.7762 67.9414 69.6115 0.0000 2.6608 0.0000
# 2 67.9414 111.0611 75.7152 0.0000 -2.1845 0.0000
# 3 69.6115 75.7152 109.1187 0.0000 0.0983 0.0000
# 4 0.0000 0.0000 0.0000 20.5232 0.0000 -5.3560
# 5 2.6608 -2.1845 0.0983 0.0000 27.6439 0.0000
# 6 0.0000 0.0000 0.0000 -5.3560 0.0000 25.1775
#
#
#
# Elastic Compliance Matrix: (Units=1/GPa)
#
#
# Indices 1 2 3 4 5 6 
#
# 1 0.015781 -0.005370 -0.006340 0.000000 -0.001921 0.000000
# 2 -0.005370 0.018968 -0.009738 0.000000 0.002050 0.000000
# 3 -0.006340 -0.009738 0.019966 0.000000 -0.000230 0.000000
# 4 0.000000 0.000000 0.000000 0.051589 0.000000 0.010974
# 5 -0.001921 0.002050 -0.000230 0.000000 0.036522 0.000000
# 6 0.000000 0.000000 0.000000 0.010974 0.000000 0.042053
#
#
# Mechanical properties :
#
#
# Convention : Reuss Voigt Hill
#
# Bulk Modulus (GPa) = 84.60015 84.61024 84.60520
# Shear Modulus (GPa) = 21.57853 22.78145 22.17999
#
# Velocity S-wave (km/s) = 3.56308 3.66105 3.61240
# Velocity P-wave (km/s) = 8.16708 8.22501 8.19610
#
# Compressibility (1/GPa) = 0.01182031
#
# Stress axis : x y z
#
# Youngs Moduli (GPa) = 63.36926 52.72071 50.08604
#
# Poissons Ratio (x) = 0.28309 0.31752
# Poissons Ratio (y) = 0.34026 0.48773
# Poissons Ratio (z) = 0.40173 0.51338
#
# Static dielectric constant tensor:
#      x y z
#    x 3.313390 0.000000 -0.042400 
#    y 0.000000 3.136350 0.000000 
#    z -0.042400 0.000000 3.146380 
# 
# 
# High freq. dielectric constant tensor:
#      x y z
#    x 1.666390 0.000000 -0.001720 
#    y 0.000000 1.659210 0.000000 
#    z -0.001720 0.000000 1.659620 
# 
# From -- ./inp_files/289392.got.cif
#   From: 2010.06.25/outbox.cif.g09.slc.cpg/sg12_145_cif.got.tgz:289392.got - 2010.06.28 00:19:55.
