data_PCOD8095341
_publ_section_title
;
Structure prediction by ZEFSAII (Michael W. Deem and Ramdas Pophale) SiO2 
 PCOD8095341
Probable space group: C 2/M
;
_chemical_formula_sum "Si O2"
_cell_formula_units_Z 64
_cell_length_a 26.368739
_cell_length_b 8.980183
_cell_length_c 18.817721
_cell_angle_alpha 90.000000
_cell_angle_beta 49.396193
_cell_angle_gamma 90.000000
_cell_volume 3383.092148
_symmetry_space_group_name_H-M "C 2/M"
_symmetry_group_IT_number 12
_symmetry_cell_setting 'monoclinic'
loop_
_space_group_symop_operation_xyz
x,y,z
-x,y,-z
-x,-y,-z
x,-y,z
1/2+x,1/2+y,z
1/2-x,1/2+y,-z
1/2-x,1/2-y,-z
1/2+x,1/2-y,z
loop_
_atom_site_type_symbol
_atom_site_label
_atom_site_fract_x
_atom_site_fract_y
_atom_site_fract_z
Si Si1 0.482327 0.323589 0.438646
Si Si2 0.147497 0.322815 0.901986
Si Si3 0.337856 0.323518 0.595944
Si Si4 0.900279 0.323517 0.207131
Si Si5 0.773672 0.324229 0.407074
Si Si6 0.046424 0.323048 0.115432
Si Si7 0.203552 0.823381 0.215180
Si Si8 0.915249 0.823206 0.772577
O O1 0.500000 0.258135 0.500000
O O2 0.491656 0.500000 0.431723
O O3 0.405880 0.273540 0.494329
O O4 0.529671 0.260603 0.333397
O O5 0.149978 0.500000 0.895696
O O6 0.123767 0.258780 0.847141
O O7 0.220783 0.259958 0.857052
O O8 0.095236 0.268497 0.008529
O O9 0.335897 0.500000 0.601662
O O10 0.275053 0.263344 0.609675
O O11 0.332921 0.261181 0.680695
O O12 0.903546 0.500000 0.197114
O O13 0.848344 0.276089 0.316289
O O14 0.972723 0.261320 0.163364
O O15 0.767988 0.500000 0.421306
O O16 0.750000 0.250000 0.500000
O O17 0.046221 0.500000 0.123225
O O18 0.072849 0.254131 0.163755
O O19 0.158542 0.776065 0.188556
O O20 0.206769 0.000000 0.216098
O O21 0.921193 0.000000 0.776365
#
# Coordination Sequence:
#
# PCOD8095341 Si02
#       8
#     8   8   8   8   8   8   8   8
#     4   9  15  25  44  70  95 120 155 195 231 273
#     4   9  16  30  53  75  92 121 170 217 247 278
#     4   9  15  26  45  70  96 122 157 201 241 277
#     4   9  17  32  52  74  98 127 167 209 243 282
#     4  10  20  32  49  74 102 129 157 196 246 294
#     4  10  21  34  50  73 101 131 163 203 249 294
#     4   9  15  27  49  76  99 121 162 214 249 277
#     4  10  20  32  49  75 104 130 159 201 250 296
#
# _framework density 18.917604999999998
#
# number of rings (size 3 to 8) (size 9 to 14) (size 15 to 20)
#    0.000    2.625    2.500    0.375    1.750    2.000 
#    0.000    0.000    0.000    3.375    0.000    0.000 
#    0.000    0.000    0.000    0.000    0.000    0.000 
#
# Total GULP energy -396605.821777 kJ/mol
# GULP energy per Si atom -12393.931931 kJ/mol
# Density = 1.887455 g / cm^3
# Si number density = 18.917605 Si / 1000 Ang^3
#
#
#
# Elastic Constant Matrix: (Units=GPa)
#
#
# Indices 1 2 3 4 5 6 
#
# 1 167.7064 18.5293 93.8274 0.0072 -8.7411 -0.0047
# 2 18.5293 10.7002 19.2732 0.0135 2.6266 -0.0145
# 3 93.8274 19.2732 162.9717 0.0215 -1.9798 -0.0151
# 4 0.0072 0.0135 0.0215 17.3302 -0.0117 7.8634
# 5 -8.7411 2.6266 -1.9798 -0.0117 39.4073 0.0075
# 6 -0.0047 -0.0145 -0.0151 7.8634 0.0075 18.8002
#
#
#
# Elastic Compliance Matrix: (Units=1/GPa)
#
#
# Indices 1 2 3 4 5 6 
#
# 1 0.009573 -0.009308 -0.004380 0.000018 0.002524 -0.000017
# 2 -0.009308 0.130807 -0.010248 -0.000168 -0.011298 0.000165
# 3 -0.004380 -0.010248 0.009872 -0.000002 0.000207 0.000000
# 4 0.000018 -0.000168 -0.000002 0.071219 0.000042 -0.029788
# 5 0.002524 -0.011298 0.000207 0.000042 0.026699 -0.000036
# 6 -0.000017 0.000165 0.000000 -0.029788 -0.000036 0.065650
#
#
# Mechanical properties :
#
#
# Convention : Reuss Voigt Hill
#
# Bulk Modulus (GPa) = 9.76746 67.18201 38.47474
# Shear Modulus (GPa) = 12.63201 29.09076 20.86138
#
# Velocity S-wave (km/s) = 2.58687 3.92568 3.32437
# Velocity P-wave (km/s) = 3.75458 7.49253 5.92600
#
# Compressibility (1/GPa) = 0.10238076
#
# Stress axis : x y z
#
# Youngs Moduli (GPa) = 104.45632 7.64486 101.29355
#
# Poissons Ratio (x) = 0.07116 0.44369
# Poissons Ratio (y) = 0.97227 1.03803
# Poissons Ratio (z) = 0.45754 0.07834
#
# Static dielectric constant tensor:
#      x y z
#    x 3.993480 -0.000010 -0.195220 
#    y -0.000010 2.740100 0.000000 
#    z -0.195220 0.000000 3.685250 
# 
# 
# High freq. dielectric constant tensor:
#      x y z
#    x 1.751340 0.000000 -0.008890 
#    y 0.000000 1.653120 0.000000 
#    z -0.008890 0.000000 1.747820 
# 
# From -- ./inp_files/289083.got.cif
#   From: 2010.06.25/outbox.cif.g09.slc.cpg/sg12_145_cif.got.tgz:289083.got - 2010.06.28 00:19:55.
