data_PCOD8095329
_publ_section_title
;
Structure prediction by ZEFSAII (Michael W. Deem and Ramdas Pophale) SiO2 
 PCOD8095329
Probable space group: C 2/M
;
_chemical_formula_sum "Si O2"
_cell_formula_units_Z 56
_cell_length_a 18.650209
_cell_length_b 9.276522
_cell_length_c 27.282683
_cell_angle_alpha 90.000000
_cell_angle_beta 39.496161
_cell_angle_gamma 90.000000
_cell_volume 3002.141664
_symmetry_space_group_name_H-M "C 2/M"
_symmetry_group_IT_number 12
_symmetry_cell_setting 'monoclinic'
loop_
_space_group_symop_operation_xyz
x,y,z
-x,y,-z
-x,-y,-z
x,-y,z
1/2+x,1/2+y,z
1/2-x,1/2+y,-z
1/2-x,1/2-y,-z
1/2+x,1/2-y,z
loop_
_atom_site_type_symbol
_atom_site_label
_atom_site_fract_x
_atom_site_fract_y
_atom_site_fract_z
Si Si1 0.086620 0.329239 0.794851
Si Si2 0.653033 0.829953 0.652646
Si Si3 0.854666 0.662120 0.961858
Si Si4 0.269474 0.671562 0.773962
Si Si5 0.120782 0.663125 0.938623
Si Si6 0.023781 0.171971 0.634274
Si Si7 0.410552 0.669858 0.508008
O O1 0.087815 0.500000 0.798761
O O2 0.092181 0.281696 0.735211
O O3 0.195676 0.270568 0.766928
O O4 0.972217 0.269027 0.880561
O O5 0.599022 0.743938 0.636468
O O6 0.784006 0.787352 0.589682
O O7 0.639760 0.000000 0.649827
O O8 0.846413 0.500000 0.945983
O O9 0.750000 0.750000 0.000000
O O10 0.837478 0.666410 0.028632
O O11 0.276645 0.500000 0.769301
O O12 0.212264 0.733517 0.853973
O O13 0.396193 0.731129 0.705577
O O14 0.102691 0.500000 0.928424
O O15 0.000000 0.744182 0.000000
O O16 0.067408 0.226633 0.558544
O O17 0.032618 0.000000 0.635502
O O18 0.500000 0.736917 0.500000
O O19 0.427657 0.500000 0.499004
#
# Coordination Sequence:
#
# PCOD8095329 Si02
#       7
#     8   8   8   8   8   8   8
#     4   9  17  31  49  71  96 128 168 203 237 285
#     4  10  20  33  51  73 102 134 160 194 243 295
#     4  10  20  32  49  72  99 128 161 202 247 293
#     4   9  16  28  48  72  95 121 162 209 243 274
#     4   9  15  27  47  71  94 120 160 208 245 275
#     4  10  20  32  51  78 102 125 159 205 247 285
#     4   9  17  32  54  77  98 126 167 206 237 278
#
# _framework density 18.653351000000001
#
# number of rings (size 3 to 8) (size 9 to 14) (size 15 to 20)
#    0.000    2.571    1.429    1.286    2.000    3.429 
#    0.000    0.000    0.000    5.571    0.000    0.000 
#    0.000    0.000    0.000    0.000    0.000    0.000 
#
# Total GULP energy -347033.147765 kJ/mol
# GULP energy per Si atom -12394.040992 kJ/mol
# Density = 1.861090 g / cm^3
# Si number density = 18.653351 Si / 1000 Ang^3
#
#
#
# Elastic Constant Matrix: (Units=GPa)
#
#
# Indices 1 2 3 4 5 6 
#
# 1 141.0725 29.9832 57.6303 0.0000 0.2166 0.0000
# 2 29.9832 21.0400 17.2353 0.0001 -2.2178 -0.0001
# 3 57.6303 17.2353 123.7526 0.0000 10.9620 0.0000
# 4 0.0000 0.0001 0.0000 11.6931 0.0000 -0.4752
# 5 0.2166 -2.2178 10.9620 0.0000 37.4563 0.0000
# 6 0.0000 -0.0001 0.0000 -0.4752 0.0000 25.6466
#
#
#
# Elastic Compliance Matrix: (Units=1/GPa)
#
#
# Indices 1 2 3 4 5 6 
#
# 1 0.011317 -0.013300 -0.003431 0.000000 0.000151 0.000000
# 2 -0.013300 0.070410 -0.004095 -0.000001 0.005444 0.000000
# 3 -0.003431 -0.004095 0.010542 0.000000 -0.003308 0.000000
# 4 0.000000 -0.000001 0.000000 0.085585 0.000000 0.001586
# 5 0.000151 0.005444 -0.003308 0.000000 0.027987 0.000000
# 6 0.000000 0.000000 0.000000 0.001586 0.000000 0.039021
#
#
# Mechanical properties :
#
#
# Convention : Reuss Voigt Hill
#
# Bulk Modulus (GPa) = 19.75639 55.06252 37.40945
# Shear Modulus (GPa) = 16.48062 27.02696 21.75379
#
# Velocity S-wave (km/s) = 2.97563 3.81058 3.41869
# Velocity P-wave (km/s) = 4.73499 6.99597 5.97343
#
# Compressibility (1/GPa) = 0.05061654
#
# Stress axis : x y z
#
# Youngs Moduli (GPa) = 88.36392 14.20245 94.86098
#
# Poissons Ratio (x) = 0.18890 0.32548
# Poissons Ratio (y) = 1.17528 0.38842
# Poissons Ratio (z) = 0.30319 0.05815
#
# Static dielectric constant tensor:
#      x y z
#    x 3.424040 0.000000 -0.089600 
#    y 0.000000 2.799700 0.000000 
#    z -0.089600 0.000000 3.690910 
# 
# 
# High freq. dielectric constant tensor:
#      x y z
#    x 1.736630 0.000000 0.001150 
#    y 0.000000 1.645110 0.000000 
#    z 0.001150 0.000000 1.748290 
# 
# From -- ./inp_files/268845.got.cif
#   From: 2010.06.25/outbox.cif.g09.slc.cpg/sg12_135_cif.got.tgz:268845.got - 2010.06.28 00:19:55.
