data_PCOD8095383
_publ_section_title
;
Structure prediction by ZEFSAII (Michael W. Deem and Ramdas Pophale) SiO2 
 PCOD8095383
Probable space group: C 2/M
;
_chemical_formula_sum "Si O2"
_cell_formula_units_Z 52
_cell_length_a 32.798412
_cell_length_b 17.470295
_cell_length_c 6.367961
_cell_angle_alpha 90.000000
_cell_angle_beta 53.144277
_cell_angle_gamma 90.000000
_cell_volume 2919.604323
_symmetry_space_group_name_H-M "C 2/M"
_symmetry_group_IT_number 12
_symmetry_cell_setting 'monoclinic'
loop_
_space_group_symop_operation_xyz
x,y,z
-x,y,-z
-x,-y,-z
x,-y,z
1/2+x,1/2+y,z
1/2-x,1/2+y,-z
1/2-x,1/2-y,-z
1/2+x,1/2-y,z
loop_
_atom_site_type_symbol
_atom_site_label
_atom_site_fract_x
_atom_site_fract_y
_atom_site_fract_z
Si Si1 0.586590 0.690771 0.946843
Si Si2 0.425583 0.586491 0.401847
Si Si3 0.768077 0.411823 0.782224
Si Si4 0.345500 0.586506 0.984338
Si Si5 0.000000 0.152581 0.500000
Si Si6 0.678071 0.215975 0.642120
Si Si7 0.257141 0.807058 0.171013
O O1 0.565611 0.649073 0.805125
O O2 0.629459 0.638422 0.918589
O O3 0.617053 0.769742 0.805711
O O4 0.538992 0.706443 0.248887
O O5 0.429870 0.500000 0.298843
O O6 0.469279 0.596950 0.440705
O O7 0.370385 0.600646 0.678005
O O8 0.784787 0.500000 0.713700
O O9 0.714162 0.395636 0.838767
O O10 0.809043 0.359715 0.533127
O O11 0.762683 0.390736 0.047094
O O12 0.355796 0.500000 0.023098
O O13 0.692231 0.205570 0.844443
O O14 0.707897 0.292265 0.468582
O O15 0.250000 0.750000 0.000000
#
# Coordination Sequence:
#
# PCOD8095383 Si02
#       7
#     8   8   8   8   4   8   8
#     4  11  20  33  49  68  95 130 168 206 249 288
#     4  10  20  34  51  70  97 133 166 200 244 288
#     4  10  20  33  50  75 104 133 167 204 243 291
#     4   9  18  30  45  70 101 130 165 201 232 282
#     4  10  23  34  46  70  97 126 170 214 243 284
#     4  10  20  32  50  72  98 131 167 204 244 295
#     4   9  17  31  49  72  99 131 163 197 244 294
#
# _framework density 17.810632999999999
#
# number of rings (size 3 to 8) (size 9 to 14) (size 15 to 20)
#    0.000    2.154    0.000    4.846    0.000    6.769 
#    0.000    3.846    0.000    0.000    0.000    0.538 
#    0.000    3.692    0.000    0.154    0.000    0.000 
#
# Total GULP energy -322258.683657 kJ/mol
# GULP energy per Si atom -12394.564756 kJ/mol
# Density = 1.777009 g / cm^3
# Si number density = 17.810633 Si / 1000 Ang^3
#
#
#
# Elastic Constant Matrix: (Units=GPa)
#
#
# Indices 1 2 3 4 5 6 
#
# 1 69.1920 38.2207 38.3737 0.0000 6.6841 0.0000
# 2 38.2207 85.9809 53.2458 0.0000 -4.1413 0.0000
# 3 38.3737 53.2458 93.5982 0.0000 -8.2661 0.0000
# 4 0.0000 0.0000 0.0000 23.6374 0.0000 2.0175
# 5 6.6841 -4.1413 -8.2661 0.0000 34.1360 0.0000
# 6 0.0000 0.0000 0.0000 2.0175 0.0000 22.3321
#
#
#
# Elastic Compliance Matrix: (Units=1/GPa)
#
#
# Indices 1 2 3 4 5 6 
#
# 1 0.021884 -0.006375 -0.005918 0.000000 -0.006492 0.000000
# 2 -0.006375 0.019817 -0.008519 0.000000 0.001590 0.000000
# 3 -0.005918 -0.008519 0.018360 0.000000 0.004571 0.000000
# 4 0.000000 0.000000 0.000000 0.042635 0.000000 -0.003852
# 5 -0.006492 0.001590 0.004571 0.000000 0.031866 0.000000
# 6 0.000000 0.000000 0.000000 -0.003852 0.000000 0.045127
#
#
# Mechanical properties :
#
#
# Convention : Reuss Voigt Hill
#
# Bulk Modulus (GPa) = 54.24452 56.49460 55.36956
# Shear Modulus (GPa) = 21.98204 23.94982 22.96593
#
# Velocity S-wave (km/s) = 3.51694 3.67098 3.59479
# Velocity P-wave (km/s) = 6.85669 7.05384 6.95596
#
# Compressibility (1/GPa) = 0.01843504
#
# Stress axis : x y z
#
# Youngs Moduli (GPa) = 45.69614 50.46245 54.46494
#
# Poissons Ratio (x) = 0.32172 0.32235
# Poissons Ratio (y) = 0.29133 0.46399
# Poissons Ratio (z) = 0.27045 0.42989
#
# Static dielectric constant tensor:
#      x y z
#    x 3.319180 0.000000 0.124670 
#    y 0.000000 3.217460 0.000000 
#    z 0.124670 0.000000 3.517320 
# 
# 
# High freq. dielectric constant tensor:
#      x y z
#    x 1.679990 0.000000 0.016600 
#    y 0.000000 1.651580 0.000000 
#    z 0.016600 0.000000 1.694170 
# 
# From -- ./inp_files/32314.got.cif
#   From: 2010.06.25/outbox.cif.g09.slc.cpg/sg12_17_cif.got.tgz:32314.got - 2010.06.28 00:19:55.
