data_PCOD8095552
_publ_section_title
;
Structure prediction by ZEFSAII (Michael W. Deem and Ramdas Pophale) SiO2 
 PCOD8095552
Probable space group: C 2/M
;
_chemical_formula_sum "Si O2"
_cell_formula_units_Z 56
_cell_length_a 20.992255
_cell_length_b 21.837062
_cell_length_c 10.341712
_cell_angle_alpha 90.000000
_cell_angle_beta 37.043099
_cell_angle_gamma 90.000000
_cell_volume 2855.893124
_symmetry_space_group_name_H-M "C 2/M"
_symmetry_group_IT_number 12
_symmetry_cell_setting 'monoclinic'
loop_
_space_group_symop_operation_xyz
x,y,z
-x,y,-z
-x,-y,-z
x,-y,z
1/2+x,1/2+y,z
1/2-x,1/2+y,-z
1/2-x,1/2-y,-z
1/2+x,1/2-y,z
loop_
_atom_site_type_symbol
_atom_site_label
_atom_site_fract_x
_atom_site_fract_y
_atom_site_fract_z
Si Si1 0.924996 0.429927 0.228753
Si Si2 0.767841 0.071598 0.628861
Si Si3 0.760889 0.340313 0.092968
Si Si4 0.305961 0.568608 0.011053
Si Si5 0.491835 0.427694 0.156331
Si Si6 0.089067 0.394982 0.464151
Si Si7 0.115322 0.272290 0.314311
O O1 0.957667 0.500000 0.181606
O O2 0.802350 0.421289 0.387098
O O3 0.953829 0.405619 0.323314
O O4 0.000000 0.397452 0.000000
O O5 0.716640 0.118071 0.817744
O O6 0.886468 0.094145 0.403131
O O7 0.764682 0.000000 0.681241
O O8 0.692652 0.280560 0.233585
O O9 0.696812 0.384734 0.102179
O O10 0.862778 0.310494 0.855936
O O11 0.330851 0.500000 0.920493
O O12 0.194959 0.565616 0.267824
O O13 0.402288 0.592908 0.942249
O O14 0.484546 0.500000 0.155029
O O15 0.500000 0.398303 0.000000
O O16 0.121186 0.323910 0.414112
O O17 0.000000 0.410913 0.500000
O O18 0.000000 0.242294 0.500000
#
# Coordination Sequence:
#
# PCOD8095552 Si02
#       7
#     8   8   8   8   8   8   8
#     4  10  22  36  56  87 122 155 186 231 295 357
#     4  10  21  36  58  87 123 153 181 234 301 356
#     4  10  21  37  57  87 113 152 193 242 292 344
#     4  10  20  32  55  87 116 147 190 237 287 355
#     4   9  18  33  52  77 114 154 186 224 280 344
#     4  10  21  38  60  85 115 156 199 242 284 341
#     4   9  21  38  59  80 109 154 202 243 287 330
#
# _framework density 19.608577
#
# number of rings (size 3 to 8) (size 9 to 14) (size 15 to 20)
#    0.000    2.286    0.000    1.714    8.000    3.429 
#    0.000    2.857    0.000    1.286    0.000    0.000 
#    0.000    0.000    0.000    0.000    0.000    0.000 
#
# Total GULP energy -346928.328314 kJ/mol
# GULP energy per Si atom -12390.297440 kJ/mol
# Density = 1.956395 g / cm^3
# Si number density = 19.608577 Si / 1000 Ang^3
#
#
#
# Elastic Constant Matrix: (Units=GPa)
#
#
# Indices 1 2 3 4 5 6 
#
# 1 114.7860 31.5624 58.7587 0.0000 6.9245 0.0000
# 2 31.5624 71.2708 28.3933 0.0000 8.9422 0.0000
# 3 58.7587 28.3933 109.2267 0.0000 3.9156 0.0000
# 4 0.0000 0.0000 0.0000 26.3946 0.0000 -0.4963
# 5 6.9245 8.9422 3.9156 0.0000 39.9486 0.0000
# 6 0.0000 0.0000 0.0000 -0.4963 0.0000 1.4185
#
#
#
# Elastic Compliance Matrix: (Units=1/GPa)
#
#
# Indices 1 2 3 4 5 6 
#
# 1 0.012687 -0.003121 -0.005981 0.000000 -0.000914 0.000000
# 2 -0.003121 0.016816 -0.002586 0.000000 -0.002970 0.000000
# 3 -0.005981 -0.002586 0.013033 0.000000 0.000338 0.000000
# 4 0.000000 0.000000 0.000000 0.038137 0.000000 0.013342
# 5 -0.000914 -0.002970 0.000338 0.000000 0.025822 0.000000
# 6 0.000000 0.000000 0.000000 0.013342 0.000000 0.709631
#
#
# Mechanical properties :
#
#
# Convention : Reuss Voigt Hill
#
# Bulk Modulus (GPa) = 52.19185 59.19026 55.69105
# Shear Modulus (GPa) = 5.91095 25.32361 15.61728
#
# Velocity S-wave (km/s) = 1.73811 3.59758 2.82521
# Velocity P-wave (km/s) = 5.54100 6.89262 6.25343
#
# Compressibility (1/GPa) = 0.01916008
#
# Stress axis : x y z
#
# Youngs Moduli (GPa) = 78.82249 59.46759 76.72999
#
# Poissons Ratio (x) = 0.18560 0.45891
# Poissons Ratio (y) = 0.24600 0.19841
# Poissons Ratio (z) = 0.47142 0.15378
#
# Static dielectric constant tensor:
#      x y z
#    x 3.450210 0.000000 -0.114150 
#    y 0.000000 3.406830 0.000000 
#    z -0.114150 0.000000 3.882670 
# 
# 
# High freq. dielectric constant tensor:
#      x y z
#    x 1.754360 0.000000 -0.011300 
#    y 0.000000 1.740710 0.000000 
#    z -0.011300 0.000000 1.774170 
# 
# From -- ./inp_files/79067.got.cif
#   From: 2010.06.25/outbox.cif.g09.slc.cpg/sg12_40_cif.got.tgz:79067.got - 2010.06.28 00:19:55.
