data_PCOD8095481
_publ_section_title
;
Structure prediction by ZEFSAII (Michael W. Deem and Ramdas Pophale) SiO2 
 PCOD8095481
Probable space group: C 2/M
;
_chemical_formula_sum "Si O2"
_cell_formula_units_Z 56
_cell_length_a 29.081446
_cell_length_b 13.796717
_cell_length_c 16.298249
_cell_angle_alpha 90.000000
_cell_angle_beta 24.286499
_cell_angle_gamma 90.000000
_cell_volume 2689.620306
_symmetry_space_group_name_H-M "C 2/M"
_symmetry_group_IT_number 12
_symmetry_cell_setting 'monoclinic'
loop_
_space_group_symop_operation_xyz
x,y,z
-x,y,-z
-x,-y,-z
x,-y,z
1/2+x,1/2+y,z
1/2-x,1/2+y,-z
1/2-x,1/2-y,-z
1/2+x,1/2-y,z
loop_
_atom_site_type_symbol
_atom_site_label
_atom_site_fract_x
_atom_site_fract_y
_atom_site_fract_z
Si Si1 0.871364 0.193122 0.215023
Si Si2 0.281256 0.106293 0.401958
Si Si3 0.196806 0.793084 0.855377
Si Si4 0.703790 0.393873 0.347331
Si Si5 0.867652 0.291068 0.709523
Si Si6 0.536833 0.391395 0.232641
Si Si7 0.219012 0.891741 0.075426
O O1 0.807743 0.124542 0.381557
O O2 0.869217 0.305105 0.250990
O O3 0.807803 0.174080 0.231761
O O4 0.000000 0.161415 0.000000
O O5 0.212607 0.100810 0.430464
O O6 0.339316 0.000000 0.322967
O O7 0.204346 0.675926 0.842714
O O8 0.306708 0.835026 0.726423
O O9 0.081837 0.822819 0.086709
O O10 0.718397 0.500000 0.283313
O O11 0.577893 0.351010 0.540853
O O12 0.824216 0.178882 0.781905
O O13 0.000000 0.300309 0.500000
O O14 0.829514 0.347908 0.853414
O O15 0.517234 0.500000 0.229431
O O16 0.623858 0.394045 0.163197
O O17 0.242182 0.000000 0.072160
#
# Coordination Sequence:
#
# PCOD8095481 Si02
#       7
#     8   8   8   8   8   8   8
#     4  10  20  34  53  75 100 132 166 203 248 293
#     4   9  19  34  50  72 102 132 165 204 245 294
#     4  10  20  32  52  78 102 126 166 210 244 290
#     4   9  17  31  51  73  99 132 166 202 246 292
#     4  10  20  34  53  75 100 132 166 203 248 293
#     4   9  17  31  51  73  99 132 166 202 246 292
#     4   9  19  34  50  72 102 132 165 204 245 294
#
# _framework density 20.820782000000001
#
# number of rings (size 3 to 8) (size 9 to 14) (size 15 to 20)
#    0.000    2.571    0.000    1.714    0.000    2.286 
#    0.000    0.000    0.000    2.571    0.000    0.000 
#    0.000    0.000    0.000    0.000    0.000    0.000 
#
# Total GULP energy -346927.078688 kJ/mol
# GULP energy per Si atom -12390.252810 kJ/mol
# Density = 2.077339 g / cm^3
# Si number density = 20.820782 Si / 1000 Ang^3
#
#
#
# Elastic Constant Matrix: (Units=GPa)
#
#
# Indices 1 2 3 4 5 6 
#
# 1 52.4841 6.6614 21.6446 0.0000 3.5418 0.0000
# 2 6.6614 84.0105 29.6459 0.0000 2.8784 0.0000
# 3 21.6446 29.6459 88.2812 0.0000 -1.5261 0.0000
# 4 0.0000 0.0000 0.0000 24.8666 0.0000 -0.2758
# 5 3.5418 2.8784 -1.5261 0.0000 25.8438 0.0000
# 6 0.0000 0.0000 0.0000 -0.2758 0.0000 18.0399
#
#
#
# Elastic Compliance Matrix: (Units=1/GPa)
#
#
# Indices 1 2 3 4 5 6 
#
# 1 0.021475 0.000327 -0.005432 0.000000 -0.003300 0.000000
# 2 0.000327 0.013590 -0.004676 0.000000 -0.001835 0.000000
# 3 -0.005432 -0.004676 0.014266 0.000000 0.002108 0.000000
# 4 0.000000 0.000000 0.000000 0.040221 0.000000 0.000615
# 5 -0.003300 -0.001835 0.002108 0.000000 0.039475 0.000000
# 6 0.000000 0.000000 0.000000 0.000615 0.000000 0.055442
#
#
# Mechanical properties :
#
#
# Convention : Reuss Voigt Hill
#
# Bulk Modulus (GPa) = 33.59127 37.85330 35.72229
# Shear Modulus (GPa) = 23.36956 24.87166 24.12061
#
# Velocity S-wave (km/s) = 3.35388 3.45999 3.40735
# Velocity P-wave (km/s) = 5.58270 5.84654 5.71614
#
# Compressibility (1/GPa) = 0.02976964
#
# Stress axis : x y z
#
# Youngs Moduli (GPa) = 46.56630 73.58267 70.09754
#
# Poissons Ratio (x) = -0.02407 0.38077
# Poissons Ratio (y) = -0.01523 0.32775
# Poissons Ratio (z) = 0.25295 0.34405
#
# Static dielectric constant tensor:
#      x y z
#    x 3.824820 0.000000 0.124210 
#    y 0.000000 4.180220 0.000000 
#    z 0.124210 0.000000 3.674440 
# 
# 
# High freq. dielectric constant tensor:
#      x y z
#    x 1.816990 0.000000 0.012360 
#    y 0.000000 1.805870 0.000000 
#    z 0.012360 0.000000 1.800440 
# 
# From -- ./inp_files/246521.got.cif
#   From: 2010.06.25/outbox.cif.g09.slc.cpg/sg12_124_cif.got.tgz:246521.got - 2010.06.28 00:19:55.
