data_PCOD8095038
_publ_section_title
;
Structure prediction by ZEFSAII (Michael W. Deem and Ramdas Pophale) SiO2 
 PCOD8095038
Probable space group: C 2/M
;
_chemical_formula_sum "Si O2"
_cell_formula_units_Z 56
_cell_length_a 16.051848
_cell_length_b 19.014223
_cell_length_c 16.583573
_cell_angle_alpha 90.000000
_cell_angle_beta 35.507303
_cell_angle_gamma 90.000000
_cell_volume 2939.770046
_symmetry_space_group_name_H-M "C 2/M"
_symmetry_group_IT_number 12
_symmetry_cell_setting 'monoclinic'
loop_
_space_group_symop_operation_xyz
x,y,z
-x,y,-z
-x,-y,-z
x,-y,z
1/2+x,1/2+y,z
1/2-x,1/2+y,-z
1/2-x,1/2-y,-z
1/2+x,1/2-y,z
loop_
_atom_site_type_symbol
_atom_site_label
_atom_site_fract_x
_atom_site_fract_y
_atom_site_fract_z
Si Si1 0.022665 0.717477 0.163405
Si Si2 0.863420 0.079092 0.873084
Si Si3 0.650852 0.420052 0.737285
Si Si4 0.196066 0.217584 0.156951
Si Si5 0.959050 0.419874 0.447546
Si Si6 0.857370 0.785921 0.163581
Si Si7 0.422538 0.079478 0.812324
O O1 0.054669 0.747101 0.228345
O O2 0.000601 0.632738 0.185635
O O3 0.881445 0.749877 0.232760
O O4 0.161786 0.740089 0.002975
O O5 0.824297 0.132496 0.831115
O O6 0.012728 0.102779 0.794928
O O7 0.870652 0.000000 0.831567
O O8 0.747636 0.083214 0.036909
O O9 0.635368 0.500000 0.782269
O O10 0.787742 0.413663 0.570071
O O11 0.671607 0.368862 0.798200
O O12 0.221752 0.247184 0.227467
O O13 0.010850 0.500000 0.414116
O O14 0.000000 0.381323 0.500000
O O15 0.044290 0.390150 0.303214
O O16 0.000000 0.774499 0.000000
O O17 0.482152 0.000000 0.777824
#
# Coordination Sequence:
#
# PCOD8095038 Si02
#       7
#     8   8   8   8   8   8   8
#     4   9  17  31  48  71 102 135 172 207 251 307
#     4   9  17  32  55  79  99 128 175 218 250 294
#     4  10  20  33  50  76 106 131 168 214 253 302
#     4   9  17  30  49  72 105 138 161 207 263 304
#     4   9  19  33  46  68 105 139 165 201 257 313
#     4  10  20  31  49  76 105 138 170 207 259 309
#     4   9  18  32  52  72  96 136 171 205 251 301
#
# _framework density 19.049108
#
# number of rings (size 3 to 8) (size 9 to 14) (size 15 to 20)
#    0.000    2.714    1.429    0.000    4.000    0.286 
#    0.000    1.429    0.000    4.286    0.000    0.000 
#    0.000    4.571    0.000    0.000    0.000    0.000 
#
# Total GULP energy -346898.900785 kJ/mol
# GULP energy per Si atom -12389.246457 kJ/mol
# Density = 1.900575 g / cm^3
# Si number density = 19.049108 Si / 1000 Ang^3
#
#
#
# Elastic Constant Matrix: (Units=GPa)
#
#
# Indices 1 2 3 4 5 6 
#
# 1 129.0753 67.6779 23.0877 -0.0024 4.5038 0.0007
# 2 67.6779 116.4969 17.8797 -0.0044 8.1837 0.0013
# 3 23.0877 17.8797 37.8066 -0.0068 -2.9830 0.0023
# 4 -0.0024 -0.0044 -0.0068 12.4727 -0.0004 6.2493
# 5 4.5038 8.1837 -2.9830 -0.0004 14.8709 0.0008
# 6 0.0007 0.0013 0.0023 6.2493 0.0008 29.0936
#
#
#
# Elastic Compliance Matrix: (Units=1/GPa)
#
#
# Indices 1 2 3 4 5 6 
#
# 1 0.011759 -0.006080 -0.004392 -0.000003 -0.001096 0.000001
# 2 -0.006080 0.012972 -0.002885 0.000002 -0.005876 0.000000
# 3 -0.004392 -0.002885 0.031221 0.000019 0.009181 -0.000007
# 4 -0.000003 0.000002 0.000019 0.089845 0.000007 -0.019299
# 5 -0.001096 -0.005876 0.009181 0.000007 0.072653 -0.000004
# 6 0.000001 0.000000 -0.000007 -0.019299 -0.000004 0.038517
#
#
# Mechanical properties :
#
#
# Convention : Reuss Voigt Hill
#
# Bulk Modulus (GPa) = 34.20292 55.62994 44.91643
# Shear Modulus (GPa) = 17.03992 22.93632 19.98812
#
# Velocity S-wave (km/s) = 2.99411 3.47373 3.24280
# Velocity P-wave (km/s) = 5.47239 6.73468 6.13608
#
# Compressibility (1/GPa) = 0.02923727
#
# Stress axis : x y z
#
# Youngs Moduli (GPa) = 85.03806 77.08983 32.02933
#
# Poissons Ratio (x) = 0.46874 0.14068
# Poissons Ratio (y) = 0.51707 0.09241
# Poissons Ratio (z) = 0.37350 0.22242
#
# Static dielectric constant tensor:
#      x y z
#    x 3.604010 0.000000 0.018360 
#    y 0.000000 3.639810 0.000000 
#    z 0.018360 0.000000 3.210860 
# 
# 
# High freq. dielectric constant tensor:
#      x y z
#    x 1.717910 0.000000 -0.010620 
#    y 0.000000 1.747480 0.000000 
#    z -0.010620 0.000000 1.696190 
# 
# From -- ./inp_files/217642.got.cif
#   From: 2010.06.25/outbox.cif.g09.slc.cpg/sg12_109_cif.got.tgz:217642.got - 2010.06.28 00:19:55.
