data_PCOD8095820
_publ_section_title
;
Structure prediction by ZEFSAII (Michael W. Deem and Ramdas Pophale) SiO2 
 PCOD8095820
Probable space group: C 2/M
;
_chemical_formula_sum "Si O2"
_cell_formula_units_Z 64
_cell_length_a 8.998936
_cell_length_b 19.288304
_cell_length_c 24.437911
_cell_angle_alpha 90.000000
_cell_angle_beta 56.471246
_cell_angle_gamma 90.000000
_cell_volume 3535.994139
_symmetry_space_group_name_H-M "C 2/M"
_symmetry_group_IT_number 12
_symmetry_cell_setting 'monoclinic'
loop_
_space_group_symop_operation_xyz
x,y,z
-x,y,-z
-x,-y,-z
x,-y,z
1/2+x,1/2+y,z
1/2-x,1/2+y,-z
1/2-x,1/2-y,-z
1/2+x,1/2-y,z
loop_
_atom_site_type_symbol
_atom_site_label
_atom_site_fract_x
_atom_site_fract_y
_atom_site_fract_z
Si Si1 0.127217 0.582536 0.193670
Si Si2 0.014932 0.082692 0.935292
Si Si3 0.791773 0.582536 0.193670
Si Si4 0.558474 0.320750 0.576427
Si Si5 0.934492 0.081803 0.324623
Si Si6 0.787755 0.679250 0.423573
Si Si7 0.408361 0.081803 0.675377
Si Si8 0.820807 0.582692 0.064708
O O1 0.129976 0.500000 0.191889
O O2 0.304654 0.611806 0.128661
O O3 0.120748 0.609341 0.257145
O O4 0.955665 0.611339 0.196223
O O5 0.847722 0.110989 0.934852
O O6 0.016264 0.000000 0.934967
O O7 0.000000 0.111129 0.000000
O O8 0.794355 0.500000 0.191890
O O9 0.607815 0.609342 0.257146
O O10 0.809364 0.611806 0.128661
O O11 0.573555 0.384854 0.614170
O O12 0.360710 0.315868 0.592860
O O13 0.702819 0.334036 0.500000
O O14 0.600004 0.250000 0.599998
O O15 0.762567 0.103806 0.324955
O O16 0.943991 0.000000 0.331533
O O17 0.916065 0.615146 0.385830
O O18 0.438592 0.000000 0.668466
O O19 0.821166 0.500000 0.065033
O O20 0.000000 0.611129 0.000000
#
# Coordination Sequence:
#
# PCOD8095820 Si02
#       8
#     8   8   8   8   8   8   8   8
#     4   9  16  26  40  59  86 120 157 197 241 287
#     4   9  15  22  33  51  78 114 155 195 236 284
#     4   9  16  26  40  59  86 120 157 197 241 287
#     4  10  21  37  56  76  99 128 162 201 245 293
#     4  10  20  33  50  73 101 132 165 202 245 293
#     4  10  21  37  56  76  99 128 162 201 245 293
#     4  10  20  33  50  73 101 132 165 202 245 293
#     4   9  15  22  33  51  78 114 155 195 236 284
#
# _framework density 18.099578000000001
#
# number of rings (size 3 to 8) (size 9 to 14) (size 15 to 20)
#    0.000    2.500    0.000    3.000    0.000    9.500 
#    0.000    2.500    0.000    0.000    0.000    0.000 
#    0.000    1.000    0.000   10.000    0.000   15.500 
#
# Total GULP energy -396851.675088 kJ/mol
# GULP energy per Si atom -12401.614847 kJ/mol
# Density = 1.805838 g / cm^3
# Si number density = 18.099578 Si / 1000 Ang^3
#
#
#
# Elastic Constant Matrix: (Units=GPa)
#
#
# Indices 1 2 3 4 5 6 
#
# 1 174.7776 31.9397 85.5286 0.0002 0.3975 -0.0004
# 2 31.9397 22.8724 34.4619 0.0001 -0.1975 -0.0002
# 3 85.5286 34.4619 126.2291 -0.0002 3.4026 0.0001
# 4 0.0002 0.0001 -0.0002 2.3384 0.0000 1.4504
# 5 0.3975 -0.1975 3.4026 0.0000 41.8504 0.0000
# 6 -0.0004 -0.0002 0.0001 1.4504 0.0000 20.8664
#
#
#
# Elastic Compliance Matrix: (Units=1/GPa)
#
#
# Indices 1 2 3 4 5 6 
#
# 1 0.008984 -0.005710 -0.004535 -0.000001 0.000256 0.000000
# 2 -0.005710 0.078070 -0.017495 -0.000004 0.001845 0.000001
# 3 -0.004535 -0.017495 0.015807 0.000002 -0.001325 0.000000
# 4 -0.000001 -0.000004 0.000002 0.446901 -0.000001 -0.031063
# 5 0.000256 0.001845 -0.001325 -0.000001 0.024009 0.000000
# 6 0.000000 0.000001 0.000000 -0.031063 0.000000 0.050083
#
#
# Mechanical properties :
#
#
# Convention : Reuss Voigt Hill
#
# Bulk Modulus (GPa) = 21.10558 69.74884 45.42721
# Shear Modulus (GPa) = 7.19294 24.47431 15.83363
#
# Velocity S-wave (km/s) = 1.99568 3.68122 2.96092
# Velocity P-wave (km/s) = 4.12267 7.52917 6.06979
#
# Compressibility (1/GPa) = 0.04738083
#
# Stress axis : x y z
#
# Youngs Moduli (GPa) = 111.31251 12.80906 63.26345
#
# Poissons Ratio (x) = 0.07314 0.28691
# Poissons Ratio (y) = 0.63558 1.10678
# Poissons Ratio (z) = 0.50482 0.22409
#
# Static dielectric constant tensor:
#      x y z
#    x 3.610930 0.000000 0.009270 
#    y 0.000000 2.728060 0.000000 
#    z 0.009270 0.000000 3.492420 
# 
# 
# High freq. dielectric constant tensor:
#      x y z
#    x 1.724640 0.000000 0.000730 
#    y 0.000000 1.631180 0.000000 
#    z 0.000730 0.000000 1.715370 
# 
# From -- ./inp_files/301682.got.cif
#   From: 2010.06.25/outbox.cif.g09.slc.cpg/sg12_151_cif.got.tgz:301682.got - 2010.06.28 00:19:55.
