data_PCOD8095978
_publ_section_title
;
Structure prediction by ZEFSAII (Michael W. Deem and Ramdas Pophale) SiO2 
 PCOD8095978
Probable space group: C 2/M
;
_chemical_formula_sum "Si O2"
_cell_formula_units_Z 64
_cell_length_a 29.664401
_cell_length_b 8.572534
_cell_length_c 15.022199
_cell_angle_alpha 90.000000
_cell_angle_beta 79.466495
_cell_angle_gamma 90.000000
_cell_volume 3755.755284
_symmetry_space_group_name_H-M "C 2/M"
_symmetry_group_IT_number 12
_symmetry_cell_setting 'monoclinic'
loop_
_space_group_symop_operation_xyz
x,y,z
-x,y,-z
-x,-y,-z
x,-y,z
1/2+x,1/2+y,z
1/2-x,1/2+y,-z
1/2-x,1/2-y,-z
1/2+x,1/2-y,z
loop_
_atom_site_type_symbol
_atom_site_label
_atom_site_fract_x
_atom_site_fract_y
_atom_site_fract_z
Si Si1 0.561799 0.318767 0.624451
Si Si2 0.284870 0.680830 0.371400
Si Si3 0.437434 0.184074 0.086417
Si Si4 0.096569 0.680420 0.434893
Si Si5 0.042351 0.818523 0.296610
Si Si6 0.964227 0.315228 0.886759
Si Si7 0.629309 0.817276 0.741057
Si Si8 0.308745 0.319218 0.563441
O O1 0.571483 0.500000 0.640287
O O2 0.571062 0.284339 0.517866
O O3 0.510080 0.271391 0.665852
O O4 0.595878 0.216019 0.670844
O O5 0.272958 0.500000 0.368603
O O6 0.322632 0.727803 0.285002
O O7 0.304872 0.724045 0.460863
O O8 0.238394 0.776039 0.369587
O O9 0.484386 0.247840 0.112871
O O10 0.394120 0.244720 0.159030
O O11 0.440778 0.000000 0.092456
O O12 0.433247 0.231238 0.984040
O O13 0.089551 0.500000 0.460485
O O14 0.074837 0.717973 0.347702
O O15 0.150378 0.718834 0.410053
O O16 0.055622 0.775221 0.190834
O O17 0.051021 0.000000 0.311207
O O18 0.963163 0.500000 0.869652
O O19 0.639512 0.000000 0.740544
O O20 0.319713 0.500000 0.573611
#
# Coordination Sequence:
#
# PCOD8095978 Si02
#       8
#     8   8   8   8   8   8   8   8
#     4  11  22  35  48  69 103 139 172 211 251 292
#     4  10  20  33  51  74 103 134 166 206 253 300
#     4   8  16  29  50  75 101 131 167 211 254 298
#     4  12  24  36  53  73  97 134 177 213 249 299
#     4  11  23  36  50  71 102 137 174 214 255 296
#     4   9  16  32  52  72  98 132 172 212 252 295
#     4  11  19  30  51  77 103 136 172 206 250 303
#     4  10  20  35  53  73 101 132 165 209 254 297
#
# _framework density 17.040514999999999
#
# number of rings (size 3 to 8) (size 9 to 14) (size 15 to 20)
#    0.000    1.750    2.500    4.125    0.000    4.000 
#    0.000    2.500    0.000    0.000    0.000    0.875 
#    0.000    0.000    0.000    0.000    0.000    0.000 
#
# Total GULP energy -396880.083326 kJ/mol
# GULP energy per Si atom -12402.502604 kJ/mol
# Density = 1.700173 g / cm^3
# Si number density = 17.040515 Si / 1000 Ang^3
#
#
#
# Elastic Constant Matrix: (Units=GPa)
#
#
# Indices 1 2 3 4 5 6 
#
# 1 72.8590 23.8755 44.1414 0.0000 -12.7862 0.0000
# 2 23.8755 45.0224 11.8766 0.0000 -2.6490 0.0000
# 3 44.1414 11.8766 108.2801 0.0000 -12.4496 0.0000
# 4 0.0000 0.0000 0.0000 21.8356 0.0000 -2.4853
# 5 -12.7862 -2.6490 -12.4496 0.0000 24.9065 0.0000
# 6 0.0000 0.0000 0.0000 -2.4853 0.0000 24.1953
#
#
#
# Elastic Compliance Matrix: (Units=1/GPa)
#
#
# Indices 1 2 3 4 5 6 
#
# 1 0.022525 -0.009605 -0.007339 0.000000 0.006874 0.000000
# 2 -0.009605 0.027005 0.000760 0.000000 -0.001678 0.000000
# 3 -0.007339 0.000760 0.012434 0.000000 0.002529 0.000000
# 4 0.000000 0.000000 0.000000 0.046339 0.000000 0.004760
# 5 0.006874 -0.001678 0.002529 0.000000 0.044764 0.000000
# 6 0.000000 0.000000 0.000000 0.004760 0.000000 0.041819
#
#
# Mechanical properties :
#
#
# Convention : Reuss Voigt Hill
#
# Bulk Modulus (GPa) = 33.78544 42.88317 38.33431
# Shear Modulus (GPa) = 21.08644 23.93867 22.51255
#
# Velocity S-wave (km/s) = 3.52153 3.75214 3.63866
# Velocity P-wave (km/s) = 6.03361 6.63261 6.34019
#
# Compressibility (1/GPa) = 0.02959855
#
# Stress axis : x y z
#
# Youngs Moduli (GPa) = 44.39509 37.02980 80.42247
#
# Poissons Ratio (x) = 0.35566 0.59020
# Poissons Ratio (y) = 0.42640 -0.06116
# Poissons Ratio (z) = 0.32580 -0.02816
#
# Static dielectric constant tensor:
#      x y z
#    x 3.115760 0.000000 -0.233350 
#    y 0.000000 3.082990 0.000000 
#    z -0.233350 0.000000 3.296150 
# 
# 
# High freq. dielectric constant tensor:
#      x y z
#    x 1.637710 0.000000 -0.015040 
#    y 0.000000 1.658700 0.000000 
#    z -0.015040 0.000000 1.644500 
# 
# From -- ./inp_files/244000.got.cif
#   From: 2010.06.25/outbox.cif.g09.slc.cpg/sg12_122_cif.got.tgz:244000.got - 2010.06.28 00:19:55.
