data_PCOD8095652
_publ_section_title
;
Structure prediction by ZEFSAII (Michael W. Deem and Ramdas Pophale) SiO2 
 PCOD8095652
Probable space group: C 2/M
;
_chemical_formula_sum "Si O2"
_cell_formula_units_Z 56
_cell_length_a 20.662964
_cell_length_b 9.335443
_cell_length_c 22.438330
_cell_angle_alpha 90.000000
_cell_angle_beta 128.754380
_cell_angle_gamma 90.000000
_cell_volume 3375.372543
_symmetry_space_group_name_H-M "C 2/M"
_symmetry_group_IT_number 12
_symmetry_cell_setting 'monoclinic'
loop_
_space_group_symop_operation_xyz
x,y,z
-x,y,-z
-x,-y,-z
x,-y,z
1/2+x,1/2+y,z
1/2-x,1/2+y,-z
1/2-x,1/2-y,-z
1/2+x,1/2-y,z
loop_
_atom_site_type_symbol
_atom_site_label
_atom_site_fract_x
_atom_site_fract_y
_atom_site_fract_z
Si Si1 0.326554 0.830665 0.014972
Si Si2 0.331574 0.167822 0.528669
Si Si3 0.851888 0.665849 0.290879
Si Si4 0.235102 0.158442 0.850519
Si Si5 0.509929 0.834685 0.302706
Si Si6 0.925047 0.163526 0.158308
Si Si7 0.093009 0.670612 0.551053
O O1 0.317444 0.808964 0.937885
O O2 0.324877 0.000000 0.030219
O O3 0.250000 0.750000 0.000000
O O4 0.409691 0.755035 0.088599
O O5 0.250000 0.250000 0.500000
O O6 0.401838 0.201386 0.617747
O O7 0.360679 0.226606 0.481090
O O8 0.312463 0.000000 0.514421
O O9 0.831969 0.500000 0.278002
O O10 0.775029 0.737903 0.211733
O O11 0.856403 0.722514 0.361387
O O12 0.939702 0.701166 0.310911
O O13 0.156774 0.172059 0.848914
O O14 0.240663 0.000000 0.826859
O O15 0.499867 0.736386 0.238283
O O16 0.503476 0.000000 0.279550
O O17 0.948336 0.000000 0.155594
O O18 0.086768 0.500000 0.546362
O O19 0.000000 0.734389 0.500000
#
# Coordination Sequence:
#
# PCOD8095652 Si02
#       7
#     8   8   8   8   8   8   8
#     4   9  15  23  34  50  77 114 149 179 216 264
#     4  10  20  33  49  68  93 122 153 192 235 277
#     4   9  15  24  43  65  81 107 150 191 222 258
#     4   8  15  24  33  51  83 115 139 173 222 266
#     4   9  16  27  43  62  83 112 149 187 225 268
#     4   9  16  24  36  55  80 111 145 183 222 265
#     4   9  15  28  49  69  88 114 155 197 228 266
#
# _framework density 16.590762000000002
#
# number of rings (size 3 to 8) (size 9 to 14) (size 15 to 20)
#    0.000    3.000    1.429    1.714    0.000    4.571 
#    0.000    0.714    0.000    0.857    0.000    0.000 
#    0.000    1.143    0.000   12.857    0.000    8.714 
#
# Total GULP energy -346985.345331 kJ/mol
# GULP energy per Si atom -12392.333762 kJ/mol
# Density = 1.655300 g / cm^3
# Si number density = 16.590762 Si / 1000 Ang^3
#
#
#
# Elastic Constant Matrix: (Units=GPa)
#
#
# Indices 1 2 3 4 5 6 
#
# 1 52.2310 27.9482 45.5438 0.0000 -1.6083 0.0000
# 2 27.9482 82.4893 74.3522 0.0000 1.8105 0.0000
# 3 45.5438 74.3522 167.1557 0.0000 -1.2244 0.0000
# 4 0.0000 0.0000 0.0000 30.4150 0.0000 3.5079
# 5 -1.6083 1.8105 -1.2244 0.0000 10.8114 0.0000
# 6 0.0000 0.0000 0.0000 3.5079 0.0000 14.4288
#
#
#
# Elastic Compliance Matrix: (Units=1/GPa)
#
#
# Indices 1 2 3 4 5 6 
#
# 1 0.026060 -0.004246 -0.005182 0.000000 0.004001 0.000000
# 2 -0.004246 0.021140 -0.008284 0.000000 -0.005110 0.000000
# 3 -0.005182 -0.008284 0.011093 0.000000 0.001873 0.000000
# 4 0.000000 0.000000 0.000000 0.033827 0.000000 -0.008224
# 5 0.004001 -0.005110 0.001873 0.000000 0.094158 0.000000
# 6 0.000000 0.000000 0.000000 -0.008224 0.000000 0.071305
#
#
# Mechanical properties :
#
#
# Convention : Reuss Voigt Hill
#
# Bulk Modulus (GPa) = 43.72838 66.39604 55.06221
# Shear Modulus (GPa) = 16.63173 21.39984 19.01578
#
# Velocity S-wave (km/s) = 3.16961 3.59536 3.38918
# Velocity P-wave (km/s) = 6.30948 7.57247 6.96964
#
# Compressibility (1/GPa) = 0.02286845
#
# Stress axis : x y z
#
# Youngs Moduli (GPa) = 38.37331 47.30302 90.14737
#
# Poissons Ratio (x) = 0.20085 0.46718
# Poissons Ratio (y) = 0.16293 0.74678
# Poissons Ratio (z) = 0.19887 0.39186
#
# Static dielectric constant tensor:
#      x y z
#    x 2.525250 0.000000 -0.039840 
#    y 0.000000 3.072760 0.000000 
#    z -0.039840 0.000000 3.729090 
# 
# 
# High freq. dielectric constant tensor:
#      x y z
#    x 1.560060 0.000000 0.000490 
#    y 0.000000 1.629590 0.000000 
#    z 0.000490 0.000000 1.664980 
# 
# From -- ./inp_files/319352.got.cif
#   From: 2010.06.25/outbox.cif.g09.slc.cpg/sg12_160_cif.got.tgz:319352.got - 2010.06.28 00:19:55.
