data_PCOD8095997
_publ_section_title
;
Structure prediction by ZEFSAII (Michael W. Deem and Ramdas Pophale) SiO2 
 PCOD8095997
Probable space group: C 2/M
;
_chemical_formula_sum "Si O2"
_cell_formula_units_Z 56
_cell_length_a 19.969151
_cell_length_b 8.871563
_cell_length_c 19.221093
_cell_angle_alpha 90.000000
_cell_angle_beta 96.446278
_cell_angle_gamma 90.000000
_cell_volume 3383.633412
_symmetry_space_group_name_H-M "C 2/M"
_symmetry_group_IT_number 12
_symmetry_cell_setting 'monoclinic'
loop_
_space_group_symop_operation_xyz
x,y,z
-x,y,-z
-x,-y,-z
x,-y,z
1/2+x,1/2+y,z
1/2-x,1/2+y,-z
1/2-x,1/2-y,-z
1/2+x,1/2-y,z
loop_
_atom_site_type_symbol
_atom_site_label
_atom_site_fract_x
_atom_site_fract_y
_atom_site_fract_z
Si Si1 0.979163 0.176064 0.574166
Si Si2 0.290132 0.823225 0.403719
Si Si3 0.659746 0.176457 0.438055
Si Si4 0.609372 0.822156 0.833146
Si Si5 0.894077 0.823083 0.315990
Si Si6 0.305260 0.331020 0.051873
Si Si7 0.952331 0.169881 0.053567
O O1 0.914111 0.267731 0.592151
O O2 0.000000 0.230949 0.500000
O O3 0.039616 0.216305 0.632589
O O4 0.961183 0.000000 0.571852
O O5 0.327778 0.782776 0.479863
O O6 0.213900 0.762481 0.396738
O O7 0.328288 0.741237 0.345824
O O8 0.289130 0.000000 0.388996
O O9 0.666985 0.000000 0.424952
O O10 0.596857 0.754537 0.756646
O O11 0.679675 0.757867 0.873959
O O12 0.546826 0.770196 0.875718
O O13 0.613215 0.000000 0.829172
O O14 0.884659 0.000000 0.304992
O O15 0.280831 0.500000 0.066877
O O16 0.375229 0.334447 0.016085
O O17 0.250000 0.250000 0.000000
O O18 0.977232 0.000000 0.074157
O O19 0.000000 0.242758 0.000000
#
# Coordination Sequence:
#
# PCOD8095997 Si02
#       7
#     8   8   8   8   8   8   8
#     4  10  20  34  53  77 103 136 178 224 271 320
#     4  10  20  33  52  75 101 134 172 215 267 320
#     4  10  20  33  51  75 102 131 170 221 268 316
#     4  10  20  33  52  79 110 140 175 214 259 314
#     4  11  21  35  55  76 104 140 178 221 270 319
#     4   9  17  31  53  80 106 134 168 208 253 302
#     4   8  16  32  54  78 105 137 172 209 251 303
#
# _framework density 16.550256000000001
#
# number of rings (size 3 to 8) (size 9 to 14) (size 15 to 20)
#    0.857    1.429    1.429    2.571    0.000    2.857 
#    0.000    0.000    3.143    0.000    0.000    0.000 
#    0.000    0.000    0.000    0.000    0.000    0.000 
#
# Total GULP energy -347087.713497 kJ/mol
# GULP energy per Si atom -12395.989768 kJ/mol
# Density = 1.651259 g / cm^3
# Si number density = 16.550256 Si / 1000 Ang^3
#
#
#
# Elastic Constant Matrix: (Units=GPa)
#
#
# Indices 1 2 3 4 5 6 
#
# 1 86.7405 53.4279 50.1216 0.0000 -6.6038 0.0000
# 2 53.4279 110.5710 65.9200 0.0000 -2.7432 0.0000
# 3 50.1216 65.9200 118.4194 0.0000 -5.1797 0.0000
# 4 0.0000 0.0000 0.0000 28.6745 0.0000 -0.0017
# 5 -6.6038 -2.7432 -5.1797 0.0000 25.8490 0.0000
# 6 0.0000 0.0000 0.0000 -0.0017 0.0000 30.5041
#
#
#
# Elastic Compliance Matrix: (Units=1/GPa)
#
#
# Indices 1 2 3 4 5 6 
#
# 1 0.017880 -0.006184 -0.003989 0.000000 0.003112 0.000000
# 2 -0.006184 0.015675 -0.006159 0.000000 -0.001150 0.000000
# 3 -0.003989 -0.006159 0.013607 0.000000 0.001054 0.000000
# 4 0.000000 0.000000 0.000000 0.034874 0.000000 0.000002
# 5 0.003112 -0.001150 0.001054 0.000000 0.039570 0.000000
# 6 0.000000 0.000000 0.000000 0.000002 0.000000 0.032782
#
#
# Mechanical properties :
#
#
# Convention : Reuss Voigt Hill
#
# Bulk Modulus (GPa) = 68.97228 72.74109 70.85668
# Shear Modulus (GPa) = 26.05715 26.75631 26.40673
#
# Velocity S-wave (km/s) = 3.97221 4.02515 3.99876
# Velocity P-wave (km/s) = 7.92482 8.10244 8.01412
#
# Compressibility (1/GPa) = 0.01449858
#
# Stress axis : x y z
#
# Youngs Moduli (GPa) = 55.92952 63.79478 73.48919
#
# Poissons Ratio (x) = 0.39451 0.29315
# Poissons Ratio (y) = 0.34587 0.45260
# Poissons Ratio (z) = 0.22311 0.39290
#
# Static dielectric constant tensor:
#      x y z
#    x 3.018750 0.000000 -0.063550 
#    y 0.000000 3.157690 0.000000 
#    z -0.063550 0.000000 2.909550 
# 
# 
# High freq. dielectric constant tensor:
#      x y z
#    x 1.628170 0.000000 -0.005850 
#    y 0.000000 1.650100 0.000000 
#    z -0.005850 0.000000 1.612700 
# 
# From -- ./inp_files/280286.got.cif
#   From: 2010.06.25/outbox.cif.g09.slc.cpg/sg12_141_cif.got.tgz:280286.got - 2010.06.28 00:19:55.
