data_PCOD8095020
_publ_section_title
;
Structure prediction by ZEFSAII (Michael W. Deem and Ramdas Pophale) SiO2 
 PCOD8095020
Probable space group: C 2/M
;
_chemical_formula_sum "Si O2"
_cell_formula_units_Z 64
_cell_length_a 22.748522
_cell_length_b 9.041516
_cell_length_c 20.039253
_cell_angle_alpha 90.000000
_cell_angle_beta 118.753656
_cell_angle_gamma 90.000000
_cell_volume 3613.474754
_symmetry_space_group_name_H-M "C 2/M"
_symmetry_group_IT_number 12
_symmetry_cell_setting 'monoclinic'
loop_
_space_group_symop_operation_xyz
x,y,z
-x,y,-z
-x,-y,-z
x,-y,z
1/2+x,1/2+y,z
1/2-x,1/2+y,-z
1/2-x,1/2-y,-z
1/2+x,1/2-y,z
loop_
_atom_site_type_symbol
_atom_site_label
_atom_site_fract_x
_atom_site_fract_y
_atom_site_fract_z
Si Si1 0.807679 0.171290 0.792882
Si Si2 0.193362 0.171843 0.511556
Si Si3 0.811012 0.831326 0.337967
Si Si4 0.069011 0.323824 0.382945
Si Si5 0.891761 0.334201 0.937835
Si Si6 0.535238 0.326200 0.588401
Si Si7 0.988240 0.333073 0.100800
Si Si8 0.425441 0.327414 0.754155
O O1 0.735669 0.236722 0.735655
O O2 0.831790 0.232801 0.877825
O O3 0.861084 0.208941 0.764354
O O4 0.798161 0.000000 0.797161
O O5 0.250000 0.250000 0.500000
O O6 0.213130 0.188423 0.599317
O O7 0.123328 0.253354 0.462096
O O8 0.186683 0.000000 0.487243
O O9 0.887437 0.778693 0.372323
O O10 0.803952 0.000000 0.311603
O O11 0.073331 0.500000 0.387146
O O12 0.083727 0.268035 0.316851
O O13 0.996928 0.267165 0.368813
O O14 0.863825 0.500000 0.929672
O O15 0.952072 0.330454 0.919004
O O16 0.920284 0.279845 0.025555
O O17 0.500000 0.282102 0.500000
O O18 0.526065 0.500000 0.597521
O O19 0.978960 0.500000 0.123386
O O20 0.006161 0.223088 0.171186
O O21 0.430908 0.500000 0.739782
#
# Coordination Sequence:
#
# PCOD8095020 Si02
#       8
#     8   8   8   8   8   8   8   8
#     4  10  20  31  47  74 107 137 170 212 251 293
#     4  11  22  37  54  76 103 135 170 206 252 309
#     4  10  21  36  55  73  96 132 169 206 257 309
#     4  12  24  36  53  77 102 133 170 214 259 304
#     4   8  14  26  45  68  99 137 171 202 247 302
#     4  10  20  40  61  75  94 127 169 217 264 309
#     4   8  14  26  45  70  99 133 171 210 247 295
#     4  10  20  33  49  72 105 143 174 209 254 303
#
# _framework density 17.711485
#
# number of rings (size 3 to 8) (size 9 to 14) (size 15 to 20)
#    0.000    2.125    1.250    3.750    0.000    5.750 
#    0.000    2.500    0.000    0.000    0.000    0.875 
#    0.000    0.000    0.000    0.000    0.000    0.000 
#
# Total GULP energy -396770.203820 kJ/mol
# GULP energy per Si atom -12399.068869 kJ/mol
# Density = 1.767117 g / cm^3
# Si number density = 17.711485 Si / 1000 Ang^3
#
#
#
# Elastic Constant Matrix: (Units=GPa)
#
#
# Indices 1 2 3 4 5 6 
#
# 1 61.5274 34.2242 21.5972 0.0000 20.3247 0.0000
# 2 34.2242 94.4210 46.4726 0.0000 17.0269 0.0000
# 3 21.5972 46.4726 103.1776 0.0000 32.7630 0.0000
# 4 0.0000 0.0000 0.0000 31.8388 0.0000 1.7620
# 5 20.3247 17.0269 32.7630 0.0000 21.5975 0.0000
# 6 0.0000 0.0000 0.0000 1.7620 0.0000 24.3012
#
#
#
# Elastic Compliance Matrix: (Units=1/GPa)
#
#
# Indices 1 2 3 4 5 6 
#
# 1 0.029139 -0.008685 0.008385 0.000000 -0.033294 0.000000
# 2 -0.008685 0.016282 -0.007785 0.000000 0.007146 0.000000
# 3 0.008385 -0.007785 0.023153 0.000000 -0.036876 0.000000
# 4 0.000000 0.000000 0.000000 0.031535 0.000000 -0.002287
# 5 -0.033294 0.007146 -0.036876 0.000000 0.127940 0.000000
# 6 0.000000 0.000000 0.000000 -0.002287 0.000000 0.041316
#
#
# Mechanical properties :
#
#
# Convention : Reuss Voigt Hill
#
# Bulk Modulus (GPa) = 19.08271 51.52379 35.30325
# Shear Modulus (GPa) = 16.50158 26.00295 21.25227
#
# Velocity S-wave (km/s) = 3.05567 3.83579 3.46774
# Velocity P-wave (km/s) = 4.82152 6.98366 6.00077
#
# Compressibility (1/GPa) = 0.05240346
#
# Stress axis : x y z
#
# Youngs Moduli (GPa) = 34.31850 61.41902 43.19126
#
# Poissons Ratio (x) = 0.53340 -0.36214
# Poissons Ratio (y) = 0.29804 0.33624
# Poissons Ratio (z) = -0.28774 0.47814
#
# Static dielectric constant tensor:
#      x y z
#    x 3.198920 0.000000 0.259840 
#    y 0.000000 3.323250 0.000000 
#    z 0.259840 0.000000 3.629700 
# 
# 
# High freq. dielectric constant tensor:
#      x y z
#    x 1.645190 0.000000 0.012870 
#    y 0.000000 1.688130 0.000000 
#    z 0.012870 0.000000 1.691520 
# 
# From -- ./inp_files/320006.got.cif
#   From: 2010.06.25/outbox.cif.g09.slc.cpg/sg12_161_cif.got.tgz:320006.got - 2010.06.28 00:19:55.
