data_PCOD8095178
_publ_section_title
;
Structure prediction by ZEFSAII (Michael W. Deem and Ramdas Pophale) SiO2 
 PCOD8095178
Probable space group: C 2/M
;
_chemical_formula_sum "Si O2"
_cell_formula_units_Z 56
_cell_length_a 21.338427
_cell_length_b 20.088189
_cell_length_c 9.365494
_cell_angle_alpha 90.000000
_cell_angle_beta 128.488437
_cell_angle_gamma 90.000000
_cell_volume 3142.302201
_symmetry_space_group_name_H-M "C 2/M"
_symmetry_group_IT_number 12
_symmetry_cell_setting 'monoclinic'
loop_
_space_group_symop_operation_xyz
x,y,z
-x,y,-z
-x,-y,-z
x,-y,z
1/2+x,1/2+y,z
1/2-x,1/2+y,-z
1/2-x,1/2-y,-z
1/2+x,1/2-y,z
loop_
_atom_site_type_symbol
_atom_site_label
_atom_site_fract_x
_atom_site_fract_y
_atom_site_fract_z
Si Si1 0.858851 0.203371 0.639298
Si Si2 0.454056 0.822445 0.707759
Si Si3 0.716269 0.574681 0.391249
Si Si4 0.261201 0.765182 0.753211
Si Si5 0.372903 0.074456 0.784628
Si Si6 0.629696 0.135141 0.929992
Si Si7 0.182743 0.365564 0.701235
O O1 0.942175 0.243882 0.734683
O O2 0.858390 0.126764 0.697077
O O3 0.817381 0.200500 0.425069
O O4 0.814869 0.249660 0.691467
O O5 0.435820 0.871790 0.814583
O O6 0.544877 0.828679 0.786836
O O7 0.395914 0.845517 0.498591
O O8 0.681776 0.500000 0.355931
O O9 0.782399 0.591180 0.606314
O O10 0.762542 0.581384 0.305856
O O11 0.236696 0.699359 0.804391
O O12 0.306005 0.811101 0.928227
O O13 0.397250 0.000000 0.769232
O O14 0.375493 0.076848 0.960359
O O15 0.657294 0.104163 0.817891
#
# Coordination Sequence:
#
# PCOD8095178 Si02
#       7
#     8   8   8   8   8   8   8
#     4   9  15  31  50  71  93 121 159 210 241 274
#     4  10  20  32  47  67 100 133 161 195 241 286
#     4   9  17  33  53  69  92 130 165 199 246 288
#     4   9  16  29  48  68  93 123 154 204 240 277
#     4  10  20  32  47  69  96 128 165 199 232 280
#     4  12  19  29  47  72  97 129 162 192 237 290
#     4   9  20  32  45  67 100 127 157 198 241 286
#
# _framework density 17.82133
#
# number of rings (size 3 to 8) (size 9 to 14) (size 15 to 20)
#    0.000    2.286    2.857    3.000    0.000    1.714 
#    0.000    0.000    0.000    4.286    0.000    8.000 
#    0.000   10.286    0.000    0.000    0.000    1.000 
#
# Total GULP energy -346915.627039 kJ/mol
# GULP energy per Si atom -12389.843823 kJ/mol
# Density = 1.778077 g / cm^3
# Si number density = 17.821330 Si / 1000 Ang^3
#
#
#
# Elastic Constant Matrix: (Units=GPa)
#
#
# Indices 1 2 3 4 5 6 
#
# 1 44.7710 22.0220 16.8435 0.0000 -11.8941 0.0000
# 2 22.0220 87.8502 15.6599 0.0000 0.7114 0.0000
# 3 16.8435 15.6599 48.8571 0.0000 -14.7739 0.0000
# 4 0.0000 0.0000 0.0000 17.1847 0.0000 -1.6448
# 5 -11.8941 0.7114 -14.7739 0.0000 27.3956 0.0000
# 6 0.0000 0.0000 0.0000 -1.6448 0.0000 13.3162
#
#
#
# Elastic Compliance Matrix: (Units=1/GPa)
#
#
# Indices 1 2 3 4 5 6 
#
# 1 0.030426 -0.006806 -0.005090 0.000000 0.010641 0.000000
# 2 -0.006806 0.013787 -0.003674 0.000000 -0.005294 0.000000
# 3 -0.005090 -0.003674 0.027195 0.000000 0.012552 0.000000
# 4 0.000000 0.000000 0.000000 0.058887 0.000000 0.007274
# 5 0.010641 -0.005294 0.012552 0.000000 0.048029 0.000000
# 6 0.000000 0.000000 0.000000 0.007274 0.000000 0.075995
#
#
# Mechanical properties :
#
#
# Convention : Reuss Voigt Hill
#
# Bulk Modulus (GPa) = 24.83277 32.28101 28.55689
# Shear Modulus (GPa) = 16.72910 20.04284 18.38597
#
# Velocity S-wave (km/s) = 3.06716 3.35722 3.21547
# Velocity P-wave (km/s) = 5.14858 5.76029 5.46300
#
# Compressibility (1/GPa) = 0.04026937
#
# Stress axis : x y z
#
# Youngs Moduli (GPa) = 32.86712 72.53327 36.77079
#
# Poissons Ratio (x) = 0.49365 0.18716
# Poissons Ratio (y) = 0.22369 0.13508
# Poissons Ratio (z) = 0.16729 0.26645
#
# Static dielectric constant tensor:
#      x y z
#    x 3.092640 0.000000 -0.119030 
#    y 0.000000 3.202070 0.000000 
#    z -0.119030 0.000000 3.248820 
# 
# 
# High freq. dielectric constant tensor:
#      x y z
#    x 1.659070 0.000000 -0.015810 
#    y 0.000000 1.677560 0.000000 
#    z -0.015810 0.000000 1.679610 
# 
# From -- ./inp_files/89065.got.cif
#   From: 2010.06.25/outbox.cif.g09.slc.cpg/sg12_45_cif.got.tgz:89065.got - 2010.06.28 00:19:55.
