data_PCOD8095008
_publ_section_title
;
Structure prediction by ZEFSAII (Michael W. Deem and Ramdas Pophale) SiO2 
 PCOD8095008
Probable space group: C 2/M
;
_chemical_formula_sum "Si O2"
_cell_formula_units_Z 56
_cell_length_a 9.232280
_cell_length_b 28.155916
_cell_length_c 14.270625
_cell_angle_alpha 90.000000
_cell_angle_beta 124.117563
_cell_angle_gamma 90.000000
_cell_volume 3071.096349
_symmetry_space_group_name_H-M "C 2/M"
_symmetry_group_IT_number 12
_symmetry_cell_setting 'monoclinic'
loop_
_space_group_symop_operation_xyz
x,y,z
-x,y,-z
-x,-y,-z
x,-y,z
1/2+x,1/2+y,z
1/2-x,1/2+y,-z
1/2-x,1/2-y,-z
1/2+x,1/2-y,z
loop_
_atom_site_type_symbol
_atom_site_label
_atom_site_fract_x
_atom_site_fract_y
_atom_site_fract_z
Si Si1 0.403472 0.113518 0.559145
Si Si2 0.296143 0.055704 0.253250
Si Si3 0.244305 0.556098 0.166877
Si Si4 0.483179 0.708557 0.641933
Si Si5 0.580639 0.393256 0.325617
Si Si6 0.792616 0.702874 0.623345
Si Si7 0.362901 0.055707 0.071463
O O1 0.500000 0.133834 0.500000
O O2 0.510377 0.069269 0.640060
O O3 0.211449 0.094757 0.459326
O O4 0.390888 0.153604 0.635003
O O5 0.150700 0.085842 0.253770
O O6 0.271193 0.069705 0.135346
O O7 0.266757 0.000000 0.260112
O O8 0.270160 0.500000 0.189315
O O9 0.394910 0.582609 0.279947
O O10 0.060705 0.575785 0.140129
O O11 0.253033 0.571561 0.059772
O O12 0.438658 0.663494 0.691001
O O13 0.685336 0.703414 0.682321
O O14 0.351466 0.711472 0.507725
O O15 0.443861 0.756823 0.685062
O O16 0.388823 0.000000 0.072899
#
# Coordination Sequence:
#
# PCOD8095008 Si02
#       7
#     8   8   8   8   8   8   8
#     4   9  20  32  48  72 106 139 170 200 247 307
#     4  10  20  33  50  71 103 142 176 204 242 300
#     4   9  17  32  52  71 101 131 163 215 258 294
#     4   9  19  30  48  72  96 130 165 208 257 299
#     4  10  20  31  46  76 105 127 169 210 248 300
#     4   9  18  31  49  67  99 132 167 208 251 292
#     4   8  17  33  51  71  93 131 175 209 253 299
#
# _framework density 18.234531
#
# number of rings (size 3 to 8) (size 9 to 14) (size 15 to 20)
#    0.000    2.857    0.000    1.286   10.000    3.714 
#    0.000    2.143    0.000    2.571    0.000    1.000 
#    0.000    0.000    0.000    0.000    0.000    0.000 
#
# Total GULP energy -346997.575787 kJ/mol
# GULP energy per Si atom -12392.770564 kJ/mol
# Density = 1.819303 g / cm^3
# Si number density = 18.234531 Si / 1000 Ang^3
#
#
#
# Elastic Constant Matrix: (Units=GPa)
#
#
# Indices 1 2 3 4 5 6 
#
# 1 87.1947 47.1758 19.3872 0.0000 -7.6388 0.0000
# 2 47.1758 82.3787 24.7151 0.0000 -8.9458 0.0000
# 3 19.3872 24.7151 31.8258 0.0000 5.4477 0.0000
# 4 0.0000 0.0000 0.0000 8.0004 0.0000 -2.2531
# 5 -7.6388 -8.9458 5.4477 0.0000 29.3175 0.0000
# 6 0.0000 0.0000 0.0000 -2.2531 0.0000 30.3021
#
#
#
# Elastic Compliance Matrix: (Units=1/GPa)
#
#
# Indices 1 2 3 4 5 6 
#
# 1 0.017138 -0.008118 -0.004623 0.000000 0.002847 0.000000
# 2 -0.008118 0.021368 -0.012810 0.000000 0.006785 0.000000
# 3 -0.004623 -0.012810 0.046541 0.000000 -0.013761 0.000000
# 4 0.000000 0.000000 0.000000 0.127668 0.000000 0.009493
# 5 0.002847 0.006785 -0.013761 0.000000 0.039479 0.000000
# 6 0.000000 0.000000 0.000000 0.009493 0.000000 0.033707
#
#
# Mechanical properties :
#
#
# Convention : Reuss Voigt Hill
#
# Bulk Modulus (GPa) = 29.45981 42.66170 36.06076
# Shear Modulus (GPa) = 14.35469 20.86539 17.61004
#
# Velocity S-wave (km/s) = 2.80880 3.38639 3.11103
# Velocity P-wave (km/s) = 5.16820 6.22391 5.72046
#
# Compressibility (1/GPa) = 0.03394455
#
# Stress axis : x y z
#
# Youngs Moduli (GPa) = 58.34884 46.79815 21.48660
#
# Poissons Ratio (x) = 0.37993 0.09933
# Poissons Ratio (y) = 0.47370 0.27525
# Poissons Ratio (z) = 0.26974 0.59949
#
# Static dielectric constant tensor:
#      x y z
#    x 3.633480 0.000000 -0.072620 
#    y 0.000000 3.224240 0.000000 
#    z -0.072620 0.000000 3.205710 
# 
# 
# High freq. dielectric constant tensor:
#      x y z
#    x 1.718490 0.000000 0.002640 
#    y 0.000000 1.685050 0.000000 
#    z 0.002640 0.000000 1.664480 
# 
# From -- ./inp_files/199944.got.cif
#   From: 2010.06.25/outbox.cif.g09.slc.cpg/sg12_100_cif.got.tgz:199944.got - 2010.06.28 00:19:55.
