data_PCOD8095532
_publ_section_title
;
Structure prediction by ZEFSAII (Michael W. Deem and Ramdas Pophale) SiO2 
 PCOD8095532
Probable space group: C 2/M
;
_chemical_formula_sum "Si O2"
_cell_formula_units_Z 32
_cell_length_a 26.465734
_cell_length_b 10.592036
_cell_length_c 4.994411
_cell_angle_alpha 90.000000
_cell_angle_beta 102.568696
_cell_angle_gamma 90.000000
_cell_volume 1366.511898
_symmetry_space_group_name_H-M "C 2/M"
_symmetry_group_IT_number 12
_symmetry_cell_setting 'monoclinic'
loop_
_space_group_symop_operation_xyz
x,y,z
-x,y,-z
-x,-y,-z
x,-y,z
1/2+x,1/2+y,z
1/2-x,1/2+y,-z
1/2-x,1/2-y,-z
1/2+x,1/2-y,z
loop_
_atom_site_type_symbol
_atom_site_label
_atom_site_fract_x
_atom_site_fract_y
_atom_site_fract_z
Si Si1 0.037410 0.000000 0.792298
Si Si2 0.536779 0.000000 0.796521
Si Si3 0.060687 0.749048 0.630498
Si Si4 0.137798 0.357206 0.338219
Si Si5 0.293618 0.855805 0.072749
O O1 0.074080 0.875810 0.814001
O O2 0.000000 0.000000 0.500000
O O3 0.000000 0.000000 0.000000
O O4 0.500000 0.000000 0.500000
O O5 0.573129 0.125631 0.831731
O O6 0.500000 0.000000 0.000000
O O7 0.092828 0.738099 0.390770
O O8 0.000000 0.750083 0.500000
O O9 0.114180 0.500000 0.294302
O O10 0.161007 0.314127 0.080816
O O11 0.184804 0.353189 0.603189
O O12 0.274345 0.000000 0.981671
O O13 0.250000 0.750000 0.000000
#
# Coordination Sequence:
#
# PCOD8095532 Si02
#       5
#     4   4   8   8   8
#     4  10  22  38  54  76 115 162 199 238 284 326
#     4  10  20  32  54  80 107 152 197 228 268 332
#     4  10  21  39  58  87 123 161 196 237 287 348
#     4  10  21  38  62  92 120 153 195 244 294 347
#     4  10  22  42  64  88 119 151 193 250 302 350
#
# _framework density 23.417285
#
# number of rings (size 3 to 8) (size 9 to 14) (size 15 to 20)
#    0.000    2.000    1.250    1.500    0.000    8.000 
#    4.500    0.000    0.000    0.000    0.000    0.000 
#    0.000    0.000    0.000    0.000    0.000    0.000 
#
# Total GULP energy -198335.941679 kJ/mol
# GULP energy per Si atom -12395.996355 kJ/mol
# Density = 2.336399 g / cm^3
# Si number density = 23.417285 Si / 1000 Ang^3
#
#
#
# Elastic Constant Matrix: (Units=GPa)
#
#
# Indices 1 2 3 4 5 6 
#
# 1 105.6860 50.3422 7.7589 0.0000 -26.2356 0.0000
# 2 50.3422 199.3656 17.7242 0.0000 -28.9392 0.0000
# 3 7.7589 17.7242 77.8196 0.0000 -34.5656 0.0000
# 4 0.0000 0.0000 0.0000 29.4516 0.0000 -10.1409
# 5 -26.2356 -28.9392 -34.5656 0.0000 37.1988 0.0000
# 6 0.0000 0.0000 0.0000 -10.1409 0.0000 44.4921
#
#
#
# Elastic Compliance Matrix: (Units=1/GPa)
#
#
# Indices 1 2 3 4 5 6 
#
# 1 0.012971 -0.001971 0.004322 0.000000 0.011630 0.000000
# 2 -0.001971 0.006013 0.000489 0.000000 0.003743 0.000000
# 3 0.004322 0.000489 0.023551 0.000000 0.025313 0.000000
# 4 0.000000 0.000000 0.000000 0.036846 0.000000 0.008398
# 5 0.011630 0.003743 0.025313 0.000000 0.061518 0.000000
# 6 0.000000 0.000000 0.000000 0.008398 0.000000 0.024390
#
#
# Mechanical properties :
#
#
# Convention : Reuss Voigt Hill
#
# Bulk Modulus (GPa) = 20.74055 59.39129 40.06592
# Shear Modulus (GPa) = 28.46061 42.69821 35.57941
#
# Velocity S-wave (km/s) = 3.48999 4.27472 3.90213
# Velocity P-wave (km/s) = 5.01161 7.05560 6.11955
#
# Compressibility (1/GPa) = 0.04821472
#
# Stress axis : x y z
#
# Youngs Moduli (GPa) = 77.09614 166.29407 42.46057
#
# Poissons Ratio (x) = 0.32781 -0.18350
# Poissons Ratio (y) = 0.15198 -0.02078
# Poissons Ratio (z) = -0.33318 -0.08136
#
# Static dielectric constant tensor:
#      x y z
#    x 3.933470 0.000000 -0.120120 
#    y 0.000000 4.911610 0.000000 
#    z -0.120120 0.000000 4.388610 
# 
# 
# High freq. dielectric constant tensor:
#      x y z
#    x 1.903920 0.000000 -0.010290 
#    y 0.000000 1.930370 0.000000 
#    z -0.010290 0.000000 1.944050 
# 
# From -- ./inp_files/23432.got.cif
#   From: 2010.06.25/outbox.cif.g09.slc.cpg/sg12_12_cif.got.tgz:23432.got - 2010.06.28 00:19:55.
