data_PCOD8095401
_publ_section_title
;
Structure prediction by ZEFSAII (Michael W. Deem and Ramdas Pophale) SiO2 
 PCOD8095401
Probable space group: C 2/M
;
_chemical_formula_sum "Si O2"
_cell_formula_units_Z 64
_cell_length_a 25.046132
_cell_length_b 9.110632
_cell_length_c 16.281465
_cell_angle_alpha 90.000000
_cell_angle_beta 104.785178
_cell_angle_gamma 90.000000
_cell_volume 3592.191378
_symmetry_space_group_name_H-M "C 2/M"
_symmetry_group_IT_number 12
_symmetry_cell_setting 'monoclinic'
loop_
_space_group_symop_operation_xyz
x,y,z
-x,y,-z
-x,-y,-z
x,-y,z
1/2+x,1/2+y,z
1/2-x,1/2+y,-z
1/2-x,1/2-y,-z
1/2+x,1/2-y,z
loop_
_atom_site_type_symbol
_atom_site_label
_atom_site_fract_x
_atom_site_fract_y
_atom_site_fract_z
Si Si1 0.156569 0.170682 0.988227
Si Si2 0.119607 0.670330 0.226481
Si Si3 0.669781 0.169530 0.829634
Si Si4 0.563870 0.172981 0.683913
Si Si5 0.448097 0.325790 0.660302
Si Si6 0.786670 0.831578 0.820327
Si Si7 0.565170 0.660521 0.524966
Si Si8 0.937828 0.330803 0.967324
O O1 0.181542 0.239345 0.916025
O O2 0.149906 0.000000 0.971146
O O3 0.196215 0.208607 0.079880
O O4 0.096375 0.237509 0.980913
O O5 0.123114 0.500000 0.252056
O O6 0.093376 0.761656 0.289552
O O7 0.181253 0.729377 0.231976
O O8 0.081485 0.697409 0.132772
O O9 0.612905 0.217611 0.764597
O O10 0.721026 0.197100 0.787353
O O11 0.667941 0.000000 0.854442
O O12 0.508506 0.253050 0.692355
O O13 0.583558 0.222667 0.600687
O O14 0.553050 0.000000 0.678387
O O15 0.455259 0.500000 0.674161
O O16 0.419528 0.287669 0.561247
O O17 0.802051 0.000000 0.806789
O O18 0.500000 0.644084 0.500000
O O19 0.591378 0.500000 0.554764
O O20 0.931682 0.500000 0.990008
O O21 0.000000 0.275682 0.000000
#
# Coordination Sequence:
#
# PCOD8095401 Si02
#       8
#     8   8   8   8   8   8   8   8
#     4  10  20  32  50  75  97 127 174 217 250 289
#     4  10  20  33  52  77 100 129 171 212 248 294
#     4  10  21  35  52  73 102 137 169 207 256 305
#     4  10  20  32  50  78 106 132 165 206 251 297
#     4  10  20  34  53  76 105 137 165 199 247 306
#     4   9  19  37  54  70  98 136 174 211 254 298
#     4   8  16  32  51  72 101 135 164 195 247 305
#     4   9  19  34  49  66  98 138 166 199 251 303
#
# _framework density 17.816421999999999
#
# number of rings (size 3 to 8) (size 9 to 14) (size 15 to 20)
#    0.000    2.500    0.000    2.625    1.750    5.500 
#    0.000    0.000    0.000    0.750    0.000    0.000 
#    0.000    0.000    0.000    0.000    0.000    0.000 
#
# Total GULP energy -396770.128428 kJ/mol
# GULP energy per Si atom -12399.066513 kJ/mol
# Density = 1.777587 g / cm^3
# Si number density = 17.816422 Si / 1000 Ang^3
#
#
#
# Elastic Constant Matrix: (Units=GPa)
#
#
# Indices 1 2 3 4 5 6 
#
# 1 86.8028 45.7167 39.2171 0.0000 -16.8459 0.0000
# 2 45.7167 85.2017 45.3058 0.0000 -10.8862 0.0000
# 3 39.2171 45.3058 68.6986 0.0000 -19.2363 0.0000
# 4 0.0000 0.0000 0.0000 28.9559 0.0000 -6.4634
# 5 -16.8459 -10.8862 -19.2363 0.0000 20.0174 0.0000
# 6 0.0000 0.0000 0.0000 -6.4634 0.0000 26.4722
#
#
#
# Elastic Compliance Matrix: (Units=1/GPa)
#
#
# Indices 1 2 3 4 5 6 
#
# 1 0.018388 -0.006866 -0.003669 0.000000 0.008215 0.000000
# 2 -0.006866 0.020712 -0.011224 0.000000 -0.005300 0.000000
# 3 -0.003669 -0.011224 0.029386 0.000000 0.019048 0.000000
# 4 0.000000 0.000000 0.000000 0.036526 0.000000 0.008918
# 5 0.008215 -0.005300 0.019048 0.000000 0.072293 0.000000
# 6 0.000000 0.000000 0.000000 0.008918 0.000000 0.039953
#
#
# Mechanical properties :
#
#
# Convention : Reuss Voigt Hill
#
# Bulk Modulus (GPa) = 40.04874 55.68691 47.86782
# Shear Modulus (GPa) = 18.58049 22.45332 20.51690
#
# Velocity S-wave (km/s) = 3.23288 3.55387 3.39716
# Velocity P-wave (km/s) = 6.03843 6.94001 6.50486
#
# Compressibility (1/GPa) = 0.02496958
#
# Stress axis : x y z
#
# Youngs Moduli (GPa) = 54.38190 48.28087 34.02948
#
# Poissons Ratio (x) = 0.33151 0.12484
# Poissons Ratio (y) = 0.37340 0.38194
# Poissons Ratio (z) = 0.19950 0.54190
#
# Static dielectric constant tensor:
#      x y z
#    x 3.238830 0.000000 -0.084090 
#    y 0.000000 3.360330 0.000000 
#    z -0.084090 0.000000 3.419240 
# 
# 
# High freq. dielectric constant tensor:
#      x y z
#    x 1.677640 0.000000 -0.011420 
#    y 0.000000 1.696480 0.000000 
#    z -0.011420 0.000000 1.675730 
# 
# From -- ./inp_files/244111.got.cif
#   From: 2010.06.25/outbox.cif.g09.slc.cpg/sg12_123_cif.got.tgz:244111.got - 2010.06.28 00:19:55.
