data_PCOD8095734
_publ_section_title
;
Structure prediction by ZEFSAII (Michael W. Deem and Ramdas Pophale) SiO2 
 PCOD8095734
Probable space group: C 2/M
;
_chemical_formula_sum "Si O2"
_cell_formula_units_Z 48
_cell_length_a 23.802495
_cell_length_b 9.117717
_cell_length_c 13.234087
_cell_angle_alpha 90.000000
_cell_angle_beta 72.884180
_cell_angle_gamma 90.000000
_cell_volume 2744.918916
_symmetry_space_group_name_H-M "C 2/M"
_symmetry_group_IT_number 12
_symmetry_cell_setting 'monoclinic'
loop_
_space_group_symop_operation_xyz
x,y,z
-x,y,-z
-x,-y,-z
x,-y,z
1/2+x,1/2+y,z
1/2-x,1/2+y,-z
1/2-x,1/2-y,-z
1/2+x,1/2-y,z
loop_
_atom_site_type_symbol
_atom_site_label
_atom_site_fract_x
_atom_site_fract_y
_atom_site_fract_z
Si Si1 0.065169 0.837102 0.558670
Si Si2 0.549388 0.668503 0.259062
Si Si3 0.874573 0.833687 0.260951
Si Si4 0.980166 0.669382 0.124119
Si Si5 0.628341 0.828333 0.358143
Si Si6 0.249149 0.672405 0.392794
O O1 0.105442 0.818972 0.634731
O O2 0.083298 0.712407 0.470984
O O3 0.997267 0.816443 0.624830
O O4 0.074535 0.000000 0.506522
O O5 0.561672 0.500000 0.225405
O O6 0.525398 0.745152 0.171431
O O7 0.609439 0.745226 0.265157
O O8 0.913561 0.728801 0.169831
O O9 0.806269 0.786180 0.295428
O O10 0.883179 0.000000 0.217668
O O11 0.980914 0.500000 0.155058
O O12 0.000000 0.694688 0.000000
O O13 0.693440 0.777046 0.355940
O O14 0.625122 0.000000 0.339025
O O15 0.247257 0.500000 0.416214
O O16 0.250000 0.750000 0.500000
#
# Coordination Sequence:
#
# PCOD8095734 Si02
#       6
#     8   8   8   8   8   8
#     4   9  17  30  47  68  99 138 175 209 248 297
#     4  10  21  35  51  72 101 136 172 210 255 309
#     4   9  18  33  52  75 105 139 176 212 250 303
#     4  10  21  37  58  82 104 125 159 216 274 314
#     4  11  21  30  46  73 105 140 175 211 251 295
#     4  10  20  33  49  73 106 145 181 212 247 293
#
# _framework density 17.486854999999998
#
# number of rings (size 3 to 8) (size 9 to 14) (size 15 to 20)
#    0.000    2.167    1.667    3.000    0.000    8.000 
#    0.000    0.000    0.000    1.000    0.000    0.000 
#    0.000    0.000    0.000    0.000    0.000    0.000 
#
# Total GULP energy -297598.310079 kJ/mol
# GULP energy per Si atom -12399.929587 kJ/mol
# Density = 1.744705 g / cm^3
# Si number density = 17.486855 Si / 1000 Ang^3
#
#
#
# Elastic Constant Matrix: (Units=GPa)
#
#
# Indices 1 2 3 4 5 6 
#
# 1 131.5421 62.3022 48.3409 0.0000 14.1254 0.0000
# 2 62.3022 107.0556 53.2511 0.0000 4.8019 0.0000
# 3 48.3409 53.2511 65.6268 0.0000 -4.1719 0.0000
# 4 0.0000 0.0000 0.0000 25.6335 0.0000 0.1190
# 5 14.1254 4.8019 -4.1719 0.0000 9.8229 0.0000
# 6 0.0000 0.0000 0.0000 0.1190 0.0000 27.6044
#
#
#
# Elastic Compliance Matrix: (Units=1/GPa)
#
#
# Indices 1 2 3 4 5 6 
#
# 1 0.015684 -0.002303 -0.011353 0.000000 -0.026249 0.000000
# 2 -0.002303 0.017933 -0.013568 0.000000 -0.011218 0.000000
# 3 -0.011353 -0.013568 0.037070 0.000000 0.038702 0.000000
# 4 0.000000 0.000000 0.000000 0.039012 0.000000 -0.000168
# 5 -0.026249 -0.011218 0.038702 0.000000 0.161470 0.000000
# 6 0.000000 0.000000 0.000000 -0.000168 0.000000 0.036227
#
#
# Mechanical properties :
#
#
# Convention : Reuss Voigt Hill
#
# Bulk Modulus (GPa) = 61.57910 70.22365 65.90138
# Shear Modulus (GPa) = 13.61445 21.96752 17.79098
#
# Velocity S-wave (km/s) = 2.79328 3.54818 3.19312
# Velocity P-wave (km/s) = 6.75975 7.55190 7.16678
#
# Compressibility (1/GPa) = 0.01623928
#
# Stress axis : x y z
#
# Youngs Moduli (GPa) = 63.76111 55.76180 26.97600
#
# Poissons Ratio (x) = 0.12841 0.30625
# Poissons Ratio (y) = 0.14684 0.36602
# Poissons Ratio (z) = 0.72385 0.75660
#
# Static dielectric constant tensor:
#      x y z
#    x 3.586940 0.000000 0.031390 
#    y 0.000000 3.329110 0.000000 
#    z 0.031390 0.000000 2.892840 
# 
# 
# High freq. dielectric constant tensor:
#      x y z
#    x 1.683730 0.000000 0.010760 
#    y 0.000000 1.682660 0.000000 
#    z 0.010760 0.000000 1.638000 
# 
# From -- ./inp_files/172138.got.cif
#   From: 2010.06.25/outbox.cif.g09.slc.cpg/sg12_87_cif.got.tgz:172138.got - 2010.06.28 00:19:55.
