data_PCOD8095057
_publ_section_title
;
Structure prediction by ZEFSAII (Michael W. Deem and Ramdas Pophale) SiO2 
 PCOD8095057
Probable space group: C 2/M
;
_chemical_formula_sum "Si O2"
_cell_formula_units_Z 64
_cell_length_a 27.684829
_cell_length_b 18.817495
_cell_length_c 12.681087
_cell_angle_alpha 90.000000
_cell_angle_beta 149.530265
_cell_angle_gamma 90.000000
_cell_volume 3349.957706
_symmetry_space_group_name_H-M "C 2/M"
_symmetry_group_IT_number 12
_symmetry_cell_setting 'monoclinic'
loop_
_space_group_symop_operation_xyz
x,y,z
-x,y,-z
-x,-y,-z
x,-y,z
1/2+x,1/2+y,z
1/2-x,1/2+y,-z
1/2-x,1/2-y,-z
1/2+x,1/2-y,z
loop_
_atom_site_type_symbol
_atom_site_label
_atom_site_fract_x
_atom_site_fract_y
_atom_site_fract_z
Si Si1 0.288592 0.584667 0.558658
Si Si2 0.411768 0.084322 0.899633
Si Si3 0.286578 0.330395 0.979244
Si Si4 0.098205 0.705202 0.733683
Si Si5 0.934765 0.915634 0.661512
Si Si6 0.888744 0.420064 0.092359
Si Si7 0.673290 0.420021 0.742476
Si Si8 0.650522 0.584201 0.096345
O O1 0.290198 0.500000 0.557132
O O2 0.186114 0.615663 0.331929
O O3 0.368479 0.615803 0.629721
O O4 0.310704 0.610386 0.718390
O O5 0.408433 0.000000 0.882707
O O6 0.500000 0.116415 0.000000
O O7 0.424899 0.105640 0.046235
O O8 0.353926 0.261055 0.094690
O O9 0.329320 0.372770 0.158785
O O10 0.176308 0.309571 0.789403
O O11 0.287710 0.377454 0.876819
O O12 0.070924 0.632950 0.743727
O O13 0.000000 0.734855 0.500000
O O14 0.901214 0.888656 0.483066
O O15 0.926251 0.000000 0.647555
O O16 0.041798 0.890340 0.882244
O O17 0.925383 0.500000 0.186889
O O18 0.774757 0.418913 0.875894
O O19 0.645784 0.500000 0.724717
O O20 0.661060 0.500000 0.101276
#
# Coordination Sequence:
#
# PCOD8095057 Si02
#       8
#     8   8   8   8   8   8   8   8
#     4   9  16  29  46  73 114 144 169 209 260 316
#     4   9  16  27  48  77 102 132 175 219 266 311
#     4  10  22  38  54  78 108 138 180 219 264 312
#     4  10  23  40  57  75 101 144 178 213 269 325
#     4   9  16  27  47  77 109 142 175 207 258 316
#     4   9  17  33  55  79 104 132 174 224 266 315
#     4   9  16  29  53  80 107 138 175 221 261 306
#     4  10  20  31  51  82 114 144 173 217 263 307
#
# _framework density 19.104718999999999
#
# number of rings (size 3 to 8) (size 9 to 14) (size 15 to 20)
#    0.000    2.625    1.250    0.750    1.750    3.250 
#    0.000    3.125    0.000    2.250    0.000    0.000 
#    0.000    0.000    0.000    0.000    0.000    0.000 
#
# Total GULP energy -396770.991573 kJ/mol
# GULP energy per Si atom -12399.093487 kJ/mol
# Density = 1.906124 g / cm^3
# Si number density = 19.104719 Si / 1000 Ang^3
#
#
#
# Elastic Constant Matrix: (Units=GPa)
#
#
# Indices 1 2 3 4 5 6 
#
# 1 97.0476 23.9735 31.3211 0.0000 -2.3702 0.0000
# 2 23.9735 43.3749 12.0561 0.0000 -2.5956 0.0000
# 3 31.3211 12.0561 81.4616 0.0000 6.1214 0.0000
# 4 0.0000 0.0000 0.0000 9.9405 0.0000 4.0701
# 5 -2.3702 -2.5956 6.1214 0.0000 26.9497 0.0000
# 6 0.0000 0.0000 0.0000 4.0701 0.0000 11.8694
#
#
#
# Elastic Compliance Matrix: (Units=1/GPa)
#
#
# Indices 1 2 3 4 5 6 
#
# 1 0.013219 -0.006015 -0.004310 0.000000 0.001562 0.000000
# 2 -0.006015 0.027051 -0.001879 0.000000 0.002503 0.000000
# 3 -0.004310 -0.001879 0.014500 0.000000 -0.003854 0.000000
# 4 0.000000 0.000000 0.000000 0.117030 0.000000 -0.040131
# 5 0.001562 0.002503 -0.003854 0.000000 0.038360 0.000000
# 6 0.000000 0.000000 0.000000 -0.040131 0.000000 0.098012
#
#
# Mechanical properties :
#
#
# Convention : Reuss Voigt Hill
#
# Bulk Modulus (GPa) = 32.93416 39.62060 36.27738
# Shear Modulus (GPa) = 14.58999 20.05416 17.32208
#
# Velocity S-wave (km/s) = 2.76648 3.24342 3.01440
# Velocity P-wave (km/s) = 5.24221 5.90000 5.58080
#
# Compressibility (1/GPa) = 0.03036361
#
# Stress axis : x y z
#
# Youngs Moduli (GPa) = 75.64765 36.96674 68.96331
#
# Poissons Ratio (x) = 0.22235 0.29722
# Poissons Ratio (y) = 0.45501 0.12958
# Poissons Ratio (z) = 0.32603 0.06946
#
# Static dielectric constant tensor:
#      x y z
#    x 3.547610 0.000000 0.049370 
#    y 0.000000 3.165530 0.000000 
#    z 0.049370 0.000000 3.481050 
# 
# 
# High freq. dielectric constant tensor:
#      x y z
#    x 1.746260 0.000000 -0.000090 
#    y 0.000000 1.697630 0.000000 
#    z -0.000090 0.000000 1.739500 
# 
# From -- ./inp_files/184719.got.cif
#   From: 2010.06.25/outbox.cif.g09.slc.cpg/sg12_93_cif.got.tgz:184719.got - 2010.06.28 00:19:55.
