data_PCOD8095087
_publ_section_title
;
Structure prediction by ZEFSAII (Michael W. Deem and Ramdas Pophale) SiO2 
 PCOD8095087
Probable space group: C 2/M
;
_chemical_formula_sum "Si O2"
_cell_formula_units_Z 52
_cell_length_a 19.393626
_cell_length_b 15.872688
_cell_length_c 8.998291
_cell_angle_alpha 90.000000
_cell_angle_beta 86.321287
_cell_angle_gamma 90.000000
_cell_volume 2764.227311
_symmetry_space_group_name_H-M "C 2/M"
_symmetry_group_IT_number 12
_symmetry_cell_setting 'monoclinic'
loop_
_space_group_symop_operation_xyz
x,y,z
-x,y,-z
-x,-y,-z
x,-y,z
1/2+x,1/2+y,z
1/2-x,1/2+y,-z
1/2-x,1/2-y,-z
1/2+x,1/2-y,z
loop_
_atom_site_type_symbol
_atom_site_label
_atom_site_fract_x
_atom_site_fract_y
_atom_site_fract_z
Si Si1 0.744157 0.000000 0.855686
Si Si2 0.673134 0.000000 0.579162
Si Si3 0.740770 0.248739 0.252481
Si Si4 0.558820 0.595087 0.888786
Si Si5 0.193496 0.145352 0.010189
Si Si6 0.925105 0.153167 0.439021
Si Si7 0.829461 0.000000 0.564211
Si Si8 0.160283 0.680394 0.521660
O O1 0.677131 0.000000 0.759360
O O2 0.815614 0.000000 0.744342
O O3 0.743777 0.081288 0.962904
O O4 0.631510 0.084305 0.534752
O O5 0.752310 0.000000 0.500311
O O6 0.791764 0.200808 0.135616
O O7 0.786275 0.311152 0.348313
O O8 0.701438 0.183227 0.361585
O O9 0.684678 0.298911 0.161000
O O10 0.539160 0.500000 0.845282
O O11 0.625495 0.593304 0.984194
O O12 0.568605 0.648190 0.738777
O O13 0.500000 0.636519 0.000000
O O14 0.898241 0.247819 0.473843
O O15 0.000000 0.138999 0.500000
O O16 0.871247 0.083866 0.508976
#
# Coordination Sequence:
#
# PCOD8095087 Si02
#       8
#     4   4   8   8   8   8   4   8
#     4  10  20  31  56  89 122 154 181 241 310 364
#     4  10  22  36  65  88 117 154 196 266 306 341
#     4  10  21  34  59  84 116 148 192 256 306 362
#     4  11  25  36  54  86 125 161 195 234 288 371
#     4  11  20  35  53  85 121 153 185 236 314 361
#     4  12  25  39  61  86 122 170 206 243 293 365
#     4  10  21  37  62  90 122 154 198 242 312 363
#     4  11  21  40  58  88 114 156 212 247 303 351
#
# _framework density 18.811767
#
# number of rings (size 3 to 8) (size 9 to 14) (size 15 to 20)
#    0.462    0.769    4.615    3.000    4.308    0.615 
#    0.000    0.385    0.000    0.000    0.000    0.538 
#    0.000    0.000    0.000    0.000    0.000    0.000 
#
# Total GULP energy -322220.533846 kJ/mol
# GULP energy per Si atom -12393.097456 kJ/mol
# Density = 1.876895 g / cm^3
# Si number density = 18.811767 Si / 1000 Ang^3
#
#
#
# Elastic Constant Matrix: (Units=GPa)
#
#
# Indices 1 2 3 4 5 6 
#
# 1 41.2835 11.0284 7.3411 0.0000 6.5338 0.0000
# 2 11.0284 125.0489 23.4427 0.0000 1.3523 0.0000
# 3 7.3411 23.4427 97.0647 0.0000 5.4364 0.0000
# 4 0.0000 0.0000 0.0000 11.2189 0.0000 9.9708
# 5 6.5338 1.3523 5.4364 0.0000 16.3980 0.0000
# 6 0.0000 0.0000 0.0000 9.9708 0.0000 20.0587
#
#
#
# Elastic Compliance Matrix: (Units=1/GPa)
#
#
# Indices 1 2 3 4 5 6 
#
# 1 0.026537 -0.002054 -0.000946 0.000000 -0.010091 0.000000
# 2 -0.002054 0.008535 -0.001949 0.000000 0.000761 0.000000
# 3 -0.000946 -0.001949 0.011019 0.000000 -0.003116 0.000000
# 4 0.000000 0.000000 0.000000 0.159678 0.000000 -0.079373
# 5 -0.010091 0.000761 -0.003116 0.000000 0.065974 0.000000
# 6 0.000000 0.000000 0.000000 -0.079373 0.000000 0.089309
#
#
# Mechanical properties :
#
#
# Convention : Reuss Voigt Hill
#
# Bulk Modulus (GPa) = 27.62880 38.55793 33.09337
# Shear Modulus (GPa) = 13.05441 24.30746 18.68094
#
# Velocity S-wave (km/s) = 2.63715 3.59854 3.15468
# Velocity P-wave (km/s) = 4.89812 6.14875 5.55872
#
# Compressibility (1/GPa) = 0.03619412
#
# Stress axis : x y z
#
# Youngs Moduli (GPa) = 37.68382 117.16338 90.75187
#
# Poissons Ratio (x) = 0.24064 0.08583
# Poissons Ratio (y) = 0.07740 0.17684
# Poissons Ratio (z) = 0.03564 0.22831
#
# Static dielectric constant tensor:
#      x y z
#    x 3.115220 0.000000 0.039700 
#    y 0.000000 3.490430 0.000000 
#    z 0.039700 0.000000 3.569250 
# 
# 
# High freq. dielectric constant tensor:
#      x y z
#    x 1.681590 0.000000 0.007310 
#    y 0.000000 1.734480 0.000000 
#    z 0.007310 0.000000 1.745130 
# 
# From -- ./inp_files/85871.got.cif
#   From: 2010.06.25/outbox.cif.g09.slc.cpg/sg12_43_cif.got.tgz:85871.got - 2010.06.28 00:19:55.
