data_PCOD8095389
_publ_section_title
;
Structure prediction by ZEFSAII (Michael W. Deem and Ramdas Pophale) SiO2 
 PCOD8095389
Probable space group: C 2/M
;
_chemical_formula_sum "Si O2"
_cell_formula_units_Z 64
_cell_length_a 17.146790
_cell_length_b 13.588558
_cell_length_c 20.196649
_cell_angle_alpha 90.000000
_cell_angle_beta 49.421158
_cell_angle_gamma 90.000000
_cell_volume 3574.126456
_symmetry_space_group_name_H-M "C 2/M"
_symmetry_group_IT_number 12
_symmetry_cell_setting 'monoclinic'
loop_
_space_group_symop_operation_xyz
x,y,z
-x,y,-z
-x,-y,-z
x,-y,z
1/2+x,1/2+y,z
1/2-x,1/2+y,-z
1/2-x,1/2-y,-z
1/2+x,1/2-y,z
loop_
_atom_site_type_symbol
_atom_site_label
_atom_site_fract_x
_atom_site_fract_y
_atom_site_fract_z
Si Si1 0.791470 0.110497 0.506421
Si Si2 0.342037 0.384103 0.107614
Si Si3 0.412135 0.798003 0.601864
Si Si4 0.724537 0.710489 0.619220
Si Si5 0.969104 0.883426 0.911825
Si Si6 0.389979 0.884987 0.751449
Si Si7 0.532330 0.388993 0.357892
Si Si8 0.512230 0.710408 0.234005
O O1 0.743511 0.175561 0.591085
O O2 0.748766 0.144145 0.459067
O O3 0.913198 0.122179 0.440367
O O4 0.755299 0.000000 0.539650
O O5 0.341575 0.500000 0.113820
O O6 0.420908 0.345665 0.120302
O O7 0.227072 0.344188 0.181900
O O8 0.381392 0.354376 0.012983
O O9 0.500000 0.819883 0.500000
O O10 0.300787 0.825345 0.634628
O O11 0.408842 0.683079 0.624582
O O12 0.934689 0.634266 0.653345
O O13 0.609348 0.697229 0.707186
O O14 0.939279 0.826009 0.861447
O O15 0.971377 0.000000 0.896703
O O16 0.456228 0.823334 0.768308
O O17 0.398842 0.000000 0.764721
O O18 0.571558 0.500000 0.347842
O O19 0.553506 0.358573 0.270382
#
# Coordination Sequence:
#
# PCOD8095389 Si02
#       8
#     8   8   8   8   8   8   8   8
#     4   9  18  32  50  65  88 126 160 202 248 284
#     4   8  16  32  54  80 104 126 157 200 246 294
#     4  11  21  34  51  71  95 128 170 213 251 286
#     4  10  20  33  46  70  97 119 166 207 236 292
#     4   9  16  30  56  84 103 121 156 203 250 294
#     4  10  22  37  49  68 103 138 167 200 240 290
#     4   9  18  33  50  71  96 124 162 207 256 293
#     4  10  20  32  50  74 102 134 162 199 243 295
#
# _framework density 17.906473999999999
#
# number of rings (size 3 to 8) (size 9 to 14) (size 15 to 20)
#    0.000    2.500    1.250    1.875    1.750    3.000 
#    0.000    0.000    0.000    0.000    0.000    1.750 
#    0.000    0.000    0.000    0.000    0.000    0.000 
#
# Total GULP energy -396774.757529 kJ/mol
# GULP energy per Si atom -12399.211173 kJ/mol
# Density = 1.786572 g / cm^3
# Si number density = 17.906474 Si / 1000 Ang^3
#
#
#
# Elastic Constant Matrix: (Units=GPa)
#
#
# Indices 1 2 3 4 5 6 
#
# 1 70.2617 3.3861 22.2497 0.0000 5.0771 0.0000
# 2 3.3861 54.1918 10.9058 0.0000 2.2343 0.0000
# 3 22.2497 10.9058 90.0354 0.0000 9.3173 0.0000
# 4 0.0000 0.0000 0.0000 20.9592 0.0000 -0.2394
# 5 5.0771 2.2343 9.3173 0.0000 23.3413 0.0000
# 6 0.0000 0.0000 0.0000 -0.2394 0.0000 17.7473
#
#
#
# Elastic Compliance Matrix: (Units=1/GPa)
#
#
# Indices 1 2 3 4 5 6 
#
# 1 0.015525 -0.000163 -0.003618 0.000000 -0.001917 0.000000
# 2 -0.000163 0.018935 -0.002159 0.000000 -0.000916 0.000000
# 3 -0.003618 -0.002159 0.012684 0.000000 -0.004069 0.000000
# 4 0.000000 0.000000 0.000000 0.047719 0.000000 0.000644
# 5 -0.001917 -0.000916 -0.004069 0.000000 0.044971 0.000000
# 6 0.000000 0.000000 0.000000 0.000644 0.000000 0.056355
#
#
# Mechanical properties :
#
#
# Convention : Reuss Voigt Hill
#
# Bulk Modulus (GPa) = 28.35766 31.95245 30.15505
# Shear Modulus (GPa) = 22.74551 24.27272 23.50911
#
# Velocity S-wave (km/s) = 3.56791 3.68574 3.62730
# Velocity P-wave (km/s) = 5.73099 5.99965 5.86685
#
# Compressibility (1/GPa) = 0.03526384
#
# Stress axis : x y z
#
# Youngs Moduli (GPa) = 64.41346 52.81138 78.84259
#
# Poissons Ratio (x) = 0.00860 0.28528
# Poissons Ratio (y) = 0.01049 0.17019
# Poissons Ratio (z) = 0.23307 0.11400
#
# Static dielectric constant tensor:
#      x y z
#    x 3.405090 0.000000 -0.099450 
#    y 0.000000 3.186770 0.000000 
#    z -0.099450 0.000000 3.342460 
# 
# 
# High freq. dielectric constant tensor:
#      x y z
#    x 1.688030 0.000000 0.006570 
#    y 0.000000 1.673740 0.000000 
#    z 0.006570 0.000000 1.686170 
# 
# From -- ./inp_files/270289.got.cif
#   From: 2010.06.25/outbox.cif.g09.slc.cpg/sg12_136_cif.got.tgz:270289.got - 2010.06.28 00:19:55.
