data_PCOD8095595
_publ_section_title
;
Structure prediction by ZEFSAII (Michael W. Deem and Ramdas Pophale) SiO2 
 PCOD8095595
Probable space group: C 2/M
;
_chemical_formula_sum "Si O2"
_cell_formula_units_Z 64
_cell_length_a 18.993449
_cell_length_b 9.350288
_cell_length_c 22.714298
_cell_angle_alpha 90.000000
_cell_angle_beta 66.144727
_cell_angle_gamma 90.000000
_cell_volume 3689.309301
_symmetry_space_group_name_H-M "C 2/M"
_symmetry_group_IT_number 12
_symmetry_cell_setting 'monoclinic'
loop_
_space_group_symop_operation_xyz
x,y,z
-x,y,-z
-x,-y,-z
x,-y,z
1/2+x,1/2+y,z
1/2-x,1/2+y,-z
1/2-x,1/2-y,-z
1/2+x,1/2-y,z
loop_
_atom_site_type_symbol
_atom_site_label
_atom_site_fract_x
_atom_site_fract_y
_atom_site_fract_z
Si Si1 0.897368 0.334527 0.653961
Si Si2 0.178835 0.164862 0.997455
Si Si3 0.744768 0.668506 0.257097
Si Si4 0.566777 0.833252 0.598994
Si Si5 0.512894 0.668623 0.059211
Si Si6 0.154389 0.835603 0.866890
Si Si7 0.840919 0.664826 0.542937
Si Si8 0.796913 0.664886 0.367032
O O1 0.887142 0.500000 0.676058
O O2 0.838967 0.240249 0.711882
O O3 0.885963 0.314461 0.588375
O O4 0.981944 0.270427 0.639027
O O5 0.170390 0.188496 0.930419
O O6 0.194524 0.000000 0.006868
O O7 0.250000 0.250000 0.000000
O O8 0.097154 0.218365 0.055373
O O9 0.734941 0.500000 0.252115
O O10 0.790211 0.730512 0.186660
O O11 0.791271 0.708898 0.300690
O O12 0.607623 0.768523 0.527021
O O13 0.616823 0.802560 0.640325
O O14 0.555424 0.000000 0.590272
O O15 0.520507 0.500000 0.047786
O O16 0.434642 0.703466 0.121928
O O17 0.500000 0.740744 0.000000
O O18 0.171478 0.000000 0.843950
O O19 0.821513 0.500000 0.536748
O O20 0.760420 0.747165 0.572307
O O21 0.774975 0.500000 0.382968
#
# Coordination Sequence:
#
# PCOD8095595 Si02
#       8
#     8   8   8   8   8   8   8   8
#     4   9  17  30  48  67  89 120 156 191 227 275
#     4   9  17  30  50  77 105 127 148 182 228 271
#     4  10  20  33  47  65  91 122 156 193 232 272
#     4   9  16  28  47  68  89 115 149 191 237 281
#     4   7  12  26  48  71  93 119 153 187 215 251
#     4   9  17  32  54  72  88 122 166 193 215 261
#     4   9  16  27  46  70  90 112 149 192 231 277
#     4   9  18  31  45  63  90 121 149 184 235 284
#
# _framework density 17.347421000000001
#
# number of rings (size 3 to 8) (size 9 to 14) (size 15 to 20)
#    0.000    3.125    0.000    2.625    0.000    2.500 
#    0.000    3.125    0.000    9.750    0.000    0.000 
#    0.000    0.000    0.000    0.000    0.000    0.000 
#
# Total GULP energy -396507.377840 kJ/mol
# GULP energy per Si atom -12390.855558 kJ/mol
# Density = 1.730794 g / cm^3
# Si number density = 17.347421 Si / 1000 Ang^3
#
#
#
# Elastic Constant Matrix: (Units=GPa)
#
#
# Indices 1 2 3 4 5 6 
#
# 1 136.4284 44.3435 46.4881 0.0000 -26.7812 0.0000
# 2 44.3435 56.0280 38.0737 0.0000 -12.5587 0.0000
# 3 46.4881 38.0737 77.6392 0.0000 -20.9516 0.0000
# 4 0.0000 0.0000 0.0000 18.7902 0.0000 -2.0890
# 5 -26.7812 -12.5587 -20.9516 0.0000 21.1669 0.0000
# 6 0.0000 0.0000 0.0000 -2.0890 0.0000 24.1761
#
#
#
# Elastic Compliance Matrix: (Units=1/GPa)
#
#
# Indices 1 2 3 4 5 6 
#
# 1 0.011722 -0.006159 -0.001341 0.000000 0.009850 0.000000
# 2 -0.006159 0.030248 -0.011469 0.000000 -0.001198 0.000000
# 3 -0.001341 -0.011469 0.023214 0.000000 0.014477 0.000000
# 4 0.000000 0.000000 0.000000 0.053735 0.000000 0.004643
# 5 0.009850 -0.001198 0.014477 0.000000 0.073325 0.000000
# 6 0.000000 0.000000 0.000000 0.004643 0.000000 0.041764
#
#
# Mechanical properties :
#
#
# Convention : Reuss Voigt Hill
#
# Bulk Modulus (GPa) = 36.70069 58.65623 47.67846
# Shear Modulus (GPa) = 17.79189 22.23932 20.01561
#
# Velocity S-wave (km/s) = 3.20601 3.58438 3.40046
# Velocity P-wave (km/s) = 5.90820 7.14258 6.55451
#
# Compressibility (1/GPa) = 0.02724744
#
# Stress axis : x y z
#
# Youngs Moduli (GPa) = 85.30990 33.06046 43.07795
#
# Poissons Ratio (x) = 0.20360 0.05775
# Poissons Ratio (y) = 0.52538 0.49406
# Poissons Ratio (z) = 0.11436 0.37917
#
# Static dielectric constant tensor:
#      x y z
#    x 3.445700 0.000000 -0.236170 
#    y 0.000000 2.993850 0.000000 
#    z -0.236170 0.000000 3.100720 
# 
# 
# High freq. dielectric constant tensor:
#      x y z
#    x 1.676730 0.000000 -0.016400 
#    y 0.000000 1.641730 0.000000 
#    z -0.016400 0.000000 1.651950 
# 
# From -- ./inp_files/345535.got.cif
#   From: 2010.06.25/outbox.cif.g09.slc.cpg/sg12_173_cif.got.tgz:345535.got - 2010.06.28 00:19:55.
