data_PCOD8095077
_publ_section_title
;
Structure prediction by ZEFSAII (Michael W. Deem and Ramdas Pophale) SiO2 
 PCOD8095077
Probable space group: C 2/M
;
_chemical_formula_sum "Si O2"
_cell_formula_units_Z 56
_cell_length_a 29.361090
_cell_length_b 12.226691
_cell_length_c 24.932218
_cell_angle_alpha 90.000000
_cell_angle_beta 19.705058
_cell_angle_gamma 90.000000
_cell_volume 3017.878367
_symmetry_space_group_name_H-M "C 2/M"
_symmetry_group_IT_number 12
_symmetry_cell_setting 'monoclinic'
loop_
_space_group_symop_operation_xyz
x,y,z
-x,y,-z
-x,-y,-z
x,-y,z
1/2+x,1/2+y,z
1/2-x,1/2+y,-z
1/2-x,1/2-y,-z
1/2+x,1/2-y,z
loop_
_atom_site_type_symbol
_atom_site_label
_atom_site_fract_x
_atom_site_fract_y
_atom_site_fract_z
Si Si1 0.072941 0.755160 0.738323
Si Si2 0.343346 0.869438 0.457734
Si Si3 0.304237 0.125399 0.226987
Si Si4 0.499621 0.373141 0.438514
Si Si5 0.854378 0.876066 0.919424
Si Si6 0.466168 0.128857 0.950823
Si Si7 0.406012 0.768387 0.761038
O O1 0.200411 0.809306 0.627642
O O2 0.116505 0.663098 0.647180
O O3 0.968015 0.694555 0.893719
O O4 0.988458 0.851049 0.804454
O O5 0.453946 0.828290 0.378429
O O6 0.328558 0.000000 0.478680
O O7 0.152321 0.142693 0.414011
O O8 0.402393 0.174196 0.162936
O O9 0.345916 0.000000 0.177752
O O10 0.335689 0.166134 0.131042
O O11 0.500000 0.335758 0.500000
O O12 0.547618 0.500000 0.380456
O O13 0.587028 0.293935 0.303989
O O14 0.859767 0.816643 0.856826
O O15 0.857464 0.000000 0.899549
O O16 0.717632 0.853677 0.104983
O O17 0.468758 0.000000 0.934770
#
# Coordination Sequence:
#
# PCOD8095077 Si02
#       7
#     8   8   8   8   8   8   8
#     4  10  20  31  53  81 102 137 174 211 272 306
#     4  10  20  35  52  77 107 136 177 220 257 311
#     4   8  16  29  46  72 104 136 163 201 266 312
#     4  10  20  33  52  81 110 134 168 220 270 316
#     4  10  21  37  54  78 109 139 175 217 258 312
#     4   9  16  29  49  75 106 134 167 210 258 320
#     4  10  21  36  57  79 103 144 178 206 269 321
#
# _framework density 18.556082
#
# number of rings (size 3 to 8) (size 9 to 14) (size 15 to 20)
#    0.000    2.429    0.000    3.429    2.000    0.000 
#    0.000    5.714    0.000    1.714    0.000    5.000 
#    0.000    0.000    0.000    0.000    0.000    0.000 
#
# Total GULP energy -346999.544270 kJ/mol
# GULP energy per Si atom -12392.840867 kJ/mol
# Density = 1.851385 g / cm^3
# Si number density = 18.556082 Si / 1000 Ang^3
#
#
#
# Elastic Constant Matrix: (Units=GPa)
#
#
# Indices 1 2 3 4 5 6 
#
# 1 50.4236 18.9517 14.6293 0.0016 7.9575 -0.0004
# 2 18.9517 78.9553 18.9051 0.0009 7.7306 -0.0001
# 3 14.6293 18.9051 61.4094 0.0025 2.7733 -0.0009
# 4 0.0016 0.0009 0.0025 26.2769 -0.0014 2.0878
# 5 7.9575 7.7306 2.7733 -0.0014 32.3977 0.0004
# 6 -0.0004 -0.0001 -0.0009 2.0878 0.0004 18.7132
#
#
#
# Elastic Compliance Matrix: (Units=1/GPa)
#
#
# Indices 1 2 3 4 5 6 
#
# 1 0.023272 -0.004187 -0.004058 -0.000001 -0.004370 0.000001
# 2 -0.004187 0.014706 -0.003431 0.000000 -0.002187 0.000000
# 3 -0.004058 -0.003431 0.018296 -0.000001 0.000249 0.000001
# 4 -0.000001 0.000000 -0.000001 0.038397 0.000002 -0.004284
# 5 -0.004370 -0.002187 0.000249 0.000002 0.032440 -0.000001
# 6 0.000001 0.000000 0.000001 -0.004284 -0.000001 0.053916
#
#
# Mechanical properties :
#
#
# Convention : Reuss Voigt Hill
#
# Bulk Modulus (GPa) = 30.37392 32.86227 31.61809
# Shear Modulus (GPa) = 23.21769 24.69771 23.95770
#
# Velocity S-wave (km/s) = 3.54109 3.65221 3.59708
# Velocity P-wave (km/s) = 5.75529 5.96096 5.85903
#
# Compressibility (1/GPa) = 0.03292298
#
# Stress axis : x y z
#
# Youngs Moduli (GPa) = 42.96927 67.99938 54.65704
#
# Poissons Ratio (x) = 0.28469 0.22179
# Poissons Ratio (y) = 0.17990 0.18754
# Poissons Ratio (z) = 0.17436 0.23332
#
# Static dielectric constant tensor:
#      x y z
#    x 3.320990 0.000000 -0.100040 
#    y 0.000000 3.089550 0.000000 
#    z -0.100040 0.000000 3.606550 
# 
# 
# High freq. dielectric constant tensor:
#      x y z
#    x 1.715650 0.000000 -0.008440 
#    y 0.000000 1.687000 0.000000 
#    z -0.008440 0.000000 1.730490 
# 
# From -- ./inp_files/349144.got.cif
#   From: 2010.06.25/outbox.cif.g09.slc.cpg/sg12_175_cif.got.tgz:349144.got - 2010.06.28 00:19:55.
