data_PCOD8095962
_publ_section_title
;
Structure prediction by ZEFSAII (Michael W. Deem and Ramdas Pophale) SiO2 
 PCOD8095962
Probable space group: C 2/M
;
_chemical_formula_sum "Si O2"
_cell_formula_units_Z 56
_cell_length_a 14.429184
_cell_length_b 9.287124
_cell_length_c 28.251504
_cell_angle_alpha 90.000000
_cell_angle_beta 50.896716
_cell_angle_gamma 90.000000
_cell_volume 2937.866456
_symmetry_space_group_name_H-M "C 2/M"
_symmetry_group_IT_number 12
_symmetry_cell_setting 'monoclinic'
loop_
_space_group_symop_operation_xyz
x,y,z
-x,y,-z
-x,-y,-z
x,-y,z
1/2+x,1/2+y,z
1/2-x,1/2+y,-z
1/2-x,1/2-y,-z
1/2+x,1/2-y,z
loop_
_atom_site_type_symbol
_atom_site_label
_atom_site_fract_x
_atom_site_fract_y
_atom_site_fract_z
Si Si1 0.187837 0.658866 0.560370
Si Si2 0.271150 0.668682 0.769128
Si Si3 0.395584 0.659533 0.566429
Si Si4 0.116019 0.670178 0.906144
Si Si5 0.751506 0.167608 0.317986
Si Si6 0.346894 0.829336 0.000507
Si Si7 0.543176 0.335892 0.673571
O O1 0.152485 0.500000 0.552605
O O2 0.250000 0.750000 0.500000
O O3 0.276801 0.643380 0.574940
O O4 0.071429 0.739900 0.618082
O O5 0.246549 0.500000 0.768463
O O6 0.199882 0.729848 0.837371
O O7 0.223550 0.755713 0.739553
O O8 0.410333 0.699500 0.733763
O O9 0.500000 0.727427 0.500000
O O10 0.435385 0.500000 0.571882
O O11 0.367189 0.763454 0.619636
O O12 0.120474 0.500000 0.905997
O O13 0.979358 0.717701 0.940784
O O14 0.165751 0.723636 0.940903
O O15 0.868903 0.195830 0.311281
O O16 0.725979 0.000000 0.318481
O O17 0.327959 0.000000 0.001833
O O18 0.250000 0.750000 0.000000
O O19 0.556498 0.500000 0.652519
#
# Coordination Sequence:
#
# PCOD8095962 Si02
#       7
#     8   8   8   8   8   8   8
#     4  10  20  33  51  74 100 128 164 214 268 321
#     4  10  20  36  58  77 102 147 189 217 259 323
#     4   9  19  35  53  72  95 130 173 213 259 325
#     4   8  17  34  54  79 110 146 186 220 256 317
#     4  10  21  36  52  77 108 134 169 224 279 318
#     4   9  17  33  57  83 113 146 182 222 264 310
#     4   9  20  37  53  71 101 138 175 215 264 324
#
# _framework density 19.061451999999999
#
# number of rings (size 3 to 8) (size 9 to 14) (size 15 to 20)
#    0.000    2.714    0.000    1.714    2.000    3.143 
#    0.000    4.286    0.000    0.000    0.000    0.000 
#    0.000    0.000    0.000    0.000    0.000    0.000 
#
# Total GULP energy -347126.432179 kJ/mol
# GULP energy per Si atom -12397.372578 kJ/mol
# Density = 1.901807 g / cm^3
# Si number density = 19.061452 Si / 1000 Ang^3
#
#
#
# Elastic Constant Matrix: (Units=GPa)
#
#
# Indices 1 2 3 4 5 6 
#
# 1 93.2385 48.0146 61.7922 0.0000 -0.0649 0.0000
# 2 48.0146 93.8381 71.6450 0.0000 5.2154 0.0001
# 3 61.7922 71.6450 191.9969 0.0000 3.5718 0.0000
# 4 0.0000 0.0000 0.0000 20.1362 0.0000 3.9353
# 5 -0.0649 5.2154 3.5718 0.0000 24.9129 0.0000
# 6 0.0000 0.0001 0.0000 3.9353 0.0000 29.7085
#
#
#
# Elastic Compliance Matrix: (Units=1/GPa)
#
#
# Indices 1 2 3 4 5 6 
#
# 1 0.015678 -0.005929 -0.002865 0.000000 0.001693 0.000000
# 2 -0.005929 0.017280 -0.004485 0.000000 -0.002990 0.000000
# 3 -0.002865 -0.004485 0.007807 0.000000 -0.000188 0.000000
# 4 0.000000 0.000000 0.000000 0.050982 0.000000 -0.006753
# 5 0.001693 -0.002990 -0.000188 0.000000 0.040797 0.000000
# 6 0.000000 0.000000 0.000000 -0.006753 0.000000 0.034555
#
#
# Mechanical properties :
#
#
# Convention : Reuss Voigt Hill
#
# Bulk Modulus (GPa) = 70.37635 82.44193 76.40914
# Shear Modulus (GPa) = 25.20253 28.12631 26.66442
#
# Velocity S-wave (km/s) = 3.64011 3.84547 3.74420
# Velocity P-wave (km/s) = 7.39379 7.94112 7.67234
#
# Compressibility (1/GPa) = 0.01420932
#
# Stress axis : x y z
#
# Youngs Moduli (GPa) = 63.78277 57.86901 128.08330
#
# Poissons Ratio (x) = 0.34310 0.36696
# Poissons Ratio (y) = 0.37816 0.57440
# Poissons Ratio (z) = 0.18274 0.25952
#
# Static dielectric constant tensor:
#      x y z
#    x 3.382790 0.000000 -0.033070 
#    y 0.000000 3.624780 0.000000 
#    z -0.033070 0.000000 3.813680 
# 
# 
# High freq. dielectric constant tensor:
#      x y z
#    x 1.739330 0.000000 -0.001660 
#    y 0.000000 1.725390 0.000000 
#    z -0.001660 0.000000 1.741320 
# 
# From -- ./inp_files/309031.got.cif
#   From: 2010.06.25/outbox.cif.g09.slc.cpg/sg12_155_cif.got.tgz:309031.got - 2010.06.28 00:19:55.
