data_PCOD8095518
_publ_section_title
;
Structure prediction by ZEFSAII (Michael W. Deem and Ramdas Pophale) SiO2 
 PCOD8095518
Probable space group: C 2/M
;
_chemical_formula_sum "Si O2"
_cell_formula_units_Z 64
_cell_length_a 30.579837
_cell_length_b 9.338896
_cell_length_c 12.430630
_cell_angle_alpha 90.000000
_cell_angle_beta 72.922878
_cell_angle_gamma 90.000000
_cell_volume 3393.446510
_symmetry_space_group_name_H-M "C 2/M"
_symmetry_group_IT_number 12
_symmetry_cell_setting 'monoclinic'
loop_
_space_group_symop_operation_xyz
x,y,z
-x,y,-z
-x,-y,-z
x,-y,z
1/2+x,1/2+y,z
1/2-x,1/2+y,-z
1/2-x,1/2-y,-z
1/2+x,1/2-y,z
loop_
_atom_site_type_symbol
_atom_site_label
_atom_site_fract_x
_atom_site_fract_y
_atom_site_fract_z
Si Si1 0.068636 0.666803 0.622834
Si Si2 0.119698 0.667089 0.802554
Si Si3 0.463349 0.834470 0.710471
Si Si4 0.208535 0.833553 0.785525
Si Si5 0.321197 0.339277 0.956229
Si Si6 0.205798 0.836504 0.255914
Si Si7 0.094975 0.663840 0.053352
Si Si8 0.103856 0.830244 0.397948
O O1 0.075944 0.500000 0.589725
O O2 0.086530 0.703462 0.728567
O O3 0.096342 0.764745 0.520818
O O4 0.015573 0.709208 0.655078
O O5 0.132834 0.500000 0.795785
O O6 0.166283 0.757197 0.756712
O O7 0.092305 0.715021 0.930885
O O8 0.451646 0.810010 0.845846
O O9 0.432209 0.736314 0.658465
O O10 0.455075 0.000000 0.684475
O O11 0.256354 0.762665 0.713153
O O12 0.208484 0.000000 0.754177
O O13 0.205839 0.806236 0.915192
O O14 0.340472 0.500000 0.943767
O O15 0.288783 0.316331 0.876811
O O16 0.365195 0.241221 0.910402
O O17 0.155256 0.788806 0.327619
O O18 0.215291 0.000000 0.282927
O O19 0.109142 0.500000 0.043767
O O20 0.096559 0.000000 0.405364
#
# Coordination Sequence:
#
# PCOD8095518 Si02
#       8
#     8   8   8   8   8   8   8   8
#     4  10  22  39  58  79 107 146 186 227 272 317
#     4   9  19  37  57  78 110 148 183 220 267 320
#     4  10  20  35  57  85 113 140 177 225 275 324
#     4  10  20  32  53  82 109 140 178 221 267 322
#     4   9  17  31  49  75 112 145 173 213 267 322
#     4  10  20  34  52  76 108 143 178 219 269 324
#     4   9  17  30  53  83 111 142 177 218 266 322
#     4  11  23  38  57  81 110 144 183 226 271 321
#
# _framework density 18.85988
#
# number of rings (size 3 to 8) (size 9 to 14) (size 15 to 20)
#    0.000    2.250    1.250    1.500    0.000    5.000 
#    0.000    3.125    0.000    0.000    0.000    5.250 
#    0.000    0.000    0.000    0.000    0.000    0.000 
#
# Total GULP energy -396745.568257 kJ/mol
# GULP energy per Si atom -12398.299008 kJ/mol
# Density = 1.881695 g / cm^3
# Si number density = 18.859880 Si / 1000 Ang^3
#
#
#
# Elastic Constant Matrix: (Units=GPa)
#
#
# Indices 1 2 3 4 5 6 
#
# 1 70.5644 41.1260 37.3207 0.0000 -9.2446 0.0000
# 2 41.1260 67.8285 35.2582 0.0000 -5.7755 0.0000
# 3 37.3207 35.2582 71.9213 0.0000 1.1368 0.0000
# 4 0.0000 0.0000 0.0000 25.3711 0.0000 -1.4738
# 5 -9.2446 -5.7755 1.1368 0.0000 23.2108 0.0000
# 6 0.0000 0.0000 0.0000 -1.4738 0.0000 27.5378
#
#
#
# Elastic Compliance Matrix: (Units=1/GPa)
#
#
# Indices 1 2 3 4 5 6 
#
# 1 0.025830 -0.010660 -0.008305 0.000000 0.008042 0.000000
# 2 -0.010660 0.024885 -0.006704 0.000000 0.002275 0.000000
# 3 -0.008305 -0.006704 0.021595 0.000000 -0.006034 0.000000
# 4 0.000000 0.000000 0.000000 0.039538 0.000000 0.002116
# 5 0.008042 0.002275 -0.006034 0.000000 0.047148 0.000000
# 6 0.000000 0.000000 0.000000 0.002116 0.000000 0.036427
#
#
# Mechanical properties :
#
#
# Convention : Reuss Voigt Hill
#
# Bulk Modulus (GPa) = 47.67947 48.63602 48.15775
# Shear Modulus (GPa) = 19.70438 21.66455 20.68446
#
# Velocity S-wave (km/s) = 3.23581 3.39294 3.31531
# Velocity P-wave (km/s) = 6.26868 6.41821 6.34389
#
# Compressibility (1/GPa) = 0.02097339
#
# Stress axis : x y z
#
# Youngs Moduli (GPa) = 38.71479 40.18536 46.30611
#
# Poissons Ratio (x) = 0.42836 0.38457
# Poissons Ratio (y) = 0.41268 0.31043
# Poissons Ratio (z) = 0.32152 0.26940
#
# Static dielectric constant tensor:
#      x y z
#    x 3.300810 0.000000 -0.066750 
#    y 0.000000 3.446870 0.000000 
#    z -0.066750 0.000000 3.550490 
# 
# 
# High freq. dielectric constant tensor:
#      x y z
#    x 1.722570 0.000000 -0.007020 
#    y 0.000000 1.731080 0.000000 
#    z -0.007020 0.000000 1.728560 
# 
# From -- ./inp_files/243824.got.cif
#   From: 2010.06.25/outbox.cif.g09.slc.cpg/sg12_122_cif.got.tgz:243824.got - 2010.06.28 00:19:55.
