data_PCOD8095190
_publ_section_title
;
Structure prediction by ZEFSAII (Michael W. Deem and Ramdas Pophale) SiO2 
 PCOD8095190
Probable space group: C 2/M
;
_chemical_formula_sum "Si O2"
_cell_formula_units_Z 40
_cell_length_a 9.386611
_cell_length_b 27.374123
_cell_length_c 11.081394
_cell_angle_alpha 90.000000
_cell_angle_beta 115.057673
_cell_angle_gamma 90.000000
_cell_volume 2579.378209
_symmetry_space_group_name_H-M "C 2/M"
_symmetry_group_IT_number 12
_symmetry_cell_setting 'monoclinic'
loop_
_space_group_symop_operation_xyz
x,y,z
-x,y,-z
-x,-y,-z
x,-y,z
1/2+x,1/2+y,z
1/2-x,1/2+y,-z
1/2-x,1/2-y,-z
1/2+x,1/2-y,z
loop_
_atom_site_type_symbol
_atom_site_label
_atom_site_fract_x
_atom_site_fract_y
_atom_site_fract_z
Si Si1 0.149566 0.443198 0.130548
Si Si2 0.160122 0.701656 0.500000
Si Si3 0.480982 0.556802 0.130548
Si Si4 0.913476 0.391140 0.647680
Si Si5 0.234205 0.391140 0.647681
O O1 0.135631 0.500000 0.158628
O O2 0.304871 0.431756 0.109742
O O3 0.156050 0.413202 0.256056
O O4 0.000000 0.425809 0.000000
O O5 0.250000 0.750000 0.500000
O O6 0.121683 0.667474 0.369131
O O7 0.252552 0.667474 0.630869
O O8 0.000000 0.720542 0.500000
O O9 0.522997 0.500000 0.158628
O O10 0.600006 0.586798 0.256056
O O11 0.500000 0.574191 0.000000
O O12 0.825331 0.415399 0.500000
O O13 0.101304 0.400822 0.702609
#
# Coordination Sequence:
#
# PCOD8095190 Si02
#       5
#     8   8   8   8   8
#     4  10  20  32  47  68  95 128 162 194 231 276
#     4   8  16  30  49  72  95 121 152 189 235 282
#     4  10  20  32  47  68  95 128 162 194 231 276
#     4   8  17  32  48  70  96 124 156 191 232 278
#     4   8  17  32  48  70  96 124 156 191 232 278
#
# _framework density 15.507612999999999
#
# number of rings (size 3 to 8) (size 9 to 14) (size 15 to 20)
#    1.200    2.000    0.000    1.200    0.000    5.600 
#    0.000    4.000    0.000    1.200    0.000    8.400 
#    0.000    0.000    0.000    0.000    0.000    0.000 
#
# Total GULP energy -247762.325256 kJ/mol
# GULP energy per Si atom -12388.116263 kJ/mol
# Density = 1.547232 g / cm^3
# Si number density = 15.507613 Si / 1000 Ang^3
#
#
#
# Elastic Constant Matrix: (Units=GPa)
#
#
# Indices 1 2 3 4 5 6 
#
# 1 118.7960 58.3199 60.3485 0.0000 -0.8146 0.0000
# 2 58.3199 66.1792 45.0000 0.0000 1.0038 0.0000
# 3 60.3485 45.0000 83.0221 0.0000 3.5105 0.0000
# 4 0.0000 0.0000 0.0000 -8.5273 0.0000 3.0960
# 5 -0.8146 1.0038 3.5105 0.0000 34.3026 0.0000
# 6 0.0000 0.0000 0.0000 3.0960 0.0000 32.5565
#
#
#
# Elastic Compliance Matrix: (Units=1/GPa)
#
#
# Indices 1 2 3 4 5 6 
#
# 1 0.016949 -0.010357 -0.006765 0.000000 0.001398 0.000000
# 2 -0.010357 0.030273 -0.008871 0.000000 -0.000224 0.000000
# 3 -0.006765 -0.008871 0.021861 0.000000 -0.002138 0.000000
# 4 0.000000 0.000000 0.000000 -0.113357 0.000000 0.010780
# 5 0.001398 -0.000224 -0.002138 0.000000 0.029411 0.000000
# 6 0.000000 0.000000 0.000000 0.010780 0.000000 0.029691
#
#
# Mechanical properties :
#
#
# Convention : Reuss Voigt Hill
#
# Bulk Modulus (GPa) = 58.49063 66.14822 62.31942
# Shear Modulus (GPa) = 68.95450 18.62162 43.78806
#
# Velocity S-wave (km/s) = 6.67544 3.46902 5.31957
# Velocity P-wave (km/s) = 9.85974 7.66769 8.83199
#
# Compressibility (1/GPa) = 0.01709676
#
# Stress axis : x y z
#
# Youngs Moduli (GPa) = 59.00195 33.03325 45.74305
#
# Poissons Ratio (x) = 0.34212 0.30947
# Poissons Ratio (y) = 0.61107 0.40577
# Poissons Ratio (z) = 0.39917 0.29303
#
# Static dielectric constant tensor:
#      x y z
#    x 2.926480 0.000000 0.011450 
#    y 0.000000 2.699460 0.000000 
#    z 0.011450 0.000000 2.774600 
# 
# 
# High freq. dielectric constant tensor:
#      x y z
#    x 1.605290 0.000000 0.001980 
#    y 0.000000 1.572410 0.000000 
#    z 0.001980 0.000000 1.579000 
# 
# From -- ./inp_files/124632.got.cif
#   From: 2010.06.25/outbox.cif.g09.slc.cpg/sg12_63_cif.got.tgz:124632.got - 2010.06.28 00:19:55.
