data_PCOD8095288
_publ_section_title
;
Structure prediction by ZEFSAII (Michael W. Deem and Ramdas Pophale) SiO2 
 PCOD8095288
Probable space group: C 2/M
;
_chemical_formula_sum "Si O2"
_cell_formula_units_Z 64
_cell_length_a 28.958900
_cell_length_b 8.879988
_cell_length_c 15.608550
_cell_angle_alpha 90.000000
_cell_angle_beta 117.612468
_cell_angle_gamma 90.000000
_cell_volume 3556.649596
_symmetry_space_group_name_H-M "C 2/M"
_symmetry_group_IT_number 12
_symmetry_cell_setting 'monoclinic'
loop_
_space_group_symop_operation_xyz
x,y,z
-x,y,-z
-x,-y,-z
x,-y,z
1/2+x,1/2+y,z
1/2-x,1/2+y,-z
1/2-x,1/2-y,-z
1/2+x,1/2-y,z
loop_
_atom_site_type_symbol
_atom_site_label
_atom_site_fract_x
_atom_site_fract_y
_atom_site_fract_z
Si Si1 0.672370 0.825506 0.266536
Si Si2 0.073891 0.821178 0.103970
Si Si3 0.289196 0.674055 0.346973
Si Si4 0.037444 0.672623 0.718913
Si Si5 0.060135 0.171524 0.444708
Si Si6 0.163199 0.172622 0.435649
Si Si7 0.883345 0.326988 0.353992
Si Si8 0.475617 0.822165 0.098164
O O1 0.632032 0.720847 0.181853
O O2 0.728974 0.796216 0.272995
O O3 0.675810 0.782838 0.368828
O O4 0.656274 0.000000 0.244587
O O5 0.033411 0.744777 0.134859
O O6 0.066507 0.000000 0.099505
O O7 0.064322 0.758687 0.000517
O O8 0.304158 0.500000 0.356302
O O9 0.302408 0.730282 0.454509
O O10 0.325973 0.753928 0.308904
O O11 0.019174 0.500000 0.694416
O O12 0.092910 0.699269 0.720242
O O13 0.044043 0.716418 0.823785
O O14 0.994744 0.774692 0.637485
O O15 0.102326 0.189429 0.405605
O O16 0.076345 0.262644 0.542416
O O17 0.054988 0.000000 0.469482
O O18 0.176461 0.000000 0.422220
O O19 0.876149 0.500000 0.369298
O O20 0.476640 0.000000 0.080549
#
# Coordination Sequence:
#
# PCOD8095288 Si02
#       8
#     8   8   8   8   8   8   8   8
#     4  11  21  33  52  76 101 133 172 208 248 299
#     4  11  22  36  54  79 108 132 161 202 248 299
#     4   9  20  36  51  71 101 135 172 212 250 293
#     4  10  21  34  51  76 102 131 169 210 250 297
#     4  10  20  32  48  73 105 139 172 206 245 294
#     4   9  18  32  48  72 105 135 168 209 250 293
#     4  10  20  34  51  72 101 135 171 211 252 293
#     4  10  20  37  58  78 103 133 164 200 249 303
#
# _framework density 17.994464000000001
#
# number of rings (size 3 to 8) (size 9 to 14) (size 15 to 20)
#    0.000    2.000    0.000    5.625    0.000    9.000 
#    0.000    0.000    0.000    0.750    0.000    0.000 
#    0.000    0.000    0.000    0.000    0.000    0.000 
#
# Total GULP energy -396866.320660 kJ/mol
# GULP energy per Si atom -12402.072521 kJ/mol
# Density = 1.795351 g / cm^3
# Si number density = 17.994464 Si / 1000 Ang^3
#
#
#
# Elastic Constant Matrix: (Units=GPa)
#
#
# Indices 1 2 3 4 5 6 
#
# 1 102.3539 52.7751 60.1122 0.0000 -3.4316 0.0000
# 2 52.7751 91.9837 40.0306 0.0000 -2.1793 0.0000
# 3 60.1122 40.0306 80.4925 0.0000 -4.9019 0.0000
# 4 0.0000 0.0000 0.0000 23.1214 0.0000 5.0113
# 5 -3.4316 -2.1793 -4.9019 0.0000 29.8185 0.0000
# 6 0.0000 0.0000 0.0000 5.0113 0.0000 25.1907
#
#
#
# Elastic Compliance Matrix: (Units=1/GPa)
#
#
# Indices 1 2 3 4 5 6 
#
# 1 0.019921 -0.006323 -0.011738 0.000000 -0.000099 0.000000
# 2 -0.006323 0.015882 -0.003182 0.000000 -0.000090 0.000000
# 3 -0.011738 -0.003182 0.022905 0.000000 0.002182 0.000000
# 4 0.000000 0.000000 0.000000 0.045199 0.000000 -0.008992
# 5 -0.000099 -0.000090 0.002182 0.000000 0.033877 0.000000
# 6 0.000000 0.000000 0.000000 -0.008992 0.000000 0.041486
#
#
# Mechanical properties :
#
#
# Convention : Reuss Voigt Hill
#
# Bulk Modulus (GPa) = 61.64776 64.51843 63.08310
# Shear Modulus (GPa) = 22.01056 23.75360 22.88208
#
# Velocity S-wave (km/s) = 3.50120 3.63719 3.56984
# Velocity P-wave (km/s) = 7.11886 7.31924 7.21975
#
# Compressibility (1/GPa) = 0.01622119
#
# Stress axis : x y z
#
# Youngs Moduli (GPa) = 50.19798 62.96437 43.65867
#
# Poissons Ratio (x) = 0.39815 0.51248
# Poissons Ratio (y) = 0.31743 0.13890
# Poissons Ratio (z) = 0.58925 0.20032
#
# Static dielectric constant tensor:
#      x y z
#    x 3.387670 0.000000 -0.040040 
#    y 0.000000 3.388250 0.000000 
#    z -0.040040 0.000000 3.174690 
# 
# 
# High freq. dielectric constant tensor:
#      x y z
#    x 1.696070 0.000000 -0.000910 
#    y 0.000000 1.708110 0.000000 
#    z -0.000910 0.000000 1.673450 
# 
# From -- ./inp_files/244240.got.cif
#   From: 2010.06.25/outbox.cif.g09.slc.cpg/sg12_123_cif.got.tgz:244240.got - 2010.06.28 00:19:55.
