data_PCOD8095635
_publ_section_title
;
Structure prediction by ZEFSAII (Michael W. Deem and Ramdas Pophale) SiO2 
 PCOD8095635
Probable space group: C 2/M
;
_chemical_formula_sum "Si O2"
_cell_formula_units_Z 64
_cell_length_a 24.706110
_cell_length_b 9.067964
_cell_length_c 16.637681
_cell_angle_alpha 90.000000
_cell_angle_beta 74.644057
_cell_angle_gamma 90.000000
_cell_volume 3594.337135
_symmetry_space_group_name_H-M "C 2/M"
_symmetry_group_IT_number 12
_symmetry_cell_setting 'monoclinic'
loop_
_space_group_symop_operation_xyz
x,y,z
-x,y,-z
-x,-y,-z
x,-y,z
1/2+x,1/2+y,z
1/2-x,1/2+y,-z
1/2-x,1/2-y,-z
1/2+x,1/2-y,z
loop_
_atom_site_type_symbol
_atom_site_label
_atom_site_fract_x
_atom_site_fract_y
_atom_site_fract_z
Si Si1 0.807506 0.331325 0.476500
Si Si2 0.192967 0.326856 0.349251
Si Si3 0.313414 0.174035 0.299995
Si Si4 0.194775 0.668226 0.046561
Si Si5 0.126767 0.674957 0.221897
Si Si6 0.586330 0.166103 0.989633
Si Si7 0.018663 0.328746 0.177440
Si Si8 0.587864 0.673971 0.827262
O O1 0.790899 0.500000 0.479047
O O2 0.750000 0.250000 0.500000
O O3 0.836796 0.296930 0.551375
O O4 0.838830 0.291515 0.380351
O O5 0.206743 0.500000 0.332384
O O6 0.250427 0.236607 0.315993
O O7 0.147234 0.273640 0.301694
O O8 0.353228 0.253981 0.221044
O O9 0.312321 0.000000 0.282077
O O10 0.211115 0.500000 0.055363
O O11 0.169824 0.738540 0.138409
O O12 0.250000 0.750000 0.000000
O O13 0.150096 0.684302 0.992944
O O14 0.126040 0.500000 0.211890
O O15 0.063320 0.728407 0.227153
O O16 0.574287 0.281686 0.924045
O O17 0.576332 0.000000 0.960870
O O18 0.544294 0.197994 0.079160
O O19 0.003806 0.500000 0.196439
O O20 0.962201 0.233806 0.209730
O O21 0.592395 0.500000 0.817054
#
# Coordination Sequence:
#
# PCOD8095635 Si02
#       8
#     8   8   8   8   8   8   8   8
#     4   8  15  28  48  72 100 131 159 193 237 290
#     4   9  16  30  53  80 105 127 158 200 243 289
#     4  10  20  33  48  72 104 135 165 195 242 301
#     4   9  18  31  46  68  99 133 162 193 234 284
#     4   8  16  31  52  74  97 126 161 197 239 291
#     4   9  19  35  52  70  95 130 169 202 243 297
#     4   9  18  36  56  71  94 131 167 200 245 298
#     4  12  24  34  49  73  98 126 166 217 256 285
#
# _framework density 17.805785
#
# number of rings (size 3 to 8) (size 9 to 14) (size 15 to 20)
#    0.000    2.750    0.000    3.375    1.750    3.000 
#    0.000    2.500    0.000    0.750    0.000    5.250 
#    0.000    0.000    0.000    0.000    0.000    0.000 
#
# Total GULP energy -396499.617608 kJ/mol
# GULP energy per Si atom -12390.613050 kJ/mol
# Density = 1.776526 g / cm^3
# Si number density = 17.805785 Si / 1000 Ang^3
#
#
#
# Elastic Constant Matrix: (Units=GPa)
#
#
# Indices 1 2 3 4 5 6 
#
# 1 70.1131 31.0700 29.1753 0.0000 13.3124 0.0000
# 2 31.0700 68.1517 24.7385 0.0000 4.5286 0.0000
# 3 29.1753 24.7385 66.0942 0.0000 24.8110 0.0000
# 4 0.0000 0.0000 0.0000 17.0292 0.0000 -2.7385
# 5 13.3124 4.5286 24.8110 0.0000 26.7842 0.0000
# 6 0.0000 0.0000 0.0000 -2.7385 0.0000 25.3048
#
#
#
# Elastic Compliance Matrix: (Units=1/GPa)
#
#
# Indices 1 2 3 4 5 6 
#
# 1 0.020239 -0.007306 -0.004426 0.000000 -0.004724 0.000000
# 2 -0.007306 0.020000 -0.006676 0.000000 0.006434 0.000000
# 3 -0.004426 -0.006676 0.028106 0.000000 -0.022707 0.000000
# 4 0.000000 0.000000 0.000000 0.059763 0.000000 0.006468
# 5 -0.004724 0.006434 -0.022707 0.000000 0.059630 0.000000
# 6 0.000000 0.000000 0.000000 0.006468 0.000000 0.040218
#
#
# Mechanical properties :
#
#
# Convention : Reuss Voigt Hill
#
# Bulk Modulus (GPa) = 31.71668 41.59183 36.65425
# Shear Modulus (GPa) = 18.16321 21.78199 19.97260
#
# Velocity S-wave (km/s) = 3.19732 3.50138 3.35280
# Velocity P-wave (km/s) = 5.61086 6.30520 5.96813
#
# Compressibility (1/GPa) = 0.03152915
#
# Stress axis : x y z
#
# Youngs Moduli (GPa) = 49.40931 50.00041 35.57932
#
# Poissons Ratio (x) = 0.36533 0.15747
# Poissons Ratio (y) = 0.36101 0.23752
# Poissons Ratio (z) = 0.21867 0.33379
#
# Static dielectric constant tensor:
#      x y z
#    x 3.332060 0.000000 0.341510 
#    y 0.000000 3.107200 0.000000 
#    z 0.341510 0.000000 3.774520 
# 
# 
# High freq. dielectric constant tensor:
#      x y z
#    x 1.676750 0.000000 0.014180 
#    y 0.000000 1.671620 0.000000 
#    z 0.014180 0.000000 1.684100 
# 
# From -- ./inp_files/243817.got.cif
#   From: 2010.06.25/outbox.cif.g09.slc.cpg/sg12_122_cif.got.tgz:243817.got - 2010.06.28 00:19:55.
