data_PCOD8095369
_publ_section_title
;
Structure prediction by ZEFSAII (Michael W. Deem and Ramdas Pophale) SiO2 
 PCOD8095369
Probable space group: C 2/M
;
_chemical_formula_sum "Si O2"
_cell_formula_units_Z 64
_cell_length_a 19.258414
_cell_length_b 9.528321
_cell_length_c 26.076345
_cell_angle_alpha 90.000000
_cell_angle_beta 47.925263
_cell_angle_gamma 90.000000
_cell_volume 3551.782223
_symmetry_space_group_name_H-M "C 2/M"
_symmetry_group_IT_number 12
_symmetry_cell_setting 'monoclinic'
loop_
_space_group_symop_operation_xyz
x,y,z
-x,y,-z
-x,-y,-z
x,-y,z
1/2+x,1/2+y,z
1/2-x,1/2+y,-z
1/2-x,1/2-y,-z
1/2+x,1/2-y,z
loop_
_atom_site_type_symbol
_atom_site_label
_atom_site_fract_x
_atom_site_fract_y
_atom_site_fract_z
Si Si1 0.948218 0.338769 0.164748
Si Si2 0.350989 0.156534 0.587692
Si Si3 0.569462 0.837993 0.202578
Si Si4 0.760805 0.837009 0.712663
Si Si5 0.536522 0.157765 0.562692
Si Si6 0.542959 0.339509 0.030845
Si Si7 0.247860 0.658965 0.051338
Si Si8 0.059379 0.834314 0.309777
O O1 0.959870 0.500000 0.142355
O O2 0.839930 0.291898 0.215388
O O3 0.985924 0.316109 0.203521
O O4 0.009120 0.247394 0.096149
O O5 0.276412 0.259699 0.650633
O O6 0.444761 0.159265 0.573867
O O7 0.375722 0.202350 0.516931
O O8 0.308340 0.000000 0.608624
O O9 0.667306 0.788854 0.129326
O O10 0.551184 0.735886 0.258722
O O11 0.574668 0.000000 0.218410
O O12 0.839392 0.798186 0.715801
O O13 0.762918 0.000000 0.698206
O O14 0.524256 0.269272 0.614493
O O15 0.552074 0.000000 0.576910
O O16 0.511143 0.500000 0.055073
O O17 0.500000 0.277106 0.000000
O O18 0.653895 0.327816 0.968490
O O19 0.226126 0.500000 0.045040
O O20 0.250000 0.750000 0.000000
O O21 0.043504 0.000000 0.313000
#
# Coordination Sequence:
#
# PCOD8095369 Si02
#       8
#     8   8   8   8   8   8   8   8
#     4  10  21  38  55  73 100 137 175 205 247 305
#     4   8  14  26  47  74 101 133 169 204 246 298
#     4  10  21  36  54  73  98 135 173 208 248 298
#     4   9  19  33  49  74 106 134 165 208 254 301
#     4   8  14  27  47  72 103 134 167 205 246 296
#     4  10  22  37  54  79 106 130 163 211 260 301
#     4  10  20  36  56  77 100 130 170 210 251 301
#     4  10  20  32  49  77 106 132 166 209 255 298
#
# _framework density 18.019123
#
# number of rings (size 3 to 8) (size 9 to 14) (size 15 to 20)
#    0.000    2.625    1.250    1.125    1.750    2.750 
#    0.000    2.500    0.000    0.750    0.000    0.000 
#    0.000    0.000    0.000    0.000    0.000    0.000 
#
# Total GULP energy -396743.535416 kJ/mol
# GULP energy per Si atom -12398.235482 kJ/mol
# Density = 1.797811 g / cm^3
# Si number density = 18.019123 Si / 1000 Ang^3
#
#
#
# Elastic Constant Matrix: (Units=GPa)
#
#
# Indices 1 2 3 4 5 6 
#
# 1 50.5498 19.6006 15.6112 0.0000 9.1451 0.0001
# 2 19.6006 70.5724 45.3856 -0.0001 15.4879 0.0000
# 3 15.6112 45.3856 82.6112 0.0000 20.2783 0.0000
# 4 0.0000 -0.0001 0.0000 35.8091 0.0000 3.3892
# 5 9.1451 15.4879 20.2783 0.0000 23.2768 0.0000
# 6 0.0001 0.0000 0.0000 3.3892 0.0000 20.7101
#
#
#
# Elastic Compliance Matrix: (Units=1/GPa)
#
#
# Indices 1 2 3 4 5 6 
#
# 1 0.022768 -0.004983 -0.000233 0.000000 -0.005427 0.000000
# 2 -0.004983 0.023509 -0.010958 0.000000 -0.004138 0.000000
# 3 -0.000233 -0.010958 0.020806 0.000000 -0.010743 0.000000
# 4 0.000000 0.000000 0.000000 0.028365 0.000000 -0.004642
# 5 -0.005427 -0.004138 -0.010743 0.000000 0.057206 0.000000
# 6 0.000000 0.000000 0.000000 -0.004642 0.000000 0.049045
#
#
# Mechanical properties :
#
#
# Convention : Reuss Voigt Hill
#
# Bulk Modulus (GPa) = 28.78872 40.54759 34.66815
# Shear Modulus (GPa) = 20.35603 24.16826 22.26214
#
# Velocity S-wave (km/s) = 3.36473 3.66629 3.51874
# Velocity P-wave (km/s) = 5.57734 6.36189 5.98249
#
# Compressibility (1/GPa) = 0.03473583
#
# Stress axis : x y z
#
# Youngs Moduli (GPa) = 43.92074 42.53623 48.06215
#
# Poissons Ratio (x) = 0.21195 0.01119
# Poissons Ratio (y) = 0.21885 0.52668
# Poissons Ratio (z) = 0.01023 0.46613
#
# Static dielectric constant tensor:
#      x y z
#    x 3.235860 0.000000 -0.152330 
#    y 0.000000 3.373540 0.000000 
#    z -0.152330 0.000000 3.578100 
# 
# 
# High freq. dielectric constant tensor:
#      x y z
#    x 1.672940 0.000000 -0.001850 
#    y 0.000000 1.696190 0.000000 
#    z -0.001850 0.000000 1.702280 
# 
# From -- ./inp_files/345989.got.cif
#   From: 2010.06.25/outbox.cif.g09.slc.cpg/sg12_173_cif.got.tgz:345989.got - 2010.06.28 00:19:55.
