data_PCOD8095897
_publ_section_title
;
Structure prediction by ZEFSAII (Michael W. Deem and Ramdas Pophale) SiO2 
 PCOD8095897
Probable space group: C 2/M
;
_chemical_formula_sum "Si O2"
_cell_formula_units_Z 56
_cell_length_a 14.816125
_cell_length_b 9.063173
_cell_length_c 19.742503
_cell_angle_alpha 90.000000
_cell_angle_beta 87.559706
_cell_angle_gamma 90.000000
_cell_volume 2648.640956
_symmetry_space_group_name_H-M "C 2/M"
_symmetry_group_IT_number 12
_symmetry_cell_setting 'monoclinic'
loop_
_space_group_symop_operation_xyz
x,y,z
-x,y,-z
-x,-y,-z
x,-y,z
1/2+x,1/2+y,z
1/2-x,1/2+y,-z
1/2-x,1/2-y,-z
1/2+x,1/2-y,z
loop_
_atom_site_type_symbol
_atom_site_label
_atom_site_fract_x
_atom_site_fract_y
_atom_site_fract_z
Si Si1 0.623048 0.333011 0.208429
Si Si2 0.592254 0.825165 0.342722
Si Si3 0.769550 0.824570 0.570292
Si Si4 0.387419 0.828385 0.321251
Si Si5 0.087525 0.165859 0.811555
Si Si6 0.337395 0.838181 0.923328
Si Si7 0.632063 0.337756 0.955351
O O1 0.659093 0.500000 0.217552
O O2 0.642695 0.238334 0.274853
O O3 0.517871 0.332378 0.197341
O O4 0.672861 0.258098 0.143983
O O5 0.637242 0.745214 0.405490
O O6 0.486281 0.782198 0.345803
O O7 0.606897 0.000000 0.346587
O O8 0.750000 0.750000 0.500000
O O9 0.686657 0.780894 0.621746
O O10 0.779878 0.000000 0.562356
O O11 0.363037 0.752457 0.250466
O O12 0.385282 0.000000 0.306341
O O13 0.105680 0.239111 0.884575
O O14 0.127137 0.000000 0.810813
O O15 0.238961 0.858071 0.957323
O O16 0.379193 0.000000 0.905653
O O17 0.399903 0.758575 0.978625
O O18 0.586086 0.500000 0.961885
#
# Coordination Sequence:
#
# PCOD8095897 Si02
#       7
#     8   8   8   8   8   8   8
#     4  10  20  35  55  80 110 144 184 234 287 342
#     4  10  21  40  63  88 120 157 195 242 291 343
#     4  11  24  42  63  93 124 157 197 236 286 348
#     4   9  21  40  61  87 121 156 194 240 292 344
#     4   9  19  35  56  80 106 142 189 235 284 339
#     4  10  20  33  50  75 106 143 187 234 286 342
#     4   9  19  35  51  72 103 142 187 234 284 339
#
# _framework density 21.142918999999999
#
# number of rings (size 3 to 8) (size 9 to 14) (size 15 to 20)
#    0.000    2.286    0.000    1.714    2.000    4.571 
#    0.000    5.714    0.000    0.000    0.000    0.000 
#    0.000    0.000    0.000    0.000    0.000    0.000 
#
# Total GULP energy -347185.525515 kJ/mol
# GULP energy per Si atom -12399.483054 kJ/mol
# Density = 2.109480 g / cm^3
# Si number density = 21.142919 Si / 1000 Ang^3
#
#
#
# Elastic Constant Matrix: (Units=GPa)
#
#
# Indices 1 2 3 4 5 6 
#
# 1 30.7271 19.2714 20.9536 0.0000 5.1313 0.0000
# 2 19.2714 99.3451 43.1101 0.0000 6.2634 0.0000
# 3 20.9536 43.1101 129.4206 0.0000 22.5322 0.0000
# 4 0.0000 0.0000 0.0000 42.9082 0.0000 2.2954
# 5 5.1313 6.2634 22.5322 0.0000 35.1622 0.0000
# 6 0.0000 0.0000 0.0000 2.2954 0.0000 21.4508
#
#
#
# Elastic Compliance Matrix: (Units=1/GPa)
#
#
# Indices 1 2 3 4 5 6 
#
# 1 0.039265 -0.005710 -0.004091 0.000000 -0.002091 0.000000
# 2 -0.005710 0.012604 -0.003408 0.000000 0.000772 0.000000
# 3 -0.004091 -0.003408 0.010485 0.000000 -0.005514 0.000000
# 4 0.000000 0.000000 0.000000 0.023440 0.000000 -0.002508
# 5 -0.002091 0.000772 -0.005514 0.000000 0.032141 0.000000
# 6 0.000000 0.000000 0.000000 -0.002508 0.000000 0.046887
#
#
# Mechanical properties :
#
#
# Convention : Reuss Voigt Hill
#
# Bulk Modulus (GPa) = 27.82817 47.35142 37.58980
# Shear Modulus (GPa) = 24.60428 31.64808 28.12618
#
# Velocity S-wave (km/s) = 3.41502 3.87313 3.65127
# Velocity P-wave (km/s) = 5.36100 6.51506 5.96600
#
# Compressibility (1/GPa) = 0.03593481
#
# Stress axis : x y z
#
# Youngs Moduli (GPa) = 25.46828 79.34092 95.37887
#
# Poissons Ratio (x) = 0.45300 0.39020
# Poissons Ratio (y) = 0.14541 0.32509
# Poissons Ratio (z) = 0.10419 0.27043
#
# Static dielectric constant tensor:
#      x y z
#    x 3.673750 0.000000 0.081250 
#    y 0.000000 4.096910 0.000000 
#    z 0.081250 0.000000 3.885200 
# 
# 
# High freq. dielectric constant tensor:
#      x y z
#    x 1.818180 0.000000 0.009770 
#    y 0.000000 1.829520 0.000000 
#    z 0.009770 0.000000 1.831620 
# 
# From -- ./inp_files/309000.got.cif
#   From: 2010.06.25/outbox.cif.g09.slc.cpg/sg12_155_cif.got.tgz:309000.got - 2010.06.28 00:19:55.
