data_PCOD8095772
_publ_section_title
;
Structure prediction by ZEFSAII (Michael W. Deem and Ramdas Pophale) SiO2 
 PCOD8095772
Probable space group: C 2/M
;
_chemical_formula_sum "Si O2"
_cell_formula_units_Z 48
_cell_length_a 18.229149
_cell_length_b 10.244957
_cell_length_c 15.056899
_cell_angle_alpha 90.000000
_cell_angle_beta 70.441938
_cell_angle_gamma 90.000000
_cell_volume 2649.735499
_symmetry_space_group_name_H-M "C 2/M"
_symmetry_group_IT_number 12
_symmetry_cell_setting 'monoclinic'
loop_
_space_group_symop_operation_xyz
x,y,z
-x,y,-z
-x,-y,-z
x,-y,z
1/2+x,1/2+y,z
1/2-x,1/2+y,-z
1/2-x,1/2-y,-z
1/2+x,1/2-y,z
loop_
_atom_site_type_symbol
_atom_site_label
_atom_site_fract_x
_atom_site_fract_y
_atom_site_fract_z
Si Si1 0.561171 0.000000 0.602175
Si Si2 0.614427 0.500000 0.396055
Si Si3 0.519824 0.349932 0.090027
Si Si4 0.143474 0.243040 0.282002
Si Si5 0.560393 0.500000 0.605874
Si Si6 0.382850 0.000000 0.614274
Si Si7 0.804000 0.153155 0.923165
Si Si8 0.467791 0.250220 0.287046
O O1 0.577466 0.123603 0.659054
O O2 0.472484 0.000000 0.606306
O O3 0.618461 0.000000 0.493201
O O4 0.659190 0.627608 0.344861
O O5 0.618730 0.500000 0.499959
O O6 0.527490 0.500000 0.393350
O O7 0.493372 0.500000 0.113954
O O8 0.611229 0.337827 0.068622
O O9 0.471847 0.258899 0.178249
O O10 0.500000 0.298873 0.000000
O O11 0.163097 0.376851 0.325588
O O12 0.197308 0.213610 0.175291
O O13 0.054533 0.246563 0.288867
O O14 0.578797 0.374176 0.657396
O O15 0.776436 0.000000 0.934396
O O16 0.750000 0.250000 0.000000
#
# Coordination Sequence:
#
# PCOD8095772 Si02
#       8
#     4   4   8   8   4   4   8   8
#     4   9  16  24  35  58  93 123 151 181 224 287
#     4   9  14  22  35  56  85 115 145 185 226 279
#     4   9  17  32  52  71  94 126 165 201 234 279
#     4   9  16  26  39  58  88 120 152 187 230 277
#     4   9  14  20  37  58  81 115 151 179 226 281
#     4   9  16  24  37  58  87 127 155 177 224 283
#     4  10  20  33  50  71  96 127 161 199 241 282
#     4   9  15  25  39  60  88 120 150 187 232 275
#
# _framework density 18.115016000000001
#
# number of rings (size 3 to 8) (size 9 to 14) (size 15 to 20)
#    0.000    2.833    1.667    1.000    1.167    4.000 
#    1.500    0.417    0.000    0.000    0.000    0.000 
#    0.000    8.000    0.000    0.000    0.000    0.000 
#
# Total GULP energy -297430.026247 kJ/mol
# GULP energy per Si atom -12392.917760 kJ/mol
# Density = 1.807379 g / cm^3
# Si number density = 18.115016 Si / 1000 Ang^3
#
#
#
# Elastic Constant Matrix: (Units=GPa)
#
#
# Indices 1 2 3 4 5 6 
#
# 1 8.3388 13.1913 22.3243 0.0000 1.9361 0.0000
# 2 13.1913 177.3220 107.7410 0.0000 -5.0632 0.0000
# 3 22.3243 107.7410 196.0186 0.0000 0.0589 0.0000
# 4 0.0000 0.0000 0.0000 42.2331 0.0000 -4.1695
# 5 1.9361 -5.0632 0.0589 0.0000 19.4533 0.0000
# 6 0.0000 0.0000 0.0000 -4.1695 0.0000 9.6059
#
#
#
# Elastic Compliance Matrix: (Units=1/GPa)
#
#
# Indices 1 2 3 4 5 6 
#
# 1 0.178970 -0.002186 -0.019176 0.000000 -0.018323 0.000000
# 2 -0.002186 0.008591 -0.004474 0.000000 0.002467 0.000000
# 3 -0.019176 -0.004474 0.009744 0.000000 0.000715 0.000000
# 4 0.000000 0.000000 0.000000 0.024738 0.000000 0.010738
# 5 -0.018323 0.002467 0.000715 0.000000 0.053869 0.000000
# 6 0.000000 0.000000 0.000000 0.010738 0.000000 0.108763
#
#
# Mechanical properties :
#
#
# Convention : Reuss Voigt Hill
#
# Bulk Modulus (GPa) = 6.86652 74.24364 40.55508
# Shear Modulus (GPa) = 10.31162 30.15331 20.23247
#
# Velocity S-wave (km/s) = 2.38844 4.08431 3.34561
# Velocity P-wave (km/s) = 3.37712 7.95712 6.11231
#
# Compressibility (1/GPa) = 0.14563418
#
# Stress axis : x y z
#
# Youngs Moduli (GPa) = 5.58753 116.40482 102.62561
#
# Poissons Ratio (x) = 0.25446 1.96791
# Poissons Ratio (y) = 0.01221 0.45911
# Poissons Ratio (z) = 0.10714 0.52075
#
# Static dielectric constant tensor:
#      x y z
#    x 2.575340 0.000000 0.035130 
#    y 0.000000 3.603980 0.000000 
#    z 0.035130 0.000000 3.597500 
# 
# 
# High freq. dielectric constant tensor:
#      x y z
#    x 1.614180 0.000000 0.000270 
#    y 0.000000 1.710950 0.000000 
#    z 0.000270 0.000000 1.722460 
# 
# From -- ./inp_files/236653.got.cif
#   From: 2010.06.25/outbox.cif.g09.slc.cpg/sg12_119_cif.got.tgz:236653.got - 2010.06.28 00:19:55.
