data_PCOD8095888
_publ_section_title
;
Structure prediction by ZEFSAII (Michael W. Deem and Ramdas Pophale) SiO2 
 PCOD8095888
Probable space group: C 2/M
;
_chemical_formula_sum "Si O2"
_cell_formula_units_Z 64
_cell_length_a 13.998068
_cell_length_b 9.475824
_cell_length_c 28.430154
_cell_angle_alpha 90.000000
_cell_angle_beta 77.298545
_cell_angle_gamma 90.000000
_cell_volume 3678.785480
_symmetry_space_group_name_H-M "C 2/M"
_symmetry_group_IT_number 12
_symmetry_cell_setting 'monoclinic'
loop_
_space_group_symop_operation_xyz
x,y,z
-x,y,-z
-x,-y,-z
x,-y,z
1/2+x,1/2+y,z
1/2-x,1/2+y,-z
1/2-x,1/2-y,-z
1/2+x,1/2-y,z
loop_
_atom_site_type_symbol
_atom_site_label
_atom_site_fract_x
_atom_site_fract_y
_atom_site_fract_z
Si Si1 0.540636 0.663202 0.626563
Si Si2 0.728626 0.665378 0.548997
Si Si3 0.547462 0.663313 0.946590
Si Si4 0.349846 0.837982 0.625752
Si Si5 0.903947 0.335414 0.199551
Si Si6 0.159351 0.161576 0.705712
Si Si7 0.567042 0.336453 0.134965
Si Si8 0.790693 0.337326 0.116991
O O1 0.516828 0.500000 0.622242
O O2 0.622831 0.710747 0.580313
O O3 0.442739 0.747194 0.628478
O O4 0.577860 0.692383 0.675180
O O5 0.730513 0.500000 0.537697
O O6 0.750000 0.750000 0.500000
O O7 0.810919 0.704176 0.578445
O O8 0.576456 0.500000 0.947095
O O9 0.469314 0.691215 0.913949
O O10 0.647022 0.748413 0.927065
O O11 0.500000 0.718058 0.000000
O O12 0.266371 0.810167 0.673219
O O13 0.381789 0.000000 0.622781
O O14 0.925140 0.500000 0.205458
O O15 0.854878 0.269970 0.250667
O O16 0.828387 0.309736 0.165455
O O17 0.006210 0.257596 0.178139
O O18 0.150596 0.000000 0.724396
O O19 0.554904 0.500000 0.150650
O O20 0.678924 0.286904 0.126165
O O21 0.800943 0.500000 0.101466
#
# Coordination Sequence:
#
# PCOD8095888 Si02
#       8
#     8   8   8   8   8   8   8   8
#     4   9  19  35  53  73  99 130 164 201 242 291
#     4   9  19  35  52  73 102 134 166 202 245 292
#     4   9  18  32  50  73  99 127 162 202 242 287
#     4   9  19  35  53  74 101 131 165 204 245 290
#     4  10  20  33  50  74  99 123 161 207 241 281
#     4   9  19  36  53  70  98 133 162 194 244 298
#     4   9  18  34  52  69  97 134 163 194 244 296
#     4   9  19  34  50  70  97 129 163 198 240 290
#
# _framework density 17.397044999999999
#
# number of rings (size 3 to 8) (size 9 to 14) (size 15 to 20)
#    0.000    2.875    0.000    1.875    0.000    5.250 
#    0.000    8.750    0.000    0.000    0.000    0.000 
#    0.000    0.000    0.000    0.000    0.000    0.000 
#
# Total GULP energy -396846.095713 kJ/mol
# GULP energy per Si atom -12401.440491 kJ/mol
# Density = 1.735745 g / cm^3
# Si number density = 17.397045 Si / 1000 Ang^3
#
#
#
# Elastic Constant Matrix: (Units=GPa)
#
#
# Indices 1 2 3 4 5 6 
#
# 1 123.0816 53.2889 39.7416 0.0000 -15.6083 0.0000
# 2 53.2889 74.1728 56.2708 0.0000 -5.2405 0.0000
# 3 39.7416 56.2708 110.9603 0.0000 -1.9631 0.0000
# 4 0.0000 0.0000 0.0000 36.5146 0.0000 -4.0338
# 5 -15.6083 -5.2405 -1.9631 0.0000 14.1154 0.0000
# 6 0.0000 0.0000 0.0000 -4.0338 0.0000 32.8114
#
#
#
# Elastic Compliance Matrix: (Units=1/GPa)
#
#
# Indices 1 2 3 4 5 6 
#
# 1 0.013409 -0.008658 -0.000207 0.000000 0.011584 0.000000
# 2 -0.008658 0.028135 -0.011179 0.000000 -0.000683 0.000000
# 3 -0.000207 -0.011179 0.014714 0.000000 -0.002333 0.000000
# 4 0.000000 0.000000 0.000000 0.027763 0.000000 0.003413
# 5 0.011584 -0.000683 -0.002333 0.000000 0.083076 0.000000
# 6 0.000000 0.000000 0.000000 0.003413 0.000000 0.030897
#
#
# Mechanical properties :
#
#
# Convention : Reuss Voigt Hill
#
# Bulk Modulus (GPa) = 61.84256 67.42413 64.63334
# Shear Modulus (GPa) = 20.53614 27.28252 23.90933
#
# Velocity S-wave (km/s) = 3.43948 3.96438 3.71122
# Velocity P-wave (km/s) = 7.16926 7.73274 7.45632
#
# Compressibility (1/GPa) = 0.01617009
#
# Stress axis : x y z
#
# Youngs Moduli (GPa) = 74.57584 35.54259 67.96138
#
# Poissons Ratio (x) = 0.30774 0.01406
# Poissons Ratio (y) = 0.64571 0.75975
# Poissons Ratio (z) = 0.01542 0.39733
#
# Static dielectric constant tensor:
#      x y z
#    x 3.228810 0.000000 -0.024610 
#    y 0.000000 3.189470 0.000000 
#    z -0.024610 0.000000 3.218960 
# 
# 
# High freq. dielectric constant tensor:
#      x y z
#    x 1.673620 0.000000 -0.002280 
#    y 0.000000 1.671060 0.000000 
#    z -0.002280 0.000000 1.673930 
# 
# From -- ./inp_files/359958.got.cif
#   From: 2010.06.25/outbox.cif.g09.slc.cpg/sg12_180_cif.got.tgz:359958.got - 2010.06.28 00:19:55.
