data_PCOD8095192
_publ_section_title
;
Structure prediction by ZEFSAII (Michael W. Deem and Ramdas Pophale) SiO2 
 PCOD8095192
Probable space group: C 2/M
;
_chemical_formula_sum "Si O2"
_cell_formula_units_Z 64
_cell_length_a 27.457976
_cell_length_b 8.924376
_cell_length_c 15.613128
_cell_angle_alpha 90.000000
_cell_angle_beta 68.002483
_cell_angle_gamma 90.000000
_cell_volume 3547.396759
_symmetry_space_group_name_H-M "C 2/M"
_symmetry_group_IT_number 12
_symmetry_cell_setting 'monoclinic'
loop_
_space_group_symop_operation_xyz
x,y,z
-x,y,-z
-x,-y,-z
x,-y,z
1/2+x,1/2+y,z
1/2-x,1/2+y,-z
1/2-x,1/2-y,-z
1/2+x,1/2-y,z
loop_
_atom_site_type_symbol
_atom_site_label
_atom_site_fract_x
_atom_site_fract_y
_atom_site_fract_z
Si Si1 0.570089 0.676525 0.616820
Si Si2 0.438324 0.163660 0.547414
Si Si3 0.232789 0.674581 0.381922
Si Si4 0.130070 0.828732 0.138282
Si Si5 0.040081 0.676045 0.282164
Si Si6 0.672735 0.174580 0.595271
Si Si7 0.214105 0.825540 0.953440
Si Si8 0.218818 0.824151 0.217814
O O1 0.570422 0.500000 0.626441
O O2 0.581097 0.718104 0.509972
O O3 0.515189 0.739548 0.687630
O O4 0.616267 0.747430 0.643311
O O5 0.500000 0.141152 0.500000
O O6 0.428406 0.219792 0.650971
O O7 0.411379 0.000000 0.548108
O O8 0.242852 0.500000 0.361152
O O9 0.288604 0.753705 0.360554
O O10 0.194064 0.706159 0.486062
O O11 0.205391 0.746097 0.316747
O O12 0.078096 0.726810 0.180174
O O13 0.172619 0.783779 0.182281
O O14 0.113056 0.000000 0.162996
O O15 0.154197 0.805015 0.026880
O O16 0.028633 0.500000 0.285600
O O17 0.667409 0.000000 0.618531
O O18 0.226030 0.743905 0.855290
O O19 0.228349 0.000000 0.936373
O O20 0.250000 0.750000 0.000000
O O21 0.225815 0.000000 0.226548
#
# Coordination Sequence:
#
# PCOD8095192 Si02
#       8
#     8   8   8   8   8   8   8   8
#     4  11  21  32  49  69  94 129 166 205 249 294
#     4   8  16  30  43  60  88 122 161 201 237 280
#     4  10  21  36  54  76  99 128 167 208 251 298
#     4   9  19  32  47  72 104 134 166 205 245 290
#     4  10  20  32  47  68  96 130 168 205 243 293
#     4  10  21  37  54  72  99 130 165 210 254 294
#     4   9  17  31  49  71 100 133 166 204 248 297
#     4  10  20  33  51  75 103 134 167 205 249 299
#
# _framework density 18.041398999999998
#
# number of rings (size 3 to 8) (size 9 to 14) (size 15 to 20)
#    0.000    2.375    0.000    4.500    1.750    7.250 
#    0.000    0.000    0.000    0.000    0.000    0.875 
#    0.000    7.000    0.000    0.000    0.000    0.000 
#
# Total GULP energy -396702.516045 kJ/mol
# GULP energy per Si atom -12396.953626 kJ/mol
# Density = 1.800034 g / cm^3
# Si number density = 18.041399 Si / 1000 Ang^3
#
#
#
# Elastic Constant Matrix: (Units=GPa)
#
#
# Indices 1 2 3 4 5 6 
#
# 1 66.5578 37.1408 7.0436 0.0000 -12.6648 0.0000
# 2 37.1408 109.7654 22.4888 0.0000 -10.6359 0.0000
# 3 7.0436 22.4888 45.3266 0.0000 -11.5059 0.0000
# 4 0.0000 0.0000 0.0000 29.5423 0.0000 -1.8452
# 5 -12.6648 -10.6359 -11.5059 0.0000 21.7787 0.0000
# 6 0.0000 0.0000 0.0000 -1.8452 0.0000 28.4597
#
#
#
# Elastic Compliance Matrix: (Units=1/GPa)
#
#
# Indices 1 2 3 4 5 6 
#
# 1 0.020227 -0.006402 0.002570 0.000000 0.009994 0.000000
# 2 -0.006402 0.012302 -0.005230 0.000000 -0.000478 0.000000
# 3 0.002570 -0.005230 0.027704 0.000000 0.013577 0.000000
# 4 0.000000 0.000000 0.000000 0.033987 0.000000 0.002204
# 5 0.009994 -0.000478 0.013577 0.000000 0.058667 0.000000
# 6 0.000000 0.000000 0.000000 0.002204 0.000000 0.035280
#
#
# Mechanical properties :
#
#
# Convention : Reuss Voigt Hill
#
# Bulk Modulus (GPa) = 23.74844 39.44402 31.59623
# Shear Modulus (GPa) = 22.69348 26.28793 24.49070
#
# Velocity S-wave (km/s) = 3.55047 3.82132 3.68839
# Velocity P-wave (km/s) = 5.47720 6.43277 5.97412
#
# Compressibility (1/GPa) = 0.04210803
#
# Stress axis : x y z
#
# Youngs Moduli (GPa) = 49.43948 81.28879 36.09588
#
# Poissons Ratio (x) = 0.52043 -0.09277
# Poissons Ratio (y) = 0.31652 0.18878
# Poissons Ratio (z) = -0.12706 0.42515
#
# Static dielectric constant tensor:
#      x y z
#    x 3.126490 0.000000 -0.159590 
#    y 0.000000 3.408110 0.000000 
#    z -0.159590 0.000000 3.533820 
# 
# 
# High freq. dielectric constant tensor:
#      x y z
#    x 1.670870 0.000000 -0.022030 
#    y 0.000000 1.711430 0.000000 
#    z -0.022030 0.000000 1.678030 
# 
# From -- ./inp_files/243753.got.cif
#   From: 2010.06.25/outbox.cif.g09.slc.cpg/sg12_122_cif.got.tgz:243753.got - 2010.06.28 00:19:55.
