data_PCOD8095992
_publ_section_title
;
Structure prediction by ZEFSAII (Michael W. Deem and Ramdas Pophale) SiO2 
 PCOD8095992
Probable space group: C 2/M
;
_chemical_formula_sum "Si O2"
_cell_formula_units_Z 48
_cell_length_a 24.396847
_cell_length_b 8.842524
_cell_length_c 17.971552
_cell_angle_alpha 90.000000
_cell_angle_beta 136.193237
_cell_angle_gamma 90.000000
_cell_volume 2683.767712
_symmetry_space_group_name_H-M "C 2/M"
_symmetry_group_IT_number 12
_symmetry_cell_setting 'monoclinic'
loop_
_space_group_symop_operation_xyz
x,y,z
-x,y,-z
-x,-y,-z
x,-y,z
1/2+x,1/2+y,z
1/2-x,1/2+y,-z
1/2-x,1/2-y,-z
1/2+x,1/2-y,z
loop_
_atom_site_type_symbol
_atom_site_label
_atom_site_fract_x
_atom_site_fract_y
_atom_site_fract_z
Si Si1 0.832913 0.324638 0.264460
Si Si2 0.928217 0.666301 0.873033
Si Si3 0.530263 0.323153 0.860944
Si Si4 0.016465 0.675165 0.690283
Si Si5 0.423883 0.669919 0.477230
Si Si6 0.829769 0.679109 0.911470
O O1 0.821133 0.500000 0.269739
O O2 0.901609 0.296646 0.272134
O O3 0.851627 0.243285 0.361024
O O4 0.753695 0.255308 0.151716
O O5 0.910885 0.500000 0.821646
O O6 0.854107 0.723457 0.850253
O O7 0.950572 0.781205 0.829019
O O8 0.000000 0.652016 0.000000
O O9 0.545515 0.500000 0.882336
O O10 0.516724 0.277105 0.763240
O O11 0.606584 0.236783 0.966723
O O12 0.004871 0.500000 0.699408
O O13 0.942489 0.729242 0.567767
O O14 0.500000 0.667688 0.500000
O O15 0.400388 0.500000 0.478365
O O16 0.823438 0.500000 0.914481
#
# Coordination Sequence:
#
# PCOD8095992 Si02
#       6
#     8   8   8   8   8   8
#     4  10  20  33  51  75 101 131 166 203 244 290
#     4   8  16  32  51  70  94 127 165 201 241 290
#     4  11  21  32  50  75 101 130 165 205 247 292
#     4  10  20  34  51  72 101 134 166 202 244 291
#     4   9  17  31  51  73  97 127 165 205 242 286
#     4  10  20  34  52  73 100 133 165 201 246 294
#
# _framework density 17.885303
#
# number of rings (size 3 to 8) (size 9 to 14) (size 15 to 20)
#    0.000    2.333    0.000    4.500    0.000    8.333 
#    0.000    0.000    0.000    1.000    0.000    0.000 
#    0.000    0.000    0.000    0.000    0.000    0.000 
#
# Total GULP energy -297576.730945 kJ/mol
# GULP energy per Si atom -12399.030456 kJ/mol
# Density = 1.784460 g / cm^3
# Si number density = 17.885303 Si / 1000 Ang^3
#
#
#
# Elastic Constant Matrix: (Units=GPa)
#
#
# Indices 1 2 3 4 5 6 
#
# 1 40.7325 26.2837 15.6536 0.0000 -15.1639 0.0000
# 2 26.2837 85.0466 9.4175 0.0000 -10.9784 0.0000
# 3 15.6536 9.4175 50.3323 0.0000 -19.1042 0.0000
# 4 0.0000 0.0000 0.0000 34.1325 0.0000 -2.3280
# 5 -15.1639 -10.9784 -19.1042 0.0000 12.0021 0.0000
# 6 0.0000 0.0000 0.0000 -2.3280 0.0000 24.2943
#
#
#
# Elastic Compliance Matrix: (Units=1/GPa)
#
#
# Indices 1 2 3 4 5 6 
#
# 1 0.059393 -0.007436 0.022283 0.000000 0.103707 0.000000
# 2 -0.007436 0.014869 0.002847 0.000000 0.008738 0.000000
# 3 0.022283 0.002847 0.060832 0.000000 0.127587 0.000000
# 4 0.000000 0.000000 0.000000 0.029490 0.000000 0.002826
# 5 0.103707 0.008738 0.127587 0.000000 0.425424 0.000000
# 6 0.000000 0.000000 0.000000 0.002826 0.000000 0.041433
#
#
# Mechanical properties :
#
#
# Convention : Reuss Voigt Hill
#
# Bulk Modulus (GPa) = 5.86570 30.98011 18.42291
# Shear Modulus (GPa) = 7.65837 22.40289 15.03063
#
# Velocity S-wave (km/s) = 2.07153 3.54303 2.90209
# Velocity P-wave (km/s) = 3.00140 5.83923 4.64246
#
# Compressibility (1/GPa) = 0.17048261
#
# Stress axis : x y z
#
# Youngs Moduli (GPa) = 16.83695 67.25416 16.43867
#
# Poissons Ratio (x) = 0.50009 -0.36630
# Poissons Ratio (y) = 0.12520 -0.04680
# Poissons Ratio (z) = -0.37517 -0.19148
#
# Static dielectric constant tensor:
#      x y z
#    x 3.430510 0.000000 0.020600 
#    y 0.000000 3.425650 0.000000 
#    z 0.020600 0.000000 3.181220 
# 
# 
# High freq. dielectric constant tensor:
#      x y z
#    x 1.671590 0.000000 -0.006260 
#    y 0.000000 1.706450 0.000000 
#    z -0.006260 0.000000 1.675230 
# 
# From -- ./inp_files/280773.got.cif
#   From: 2010.06.25/outbox.cif.g09.slc.cpg/sg12_141_cif.got.tgz:280773.got - 2010.06.28 00:19:55.
