data_PCOD8095830
_publ_section_title
;
Structure prediction by ZEFSAII (Michael W. Deem and Ramdas Pophale) SiO2 
 PCOD8095830
Probable space group: C 2/M
;
_chemical_formula_sum "Si O2"
_cell_formula_units_Z 64
_cell_length_a 20.340345
_cell_length_b 8.984502
_cell_length_c 23.526506
_cell_angle_alpha 90.000000
_cell_angle_beta 122.730891
_cell_angle_gamma 90.000000
_cell_volume 3616.754514
_symmetry_space_group_name_H-M "C 2/M"
_symmetry_group_IT_number 12
_symmetry_cell_setting 'monoclinic'
loop_
_space_group_symop_operation_xyz
x,y,z
-x,y,-z
-x,-y,-z
x,-y,z
1/2+x,1/2+y,z
1/2-x,1/2+y,-z
1/2-x,1/2-y,-z
1/2+x,1/2-y,z
loop_
_atom_site_type_symbol
_atom_site_label
_atom_site_fract_x
_atom_site_fract_y
_atom_site_fract_z
Si Si1 0.666442 0.824449 0.955958
Si Si2 0.279481 0.170352 0.827406
Si Si3 0.086284 0.322540 0.033598
Si Si4 0.368476 0.674618 0.566024
Si Si5 0.373805 0.329259 0.173688
Si Si6 0.959163 0.823436 0.324105
Si Si7 0.690134 0.677576 0.678013
Si Si8 0.723050 0.825890 0.574283
O O1 0.618009 0.770446 0.878437
O O2 0.678022 0.000000 0.958703
O O3 0.750000 0.750000 0.000000
O O4 0.616757 0.772439 0.986712
O O5 0.358241 0.243955 0.890095
O O6 0.214327 0.184350 0.845386
O O7 0.250111 0.240509 0.754150
O O8 0.296383 0.000000 0.821609
O O9 0.086293 0.500000 0.038190
O O10 0.000000 0.255438 0.000000
O O11 0.370266 0.500000 0.552992
O O12 0.454208 0.736544 0.622090
O O13 0.342659 0.759459 0.497497
O O14 0.309267 0.709403 0.589995
O O15 0.393608 0.500000 0.167873
O O16 0.432397 0.265499 0.249490
O O17 0.897646 0.773317 0.344180
O O18 0.958198 0.000000 0.320748
O O19 0.694474 0.500000 0.674228
O O20 0.714995 0.751603 0.631364
O O21 0.708361 0.000000 0.573041
#
# Coordination Sequence:
#
# PCOD8095830 Si02
#       8
#     8   8   8   8   8   8   8   8
#     4  11  20  31  51  76  98 128 168 206 247 291
#     4   8  14  28  49  70  93 127 164 197 236 285
#     4   9  17  30  48  70  98 129 164 205 244 284
#     4   9  18  35  55  72  95 131 171 201 232 287
#     4   9  16  31  53  75  98 125 162 206 249 289
#     4   8  16  32  55  76  94 126 169 207 238 279
#     4   9  17  31  53  75  94 124 169 206 236 285
#     4  10  20  33  50  73 103 133 159 195 248 295
#
# _framework density 17.695422000000001
#
# number of rings (size 3 to 8) (size 9 to 14) (size 15 to 20)
#    0.000    2.875    1.250    2.250    0.000    1.000 
#    2.250    6.250    0.000    1.500    0.000    0.000 
#    0.000    0.000    0.000    0.000    0.000    0.000 
#
# Total GULP energy -396632.337325 kJ/mol
# GULP energy per Si atom -12394.760541 kJ/mol
# Density = 1.765515 g / cm^3
# Si number density = 17.695422 Si / 1000 Ang^3
#
#
#
# Elastic Constant Matrix: (Units=GPa)
#
#
# Indices 1 2 3 4 5 6 
#
# 1 119.7576 32.7488 93.6932 0.0000 3.8153 0.0000
# 2 32.7488 41.5913 40.3349 0.0000 -5.7741 0.0000
# 3 93.6932 40.3349 160.6641 0.0000 -1.6836 0.0000
# 4 0.0000 0.0000 0.0000 27.4606 0.0000 -6.6525
# 5 3.8153 -5.7741 -1.6836 0.0000 35.5140 0.0000
# 6 0.0000 0.0000 0.0000 -6.6525 0.0000 19.8897
#
#
#
# Elastic Compliance Matrix: (Units=1/GPa)
#
#
# Indices 1 2 3 4 5 6 
#
# 1 0.016329 -0.005300 -0.008223 0.000000 -0.003006 0.000000
# 2 -0.005300 0.034337 -0.005468 0.000000 0.005893 0.000000
# 3 -0.008223 -0.005468 0.012399 0.000000 0.000582 0.000000
# 4 0.000000 0.000000 0.000000 0.039627 0.000000 0.013254
# 5 -0.003006 0.005893 0.000582 0.000000 0.029466 0.000000
# 6 0.000000 0.000000 0.000000 0.013254 0.000000 0.054710
#
#
# Mechanical properties :
#
#
# Convention : Reuss Voigt Hill
#
# Bulk Modulus (GPa) = 39.86827 72.84076 56.35451
# Shear Modulus (GPa) = 21.43978 26.92194 24.18086
#
# Velocity S-wave (km/s) = 3.48458 3.90475 3.70064
# Velocity P-wave (km/s) = 6.22647 7.84745 7.08348
#
# Compressibility (1/GPa) = 0.02508260
#
# Stress axis : x y z
#
# Youngs Moduli (GPa) = 61.24155 29.12274 80.65417
#
# Poissons Ratio (x) = 0.15434 0.66325
# Poissons Ratio (y) = 0.32455 0.44103
# Poissons Ratio (z) = 0.50361 0.15925
#
# Static dielectric constant tensor:
#      x y z
#    x 3.381080 0.000000 0.153110 
#    y 0.000000 2.928040 0.000000 
#    z 0.153110 0.000000 3.608780 
# 
# 
# High freq. dielectric constant tensor:
#      x y z
#    x 1.675270 0.000000 0.001560 
#    y 0.000000 1.645300 0.000000 
#    z 0.001560 0.000000 1.699530 
# 
# From -- ./inp_files/320159.got.cif
#   From: 2010.06.25/outbox.cif.g09.slc.cpg/sg12_161_cif.got.tgz:320159.got - 2010.06.28 00:19:55.
