data_PCOD8095460
_publ_section_title
;
Structure prediction by ZEFSAII (Michael W. Deem and Ramdas Pophale) SiO2 
 PCOD8095460
Probable space group: C 2/M
;
_chemical_formula_sum "Si O2"
_cell_formula_units_Z 48
_cell_length_a 11.494297
_cell_length_b 17.567648
_cell_length_c 11.547430
_cell_angle_alpha 90.000000
_cell_angle_beta 94.918647
_cell_angle_gamma 90.000000
_cell_volume 2323.159929
_symmetry_space_group_name_H-M "C 2/M"
_symmetry_group_IT_number 12
_symmetry_cell_setting 'monoclinic'
loop_
_space_group_symop_operation_xyz
x,y,z
-x,y,-z
-x,-y,-z
x,-y,z
1/2+x,1/2+y,z
1/2-x,1/2+y,-z
1/2-x,1/2-y,-z
1/2+x,1/2-y,z
loop_
_atom_site_type_symbol
_atom_site_label
_atom_site_fract_x
_atom_site_fract_y
_atom_site_fract_z
Si Si1 0.083737 0.809064 0.289052
Si Si2 0.690080 0.586753 0.483293
Si Si3 0.870137 0.415396 0.821912
Si Si4 0.393726 0.417390 0.281463
Si Si5 0.371765 0.764313 0.941226
Si Si6 0.580517 0.847041 0.403906
O O1 0.150248 0.878095 0.358009
O O2 0.152641 0.776700 0.184033
O O3 0.058846 0.742094 0.377932
O O4 0.963812 0.846996 0.232049
O O5 0.733056 0.500000 0.464970
O O6 0.593228 0.587067 0.577185
O O7 0.789558 0.641148 0.541384
O O8 0.903667 0.500000 0.868635
O O9 0.737639 0.410861 0.770482
O O10 0.888080 0.355183 0.926378
O O11 0.948031 0.394165 0.715880
O O12 0.444079 0.500000 0.246294
O O13 0.500000 0.735823 0.000000
O O14 0.250000 0.750000 0.000000
O O15 0.500000 0.876865 0.500000
#
# Coordination Sequence:
#
# PCOD8095460 Si02
#       6
#     8   8   8   8   8   8
#     4  11  21  34  57  82 110 147 191 235 289 350
#     4  10  20  33  52  82 118 150 180 221 280 354
#     4   9  20  38  60  84 113 153 192 231 288 352
#     4   9  17  33  57  87 122 150 177 224 288 357
#     4  11  25  44  63  84 113 151 201 259 302 334
#     4  10  20  32  51  81 117 150 181 222 275 344
#
# _framework density 20.661511999999998
#
# number of rings (size 3 to 8) (size 9 to 14) (size 15 to 20)
#    0.000    2.000    0.000    5.000    0.000    8.333 
#    0.000    1.667    0.000    4.500    0.000    0.000 
#    0.000    0.000    0.000    0.000    0.000    0.000 
#
# Total GULP energy -297362.648223 kJ/mol
# GULP energy per Si atom -12390.110343 kJ/mol
# Density = 2.061449 g / cm^3
# Si number density = 20.661512 Si / 1000 Ang^3
#
#
#
# Elastic Constant Matrix: (Units=GPa)
#
#
# Indices 1 2 3 4 5 6 
#
# 1 64.0144 32.7887 20.8964 0.0000 -18.1532 0.0000
# 2 32.7887 136.1772 27.2847 0.0000 -10.5858 0.0000
# 3 20.8964 27.2847 66.7087 0.0000 -14.6446 0.0000
# 4 0.0000 0.0000 0.0000 27.8159 0.0000 5.2735
# 5 -18.1532 -10.5858 -14.6446 0.0000 31.9883 0.0000
# 6 0.0000 0.0000 0.0000 5.2735 0.0000 28.8508
#
#
#
# Elastic Compliance Matrix: (Units=1/GPa)
#
#
# Indices 1 2 3 4 5 6 
#
# 1 0.021208 -0.003767 -0.003040 0.000000 0.009397 0.000000
# 2 -0.003767 0.008715 -0.002469 0.000000 -0.000384 0.000000
# 3 -0.003040 -0.002469 0.018226 0.000000 0.005802 0.000000
# 4 0.000000 0.000000 0.000000 0.037241 0.000000 -0.006807
# 5 0.009397 -0.000384 0.005802 0.000000 0.039124 0.000000
# 6 0.000000 0.000000 0.000000 -0.006807 0.000000 0.035905
#
#
# Mechanical properties :
#
#
# Convention : Reuss Voigt Hill
#
# Bulk Modulus (GPa) = 33.78550 47.64888 40.71719
# Shear Modulus (GPa) = 26.47786 30.12637 28.30212
#
# Velocity S-wave (km/s) = 3.58370 3.82264 3.70509
# Velocity P-wave (km/s) = 5.78889 6.52650 6.16873
#
# Compressibility (1/GPa) = 0.02959850
#
# Stress axis : x y z
#
# Youngs Moduli (GPa) = 47.15178 114.74185 54.86577
#
# Poissons Ratio (x) = 0.43223 0.16677
# Poissons Ratio (y) = 0.17762 0.13546
# Poissons Ratio (z) = 0.14333 0.28329
#
# Static dielectric constant tensor:
#      x y z
#    x 3.653470 0.000000 -0.065710 
#    y 0.000000 3.949670 0.000000 
#    z -0.065710 0.000000 3.701900 
# 
# 
# High freq. dielectric constant tensor:
#      x y z
#    x 1.790090 0.000000 0.007910 
#    y 0.000000 1.821080 0.000000 
#    z 0.007910 0.000000 1.791330 
# 
# From -- ./inp_files/131247.got.cif
#   From: 2010.06.25/outbox.cif.g09.slc.cpg/sg12_66_cif.got.tgz:131247.got - 2010.06.28 00:19:55.
