data_PCOD8095788
_publ_section_title
;
Structure prediction by ZEFSAII (Michael W. Deem and Ramdas Pophale) SiO2 
 PCOD8095788
Probable space group: C 2/M
;
_chemical_formula_sum "Si O2"
_cell_formula_units_Z 64
_cell_length_a 19.550227
_cell_length_b 9.207866
_cell_length_c 20.726816
_cell_angle_alpha 90.000000
_cell_angle_beta 88.747973
_cell_angle_gamma 90.000000
_cell_volume 3730.265029
_symmetry_space_group_name_H-M "C 2/M"
_symmetry_group_IT_number 12
_symmetry_cell_setting 'monoclinic'
loop_
_space_group_symop_operation_xyz
x,y,z
-x,y,-z
-x,-y,-z
x,-y,z
1/2+x,1/2+y,z
1/2-x,1/2+y,-z
1/2-x,1/2-y,-z
1/2+x,1/2-y,z
loop_
_atom_site_type_symbol
_atom_site_label
_atom_site_fract_x
_atom_site_fract_y
_atom_site_fract_z
Si Si1 0.297808 0.827207 0.448516
Si Si2 0.043069 0.837381 0.817948
Si Si3 0.197487 0.825271 0.953561
Si Si4 0.204193 0.340272 0.693474
Si Si5 0.794798 0.841369 0.189154
Si Si6 0.458690 0.162261 0.302832
Si Si7 0.943364 0.668484 0.055736
Si Si8 0.451954 0.173016 0.444845
O O1 0.250000 0.750000 0.500000
O O2 0.275277 0.776383 0.376983
O O3 0.375041 0.773709 0.460153
O O4 0.292085 0.000000 0.455104
O O5 0.123843 0.846757 0.807754
O O6 0.011010 0.765590 0.753881
O O7 0.025168 0.737977 0.879875
O O8 0.012800 0.000000 0.827580
O O9 0.224281 0.782470 0.881418
O O10 0.122709 0.757765 0.966660
O O11 0.193916 0.000000 0.962513
O O12 0.250000 0.750000 0.000000
O O13 0.235202 0.500000 0.699684
O O14 0.236961 0.252020 0.752140
O O15 0.122804 0.345314 0.700113
O O16 0.763026 0.000000 0.198923
O O17 0.478160 0.225106 0.373481
O O18 0.488704 0.000000 0.292513
O O19 0.923904 0.500000 0.068992
O O20 0.000000 0.682138 0.000000
O O21 0.500000 0.238331 0.500000
O O22 0.453419 0.000000 0.444573
#
# Coordination Sequence:
#
# PCOD8095788 Si02
#       8
#     8   8   8   8   8   8   8   8
#     4   9  17  28  43  65  90 116 147 182 222 267
#     4   9  16  26  42  65  92 119 149 188 231 275
#     4  10  20  33  50  73 100 128 158 193 234 281
#     4   8  14  24  39  60  84 110 143 183 224 265
#     4   8  15  26  41  64  89 113 146 187 226 263
#     4   8  13  23  41  63  85 110 144 188 230 265
#     4  10  20  33  50  72  97 125 158 196 236 280
#     4   8  14  26  45  67  89 115 150 188 223 265
#
# _framework density 17.156959000000001
#
# number of rings (size 3 to 8) (size 9 to 14) (size 15 to 20)
#    0.000    3.250    0.000    3.375    0.000    5.000 
#    0.000    1.875    0.000    3.000    0.000    7.000 
#    0.000    0.000    0.000    0.000    0.000    0.000 
#
# Total GULP energy -396517.020285 kJ/mol
# GULP energy per Si atom -12391.156884 kJ/mol
# Density = 1.711791 g / cm^3
# Si number density = 17.156959 Si / 1000 Ang^3
#
#
#
# Elastic Constant Matrix: (Units=GPa)
#
#
# Indices 1 2 3 4 5 6 
#
# 1 43.5502 31.6151 53.3151 0.0000 8.7816 0.0000
# 2 31.6151 92.0742 72.4337 0.0000 3.6296 0.0000
# 3 53.3151 72.4337 168.4627 0.0000 15.3289 0.0000
# 4 0.0000 0.0000 0.0000 31.4232 0.0000 -1.9322
# 5 8.7816 3.6296 15.3289 0.0000 25.2883 0.0000
# 6 0.0000 0.0000 0.0000 -1.9322 0.0000 15.8074
#
#
#
# Elastic Compliance Matrix: (Units=1/GPa)
#
#
# Indices 1 2 3 4 5 6 
#
# 1 0.040585 -0.006151 -0.009523 0.000000 -0.007438 0.000000
# 2 -0.006151 0.017444 -0.005843 0.000000 0.003174 0.000000
# 3 -0.009523 -0.005843 0.011732 0.000000 -0.002966 0.000000
# 4 0.000000 0.000000 0.000000 0.032065 0.000000 0.003919
# 5 -0.007438 0.003174 -0.002966 0.000000 0.043469 0.000000
# 6 0.000000 0.000000 0.000000 0.003919 0.000000 0.063741
#
#
# Mechanical properties :
#
#
# Convention : Reuss Voigt Hill
#
# Bulk Modulus (GPa) = 37.41332 68.75723 53.08527
# Shear Modulus (GPa) = 19.15874 24.28532 21.72203
#
# Velocity S-wave (km/s) = 3.34529 3.76637 3.56206
# Velocity P-wave (km/s) = 6.06425 7.68612 6.92285
#
# Compressibility (1/GPa) = 0.02672845
#
# Stress axis : x y z
#
# Youngs Moduli (GPa) = 24.63956 57.32661 85.23818
#
# Poissons Ratio (x) = 0.35260 0.81172
# Poissons Ratio (y) = 0.15155 0.49801
# Poissons Ratio (z) = 0.23464 0.33493
#
# Static dielectric constant tensor:
#      x y z
#    x 2.748690 0.000000 0.205290 
#    y 0.000000 3.354890 0.000000 
#    z 0.205290 0.000000 3.570180 
# 
# 
# High freq. dielectric constant tensor:
#      x y z
#    x 1.598990 0.000000 0.010370 
#    y 0.000000 1.655800 0.000000 
#    z 0.010370 0.000000 1.681020 
# 
# From -- ./inp_files/319134.got.cif
#   From: 2010.06.25/outbox.cif.g09.slc.cpg/sg12_160_cif.got.tgz:319134.got - 2010.06.28 00:19:55.
