data_PCOD8095204
_publ_section_title
;
Structure prediction by ZEFSAII (Michael W. Deem and Ramdas Pophale) SiO2 
 PCOD8095204
Probable space group: C 2/M
;
_chemical_formula_sum "Si O2"
_cell_formula_units_Z 56
_cell_length_a 26.341027
_cell_length_b 14.234951
_cell_length_c 10.856095
_cell_angle_alpha 90.000000
_cell_angle_beta 54.631314
_cell_angle_gamma 90.000000
_cell_volume 3319.377153
_symmetry_space_group_name_H-M "C 2/M"
_symmetry_group_IT_number 12
_symmetry_cell_setting 'monoclinic'
loop_
_space_group_symop_operation_xyz
x,y,z
-x,y,-z
-x,-y,-z
x,-y,z
1/2+x,1/2+y,z
1/2-x,1/2+y,-z
1/2-x,1/2-y,-z
1/2+x,1/2-y,z
loop_
_atom_site_type_symbol
_atom_site_label
_atom_site_fract_x
_atom_site_fract_y
_atom_site_fract_z
Si Si1 0.005025 0.392107 0.636086
Si Si2 0.135829 0.393250 0.569579
Si Si3 0.836481 0.721024 0.230131
Si Si4 0.894904 0.721114 0.902261
Si Si5 0.281405 0.109010 0.105788
Si Si6 0.733397 0.605634 0.727038
Si Si7 0.825200 0.893145 0.930040
O O1 0.987145 0.500000 0.690745
O O2 0.074808 0.368501 0.578171
O O3 0.000000 0.370466 0.500000
O O4 0.960077 0.322346 0.772173
O O5 0.133624 0.500000 0.622434
O O6 0.138955 0.323997 0.680281
O O7 0.193559 0.378257 0.397083
O O8 0.782778 0.656770 0.239829
O O9 0.806413 0.822888 0.301510
O O10 0.894153 0.732209 0.052878
O O11 0.884071 0.822804 0.852811
O O12 0.837128 0.653463 0.944481
O O13 0.215111 0.127383 0.135172
O O14 0.295438 0.000000 0.100580
O O15 0.713684 0.500000 0.717641
O O16 0.719533 0.625949 0.889896
O O17 0.850304 0.000000 0.894672
#
# Coordination Sequence:
#
# PCOD8095204 Si02
#       7
#     8   8   8   8   8   8   8
#     4  10  22  35  49  71  97 128 161 195 237 286
#     4  10  20  32  47  70 100 130 158 191 239 290
#     4   9  19  30  49  70  97 129 159 194 237 287
#     4   9  19  31  49  69  96 131 160 197 235 279
#     4   9  17  27  45  72  99 123 152 194 241 283
#     4   9  18  31  49  73 100 127 157 199 239 280
#     4   9  17  30  50  75  97 123 160 202 242 277
#
# _framework density 16.870635
#
# number of rings (size 3 to 8) (size 9 to 14) (size 15 to 20)
#    0.857    1.857    0.000    1.714    2.000    0.571 
#    0.000    1.429    0.000    1.286    0.000    4.000 
#    0.000    0.000    0.000    0.000    0.000    0.000 
#
# Total GULP energy -347034.140527 kJ/mol
# GULP energy per Si atom -12394.076447 kJ/mol
# Density = 1.683224 g / cm^3
# Si number density = 16.870635 Si / 1000 Ang^3
#
#
#
# Elastic Constant Matrix: (Units=GPa)
#
#
# Indices 1 2 3 4 5 6 
#
# 1 99.6311 55.6882 39.6697 0.0000 5.1349 0.0000
# 2 55.6882 107.2520 44.5934 0.0000 -6.8793 0.0000
# 3 39.6697 44.5934 71.7631 0.0000 -14.1932 0.0000
# 4 0.0000 0.0000 0.0000 22.2964 0.0000 -2.2415
# 5 5.1349 -6.8793 -14.1932 0.0000 21.2415 0.0000
# 6 0.0000 0.0000 0.0000 -2.2415 0.0000 26.2043
#
#
#
# Elastic Compliance Matrix: (Units=1/GPa)
#
#
# Indices 1 2 3 4 5 6 
#
# 1 0.017402 -0.006508 -0.007863 0.000000 -0.011569 0.000000
# 2 -0.006508 0.015038 -0.005154 0.000000 0.003000 0.000000
# 3 -0.007863 -0.005154 0.024809 0.000000 0.016808 0.000000
# 4 0.000000 0.000000 0.000000 0.045239 0.000000 0.003870
# 5 -0.011569 0.003000 0.016808 0.000000 0.062077 0.000000
# 6 0.000000 0.000000 0.000000 0.003870 0.000000 0.038493
#
#
# Mechanical properties :
#
#
# Convention : Reuss Voigt Hill
#
# Bulk Modulus (GPa) = 54.95157 62.06098 58.50628
# Shear Modulus (GPa) = 20.14714 23.19478 21.67096
#
# Velocity S-wave (km/s) = 3.45949 3.71193 3.58793
# Velocity P-wave (km/s) = 6.97140 7.43220 7.20548
#
# Compressibility (1/GPa) = 0.01819784
#
# Stress axis : x y z
#
# Youngs Moduli (GPa) = 57.46504 66.49687 40.30873
#
# Poissons Ratio (x) = 0.43277 0.31697
# Poissons Ratio (y) = 0.37399 0.20775
# Poissons Ratio (z) = 0.45188 0.34272
#
# Static dielectric constant tensor:
#      x y z
#    x 2.897900 0.000000 0.054980 
#    y 0.000000 3.358600 0.000000 
#    z 0.054980 0.000000 2.896750 
# 
# 
# High freq. dielectric constant tensor:
#      x y z
#    x 1.629910 0.000000 0.009620 
#    y 0.000000 1.659960 0.000000 
#    z 0.009620 0.000000 1.624080 
# 
# From -- ./inp_files/183453.got.cif
#   From: 2010.06.25/outbox.cif.g09.slc.cpg/sg12_92_cif.got.tgz:183453.got - 2010.06.28 00:19:55.
