data_PCOD8095909
_publ_section_title
;
Structure prediction by ZEFSAII (Michael W. Deem and Ramdas Pophale) SiO2 
 PCOD8095909
Probable space group: C 2/M
;
_chemical_formula_sum "Si O2"
_cell_formula_units_Z 64
_cell_length_a 18.440571
_cell_length_b 10.387349
_cell_length_c 24.126141
_cell_angle_alpha 90.000000
_cell_angle_beta 45.495419
_cell_angle_gamma 90.000000
_cell_volume 3295.906465
_symmetry_space_group_name_H-M "C 2/M"
_symmetry_group_IT_number 12
_symmetry_cell_setting 'monoclinic'
loop_
_space_group_symop_operation_xyz
x,y,z
-x,y,-z
-x,-y,-z
x,-y,z
1/2+x,1/2+y,z
1/2-x,1/2+y,-z
1/2-x,1/2-y,-z
1/2+x,1/2-y,z
loop_
_atom_site_type_symbol
_atom_site_label
_atom_site_fract_x
_atom_site_fract_y
_atom_site_fract_z
Si Si1 0.343067 0.642972 0.540342
Si Si2 0.619234 0.853245 0.657054
Si Si3 0.880045 0.648599 0.219539
Si Si4 0.513153 0.272882 0.363932
Si Si5 0.777417 0.142968 0.782062
Si Si6 0.391567 0.853652 0.916709
Si Si7 0.398172 0.863184 0.588190
Si Si8 0.222077 0.849686 0.094769
O O1 0.355659 0.500000 0.559364
O O2 0.232966 0.654835 0.569979
O O3 0.432665 0.661910 0.448423
O O4 0.339412 0.741610 0.593928
O O5 0.619583 0.791791 0.718648
O O6 0.543058 0.772132 0.660808
O O7 0.579907 0.000000 0.678865
O O8 0.850730 0.500000 0.243488
O O9 0.793793 0.714716 0.226025
O O10 0.990068 0.667784 0.132592
O O11 0.603792 0.367587 0.297939
O O12 0.570886 0.156824 0.364351
O O13 0.765159 0.204543 0.849623
O O14 0.732827 0.000000 0.810867
O O15 0.359260 0.745264 0.889938
O O16 0.374498 0.000000 0.902436
O O17 0.330186 0.835389 0.006494
O O18 0.500000 0.878612 0.500000
O O19 0.337333 0.000000 0.616314
O O20 0.184715 0.000000 0.113141
#
# Coordination Sequence:
#
# PCOD8095909 Si02
#       8
#     8   8   8   8   8   8   8   8
#     4  10  21  36  55  77 101 133 173 214 258 309
#     4  10  20  34  51  73 100 132 172 217 262 305
#     4   9  18  32  51  74 102 136 173 213 255 302
#     4  11  20  32  52  74 102 137 173 211 255 309
#     4  10  20  33  50  76 108 138 171 213 258 301
#     4   9  17  32  55  80 105 136 173 209 251 305
#     4   9  19  34  52  74 100 131 166 207 256 305
#     4   9  18  32  53  81 109 136 168 210 257 303
#
# _framework density 19.418026000000001
#
# number of rings (size 3 to 8) (size 9 to 14) (size 15 to 20)
#    0.000    2.375    0.000    2.625    0.000    4.750 
#    0.000    4.375    0.000    6.000    0.000    3.500 
#    0.000    0.000    0.000    0.000    0.000    0.000 
#
# Total GULP energy -396486.371728 kJ/mol
# GULP energy per Si atom -12390.199117 kJ/mol
# Density = 1.937383 g / cm^3
# Si number density = 19.418026 Si / 1000 Ang^3
#
#
#
# Elastic Constant Matrix: (Units=GPa)
#
#
# Indices 1 2 3 4 5 6 
#
# 1 146.9886 49.7067 58.9844 0.0000 8.5862 0.0000
# 2 49.7067 89.3324 18.6196 0.0000 4.9327 0.0000
# 3 58.9844 18.6196 94.0247 0.0000 3.0217 0.0000
# 4 0.0000 0.0000 0.0000 22.1004 0.0000 -1.1803
# 5 8.5862 4.9327 3.0217 0.0000 37.1599 0.0000
# 6 0.0000 0.0000 0.0000 -1.1803 0.0000 22.9806
#
#
#
# Elastic Compliance Matrix: (Units=1/GPa)
#
#
# Indices 1 2 3 4 5 6 
#
# 1 0.010812 -0.004730 -0.005801 0.000000 -0.001399 0.000000
# 2 -0.004730 0.013815 0.000256 0.000000 -0.000762 0.000000
# 3 -0.005801 0.000256 0.014219 0.000000 0.000150 0.000000
# 4 0.000000 0.000000 0.000000 0.045373 0.000000 0.002330
# 5 -0.001399 -0.000762 0.000150 0.000000 0.027323 0.000000
# 6 0.000000 0.000000 0.000000 0.002330 0.000000 0.043635
#
#
# Mechanical properties :
#
#
# Convention : Reuss Voigt Hill
#
# Bulk Modulus (GPa) = 54.65699 64.99634 59.82666
# Shear Modulus (GPa) = 27.49888 29.98386 28.74137
#
# Velocity S-wave (km/s) = 3.76726 3.93380 3.85143
# Velocity P-wave (km/s) = 6.86525 7.36056 7.11722
#
# Compressibility (1/GPa) = 0.01829592
#
# Stress axis : x y z
#
# Youngs Moduli (GPa) = 92.48596 72.38680 70.32676
#
# Poissons Ratio (x) = 0.34238 0.40799
# Poissons Ratio (y) = 0.43745 -0.01800
# Poissons Ratio (z) = 0.53654 -0.01853
#
# Static dielectric constant tensor:
#      x y z
#    x 3.617390 0.000000 0.055450 
#    y 0.000000 3.706900 0.000000 
#    z 0.055450 0.000000 3.639040 
# 
# 
# High freq. dielectric constant tensor:
#      x y z
#    x 1.751000 0.000000 -0.000170 
#    y 0.000000 1.728850 0.000000 
#    z -0.000170 0.000000 1.759480 
# 
# From -- ./inp_files/343054.got.cif
#   From: 2010.06.25/outbox.cif.g09.slc.cpg/sg12_172_cif.got.tgz:343054.got - 2010.06.28 00:19:55.
