data_PCOD8095370
_publ_section_title
;
Structure prediction by ZEFSAII (Michael W. Deem and Ramdas Pophale) SiO2 
 PCOD8095370
Probable space group: C 2/M
;
_chemical_formula_sum "Si O2"
_cell_formula_units_Z 56
_cell_length_a 25.260657
_cell_length_b 9.195556
_cell_length_c 15.853438
_cell_angle_alpha 90.000000
_cell_angle_beta 125.521457
_cell_angle_gamma 90.000000
_cell_volume 2997.202390
_symmetry_space_group_name_H-M "C 2/M"
_symmetry_group_IT_number 12
_symmetry_cell_setting 'monoclinic'
loop_
_space_group_symop_operation_xyz
x,y,z
-x,y,-z
-x,-y,-z
x,-y,z
1/2+x,1/2+y,z
1/2-x,1/2+y,-z
1/2-x,1/2-y,-z
1/2+x,1/2-y,z
loop_
_atom_site_type_symbol
_atom_site_label
_atom_site_fract_x
_atom_site_fract_y
_atom_site_fract_z
Si Si1 0.648879 0.330963 0.895719
Si Si2 0.516283 0.169224 0.774624
Si Si3 0.757783 0.668046 0.133631
Si Si4 0.895758 0.833799 0.717257
Si Si5 0.725988 0.668700 0.293036
Si Si6 0.336990 0.331091 0.483370
Si Si7 0.957690 0.668054 0.539649
O O1 0.636287 0.500000 0.866495
O O2 0.581942 0.253143 0.857028
O O3 0.681085 0.261410 0.842085
O O4 0.695170 0.304432 0.018159
O O5 0.458526 0.230266 0.780329
O O6 0.499046 0.199149 0.661572
O O7 0.525616 0.000000 0.802936
O O8 0.778980 0.500000 0.151232
O O9 0.739381 0.720056 0.210229
O O10 0.850065 0.804354 0.755918
O O11 0.852664 0.798630 0.595088
O O12 0.920420 0.000000 0.737444
O O13 0.743396 0.500000 0.321633
O O14 0.768332 0.759947 0.397850
O O15 0.333338 0.500000 0.459604
O O16 0.392276 0.261158 0.475760
O O17 0.937664 0.500000 0.514185
O O18 0.000000 0.719233 0.500000
#
# Coordination Sequence:
#
# PCOD8095370 Si02
#       7
#     8   8   8   8   8   8   8
#     4  10  20  36  57  79 106 136 169 215 269 315
#     4  10  20  34  55  78 103 139 176 212 260 313
#     4   9  20  37  56  79 104 135 176 217 257 311
#     4   9  19  36  54  76 106 141 178 216 255 304
#     4  10  20  35  56  77 103 140 181 217 254 306
#     4  10  20  32  49  77 109 138 171 213 263 306
#     4   9  19  34  50  71 101 138 177 212 249 305
#
# _framework density 18.684089
#
# number of rings (size 3 to 8) (size 9 to 14) (size 15 to 20)
#    0.000    2.429    0.000    1.714    2.000    3.143 
#    0.000    0.714    0.000    4.286    0.000    0.000 
#    0.000    0.000    0.000    0.000    0.000    0.000 
#
# Total GULP energy -347300.249793 kJ/mol
# GULP energy per Si atom -12403.580350 kJ/mol
# Density = 1.864156 g / cm^3
# Si number density = 18.684089 Si / 1000 Ang^3
#
#
#
# Elastic Constant Matrix: (Units=GPa)
#
#
# Indices 1 2 3 4 5 6 
#
# 1 117.4572 56.2560 38.2620 0.0000 10.4302 0.0000
# 2 56.2560 93.7235 38.8874 0.0000 16.3514 0.0000
# 3 38.2620 38.8874 47.2150 0.0000 13.3084 0.0000
# 4 0.0000 0.0000 0.0000 28.6282 0.0000 8.7412
# 5 10.4302 16.3514 13.3084 0.0000 28.2595 0.0000
# 6 0.0000 0.0000 0.0000 8.7412 0.0000 33.7528
#
#
#
# Elastic Compliance Matrix: (Units=1/GPa)
#
#
# Indices 1 2 3 4 5 6 
#
# 1 0.013112 -0.005379 -0.006583 0.000000 0.001373 0.000000
# 2 -0.005379 0.018733 -0.009887 0.000000 -0.004198 0.000000
# 3 -0.006583 -0.009887 0.037313 0.000000 -0.009422 0.000000
# 4 0.000000 0.000000 0.000000 0.037930 0.000000 -0.009823
# 5 0.001373 -0.004198 -0.009422 0.000000 0.041746 0.000000
# 6 0.000000 0.000000 0.000000 -0.009823 0.000000 0.032171
#
#
# Mechanical properties :
#
#
# Convention : Reuss Voigt Hill
#
# Bulk Modulus (GPa) = 39.27507 58.35629 48.81568
# Shear Modulus (GPa) = 21.44193 26.46080 23.95136
#
# Velocity S-wave (km/s) = 3.39131 3.76735 3.58426
# Velocity P-wave (km/s) = 6.03331 7.08695 6.58125
#
# Compressibility (1/GPa) = 0.02546145
#
# Stress axis : x y z
#
# Youngs Moduli (GPa) = 76.26420 53.38282 26.80037
#
# Poissons Ratio (x) = 0.28712 0.17642
# Poissons Ratio (y) = 0.41019 0.26497
# Poissons Ratio (z) = 0.50204 0.52778
#
# Static dielectric constant tensor:
#      x y z
#    x 3.519560 0.000000 0.007600 
#    y 0.000000 3.459760 0.000000 
#    z 0.007600 0.000000 3.226240 
# 
# 
# High freq. dielectric constant tensor:
#      x y z
#    x 1.733260 0.000000 0.007700 
#    y 0.000000 1.727840 0.000000 
#    z 0.007700 0.000000 1.705750 
# 
# From -- ./inp_files/288384.got.cif
#   From: 2010.06.25/outbox.cif.g09.slc.cpg/sg12_145_cif.got.tgz:288384.got - 2010.06.28 00:19:55.
