data_PCOD8095732
_publ_section_title
;
Structure prediction by ZEFSAII (Michael W. Deem and Ramdas Pophale) SiO2 
 PCOD8095732
Probable space group: C 2/M
;
_chemical_formula_sum "Si O2"
_cell_formula_units_Z 64
_cell_length_a 25.478692
_cell_length_b 9.357427
_cell_length_c 15.022896
_cell_angle_alpha 90.000000
_cell_angle_beta 72.716487
_cell_angle_gamma 90.000000
_cell_volume 3419.957591
_symmetry_space_group_name_H-M "C 2/M"
_symmetry_group_IT_number 12
_symmetry_cell_setting 'monoclinic'
loop_
_space_group_symop_operation_xyz
x,y,z
-x,y,-z
-x,-y,-z
x,-y,z
1/2+x,1/2+y,z
1/2-x,1/2+y,-z
1/2-x,1/2-y,-z
1/2+x,1/2-y,z
loop_
_atom_site_type_symbol
_atom_site_label
_atom_site_fract_x
_atom_site_fract_y
_atom_site_fract_z
Si Si1 0.501156 0.666138 0.100384
Si Si2 0.590080 0.163915 0.579442
Si Si3 0.678603 0.831739 0.886324
Si Si4 0.597659 0.162637 0.773089
Si Si5 0.372962 0.667749 0.606364
Si Si6 0.625003 0.666946 0.074454
Si Si7 0.488115 0.345194 0.608613
Si Si8 0.198462 0.169446 0.199863
O O1 0.486463 0.500000 0.105853
O O2 0.455534 0.742052 0.182507
O O3 0.559945 0.695597 0.117042
O O4 0.500000 0.726593 0.000000
O O5 0.619094 0.180484 0.660709
O O6 0.625168 0.247271 0.487504
O O7 0.528655 0.225448 0.625758
O O8 0.585177 0.000000 0.551629
O O9 0.648618 0.793585 0.809192
O O10 0.740620 0.771082 0.848867
O O11 0.678311 0.000000 0.906272
O O12 0.646941 0.752155 0.979506
O O13 0.579731 0.000000 0.800371
O O14 0.371700 0.500000 0.583010
O O15 0.424613 0.702955 0.645507
O O16 0.320756 0.717539 0.691413
O O17 0.636500 0.500000 0.052370
O O18 0.656581 0.725773 0.145471
O O19 0.500000 0.368775 0.500000
O O20 0.496622 0.500000 0.653258
O O21 0.198270 0.000000 0.197590
#
# Coordination Sequence:
#
# PCOD8095732 Si02
#       8
#     8   8   8   8   8   8   8   8
#     4  10  20  34  54  81 109 138 171 215 267 311
#     4  10  20  33  49  73 106 140 173 213 260 306
#     4  10  20  37  57  76 103 142 180 214 258 314
#     4  10  22  36  52  76 109 146 179 211 255 316
#     4   9  18  34  53  75 102 134 175 218 258 306
#     4  10  20  35  56  82 109 134 169 219 268 314
#     4   8  15  28  48  71  96 129 166 205 253 307
#     4   9  19  35  57  80 103 136 178 221 263 308
#
# _framework density 18.713681999999999
#
# number of rings (size 3 to 8) (size 9 to 14) (size 15 to 20)
#    0.000    2.500    1.250    1.500    1.750    4.000 
#    0.000    1.875    0.000    0.000    0.000    0.000 
#    0.000    0.000    0.000    0.000    0.000    0.000 
#
# Total GULP energy -396682.208599 kJ/mol
# GULP energy per Si atom -12396.319019 kJ/mol
# Density = 1.867109 g / cm^3
# Si number density = 18.713682 Si / 1000 Ang^3
#
#
#
# Elastic Constant Matrix: (Units=GPa)
#
#
# Indices 1 2 3 4 5 6 
#
# 1 105.1274 35.5347 37.4145 0.0000 10.7427 0.0000
# 2 35.5347 59.4651 40.7713 0.0000 3.8631 0.0000
# 3 37.4145 40.7713 82.6458 0.0000 20.4470 0.0000
# 4 0.0000 0.0000 0.0000 25.0211 0.0000 1.1276
# 5 10.7427 3.8631 20.4470 0.0000 19.9344 0.0000
# 6 0.0000 0.0000 0.0000 1.1276 0.0000 16.4220
#
#
#
# Elastic Compliance Matrix: (Units=1/GPa)
#
#
# Indices 1 2 3 4 5 6 
#
# 1 0.012576 -0.006057 -0.001767 0.000000 -0.003791 0.000000
# 2 -0.006057 0.030130 -0.015390 0.000000 0.013211 0.000000
# 3 -0.001767 -0.015390 0.026157 0.000000 -0.022894 0.000000
# 4 0.000000 0.000000 0.000000 0.040090 0.000000 -0.002753
# 5 -0.003791 0.013211 -0.022894 0.000000 0.073130 0.000000
# 6 0.000000 0.000000 0.000000 -0.002753 0.000000 0.061083
#
#
# Mechanical properties :
#
#
# Convention : Reuss Voigt Hill
#
# Bulk Modulus (GPa) = 44.57727 52.74216 48.65972
# Shear Modulus (GPa) = 16.83087 21.17669 19.00378
#
# Velocity S-wave (km/s) = 3.00223 3.36760 3.19015
# Velocity P-wave (km/s) = 5.99085 6.58528 6.29508
#
# Compressibility (1/GPa) = 0.02243296
#
# Stress axis : x y z
#
# Youngs Moduli (GPa) = 79.51656 33.18949 38.23136
#
# Poissons Ratio (x) = 0.20103 0.06757
# Poissons Ratio (y) = 0.48164 0.58840
# Poissons Ratio (z) = 0.14053 0.51080
#
# Static dielectric constant tensor:
#      x y z
#    x 3.814880 0.000000 -0.023500 
#    y 0.000000 3.267770 0.000000 
#    z -0.023500 0.000000 3.455750 
# 
# 
# High freq. dielectric constant tensor:
#      x y z
#    x 1.717600 0.000000 0.003370 
#    y 0.000000 1.705920 0.000000 
#    z 0.003370 0.000000 1.730780 
# 
# From -- ./inp_files/243891.got.cif
#   From: 2010.06.25/outbox.cif.g09.slc.cpg/sg12_122_cif.got.tgz:243891.got - 2010.06.28 00:19:55.
