data_PCOD8095932
_publ_section_title
;
Structure prediction by ZEFSAII (Michael W. Deem and Ramdas Pophale) SiO2 
 PCOD8095932
Probable space group: C 2/M
;
_chemical_formula_sum "Si O2"
_cell_formula_units_Z 56
_cell_length_a 27.268402
_cell_length_b 8.788682
_cell_length_c 12.561924
_cell_angle_alpha 90.000000
_cell_angle_beta 105.428908
_cell_angle_gamma 90.000000
_cell_volume 2902.011960
_symmetry_space_group_name_H-M "C 2/M"
_symmetry_group_IT_number 12
_symmetry_cell_setting 'monoclinic'
loop_
_space_group_symop_operation_xyz
x,y,z
-x,y,-z
-x,-y,-z
x,-y,z
1/2+x,1/2+y,z
1/2-x,1/2+y,-z
1/2-x,1/2-y,-z
1/2+x,1/2-y,z
loop_
_atom_site_type_symbol
_atom_site_label
_atom_site_fract_x
_atom_site_fract_y
_atom_site_fract_z
Si Si1 0.936001 0.319333 0.874255
Si Si2 0.883074 0.821934 0.250446
Si Si3 0.542463 0.680124 0.894356
Si Si4 0.752827 0.174724 0.689550
Si Si5 0.361442 0.323753 0.668324
Si Si6 0.857651 0.678371 0.448061
Si Si7 0.272260 0.322727 0.116938
O O1 0.941495 0.500000 0.881293
O O2 0.887942 0.271595 0.776612
O O3 0.986156 0.246966 0.850570
O O4 0.928484 0.255924 0.989230
O O5 0.928454 0.778292 0.197277
O O6 0.890406 0.731330 0.364987
O O7 0.830545 0.770346 0.165175
O O8 0.882194 0.000000 0.276656
O O9 0.540418 0.500000 0.912120
O O10 0.800868 0.203071 0.641413
O O11 0.701448 0.226037 0.599994
O O12 0.760754 0.271824 0.800806
O O13 0.748294 0.000000 0.721833
O O14 0.376232 0.500000 0.689121
O O15 0.379449 0.263889 0.564000
O O16 0.864516 0.500000 0.469181
O O17 0.267717 0.500000 0.100546
O O18 0.250000 0.250000 0.000000
#
# Coordination Sequence:
#
# PCOD8095932 Si02
#       7
#     8   8   8   8   8   8   8
#     4  11  23  38  57  86 116 142 182 235 284 331
#     4   9  20  37  58  80 108 148 187 222 272 335
#     4  10  20  39  63  84 110 147 186 226 280 340
#     4   9  20  36  54  78 110 150 189 227 274 326
#     4  11  22  37  58  81 112 151 191 231 275 331
#     4  10  20  36  57  84 115 146 185 232 278 327
#     4  10  20  33  50  78 113 147 184 227 270 324
#
# _framework density 19.296956000000002
#
# number of rings (size 3 to 8) (size 9 to 14) (size 15 to 20)
#    0.000    2.000    0.000    4.286    2.000    3.429 
#    0.000    0.714    0.000    4.286    0.000    0.000 
#    0.000    0.000    0.000    0.000    0.000    0.000 
#
# Total GULP energy -347297.151294 kJ/mol
# GULP energy per Si atom -12403.469689 kJ/mol
# Density = 1.925304 g / cm^3
# Si number density = 19.296956 Si / 1000 Ang^3
#
#
#
# Elastic Constant Matrix: (Units=GPa)
#
#
# Indices 1 2 3 4 5 6 
#
# 1 72.4437 32.6914 30.9591 0.0000 -18.7534 0.0000
# 2 32.6914 84.2876 38.3490 0.0000 -10.2616 0.0000
# 3 30.9591 38.3490 87.5874 0.0000 -11.1644 0.0000
# 4 0.0000 0.0000 0.0000 38.1884 0.0000 -0.8676
# 5 -18.7534 -10.2616 -11.1644 0.0000 27.9009 0.0000
# 6 0.0000 0.0000 0.0000 -0.8676 0.0000 27.0002
#
#
#
# Elastic Compliance Matrix: (Units=1/GPa)
#
#
# Indices 1 2 3 4 5 6 
#
# 1 0.020283 -0.004927 -0.003694 0.000000 0.010343 0.000000
# 2 -0.004927 0.016256 -0.005306 0.000000 0.000543 0.000000
# 3 -0.003694 -0.005306 0.015259 0.000000 0.001672 0.000000
# 4 0.000000 0.000000 0.000000 0.026205 0.000000 0.000842
# 5 0.010343 0.000543 0.001672 0.000000 0.043662 0.000000
# 6 0.000000 0.000000 0.000000 0.000842 0.000000 0.037064
#
#
# Mechanical properties :
#
#
# Convention : Reuss Voigt Hill
#
# Bulk Modulus (GPa) = 41.76516 49.81308 45.78912
# Shear Modulus (GPa) = 25.69834 28.10584 26.90209
#
# Velocity S-wave (km/s) = 3.65325 3.82054 3.73783
# Velocity P-wave (km/s) = 6.28374 6.73291 6.51219
#
# Compressibility (1/GPa) = 0.02394340
#
# Stress axis : x y z
#
# Youngs Moduli (GPa) = 49.30145 61.51696 65.53426
#
# Poissons Ratio (x) = 0.30311 0.24207
# Poissons Ratio (y) = 0.24292 0.34775
# Poissons Ratio (z) = 0.18211 0.32644
#
# Static dielectric constant tensor:
#      x y z
#    x 3.424790 0.000000 -0.091310 
#    y 0.000000 3.578990 0.000000 
#    z -0.091310 0.000000 3.505210 
# 
# 
# High freq. dielectric constant tensor:
#      x y z
#    x 1.737410 0.000000 -0.009840 
#    y 0.000000 1.760440 0.000000 
#    z -0.009840 0.000000 1.753050 
# 
# From -- ./inp_files/186814.got.cif
#   From: 2010.06.25/outbox.cif.g09.slc.cpg/sg12_94_cif.got.tgz:186814.got - 2010.06.28 00:19:55.
