data_PCOD8095931
_publ_section_title
;
Structure prediction by ZEFSAII (Michael W. Deem and Ramdas Pophale) SiO2 
 PCOD8095931
Probable space group: C 2/M
;
_chemical_formula_sum "Si O2"
_cell_formula_units_Z 56
_cell_length_a 21.315342
_cell_length_b 8.722191
_cell_length_c 18.373662
_cell_angle_alpha 90.000000
_cell_angle_beta 121.766183
_cell_angle_gamma 90.000000
_cell_volume 2904.267011
_symmetry_space_group_name_H-M "C 2/M"
_symmetry_group_IT_number 12
_symmetry_cell_setting 'monoclinic'
loop_
_space_group_symop_operation_xyz
x,y,z
-x,y,-z
-x,-y,-z
x,-y,z
1/2+x,1/2+y,z
1/2-x,1/2+y,-z
1/2-x,1/2-y,-z
1/2+x,1/2-y,z
loop_
_atom_site_type_symbol
_atom_site_label
_atom_site_fract_x
_atom_site_fract_y
_atom_site_fract_z
Si Si1 0.641990 0.681582 0.265073
Si Si2 0.793180 0.681404 0.293956
Si Si3 0.919066 0.317650 0.475825
Si Si4 0.332292 0.318490 0.556456
Si Si5 0.236432 0.678320 0.883607
Si Si6 0.363143 0.177136 0.041218
Si Si7 0.491470 0.319318 0.913189
O O1 0.642008 0.500000 0.256451
O O2 0.719466 0.751061 0.284754
O O3 0.632724 0.726918 0.343946
O O4 0.577598 0.750682 0.174058
O O5 0.791117 0.500000 0.299513
O O6 0.864455 0.743301 0.379623
O O7 0.798457 0.732983 0.213514
O O8 0.917935 0.500000 0.484355
O O9 0.890845 0.246044 0.534112
O O10 0.000000 0.260736 0.500000
O O11 0.324919 0.500000 0.543133
O O12 0.250000 0.250000 0.500000
O O13 0.258438 0.500000 0.895994
O O14 0.176471 0.715945 0.907569
O O15 0.311232 0.772458 0.942713
O O16 0.436478 0.276791 0.088183
O O17 0.383176 0.000000 0.045273
O O18 0.482712 0.500000 0.913366
O O19 0.500000 0.249053 0.000000
#
# Coordination Sequence:
#
# PCOD8095931 Si02
#       7
#     8   8   8   8   8   8   8
#     4   9  18  32  55  82 105 140 188 233 271 321
#     4   9  16  32  56  79 104 138 187 232 267 324
#     4  10  21  37  59  86 115 148 188 238 292 343
#     4  11  21  37  60  84 115 151 191 237 286 340
#     4   9  18  33  55  75  99 145 189 216 259 333
#     4  10  20  33  50  78 112 139 170 225 283 321
#     4  10  20  35  56  78 102 141 189 225 264 329
#
# _framework density 19.281974000000002
#
# number of rings (size 3 to 8) (size 9 to 14) (size 15 to 20)
#    0.000    2.286    1.429    1.714    0.000    4.571 
#    0.000    3.571    0.000    0.000    0.000    0.000 
#    0.000    0.000    0.000    0.000    0.000    0.000 
#
# Total GULP energy -347138.777309 kJ/mol
# GULP energy per Si atom -12397.813475 kJ/mol
# Density = 1.923809 g / cm^3
# Si number density = 19.281974 Si / 1000 Ang^3
#
#
#
# Elastic Constant Matrix: (Units=GPa)
#
#
# Indices 1 2 3 4 5 6 
#
# 1 144.7877 23.4228 89.7631 0.0000 9.3846 0.0000
# 2 23.4228 20.3891 25.6738 0.0000 -3.7043 0.0000
# 3 89.7631 25.6738 189.2520 0.0000 4.9569 0.0000
# 4 0.0000 0.0000 0.0000 19.5059 0.0000 -2.3212
# 5 9.3846 -3.7043 4.9569 0.0000 32.2111 0.0000
# 6 0.0000 0.0000 0.0000 -2.3212 0.0000 29.8102
#
#
#
# Elastic Compliance Matrix: (Units=1/GPa)
#
#
# Indices 1 2 3 4 5 6 
#
# 1 0.010925 -0.008176 -0.003981 0.000000 -0.003510 0.000000
# 2 -0.008176 0.067434 -0.005558 0.000000 0.010992 0.000000
# 3 -0.003981 -0.005558 0.007944 0.000000 -0.000702 0.000000
# 4 0.000000 0.000000 0.000000 0.051746 0.000000 0.004029
# 5 -0.003510 0.010992 -0.000702 0.000000 0.033440 0.000000
# 6 0.000000 0.000000 0.000000 0.004029 0.000000 0.033859
#
#
# Mechanical properties :
#
#
# Convention : Reuss Voigt Hill
#
# Bulk Modulus (GPa) = 19.65639 70.23867 44.94753
# Shear Modulus (GPa) = 19.39978 30.67671 25.03825
#
# Velocity S-wave (km/s) = 3.17536 3.99300 3.60742
# Velocity P-wave (km/s) = 4.86418 7.60033 6.38064
#
# Compressibility (1/GPa) = 0.05087403
#
# Stress axis : x y z
#
# Youngs Moduli (GPa) = 91.53672 14.82937 125.87545
#
# Poissons Ratio (x) = 0.12124 0.50105
# Poissons Ratio (y) = 0.74836 0.69965
# Poissons Ratio (z) = 0.36437 0.08243
#
# Static dielectric constant tensor:
#      x y z
#    x 3.579660 0.000000 0.027210 
#    y 0.000000 3.173550 0.000000 
#    z 0.027210 0.000000 3.899620 
# 
# 
# High freq. dielectric constant tensor:
#      x y z
#    x 1.755670 0.000000 -0.003540 
#    y 0.000000 1.714110 0.000000 
#    z -0.003540 0.000000 1.763260 
# 
# From -- ./inp_files/281759.got.cif
#   From: 2010.06.25/outbox.cif.g09.slc.cpg/sg12_141_cif.got.tgz:281759.got - 2010.06.28 00:19:55.
