data_PCOD8095966
_publ_section_title
;
Structure prediction by ZEFSAII (Michael W. Deem and Ramdas Pophale) SiO2 
 PCOD8095966
Probable space group: C 2/M
;
_chemical_formula_sum "Si O2"
_cell_formula_units_Z 56
_cell_length_a 18.885335
_cell_length_b 9.085225
_cell_length_c 29.413904
_cell_angle_alpha 90.000000
_cell_angle_beta 36.635406
_cell_angle_gamma 90.000000
_cell_volume 3011.509748
_symmetry_space_group_name_H-M "C 2/M"
_symmetry_group_IT_number 12
_symmetry_cell_setting 'monoclinic'
loop_
_space_group_symop_operation_xyz
x,y,z
-x,y,-z
-x,-y,-z
x,-y,z
1/2+x,1/2+y,z
1/2-x,1/2+y,-z
1/2-x,1/2-y,-z
1/2+x,1/2-y,z
loop_
_atom_site_type_symbol
_atom_site_label
_atom_site_fract_x
_atom_site_fract_y
_atom_site_fract_z
Si Si1 0.443503 0.829772 0.701714
Si Si2 0.633901 0.325098 0.429971
Si Si3 0.300886 0.671800 0.702034
Si Si4 0.167437 0.827284 0.006308
Si Si5 0.724814 0.669994 0.874431
Si Si6 0.578755 0.173027 0.876870
Si Si7 0.787867 0.326464 0.434369
O O1 0.407982 0.744852 0.674445
O O2 0.355557 0.788988 0.788556
O O3 0.576273 0.786252 0.647705
O O4 0.434074 0.000000 0.694450
O O5 0.500000 0.263015 0.500000
O O6 0.633214 0.500000 0.432870
O O7 0.696746 0.271704 0.351084
O O8 0.707686 0.262771 0.434676
O O9 0.326259 0.500000 0.691314
O O10 0.174255 0.711941 0.788798
O O11 0.223400 0.794812 0.928281
O O12 0.159940 0.000000 0.020265
O O13 0.250000 0.750000 0.000000
O O14 0.038199 0.758094 0.077190
O O15 0.692964 0.500000 0.881113
O O16 0.625496 0.769367 0.901296
O O17 0.553490 0.000000 0.893434
O O18 0.770426 0.500000 0.449215
O O19 0.750000 0.250000 0.500000
#
# Coordination Sequence:
#
# PCOD8095966 Si02
#       7
#     8   8   8   8   8   8   8
#     4   9  18  33  53  76 101 130 165 207 255 304
#     4   9  17  30  50  74  99 131 171 211 249 293
#     4   9  18  33  54  78 102 131 168 208 249 298
#     4  11  23  37  54  77 106 139 175 217 262 306
#     4   9  19  36  56  76 101 136 175 214 259 311
#     4  10  20  34  55  81 107 136 171 212 257 310
#     4  10  20  33  51  74 100 132 168 207 252 301
#
# _framework density 18.595324000000002
#
# number of rings (size 3 to 8) (size 9 to 14) (size 15 to 20)
#    0.000    2.429    0.000    2.143    0.000    6.286 
#    0.000    5.000    0.000    4.286    0.000    0.000 
#    0.000    0.000    0.000    0.000    0.000    0.000 
#
# Total GULP energy -347246.246553 kJ/mol
# GULP energy per Si atom -12401.651663 kJ/mol
# Density = 1.855300 g / cm^3
# Si number density = 18.595324 Si / 1000 Ang^3
#
#
#
# Elastic Constant Matrix: (Units=GPa)
#
#
# Indices 1 2 3 4 5 6 
#
# 1 184.7710 60.4526 95.4905 0.0001 -1.9354 0.0221
# 2 60.4526 60.5429 47.3266 0.0013 -1.8671 0.0043
# 3 95.4905 47.3266 114.7254 -0.0011 0.6348 0.0017
# 4 0.0001 0.0013 -0.0011 25.4070 -0.0019 0.1187
# 5 -1.9354 -1.8671 0.6348 -0.0019 36.8233 0.0016
# 6 0.0221 0.0043 0.0017 0.1187 0.0016 31.9720
#
#
#
# Elastic Compliance Matrix: (Units=1/GPa)
#
#
# Indices 1 2 3 4 5 6 
#
# 1 0.010590 -0.005417 -0.006582 0.000000 0.000395 -0.000006
# 2 -0.005417 0.027223 -0.006728 -0.000002 0.001212 0.000000
# 3 -0.006582 -0.006728 0.016976 0.000001 -0.000980 0.000005
# 4 0.000000 -0.000002 0.000001 0.039360 0.000002 -0.000146
# 5 0.000395 0.001212 -0.000980 0.000002 0.027256 -0.000002
# 6 -0.000006 0.000000 0.000005 -0.000146 -0.000002 0.031278
#
#
# Mechanical properties :
#
#
# Convention : Reuss Voigt Hill
#
# Bulk Modulus (GPa) = 57.68782 85.17540 71.43161
# Shear Modulus (GPa) = 25.52127 29.29178 27.40653
#
# Velocity S-wave (km/s) = 3.70869 3.97321 3.84323
# Velocity P-wave (km/s) = 7.03059 8.18247 7.62830
#
# Compressibility (1/GPa) = 0.01733468
#
# Stress axis : x y z
#
# Youngs Moduli (GPa) = 94.42609 36.73418 58.90656
#
# Poissons Ratio (x) = 0.19898 0.38774
# Poissons Ratio (y) = 0.51149 0.39632
# Poissons Ratio (z) = 0.62154 0.24714
#
# Static dielectric constant tensor:
#      x y z
#    x 3.568240 0.000000 -0.092260 
#    y 0.000000 3.279240 -0.000050 
#    z -0.092260 -0.000050 3.866130 
# 
# 
# High freq. dielectric constant tensor:
#      x y z
#    x 1.721860 0.000000 -0.001670 
#    y 0.000000 1.705610 0.000000 
#    z -0.001670 0.000000 1.735110 
# 
# From -- ./inp_files/342523.got.cif
#   From: 2010.06.25/outbox.cif.g09.slc.cpg/sg12_172_cif.got.tgz:342523.got - 2010.06.28 00:19:55.
