data_PCOD8095936
_publ_section_title
;
Structure prediction by ZEFSAII (Michael W. Deem and Ramdas Pophale) SiO2 
 PCOD8095936
Probable space group: C 2/M
;
_chemical_formula_sum "Si O2"
_cell_formula_units_Z 60
_cell_length_a 9.464807
_cell_length_b 24.154941
_cell_length_c 22.320726
_cell_angle_alpha 90.000000
_cell_angle_beta 138.385292
_cell_angle_gamma 90.000000
_cell_volume 3388.998769
_symmetry_space_group_name_H-M "C 2/M"
_symmetry_group_IT_number 12
_symmetry_cell_setting 'monoclinic'
loop_
_space_group_symop_operation_xyz
x,y,z
-x,y,-z
-x,-y,-z
x,-y,z
1/2+x,1/2+y,z
1/2-x,1/2+y,-z
1/2-x,1/2-y,-z
1/2+x,1/2-y,z
loop_
_atom_site_type_symbol
_atom_site_label
_atom_site_fract_x
_atom_site_fract_y
_atom_site_fract_z
Si Si1 0.551737 0.662553 0.816965
Si Si2 0.717131 0.815017 0.995113
Si Si3 0.338179 0.861051 0.809201
Si Si4 0.414034 0.145668 0.297629
Si Si5 0.542150 0.788229 0.446118
Si Si6 0.624708 0.225968 0.278879
Si Si7 0.500000 0.387215 0.000000
Si Si8 0.097390 0.435680 0.810776
O O1 0.620187 0.629771 0.777653
O O2 0.515781 0.727630 0.796648
O O3 0.334005 0.635283 0.769993
O O4 0.733251 0.659104 0.924529
O O5 0.477058 0.829517 0.902982
O O6 0.864400 0.845690 0.995282
O O7 0.750000 0.750000 0.000000
O O8 0.297198 0.821118 0.740986
O O9 0.442662 0.917248 0.816611
O O10 0.536751 0.157305 0.400069
O O11 0.463795 0.201858 0.277420
O O12 0.478256 0.093762 0.275666
O O13 0.500000 0.810809 0.500000
O O14 0.750000 0.750000 0.500000
O O15 0.339481 0.749320 0.373839
O O16 0.342055 0.423672 0.907997
O O17 0.065983 0.500000 0.789803
#
# Coordination Sequence:
#
# PCOD8095936 Si02
#       8
#     8   8   8   8   8   8   4   8
#     4  11  19  31  49  76 115 147 175 224 272 327
#     4  11  21  28  47  75 117 151 180 213 264 331
#     4  10  22  32  49  77 106 145 186 224 275 321
#     4  10  21  36  54  82 109 144 190 225 269 332
#     4  11  21  35  55  84 121 153 177 213 272 344
#     4  10  20  33  50  78 118 148 178 208 263 346
#     4  10  21  36  52  82 104 150 201 224 266 330
#     4  10  21  41  60  73 101 146 198 248 279 316
#
# _framework density 17.704343999999999
#
# number of rings (size 3 to 8) (size 9 to 14) (size 15 to 20)
#    0.000    1.600    4.000    2.200    3.733    0.000 
#    0.000    0.667    0.000    2.000    0.000    7.467 
#    0.000    0.000    0.000    0.000    0.000    0.000 
#
# Total GULP energy -371654.152784 kJ/mol
# GULP energy per Si atom -12388.471759 kJ/mol
# Density = 1.766405 g / cm^3
# Si number density = 17.704344 Si / 1000 Ang^3
#
#
#
# Elastic Constant Matrix: (Units=GPa)
#
#
# Indices 1 2 3 4 5 6 
#
# 1 89.0868 9.0559 27.5162 0.0000 -2.1206 0.0000
# 2 9.0559 75.8198 25.0409 0.0000 -2.0790 0.0000
# 3 27.5162 25.0409 80.2161 0.0000 -13.3979 0.0000
# 4 0.0000 0.0000 0.0000 11.7481 0.0000 -2.0290
# 5 -2.1206 -2.0790 -13.3979 0.0000 31.6915 0.0000
# 6 0.0000 0.0000 0.0000 -2.0290 0.0000 12.4546
#
#
#
# Elastic Compliance Matrix: (Units=1/GPa)
#
#
# Indices 1 2 3 4 5 6 
#
# 1 0.012588 -0.000054 -0.004477 0.000000 -0.001054 0.000000
# 2 -0.000054 0.014738 -0.004757 0.000000 -0.001048 0.000000
# 3 -0.004477 -0.004757 0.016554 0.000000 0.006387 0.000000
# 4 0.000000 0.000000 0.000000 0.087584 0.000000 0.014268
# 5 -0.001054 -0.001048 0.006387 0.000000 0.034115 0.000000
# 6 0.000000 0.000000 0.000000 0.014268 0.000000 0.082616
#
#
# Mechanical properties :
#
#
# Convention : Reuss Voigt Hill
#
# Bulk Modulus (GPa) = 39.52032 40.92761 40.22397
# Shear Modulus (GPa) = 18.16817 23.41284 20.79050
#
# Velocity S-wave (km/s) = 3.20691 3.64047 3.43055
# Velocity P-wave (km/s) = 6.00693 6.39048 6.20167
#
# Compressibility (1/GPa) = 0.02530344
#
# Stress axis : x y z
#
# Youngs Moduli (GPa) = 79.43882 67.85158 60.40834
#
# Poissons Ratio (x) = 0.00364 0.27047
# Poissons Ratio (y) = 0.00427 0.28738
# Poissons Ratio (z) = 0.35568 0.32279
#
# Static dielectric constant tensor:
#      x y z
#    x 3.696170 0.000000 -0.087760 
#    y 0.000000 3.798020 0.000000 
#    z -0.087760 0.000000 3.469900 
# 
# 
# High freq. dielectric constant tensor:
#      x y z
#    x 1.711930 0.000000 -0.006000 
#    y 0.000000 1.632670 0.000000 
#    z -0.006000 0.000000 1.677870 
# 
# From -- ./inp_files/334090.got.cif
#   From: 2010.06.25/outbox.cif.g09.slc.cpg/sg12_168_cif.got.tgz:334090.got - 2010.06.28 00:19:55.
