data_PCOD8095276
_publ_section_title
;
Structure prediction by ZEFSAII (Michael W. Deem and Ramdas Pophale) SiO2 
 PCOD8095276
Probable space group: C 2/M
;
_chemical_formula_sum "Si O2"
_cell_formula_units_Z 56
_cell_length_a 18.589071
_cell_length_b 9.307434
_cell_length_c 22.877651
_cell_angle_alpha 90.000000
_cell_angle_beta 52.114419
_cell_angle_gamma 90.000000
_cell_volume 3123.974118
_symmetry_space_group_name_H-M "C 2/M"
_symmetry_group_IT_number 12
_symmetry_cell_setting 'monoclinic'
loop_
_space_group_symop_operation_xyz
x,y,z
-x,y,-z
-x,-y,-z
x,-y,z
1/2+x,1/2+y,z
1/2-x,1/2+y,-z
1/2-x,1/2-y,-z
1/2+x,1/2-y,z
loop_
_atom_site_type_symbol
_atom_site_label
_atom_site_fract_x
_atom_site_fract_y
_atom_site_fract_z
Si Si1 0.336849 0.335784 0.436743
Si Si2 0.034796 0.829170 0.727245
Si Si3 0.994123 0.835175 0.566186
Si Si4 0.192364 0.168901 0.855309
Si Si5 0.824596 0.830657 0.000907
Si Si6 0.477241 0.329460 0.136209
Si Si7 0.629900 0.328971 0.269610
O O1 0.307892 0.500000 0.441669
O O2 0.250000 0.250000 0.500000
O O3 0.381536 0.272147 0.354626
O O4 0.408706 0.319714 0.452499
O O5 0.044681 0.768697 0.787992
O O6 0.937104 0.781338 0.749786
O O7 0.038460 0.000000 0.723243
O O8 0.000000 0.756385 0.500000
O O9 0.914879 0.772126 0.647436
O O10 0.967990 0.000000 0.569328
O O11 0.189157 0.208920 0.924775
O O12 0.274309 0.251679 0.784094
O O13 0.099320 0.223168 0.871051
O O14 0.205928 0.000000 0.838912
O O15 0.815109 0.000000 0.994365
O O16 0.750000 0.750000 0.000000
O O17 0.924246 0.772808 0.933146
O O18 0.479555 0.500000 0.136526
O O19 0.643733 0.500000 0.262525
#
# Coordination Sequence:
#
# PCOD8095276 Si02
#       7
#     8   8   8   8   8   8   8
#     4   9  17  29  46  68  92 119 154 194 233 274
#     4   8  15  29  48  67  88 121 162 193 221 272
#     4   8  15  29  48  68  92 125 163 197 229 274
#     4  10  20  32  48  73 100 122 150 193 238 277
#     4  10  20  34  53  74  95 123 158 192 229 276
#     4   9  17  31  50  69  93 126 158 187 226 279
#     4   9  17  31  51  71  92 124 163 196 230 277
#
# _framework density 17.925885000000001
#
# number of rings (size 3 to 8) (size 9 to 14) (size 15 to 20)
#    0.000    3.000    0.000    3.000    0.000    4.571 
#    0.000    3.571    0.000    4.286    0.000    0.000 
#    0.000    0.000    0.000    0.000    0.000    0.000 
#
# Total GULP energy -347057.955745 kJ/mol
# GULP energy per Si atom -12394.926991 kJ/mol
# Density = 1.788508 g / cm^3
# Si number density = 17.925885 Si / 1000 Ang^3
#
#
#
# Elastic Constant Matrix: (Units=GPa)
#
#
# Indices 1 2 3 4 5 6 
#
# 1 132.8909 33.1406 88.3438 0.0000 1.4225 0.0000
# 2 33.1406 26.8931 36.3995 0.0000 -5.0160 0.0001
# 3 88.3438 36.3995 152.3385 0.0000 -4.3317 0.0000
# 4 0.0000 0.0000 0.0000 26.5537 0.0000 -7.2026
# 5 1.4225 -5.0160 -4.3317 0.0000 40.9201 0.0000
# 6 0.0000 0.0001 0.0000 -7.2026 0.0000 22.6009
#
#
#
# Elastic Compliance Matrix: (Units=1/GPa)
#
#
# Indices 1 2 3 4 5 6 
#
# 1 0.013770 -0.009601 -0.005756 0.000000 -0.002265 0.000000
# 2 -0.009601 0.062850 -0.009249 0.000000 0.007059 0.000000
# 3 -0.005756 -0.009249 0.012122 0.000000 0.000350 0.000000
# 4 0.000000 0.000000 0.000000 0.041223 0.000000 0.013137
# 5 -0.002265 0.007059 0.000350 0.000000 0.025419 0.000000
# 6 0.000000 0.000000 0.000000 0.013137 0.000000 0.048433
#
#
# Mechanical properties :
#
#
# Convention : Reuss Voigt Hill
#
# Bulk Modulus (GPa) = 25.29642 69.76558 47.53100
# Shear Modulus (GPa) = 18.78252 28.29751 23.54001
#
# Velocity S-wave (km/s) = 3.24047 3.97745 3.62772
# Velocity P-wave (km/s) = 5.30501 7.75222 6.64229
#
# Compressibility (1/GPa) = 0.03953128
#
# Stress axis : x y z
#
# Youngs Moduli (GPa) = 72.62261 15.91079 82.49403
#
# Poissons Ratio (x) = 0.15276 0.47482
# Poissons Ratio (y) = 0.69723 0.76299
# Poissons Ratio (z) = 0.41800 0.14716
#
# Static dielectric constant tensor:
#      x y z
#    x -10.027690 0.000000 -11.195350 
#    y 0.000000 2.826440 0.000000 
#    z -11.195350 0.000000 -6.002420 
# 
# 
# High freq. dielectric constant tensor:
#      x y z
#    x 1.697710 0.000000 0.004430 
#    y 0.000000 1.639170 0.000000 
#    z 0.004430 0.000000 1.714400 
# 
# From -- ./inp_files/342209.got.cif
#   From: 2010.06.25/outbox.cif.g09.slc.cpg/sg12_172_cif.got.tgz:342209.got - 2010.06.28 00:19:55.
