data_PCOD8095886
_publ_section_title
;
Structure prediction by ZEFSAII (Michael W. Deem and Ramdas Pophale) SiO2 
 PCOD8095886
Probable space group: C 2/M
;
_chemical_formula_sum "Si O2"
_cell_formula_units_Z 64
_cell_length_a 31.849282
_cell_length_b 13.921461
_cell_length_c 22.635279
_cell_angle_alpha 90.000000
_cell_angle_beta 18.590801
_cell_angle_gamma 90.000000
_cell_volume 3199.619612
_symmetry_space_group_name_H-M "C 2/M"
_symmetry_group_IT_number 12
_symmetry_cell_setting 'monoclinic'
loop_
_space_group_symop_operation_xyz
x,y,z
-x,y,-z
-x,-y,-z
x,-y,z
1/2+x,1/2+y,z
1/2-x,1/2+y,-z
1/2-x,1/2-y,-z
1/2+x,1/2-y,z
loop_
_atom_site_type_symbol
_atom_site_label
_atom_site_fract_x
_atom_site_fract_y
_atom_site_fract_z
Si Si1 0.520135 0.392414 0.121938
Si Si2 0.903768 0.219604 0.491657
Si Si3 0.565915 0.773034 0.676475
Si Si4 0.701483 0.393188 0.670485
Si Si5 0.238168 0.609959 0.277026
Si Si6 0.130842 0.614240 0.862198
Si Si7 0.858182 0.387153 0.018451
Si Si8 0.907463 0.894551 0.678707
O O1 0.513801 0.500000 0.157513
O O2 0.457087 0.321358 0.253581
O O3 0.443555 0.388186 0.162309
O O4 0.668366 0.366772 0.903786
O O5 0.972609 0.250587 0.339152
O O6 0.880016 0.312753 0.565611
O O7 0.767671 0.162263 0.657877
O O8 0.017556 0.158988 0.369655
O O9 0.714471 0.813709 0.477721
O O10 0.478116 0.859882 0.817020
O O11 0.762390 0.500000 0.579628
O O12 0.690764 0.371325 0.754495
O O13 0.186545 0.500000 0.341528
O O14 0.147656 0.500000 0.834069
O O15 0.113464 0.650081 0.952915
O O16 0.000000 0.647352 0.000000
O O17 0.839871 0.500000 0.046294
O O18 0.725575 0.341680 0.166709
O O19 0.000000 0.905033 0.500000
O O20 0.872499 0.000000 0.750493
#
# Coordination Sequence:
#
# PCOD8095886 Si02
#       8
#     8   8   8   8   8   8   8   8
#     4  10  20  33  50  74 110 155 193 225 269 329
#     4  11  22  36  59  87 115 147 188 235 284 336
#     4  11  23  34  51  81 118 150 180 228 288 345
#     4   9  18  34  54  76 104 146 198 239 270 317
#     4   9  19  35  55  77 105 145 196 243 271 311
#     4  10  21  37  59  89 121 150 187 240 296 342
#     4  10  21  39  62  86 113 148 191 237 283 337
#     4  10  20  38  66  91 109 138 188 241 285 335
#
# _framework density 20.002379000000001
#
# number of rings (size 3 to 8) (size 9 to 14) (size 15 to 20)
#    0.000    2.000    1.250    2.250    0.000    8.500 
#    0.000    2.500    0.000    1.125    0.000    0.000 
#    0.000    0.000    0.000    0.000    0.000    0.000 
#
# Total GULP energy -396555.909266 kJ/mol
# GULP energy per Si atom -12392.372165 kJ/mol
# Density = 1.995685 g / cm^3
# Si number density = 20.002379 Si / 1000 Ang^3
#
#
#
# Elastic Constant Matrix: (Units=GPa)
#
#
# Indices 1 2 3 4 5 6 
#
# 1 87.3353 20.9872 35.4794 -0.0028 -7.3698 0.0019
# 2 20.9872 66.8077 17.6586 -0.0040 4.7227 0.0042
# 3 35.4794 17.6586 69.0977 -0.0032 8.2018 0.0033
# 4 -0.0028 -0.0040 -0.0032 26.8104 0.0020 10.5811
# 5 -7.3698 4.7227 8.2018 0.0020 38.0857 -0.0014
# 6 0.0019 0.0042 0.0033 10.5811 -0.0014 34.1978
#
#
#
# Elastic Compliance Matrix: (Units=1/GPa)
#
#
# Indices 1 2 3 4 5 6 
#
# 1 0.015901 -0.003262 -0.007947 0.000000 0.005193 0.000001
# 2 -0.003262 0.016770 -0.002349 0.000003 -0.002205 -0.000003
# 3 -0.007947 -0.002349 0.019808 0.000002 -0.005512 -0.000002
# 4 0.000000 0.000003 0.000002 0.042487 -0.000004 -0.013146
# 5 0.005193 -0.002205 -0.005512 -0.000004 0.028722 0.000003
# 6 0.000001 -0.000003 -0.000002 -0.013146 0.000003 0.033309
#
#
# Mechanical properties :
#
#
# Convention : Reuss Voigt Hill
#
# Bulk Modulus (GPa) = 39.42950 41.27679 40.35314
# Shear Modulus (GPa) = 25.96509 29.75982 27.86245
#
# Velocity S-wave (km/s) = 3.60682 3.86140 3.73628
# Velocity P-wave (km/s) = 6.09104 6.36878 6.23146
#
# Compressibility (1/GPa) = 0.02536172
#
# Stress axis : x y z
#
# Youngs Moduli (GPa) = 62.89057 59.63126 50.48560
#
# Poissons Ratio (x) = 0.19449 0.40123
# Poissons Ratio (y) = 0.20512 0.11860
# Poissons Ratio (z) = 0.49981 0.14009
#
# Static dielectric constant tensor:
#      x y z
#    x 3.308470 0.000000 0.113010 
#    y 0.000000 3.881760 0.000000 
#    z 0.113010 0.000000 3.404110 
# 
# 
# High freq. dielectric constant tensor:
#      x y z
#    x 1.760090 0.000000 0.008810 
#    y 0.000000 1.794570 0.000000 
#    z 0.008810 0.000000 1.767460 
# 
# From -- ./inp_files/330373.got.cif
#   From: 2010.06.25/outbox.cif.g09.slc.cpg/sg12_166_cif.got.tgz:330373.got - 2010.06.28 00:19:55.
