data_PCOD8095663
_publ_section_title
;
Structure prediction by ZEFSAII (Michael W. Deem and Ramdas Pophale) SiO2 
 PCOD8095663
Probable space group: C 2/M
;
_chemical_formula_sum "Si O2"
_cell_formula_units_Z 48
_cell_length_a 19.165812
_cell_length_b 9.077549
_cell_length_c 16.396138
_cell_angle_alpha 90.000000
_cell_angle_beta 71.120137
_cell_angle_gamma 90.000000
_cell_volume 2699.106003
_symmetry_space_group_name_H-M "C 2/M"
_symmetry_group_IT_number 12
_symmetry_cell_setting 'monoclinic'
loop_
_space_group_symop_operation_xyz
x,y,z
-x,y,-z
-x,-y,-z
x,-y,z
1/2+x,1/2+y,z
1/2-x,1/2+y,-z
1/2-x,1/2-y,-z
1/2+x,1/2-y,z
loop_
_atom_site_type_symbol
_atom_site_label
_atom_site_fract_x
_atom_site_fract_y
_atom_site_fract_z
Si Si1 0.686936 0.335120 0.420110
Si Si2 0.925251 0.330742 0.077768
Si Si3 0.716263 0.324858 0.934189
Si Si4 0.727670 0.162695 0.257023
Si Si5 0.396413 0.665535 0.245927
Si Si6 0.644580 0.166114 0.587455
O O1 0.655554 0.500000 0.431738
O O2 0.679411 0.271490 0.331198
O O3 0.638029 0.239831 0.500958
O O4 0.771378 0.332331 0.415344
O O5 0.899875 0.500000 0.098648
O O6 0.864078 0.241907 0.050841
O O7 0.939167 0.259133 0.161233
O O8 0.000000 0.319850 0.000000
O O9 0.708555 0.500000 0.948245
O O10 0.771074 0.287046 0.837908
O O11 0.750000 0.250000 0.000000
O O12 0.811066 0.159482 0.256077
O O13 0.693094 0.000000 0.278493
O O14 0.429012 0.500000 0.237995
O O15 0.406139 0.743920 0.329846
O O16 0.614641 0.000000 0.593112
#
# Coordination Sequence:
#
# PCOD8095663 Si02
#       6
#     8   8   8   8   8   8
#     4   9  15  21  32  51  75 106 142 178 216 262
#     4  10  20  33  49  69  94 124 158 195 235 280
#     4  10  20  33  50  70  94 124 158 196 236 280
#     4   8  15  26  38  55  80 111 144 179 222 269
#     4   9  16  26  40  58  82 112 147 185 225 271
#     4   9  15  22  33  50  76 109 142 177 218 266
#
# _framework density 17.783667000000001
#
# number of rings (size 3 to 8) (size 9 to 14) (size 15 to 20)
#    0.000    2.833    0.000    3.500    0.000   10.000 
#    0.000    0.000    0.000    0.000    0.000    0.000 
#    0.000    1.333    0.000   14.000    0.000   18.000 
#
# Total GULP energy -297514.879278 kJ/mol
# GULP energy per Si atom -12396.453303 kJ/mol
# Density = 1.774319 g / cm^3
# Si number density = 17.783667 Si / 1000 Ang^3
#
#
#
# Elastic Constant Matrix: (Units=GPa)
#
#
# Indices 1 2 3 4 5 6 
#
# 1 20.9586 25.5099 28.0430 0.0000 6.4376 0.0000
# 2 25.5099 167.1726 94.9476 0.0000 11.4928 0.0000
# 3 28.0430 94.9476 160.2731 0.0000 20.2718 0.0000
# 4 0.0000 0.0000 0.0000 40.0788 0.0000 3.9748
# 5 6.4376 11.4928 20.2718 0.0000 16.8592 0.0000
# 6 0.0000 0.0000 0.0000 3.9748 0.0000 13.5099
#
#
#
# Elastic Compliance Matrix: (Units=1/GPa)
#
#
# Indices 1 2 3 4 5 6 
#
# 1 0.067857 -0.005507 -0.006850 0.000000 -0.013921 0.000000
# 2 -0.005507 0.009464 -0.004827 0.000000 0.001456 0.000000
# 3 -0.006850 -0.004827 0.011263 0.000000 -0.007637 0.000000
# 4 0.000000 0.000000 0.000000 0.025701 0.000000 -0.007561
# 5 -0.013921 0.001456 -0.007637 0.000000 0.072821 0.000000
# 6 0.000000 0.000000 0.000000 -0.007561 0.000000 0.076244
#
#
# Mechanical properties :
#
#
# Convention : Reuss Voigt Hill
#
# Bulk Modulus (GPa) = 18.44464 71.71171 45.07818
# Shear Modulus (GPa) = 15.83331 27.41652 21.62492
#
# Velocity S-wave (km/s) = 2.98707 3.93067 3.49090
# Velocity P-wave (km/s) = 4.72134 7.81103 6.45381
#
# Compressibility (1/GPa) = 0.05421630
#
# Stress axis : x y z
#
# Youngs Moduli (GPa) = 14.73685 105.66755 88.78417
#
# Poissons Ratio (x) = 0.58195 0.60814
# Poissons Ratio (y) = 0.08116 0.42855
# Poissons Ratio (z) = 0.10094 0.51004
#
# Static dielectric constant tensor:
#      x y z
#    x 2.524360 0.000000 0.181680 
#    y 0.000000 3.614080 0.000000 
#    z 0.181680 0.000000 3.626690 
# 
# 
# High freq. dielectric constant tensor:
#      x y z
#    x 1.595880 0.000000 0.013620 
#    y 0.000000 1.708680 0.000000 
#    z 0.013620 0.000000 1.707480 
# 
# From -- ./inp_files/230454.got.cif
#   From: 2010.06.25/outbox.cif.g09.slc.cpg/sg12_116_cif.got.tgz:230454.got - 2010.06.28 00:19:55.
