data_PCOD8095128
_publ_section_title
;
Structure prediction by ZEFSAII (Michael W. Deem and Ramdas Pophale) SiO2 
 PCOD8095128
Probable space group: C 2/M
;
_chemical_formula_sum "Si O2"
_cell_formula_units_Z 56
_cell_length_a 27.951192
_cell_length_b 8.904778
_cell_length_c 18.075700
_cell_angle_alpha 90.000000
_cell_angle_beta 130.292354
_cell_angle_gamma 90.000000
_cell_volume 3431.653349
_symmetry_space_group_name_H-M "C 2/M"
_symmetry_group_IT_number 12
_symmetry_cell_setting 'monoclinic'
loop_
_space_group_symop_operation_xyz
x,y,z
-x,y,-z
-x,-y,-z
x,-y,z
1/2+x,1/2+y,z
1/2-x,1/2+y,-z
1/2-x,1/2-y,-z
1/2+x,1/2-y,z
loop_
_atom_site_type_symbol
_atom_site_label
_atom_site_fract_x
_atom_site_fract_y
_atom_site_fract_z
Si Si1 0.120948 0.322633 0.719562
Si Si2 0.937360 0.665349 0.484707
Si Si3 0.062640 0.165349 0.109987
Si Si4 0.379052 0.322633 0.977665
Si Si5 0.750000 0.823260 0.920529
Si Si6 0.002164 0.323114 0.829522
Si Si7 0.997836 0.176886 0.325194
O O1 0.109559 0.500000 0.719377
O O2 0.115917 0.280717 0.626977
O O3 0.189116 0.270112 0.814407
O O4 0.069669 0.236490 0.716810
O O5 0.921119 0.500000 0.500794
O O6 0.000000 0.654454 0.500000
O O7 0.946986 0.780996 0.561481
O O8 0.115917 0.219283 0.104856
O O9 0.053014 0.280996 0.167508
O O10 0.078881 0.000000 0.158557
O O11 0.000000 0.154454 0.000000
O O12 0.390441 0.500000 0.000258
O O13 0.310884 0.270112 0.936175
O O14 0.430331 0.236490 0.077472
O O15 0.750000 0.000000 0.931439
O O16 0.750000 0.750000 0.000000
O O17 0.005636 0.500000 0.824426
O O18 0.983399 0.250000 0.733399
O O19 0.994364 0.000000 0.313154
#
# Coordination Sequence:
#
# PCOD8095128 Si02
#       7
#     8   8   8   8   8   8   8
#     4   9  18  32  47  64  90 121 151 182 217 259
#     4   8  15  29  46  63  86 115 145 180 222 265
#     4   8  15  29  46  63  86 115 145 180 222 265
#     4   9  18  32  47  64  90 121 151 182 217 259
#     4  10  20  32  46  66  91 122 155 182 211 250
#     4  11  20  29  44  66  91 117 147 183 224 266
#     4  11  20  29  44  66  91 117 147 183 224 266
#
# _framework density 16.318664999999999
#
# number of rings (size 3 to 8) (size 9 to 14) (size 15 to 20)
#    0.000    2.571    0.000    5.143    0.000    8.571 
#    0.000    0.000    0.000    0.000    0.000    1.000 
#    0.000    0.000    0.000    0.000    0.000    0.000 
#
# Total GULP energy -347075.957316 kJ/mol
# GULP energy per Si atom -12395.569904 kJ/mol
# Density = 1.628152 g / cm^3
# Si number density = 16.318665 Si / 1000 Ang^3
#
#
#
# Elastic Constant Matrix: (Units=GPa)
#
#
# Indices 1 2 3 4 5 6 
#
# 1 111.9160 41.0567 58.3414 0.0000 -13.6981 0.0000
# 2 41.0567 83.8636 45.2819 0.0000 -14.5930 0.0000
# 3 58.3414 45.2819 119.2938 0.0000 -11.7833 0.0000
# 4 0.0000 0.0000 0.0000 22.9836 0.0000 -7.2830
# 5 -13.6981 -14.5930 -11.7833 0.0000 22.1572 0.0000
# 6 0.0000 0.0000 0.0000 -7.2830 0.0000 20.8749
#
#
#
# Elastic Compliance Matrix: (Units=1/GPa)
#
#
# Indices 1 2 3 4 5 6 
#
# 1 0.013038 -0.003183 -0.004833 0.000000 0.003394 0.000000
# 2 -0.003183 0.016959 -0.004192 0.000000 0.006972 0.000000
# 3 -0.004833 -0.004192 0.012422 0.000000 0.000857 0.000000
# 4 0.000000 0.000000 0.000000 0.048917 0.000000 0.017067
# 5 0.003394 0.006972 0.000857 0.000000 0.052278 0.000000
# 6 0.000000 0.000000 0.000000 0.017067 0.000000 0.053859
#
#
# Mechanical properties :
#
#
# Convention : Reuss Voigt Hill
#
# Bulk Modulus (GPa) = 55.54478 67.15927 61.35203
# Shear Modulus (GPa) = 21.94044 24.56271 23.25158
#
# Velocity S-wave (km/s) = 3.67072 3.88389 3.77881
# Velocity P-wave (km/s) = 7.21644 7.83307 7.53107
#
# Compressibility (1/GPa) = 0.01800349
#
# Stress axis : x y z
#
# Youngs Moduli (GPa) = 76.70143 58.96545 80.50159
#
# Poissons Ratio (x) = 0.18767 0.38905
# Poissons Ratio (y) = 0.24412 0.33747
# Poissons Ratio (z) = 0.37068 0.24719
#
# Static dielectric constant tensor:
#      x y z
#    x 2.858240 0.000000 0.337640 
#    y 0.000000 3.036480 0.000000 
#    z 0.337640 0.000000 2.760480 
# 
# 
# High freq. dielectric constant tensor:
#      x y z
#    x 1.608030 0.000000 -0.020800 
#    y 0.000000 1.625430 0.000000 
#    z -0.020800 0.000000 1.614050 
# 
# From -- ./inp_files/291944.got.cif
#   From: 2010.06.25/outbox.cif.g09.slc.cpg/sg12_146_cif.got.tgz:291944.got - 2010.06.28 00:19:55.
