data_PCOD8095328
_publ_section_title
;
Structure prediction by ZEFSAII (Michael W. Deem and Ramdas Pophale) SiO2 
 PCOD8095328
Probable space group: C 2/M
;
_chemical_formula_sum "Si O2"
_cell_formula_units_Z 64
_cell_length_a 15.594510
_cell_length_b 9.449171
_cell_length_c 26.622964
_cell_angle_alpha 90.000000
_cell_angle_beta 64.086330
_cell_angle_gamma 90.000000
_cell_volume 3528.584980
_symmetry_space_group_name_H-M "C 2/M"
_symmetry_group_IT_number 12
_symmetry_cell_setting 'monoclinic'
loop_
_space_group_symop_operation_xyz
x,y,z
-x,y,-z
-x,-y,-z
x,-y,z
1/2+x,1/2+y,z
1/2-x,1/2+y,-z
1/2-x,1/2-y,-z
1/2+x,1/2-y,z
loop_
_atom_site_type_symbol
_atom_site_label
_atom_site_fract_x
_atom_site_fract_y
_atom_site_fract_z
Si Si1 0.514510 0.346011 0.554807
Si Si2 0.215268 0.335586 0.935028
Si Si3 0.807952 0.331592 0.256031
Si Si4 0.594847 0.338716 0.322294
Si Si5 0.417560 0.165362 0.326059
Si Si6 0.326581 0.838848 0.450966
Si Si7 0.118311 0.335573 0.064993
Si Si8 0.596623 0.831820 0.870464
O O1 0.500000 0.340940 0.500000
O O2 0.563129 0.500000 0.555069
O O3 0.419644 0.334609 0.613317
O O4 0.573041 0.207390 0.552659
O O5 0.241380 0.500000 0.922164
O O6 0.313557 0.249940 0.914764
O O7 0.158531 0.275662 0.901458
O O8 0.148156 0.309667 0.000012
O O9 0.804385 0.500000 0.259281
O O10 0.699561 0.273064 0.285552
O O11 0.872117 0.276877 0.286021
O O12 0.856206 0.275304 0.192765
O O13 0.589157 0.500000 0.303843
O O14 0.513867 0.250952 0.313618
O O15 0.334264 0.188458 0.389195
O O16 0.445378 0.000000 0.316055
O O17 0.250000 0.750000 0.500000
O O18 0.305534 0.000000 0.468947
O O19 0.125147 0.500000 0.077895
O O20 0.011508 0.275531 0.098569
O O21 0.594684 0.000000 0.872893
#
# Coordination Sequence:
#
# PCOD8095328 Si02
#       8
#     8   8   8   8   8   8   8   8
#     4   9  18  31  50  72  95 123 156 193 241 298
#     4   9  17  30  49  73 101 132 165 203 246 288
#     4   9  18  32  52  74  95 129 169 203 242 291
#     4   9  18  33  52  72  96 125 161 201 242 291
#     4   9  19  35  53  71  97 128 161 200 245 294
#     4  10  20  32  49  72  98 124 155 196 244 296
#     4   9  17  30  49  73 101 133 166 202 244 289
#     4   9  17  30  49  73  98 128 170 207 239 287
#
# _framework density 18.137581999999998
#
# number of rings (size 3 to 8) (size 9 to 14) (size 15 to 20)
#    0.000    2.875    0.000    0.750    1.750    3.250 
#    0.000    1.250    0.000    4.500    0.000    0.000 
#    0.000    0.000    0.000    0.000    0.000    0.000 
#
# Total GULP energy -396576.448413 kJ/mol
# GULP energy per Si atom -12393.014013 kJ/mol
# Density = 1.809630 g / cm^3
# Si number density = 18.137582 Si / 1000 Ang^3
#
#
#
# Elastic Constant Matrix: (Units=GPa)
#
#
# Indices 1 2 3 4 5 6 
#
# 1 154.4064 47.6954 90.3029 0.0000 -1.9779 0.0000
# 2 47.6954 50.2560 41.0269 0.0000 -0.0020 0.0000
# 3 90.3029 41.0269 125.9329 0.0000 -2.2161 0.0000
# 4 0.0000 0.0000 0.0000 14.8245 0.0000 2.1487
# 5 -1.9779 -0.0020 -2.2161 0.0000 26.7764 0.0000
# 6 0.0000 0.0000 0.0000 2.1487 0.0000 18.9928
#
#
#
# Elastic Compliance Matrix: (Units=1/GPa)
#
#
# Indices 1 2 3 4 5 6 
#
# 1 0.012410 -0.006155 -0.006888 0.000000 0.000346 0.000000
# 2 -0.006155 0.030175 -0.005433 0.000000 -0.000902 0.000000
# 3 -0.006888 -0.005433 0.014662 0.000000 0.000704 0.000000
# 4 0.000000 0.000000 0.000000 0.068580 0.000000 -0.007758
# 5 0.000346 -0.000902 0.000704 0.000000 0.037430 0.000000
# 6 0.000000 0.000000 0.000000 -0.007758 0.000000 0.053529
#
#
# Mechanical properties :
#
#
# Convention : Reuss Voigt Hill
#
# Bulk Modulus (GPa) = 49.27097 76.51619 62.89358
# Shear Modulus (GPa) = 19.19363 22.22342 20.70853
#
# Velocity S-wave (km/s) = 3.25657 3.50418 3.38264
# Velocity P-wave (km/s) = 6.43152 7.65836 7.07159
#
# Compressibility (1/GPa) = 0.02029593
#
# Stress axis : x y z
#
# Youngs Moduli (GPa) = 80.57753 33.14045 68.20338
#
# Poissons Ratio (x) = 0.20398 0.46977
# Poissons Ratio (y) = 0.49597 0.37052
# Poissons Ratio (z) = 0.55500 0.18004
#
# Static dielectric constant tensor:
#      x y z
#    x 3.634360 0.000000 -0.076350 
#    y 0.000000 3.214770 0.000000 
#    z -0.076350 0.000000 4.071060 
# 
# 
# High freq. dielectric constant tensor:
#      x y z
#    x 1.698080 0.000000 -0.001380 
#    y 0.000000 1.673080 0.000000 
#    z -0.001380 0.000000 1.710210 
# 
# From -- ./inp_files/375015.got.cif
#   From: 2010.06.25/outbox.cif.g09.slc.cpg/sg12_188_cif.got.tgz:375015.got - 2010.06.28 00:19:55.
