data_PCOD8095688
_publ_section_title
;
Structure prediction by ZEFSAII (Michael W. Deem and Ramdas Pophale) SiO2 
 PCOD8095688
Probable space group: C 2/M
;
_chemical_formula_sum "Si O2"
_cell_formula_units_Z 64
_cell_length_a 27.653589
_cell_length_b 9.288525
_cell_length_c 34.007289
_cell_angle_alpha 90.000000
_cell_angle_beta 155.913898
_cell_angle_gamma 90.000000
_cell_volume 3564.892764
_symmetry_space_group_name_H-M "C 2/M"
_symmetry_group_IT_number 12
_symmetry_cell_setting 'monoclinic'
loop_
_space_group_symop_operation_xyz
x,y,z
-x,y,-z
-x,-y,-z
x,-y,z
1/2+x,1/2+y,z
1/2-x,1/2+y,-z
1/2-x,1/2-y,-z
1/2+x,1/2-y,z
loop_
_atom_site_type_symbol
_atom_site_label
_atom_site_fract_x
_atom_site_fract_y
_atom_site_fract_z
Si Si1 0.475367 0.164914 0.395919
Si Si2 0.341631 0.831948 0.133270
Si Si3 0.335133 0.164839 0.217083
Si Si4 0.871959 0.838453 0.385824
Si Si5 0.954354 0.332273 0.774071
Si Si6 0.398649 0.168972 0.953909
Si Si7 0.607082 0.833962 0.961109
Si Si8 0.725276 0.169522 0.616546
O O1 0.446690 0.190511 0.328754
O O2 0.383947 0.262708 0.352566
O O3 0.611875 0.206013 0.505151
O O4 0.453709 0.000000 0.392647
O O5 0.376210 0.791897 0.203787
O O6 0.447341 0.779407 0.183899
O O7 0.319285 0.000000 0.110797
O O8 0.220989 0.754079 0.031371
O O9 0.224627 0.258494 0.149539
O O10 0.293100 0.000000 0.186874
O O11 0.785702 0.744926 0.349104
O O12 0.000000 0.844317 0.500000
O O13 0.819853 0.000000 0.342149
O O14 0.923376 0.500000 0.745078
O O15 0.838776 0.237267 0.679392
O O16 0.999128 0.301343 0.851594
O O17 0.382305 0.000000 0.936095
O O18 0.500000 0.228302 0.000000
O O19 0.432648 0.208866 0.024192
O O20 0.644231 0.000000 0.986625
O O21 0.741828 0.000000 0.634930
#
# Coordination Sequence:
#
# PCOD8095688 Si02
#       8
#     8   8   8   8   8   8   8   8
#     4   9  18  33  51  71  98 131 165 200 240 288
#     4   9  18  33  52  72  95 125 162 205 249 293
#     4   9  18  33  52  72  95 127 166 203 241 288
#     4   9  17  30  49  71  95 124 158 196 237 282
#     4  10  20  33  49  71  99 129 162 204 252 294
#     4   9  18  32  48  70 101 130 156 193 242 293
#     4   9  18  32  50  71  96 126 159 198 245 298
#     4  10  20  33  49  71 100 131 163 201 243 287
#
# _framework density 17.952853999999999
#
# number of rings (size 3 to 8) (size 9 to 14) (size 15 to 20)
#    0.000    2.750    0.000    1.125    0.000    4.750 
#    0.000    1.875    0.000    0.000    0.000    0.000 
#    0.000    0.000    0.000    0.000    0.000    0.000 
#
# Total GULP energy -396805.357460 kJ/mol
# GULP energy per Si atom -12400.167421 kJ/mol
# Density = 1.791199 g / cm^3
# Si number density = 17.952854 Si / 1000 Ang^3
#
#
#
# Elastic Constant Matrix: (Units=GPa)
#
#
# Indices 1 2 3 4 5 6 
#
# 1 106.6597 39.9130 52.6112 0.0001 13.7083 0.0000
# 2 39.9130 65.7790 38.2283 0.0005 8.6064 0.0003
# 3 52.6112 38.2283 87.5363 0.0032 3.0708 0.0003
# 4 0.0001 0.0005 0.0032 27.7588 0.0004 7.1297
# 5 13.7083 8.6064 3.0708 0.0004 28.1671 -0.0001
# 6 0.0000 0.0003 0.0003 7.1297 -0.0001 27.0503
#
#
#
# Elastic Compliance Matrix: (Units=1/GPa)
#
#
# Indices 1 2 3 4 5 6 
#
# 1 0.015163 -0.004454 -0.006984 0.000001 -0.005257 0.000000
# 2 -0.004454 0.022493 -0.007008 0.000001 -0.003941 0.000000
# 3 -0.006984 -0.007008 0.018558 -0.000002 0.003517 0.000000
# 4 0.000001 0.000001 -0.000002 0.038640 -0.000001 -0.010184
# 5 -0.005257 -0.003941 0.003517 -0.000001 0.038882 0.000000
# 6 0.000000 0.000000 0.000000 -0.010184 0.000000 0.039652
#
#
# Mechanical properties :
#
#
# Convention : Reuss Voigt Hill
#
# Bulk Modulus (GPa) = 51.75101 57.94222 54.84662
# Shear Modulus (GPa) = 23.07111 25.21008 24.14060
#
# Velocity S-wave (km/s) = 3.58871 3.75138 3.67095
# Velocity P-wave (km/s) = 6.78678 7.14902 6.97026
#
# Compressibility (1/GPa) = 0.01932329
#
# Stress axis : x y z
#
# Youngs Moduli (GPa) = 65.95116 44.45755 53.88430
#
# Poissons Ratio (x) = 0.19801 0.37631
# Poissons Ratio (y) = 0.29374 0.37762
# Poissons Ratio (z) = 0.46058 0.31156
#
# Static dielectric constant tensor:
#      x y z
#    x 3.411430 0.000000 -0.078710 
#    y 0.000000 3.353290 0.000000 
#    z -0.078710 0.000000 3.173440 
# 
# 
# High freq. dielectric constant tensor:
#      x y z
#    x 1.692230 0.000000 -0.004570 
#    y 0.000000 1.694930 0.000000 
#    z -0.004570 0.000000 1.680780 
# 
# From -- ./inp_files/243897.got.cif
#   From: 2010.06.25/outbox.cif.g09.slc.cpg/sg12_122_cif.got.tgz:243897.got - 2010.06.28 00:19:55.
