data_PCOD8095606
_publ_section_title
;
Structure prediction by ZEFSAII (Michael W. Deem and Ramdas Pophale) SiO2 
 PCOD8095606
Probable space group: C 2/M
;
_chemical_formula_sum "Si O2"
_cell_formula_units_Z 64
_cell_length_a 24.219504
_cell_length_b 8.766793
_cell_length_c 21.430533
_cell_angle_alpha 90.000000
_cell_angle_beta 47.923473
_cell_angle_gamma 90.000000
_cell_volume 3377.453925
_symmetry_space_group_name_H-M "C 2/M"
_symmetry_group_IT_number 12
_symmetry_cell_setting 'monoclinic'
loop_
_space_group_symop_operation_xyz
x,y,z
-x,y,-z
-x,-y,-z
x,-y,z
1/2+x,1/2+y,z
1/2-x,1/2+y,-z
1/2-x,1/2-y,-z
1/2+x,1/2-y,z
loop_
_atom_site_type_symbol
_atom_site_label
_atom_site_fract_x
_atom_site_fract_y
_atom_site_fract_z
Si Si1 0.391819 0.178251 0.766008
Si Si2 0.970598 0.180548 0.290013
Si Si3 0.812809 0.679958 0.409622
Si Si4 0.392676 0.668139 0.012433
Si Si5 0.753134 0.179773 0.195310
Si Si6 0.825495 0.831101 0.929668
Si Si7 0.688367 0.175102 0.731745
Si Si8 0.018666 0.677203 0.851979
O O1 0.471319 0.264148 0.699943
O O2 0.326051 0.242838 0.770626
O O3 0.368772 0.213153 0.853857
O O4 0.404462 0.000000 0.745356
O O5 0.891225 0.247992 0.369382
O O6 0.995448 0.233297 0.201951
O O7 0.967290 0.000000 0.292855
O O8 0.818354 0.500000 0.414911
O O9 0.750000 0.750000 0.500000
O O10 0.793204 0.721083 0.353084
O O11 0.412403 0.500000 0.025147
O O12 0.368129 0.647557 0.960775
O O13 0.466871 0.771578 0.949839
O O14 0.325433 0.746102 0.103174
O O15 0.759881 0.223639 0.262580
O O16 0.753146 0.000000 0.185055
O O17 0.815715 0.000000 0.906166
O O18 0.750000 0.750000 0.000000
O O19 0.602273 0.208672 0.811933
O O20 0.708071 0.000000 0.729423
O O21 0.006218 0.500000 0.846414
#
# Coordination Sequence:
#
# PCOD8095606 Si02
#       8
#     8   8   8   8   8   8   8   8
#     4  11  21  35  52  75 109 146 188 235 278 324
#     4  11  21  34  55  86 116 144 180 224 276 329
#     4  10  21  40  66  95 119 141 170 213 268 326
#     4  10  20  33  47  71 104 142 193 241 281 326
#     4  10  22  37  52  73 106 150 194 231 273 325
#     4  11  20  31  47  70 102 141 189 240 286 324
#     4   9  21  39  56  79 111 142 179 222 269 328
#     4  10  20  34  52  75 105 144 187 237 287 326
#
# _framework density 18.949185
#
# number of rings (size 3 to 8) (size 9 to 14) (size 15 to 20)
#    0.000    1.750    2.500    3.375    0.000    5.500 
#    0.000    2.500    0.000    0.750    0.000    5.250 
#    0.000    0.000    0.000    0.000    0.000    0.000 
#
# Total GULP energy -396614.047036 kJ/mol
# GULP energy per Si atom -12394.188970 kJ/mol
# Density = 1.890606 g / cm^3
# Si number density = 18.949185 Si / 1000 Ang^3
#
#
#
# Elastic Constant Matrix: (Units=GPa)
#
#
# Indices 1 2 3 4 5 6 
#
# 1 110.2443 41.1528 59.7492 -0.0013 -8.0646 0.0060
# 2 41.1528 84.3682 38.9231 -0.0038 -6.2889 0.0086
# 3 59.7492 38.9231 106.4979 -0.0001 -18.3979 -0.0021
# 4 -0.0013 -0.0038 -0.0001 28.5598 0.0010 -2.0763
# 5 -8.0646 -6.2889 -18.3979 0.0010 20.4393 -0.0032
# 6 0.0060 0.0086 -0.0021 -2.0763 -0.0032 27.9908
#
#
#
# Elastic Compliance Matrix: (Units=1/GPa)
#
#
# Indices 1 2 3 4 5 6 
#
# 1 0.014057 -0.003860 -0.006776 0.000000 -0.001741 -0.000003
# 2 -0.003860 0.015319 -0.003413 0.000002 0.000119 -0.000004
# 3 -0.006776 -0.003413 0.016336 -0.000001 0.010981 0.000005
# 4 0.000000 0.000002 -0.000001 0.035204 -0.000002 0.002611
# 5 -0.001741 0.000119 0.010981 -0.000002 0.058159 0.000008
# 6 -0.000003 -0.000004 0.000005 0.002611 0.000008 0.035920
#
#
# Mechanical properties :
#
#
# Convention : Reuss Voigt Hill
#
# Bulk Modulus (GPa) = 56.77501 64.52894 60.65198
# Shear Modulus (GPa) = 23.92759 26.15035 25.03897
#
# Velocity S-wave (km/s) = 3.55734 3.71890 3.63902
# Velocity P-wave (km/s) = 6.84833 7.25037 7.05222
#
# Compressibility (1/GPa) = 0.01761338
#
# Stress axis : x y z
#
# Youngs Moduli (GPa) = 71.13902 65.27865 61.21498
#
# Poissons Ratio (x) = 0.25199 0.41482
# Poissons Ratio (y) = 0.27461 0.20890
# Poissons Ratio (z) = 0.48207 0.22277
#
# Static dielectric constant tensor:
#      x y z
#    x 3.483440 -0.000010 -0.189180 
#    y -0.000010 3.583950 0.000000 
#    z -0.189180 0.000000 3.254870 
# 
# 
# High freq. dielectric constant tensor:
#      x y z
#    x 1.736030 0.000000 -0.019680 
#    y 0.000000 1.739420 0.000000 
#    z -0.019680 0.000000 1.704600 
# 
# From -- ./inp_files/324285.got.cif
#   From: 2010.06.25/outbox.cif.g09.slc.cpg/sg12_163_cif.got.tgz:324285.got - 2010.06.28 00:19:55.
