data_PCOD8095707
_publ_section_title
;
Structure prediction by ZEFSAII (Michael W. Deem and Ramdas Pophale) SiO2 
 PCOD8095707
Probable space group: C 2/M
;
_chemical_formula_sum "Si O2"
_cell_formula_units_Z 64
_cell_length_a 28.092819
_cell_length_b 9.017264
_cell_length_c 20.437276
_cell_angle_alpha 90.000000
_cell_angle_beta 48.345615
_cell_angle_gamma 90.000000
_cell_volume 3868.219605
_symmetry_space_group_name_H-M "C 2/M"
_symmetry_group_IT_number 12
_symmetry_cell_setting 'monoclinic'
loop_
_space_group_symop_operation_xyz
x,y,z
-x,y,-z
-x,-y,-z
x,-y,z
1/2+x,1/2+y,z
1/2-x,1/2+y,-z
1/2-x,1/2-y,-z
1/2+x,1/2-y,z
loop_
_atom_site_type_symbol
_atom_site_label
_atom_site_fract_x
_atom_site_fract_y
_atom_site_fract_z
Si Si1 0.048489 0.328740 0.514836
Si Si2 0.247899 0.328601 0.598305
Si Si3 0.153969 0.173625 0.600460
Si Si4 0.898786 0.331270 0.828142
Si Si5 0.481613 0.674747 0.326585
Si Si6 0.795022 0.672884 0.812086
Si Si7 0.327326 0.326633 0.648293
Si Si8 0.289943 0.171521 0.018956
O O1 0.067780 0.500000 0.507740
O O2 0.013472 0.265163 0.610587
O O3 0.110270 0.230520 0.445369
O O4 0.000000 0.311906 0.500000
O O5 0.236019 0.500000 0.596206
O O6 0.182057 0.245774 0.641056
O O7 0.305025 0.271148 0.499327
O O8 0.267065 0.298436 0.655822
O O9 0.081281 0.223129 0.655790
O O10 0.158486 0.000000 0.605333
O O11 0.923023 0.500000 0.798205
O O12 0.850168 0.293316 0.813963
O O13 0.957771 0.218944 0.772602
O O14 0.864096 0.310848 0.930534
O O15 0.481705 0.500000 0.341476
O O16 0.781583 0.500000 0.816977
O O17 0.817071 0.736719 0.723320
O O18 0.728672 0.751136 0.895276
O O19 0.335839 0.500000 0.655909
O O20 0.270546 0.000000 0.040009
O O21 0.250000 0.250000 0.000000
#
# Coordination Sequence:
#
# PCOD8095707 Si02
#       8
#     8   8   8   8   8   8   8   8
#     4  11  23  35  46  64  95 133 169 200 233 279
#     4   9  18  33  50  69  93 121 158 202 244 288
#     4   9  18  33  49  69  94 120 158 203 243 286
#     4   9  19  33  48  70 100 130 163 201 237 284
#     4  11  21  33  49  71  97 127 163 201 240 287
#     4  10  20  33  49  72 101 131 167 203 239 288
#     4  11  21  34  50  71  98 127 163 202 242 289
#     4   9  17  31  50  71  97 128 163 205 247 284
#
# _framework density 16.545079999999999
#
# number of rings (size 3 to 8) (size 9 to 14) (size 15 to 20)
#    0.000    2.125    1.250    3.375    0.000    9.000 
#    0.000    0.000    0.000    0.000    0.000    0.875 
#    0.000    7.000    0.000    0.000    0.000    0.000 
#
# Total GULP energy -396769.760799 kJ/mol
# GULP energy per Si atom -12399.055025 kJ/mol
# Density = 1.650742 g / cm^3
# Si number density = 16.545080 Si / 1000 Ang^3
#
#
#
# Elastic Constant Matrix: (Units=GPa)
#
#
# Indices 1 2 3 4 5 6 
#
# 1 66.9334 38.4329 20.3674 0.0042 -15.4205 -0.0029
# 2 38.4329 81.3979 31.5586 -0.0016 -10.9374 -0.0083
# 3 20.3674 31.5586 71.2948 0.0066 -16.0596 -0.0054
# 4 0.0042 -0.0016 0.0066 32.4694 -0.0038 -0.7326
# 5 -15.4205 -10.9374 -16.0596 -0.0038 12.2786 0.0009
# 6 -0.0029 -0.0083 -0.0054 -0.7326 0.0009 25.7659
#
#
#
# Elastic Compliance Matrix: (Units=1/GPa)
#
#
# Indices 1 2 3 4 5 6 
#
# 1 0.026083 -0.009772 0.003250 -0.000001 0.028303 0.000000
# 2 -0.009772 0.018874 -0.006436 0.000003 -0.003879 0.000004
# 3 0.003250 -0.006436 0.022080 -0.000002 0.027227 0.000002
# 4 -0.000001 0.000003 -0.000002 0.030818 0.000008 0.000876
# 5 0.028303 -0.003879 0.027227 0.000008 0.149143 0.000003
# 6 0.000000 0.000004 0.000002 0.000876 0.000003 0.038836
#
#
# Mechanical properties :
#
#
# Convention : Reuss Voigt Hill
#
# Bulk Modulus (GPa) = 24.31994 44.48266 34.40130
# Shear Modulus (GPa) = 15.36297 22.72060 19.04179
#
# Velocity S-wave (km/s) = 3.05052 3.70976 3.39618
# Velocity P-wave (km/s) = 5.20948 6.73007 6.01800
#
# Compressibility (1/GPa) = 0.04111853
#
# Stress axis : x y z
#
# Youngs Moduli (GPa) = 38.33895 52.98392 45.28978
#
# Poissons Ratio (x) = 0.51778 -0.14718
# Poissons Ratio (y) = 0.37466 0.29151
# Poissons Ratio (z) = -0.12459 0.34103
#
# Static dielectric constant tensor:
#      x y z
#    x 3.006150 -0.000010 -0.040380 
#    y -0.000010 3.267110 0.000020 
#    z -0.040380 0.000020 3.235220 
# 
# 
# High freq. dielectric constant tensor:
#      x y z
#    x 1.611540 0.000000 -0.004210 
#    y 0.000000 1.651130 0.000000 
#    z -0.004210 0.000000 1.626070 
# 
# From -- ./inp_files/326813.got.cif
#   From: 2010.06.25/outbox.cif.g09.slc.cpg/sg12_164_cif.got.tgz:326813.got - 2010.06.28 00:19:55.
