data_PCOD8095709
_publ_section_title
;
Structure prediction by ZEFSAII (Michael W. Deem and Ramdas Pophale) SiO2 
 PCOD8095709
Probable space group: C 2/M
;
_chemical_formula_sum "Si O2"
_cell_formula_units_Z 48
_cell_length_a 32.061581
_cell_length_b 8.979366
_cell_length_c 16.078965
_cell_angle_alpha 90.000000
_cell_angle_beta 35.478562
_cell_angle_gamma 90.000000
_cell_volume 2686.673128
_symmetry_space_group_name_H-M "C 2/M"
_symmetry_group_IT_number 12
_symmetry_cell_setting 'monoclinic'
loop_
_space_group_symop_operation_xyz
x,y,z
-x,y,-z
-x,-y,-z
x,-y,z
1/2+x,1/2+y,z
1/2-x,1/2+y,-z
1/2-x,1/2-y,-z
1/2+x,1/2-y,z
loop_
_atom_site_type_symbol
_atom_site_label
_atom_site_fract_x
_atom_site_fract_y
_atom_site_fract_z
Si Si1 0.730742 0.325482 0.284550
Si Si2 0.103650 0.324029 0.393971
Si Si3 0.275902 0.675315 0.374005
Si Si4 0.067730 0.825550 0.942326
Si Si5 0.387253 0.174572 0.969640
Si Si6 0.552927 0.175589 0.299315
O O1 0.723201 0.500000 0.314370
O O2 0.666991 0.269746 0.330676
O O3 0.728479 0.240374 0.375910
O O4 0.803886 0.286704 0.117338
O O5 0.119684 0.500000 0.373875
O O6 0.095554 0.268778 0.311709
O O7 0.030827 0.281251 0.560902
O O8 0.263075 0.500000 0.399656
O O9 0.250000 0.750000 0.500000
O O10 0.359508 0.715930 0.224828
O O11 0.062143 0.000000 0.967232
O O12 0.064882 0.747643 0.036280
O O13 0.000000 0.766139 0.000000
O O14 0.411801 0.243470 0.841275
O O15 0.401915 0.000000 0.949253
O O16 0.560075 0.000000 0.287121
#
# Coordination Sequence:
#
# PCOD8095709 Si02
#       6
#     8   8   8   8   8   8
#     4  10  20  33  49  72 102 131 162 202 244 288
#     4   9  17  32  53  73  97 130 166 203 244 291
#     4  10  20  35  54  74  99 130 163 200 243 292
#     4   9  19  35  52  72  99 128 159 199 246 290
#     4   9  18  33  51  71  97 129 165 202 239 286
#     4   8  16  32  52  73  97 128 166 205 244 289
#
# _framework density 17.865962
#
# number of rings (size 3 to 8) (size 9 to 14) (size 15 to 20)
#    0.000    2.833    0.000    2.000    0.000    3.667 
#    0.000    6.667    0.000    0.000    0.000    0.000 
#    0.000    0.000    0.000    0.000    0.000    0.000 
#
# Total GULP energy -297595.118714 kJ/mol
# GULP energy per Si atom -12399.796613 kJ/mol
# Density = 1.782530 g / cm^3
# Si number density = 17.865962 Si / 1000 Ang^3
#
#
#
# Elastic Constant Matrix: (Units=GPa)
#
#
# Indices 1 2 3 4 5 6 
#
# 1 160.7698 47.7757 86.0305 0.0000 3.4378 0.0000
# 2 47.7757 49.7560 39.7724 -0.0002 5.4709 0.0000
# 3 86.0305 39.7724 117.8509 0.0001 28.0538 0.0000
# 4 0.0000 -0.0002 0.0001 18.1614 0.0000 -0.2418
# 5 3.4378 5.4709 28.0538 0.0000 33.6917 0.0000
# 6 0.0000 0.0000 0.0000 -0.2418 0.0000 34.4304
#
#
#
# Elastic Compliance Matrix: (Units=1/GPa)
#
#
# Indices 1 2 3 4 5 6 
#
# 1 0.012522 -0.005683 -0.008904 0.000000 0.007059 0.000000
# 2 -0.005683 0.030557 -0.006387 0.000000 0.000936 0.000000
# 3 -0.008904 -0.006387 0.020800 0.000000 -0.015374 0.000000
# 4 0.000000 0.000000 0.000000 0.055067 0.000000 0.000387
# 5 0.007059 0.000936 -0.015374 0.000000 0.041610 0.000000
# 6 0.000000 0.000000 0.000000 0.000387 0.000000 0.029047
#
#
# Mechanical properties :
#
#
# Convention : Reuss Voigt Hill
#
# Bulk Modulus (GPa) = 45.59387 75.05932 60.32660
# Shear Modulus (GPa) = 20.93266 27.57658 24.25462
#
# Velocity S-wave (km/s) = 3.42665 3.93304 3.68854
# Velocity P-wave (km/s) = 6.42116 7.92015 7.20972
#
# Compressibility (1/GPa) = 0.02193277
#
# Stress axis : x y z
#
# Youngs Moduli (GPa) = 79.85629 32.72552 48.07690
#
# Poissons Ratio (x) = 0.18598 0.42807
# Poissons Ratio (y) = 0.45383 0.30705
# Poissons Ratio (z) = 0.71102 0.20901
#
# Static dielectric constant tensor:
#      x y z
#    x 3.487800 0.000000 0.209530 
#    y 0.000000 3.124120 0.000000 
#    z 0.209530 0.000000 3.606860 
# 
# 
# High freq. dielectric constant tensor:
#      x y z
#    x 1.698910 0.000000 0.004910 
#    y 0.000000 1.676030 0.000000 
#    z 0.004910 0.000000 1.692400 
# 
# From -- ./inp_files/229886.got.cif
#   From: 2010.06.25/outbox.cif.g09.slc.cpg/sg12_115_cif.got.tgz:229886.got - 2010.06.28 00:19:55.
