data_PCOD8095249
_publ_section_title
;
Structure prediction by ZEFSAII (Michael W. Deem and Ramdas Pophale) SiO2 
 PCOD8095249
Probable space group: C 2/M
;
_chemical_formula_sum "Si O2"
_cell_formula_units_Z 56
_cell_length_a 18.101873
_cell_length_b 18.086189
_cell_length_c 13.564112
_cell_angle_alpha 90.000000
_cell_angle_beta 48.678925
_cell_angle_gamma 90.000000
_cell_volume 3335.141074
_symmetry_space_group_name_H-M "C 2/M"
_symmetry_group_IT_number 12
_symmetry_cell_setting 'monoclinic'
loop_
_space_group_symop_operation_xyz
x,y,z
-x,y,-z
-x,-y,-z
x,-y,z
1/2+x,1/2+y,z
1/2-x,1/2+y,-z
1/2-x,1/2-y,-z
1/2+x,1/2-y,z
loop_
_atom_site_type_symbol
_atom_site_label
_atom_site_fract_x
_atom_site_fract_y
_atom_site_fract_z
Si Si1 0.171544 0.412486 0.004290
Si Si2 0.473895 0.835076 0.239624
Si Si3 0.107288 0.580965 0.857520
Si Si4 0.793203 0.916413 0.253764
Si Si5 0.424080 0.914633 0.479456
Si Si6 0.343869 0.416024 0.988936
Si Si7 0.974230 0.816048 0.134429
O O1 0.152718 0.500000 0.036584
O O2 0.181502 0.393019 0.878941
O O3 0.270997 0.385432 0.968807
O O4 0.080871 0.369305 0.130700
O O5 0.390737 0.866369 0.238293
O O6 0.442616 0.855047 0.377450
O O7 0.474819 0.748352 0.215059
O O8 0.137378 0.500000 0.793046
O O9 0.000000 0.579493 0.000000
O O10 0.685709 0.898722 0.388162
O O11 0.870305 0.858052 0.230009
O O12 0.826298 0.000000 0.252481
O O13 0.787028 0.908270 0.141785
O O14 0.500000 0.898191 0.500000
O O15 0.436227 0.000000 0.432565
O O16 0.372549 0.500000 0.941012
O O17 0.444223 0.372076 0.899856
O O18 0.000000 0.787913 0.000000
#
# Coordination Sequence:
#
# PCOD8095249 Si02
#       7
#     8   8   8   8   8   8   8
#     4   9  16  27  45  69  96 125 157 196 240 283
#     4  11  19  29  46  70 101 127 152 189 240 293
#     4   8  14  25  41  62  90 122 152 182 223 279
#     4   9  18  33  51  70  94 126 166 205 235 274
#     4  10  20  34  53  75  96 123 161 200 238 282
#     4   9  17  31  51  72  95 125 162 204 243 277
#     4  10  20  32  48  71  98 130 163 195 238 289
#
# _framework density 16.790894000000002
#
# number of rings (size 3 to 8) (size 9 to 14) (size 15 to 20)
#    0.000    2.571    0.000    4.714    0.000    5.143 
#    0.000    1.429    0.000    0.000    0.000    0.000 
#    0.000    6.857    0.000    0.000    0.000    0.000 
#
# Total GULP energy -347068.112794 kJ/mol
# GULP energy per Si atom -12395.289743 kJ/mol
# Density = 1.675268 g / cm^3
# Si number density = 16.790894 Si / 1000 Ang^3
#
#
#
# Elastic Constant Matrix: (Units=GPa)
#
#
# Indices 1 2 3 4 5 6 
#
# 1 132.9900 52.1952 50.9527 0.0000 -2.5524 0.0000
# 2 52.1952 78.1826 47.8085 0.0000 1.5874 0.0000
# 3 50.9527 47.8085 75.1507 0.0000 -1.1942 0.0000
# 4 0.0000 0.0000 0.0000 16.8559 0.0000 6.4689
# 5 -2.5524 1.5874 -1.1942 0.0000 22.4464 0.0000
# 6 0.0000 0.0000 0.0000 6.4689 0.0000 6.6628
#
#
#
# Elastic Compliance Matrix: (Units=1/GPa)
#
#
# Indices 1 2 3 4 5 6 
#
# 1 0.011121 -0.004672 -0.004547 0.000000 0.001353 0.000000
# 2 -0.004672 0.023005 -0.011512 0.000000 -0.002771 0.000000
# 3 -0.004547 -0.011512 0.023737 0.000000 0.001560 0.000000
# 4 0.000000 0.000000 0.000000 0.094561 0.000000 -0.091809
# 5 0.001353 -0.002771 0.001560 0.000000 0.044983 0.000000
# 6 0.000000 0.000000 0.000000 -0.091809 0.000000 0.239224
#
#
# Mechanical properties :
#
#
# Convention : Reuss Voigt Hill
#
# Bulk Modulus (GPa) = 60.96280 65.35958 63.16119
# Shear Modulus (GPa) = 10.34002 18.21748 14.27875
#
# Velocity S-wave (km/s) = 2.48425 3.29745 2.91930
# Velocity P-wave (km/s) = 6.67941 7.31489 7.00436
#
# Compressibility (1/GPa) = 0.01640345
#
# Stress axis : x y z
#
# Youngs Moduli (GPa) = 89.92221 43.46891 42.12770
#
# Poissons Ratio (x) = 0.20307 0.19154
# Poissons Ratio (y) = 0.42008 0.48496
# Poissons Ratio (z) = 0.40884 0.50040
#
# Static dielectric constant tensor:
#      x y z
#    x 3.479520 0.000000 0.069520 
#    y 0.000000 3.078630 0.000000 
#    z 0.069520 0.000000 2.840060 
# 
# 
# High freq. dielectric constant tensor:
#      x y z
#    x 1.659800 0.000000 0.000470 
#    y 0.000000 1.638560 0.000000 
#    z 0.000470 0.000000 1.608930 
# 
# From -- ./inp_files/157745.got.cif
#   From: 2010.06.25/outbox.cif.g09.slc.cpg/sg12_79_cif.got.tgz:157745.got - 2010.06.28 00:19:55.
