data_PCOD8095507
_publ_section_title
;
Structure prediction by ZEFSAII (Michael W. Deem and Ramdas Pophale) SiO2 
 PCOD8095507
Probable space group: C 2/M
;
_chemical_formula_sum "Si O2"
_cell_formula_units_Z 56
_cell_length_a 12.290739
_cell_length_b 19.061982
_cell_length_c 14.816446
_cell_angle_alpha 90.000000
_cell_angle_beta 64.218538
_cell_angle_gamma 90.000000
_cell_volume 3125.750426
_symmetry_space_group_name_H-M "C 2/M"
_symmetry_group_IT_number 12
_symmetry_cell_setting 'monoclinic'
loop_
_space_group_symop_operation_xyz
x,y,z
-x,y,-z
-x,-y,-z
x,-y,z
1/2+x,1/2+y,z
1/2-x,1/2+y,-z
1/2-x,1/2-y,-z
1/2+x,1/2-y,z
loop_
_atom_site_type_symbol
_atom_site_label
_atom_site_fract_x
_atom_site_fract_y
_atom_site_fract_z
Si Si1 0.909786 0.685180 0.614353
Si Si2 0.488044 0.419922 0.604004
Si Si3 0.339805 0.714736 0.899354
Si Si4 0.451307 0.785334 0.261588
Si Si5 0.848225 0.133489 0.309119
Si Si6 0.023571 0.080668 0.097093
Si Si7 0.209343 0.818704 0.279268
O O1 0.796985 0.631046 0.648521
O O2 0.856921 0.763832 0.630137
O O3 0.000000 0.671145 0.500000
O O4 0.982935 0.673865 0.681007
O O5 0.500000 0.386145 0.500000
O O6 0.454238 0.500000 0.605695
O O7 0.609879 0.411088 0.618762
O O8 0.373495 0.387119 0.697313
O O9 0.457396 0.765263 0.852492
O O10 0.369499 0.634638 0.916466
O O11 0.277835 0.715610 0.823728
O O12 0.250000 0.750000 0.000000
O O13 0.394927 0.711634 0.314664
O O14 0.344257 0.835893 0.265087
O O15 0.904405 0.101420 0.197179
O O16 0.060748 0.000000 0.106327
O O17 0.000000 0.089057 0.000000
#
# Coordination Sequence:
#
# PCOD8095507 Si02
#       7
#     8   8   8   8   8   8   8
#     4  10  20  32  52  83 112 146 174 226 287 330
#     4  11  22  36  57  81 108 148 194 235 272 324
#     4  10  21  33  56  84 114 145 182 237 284 338
#     4   9  20  33  51  83 112 143 177 226 286 336
#     4  10  20  35  56  80 114 141 188 233 275 339
#     4  10  21  36  58  82 107 145 186 234 284 330
#     4  10  20  35  53  80 112 147 183 228 284 334
#
# _framework density 17.915697999999999
#
# number of rings (size 3 to 8) (size 9 to 14) (size 15 to 20)
#    0.000    2.000    4.286    0.857   10.000    1.143 
#    0.000    0.000    0.000    4.286    0.000    2.000 
#    0.000    0.000    0.000    0.000    0.000    0.000 
#
# Total GULP energy -347078.729843 kJ/mol
# GULP energy per Si atom -12395.668923 kJ/mol
# Density = 1.787492 g / cm^3
# Si number density = 17.915698 Si / 1000 Ang^3
#
#
#
# Elastic Constant Matrix: (Units=GPa)
#
#
# Indices 1 2 3 4 5 6 
#
# 1 144.8271 40.7882 56.7022 0.0000 -6.5131 0.0000
# 2 40.7882 66.8666 37.7312 0.0000 -7.1563 0.0000
# 3 56.7022 37.7312 125.7644 0.0000 -7.1661 0.0000
# 4 0.0000 0.0000 0.0000 22.2363 0.0000 1.2680
# 5 -6.5131 -7.1563 -7.1661 0.0000 27.8046 0.0000
# 6 0.0000 0.0000 0.0000 1.2680 0.0000 18.3184
#
#
#
# Elastic Compliance Matrix: (Units=1/GPa)
#
#
# Indices 1 2 3 4 5 6 
#
# 1 0.009171 -0.003891 -0.002946 0.000000 0.000388 0.000000
# 2 -0.003891 0.019955 -0.004051 0.000000 0.003180 0.000000
# 3 -0.002946 -0.004051 0.010551 0.000000 0.000987 0.000000
# 4 0.000000 0.000000 0.000000 0.045150 0.000000 -0.003125
# 5 0.000388 0.003180 0.000987 0.000000 0.037129 0.000000
# 6 0.000000 0.000000 0.000000 -0.003125 0.000000 0.054806
#
#
# Mechanical properties :
#
#
# Convention : Reuss Voigt Hill
#
# Bulk Modulus (GPa) = 55.86007 67.54458 61.70232
# Shear Modulus (GPa) = 24.44931 27.15431 25.80181
#
# Velocity S-wave (km/s) = 3.69817 3.89739 3.79909
# Velocity P-wave (km/s) = 7.03437 7.61814 7.33207
#
# Compressibility (1/GPa) = 0.01790188
#
# Stress axis : x y z
#
# Youngs Moduli (GPa) = 109.03658 50.11289 94.77686
#
# Poissons Ratio (x) = 0.19498 0.27917
# Poissons Ratio (y) = 0.42424 0.38397
# Poissons Ratio (z) = 0.32117 0.20303
#
# Static dielectric constant tensor:
#      x y z
#    x 3.556770 0.000000 0.092280 
#    y 0.000000 3.121710 0.000000 
#    z 0.092280 0.000000 3.419730 
# 
# 
# High freq. dielectric constant tensor:
#      x y z
#    x 1.693360 0.000000 0.009110 
#    y 0.000000 1.661320 0.000000 
#    z 0.009110 0.000000 1.698660 
# 
# From -- ./inp_files/207247.got.cif
#   From: 2010.06.25/outbox.cif.g09.slc.cpg/sg12_104_cif.got.tgz:207247.got - 2010.06.28 00:19:55.
