data_PCOD8095323
_publ_section_title
;
Structure prediction by ZEFSAII (Michael W. Deem and Ramdas Pophale) SiO2 
 PCOD8095323
Probable space group: C 2/M
;
_chemical_formula_sum "Si O2"
_cell_formula_units_Z 56
_cell_length_a 19.074775
_cell_length_b 9.147188
_cell_length_c 19.176081
_cell_angle_alpha 90.000000
_cell_angle_beta 92.332988
_cell_angle_gamma 90.000000
_cell_volume 3343.079918
_symmetry_space_group_name_H-M "C 2/M"
_symmetry_group_IT_number 12
_symmetry_cell_setting 'monoclinic'
loop_
_space_group_symop_operation_xyz
x,y,z
-x,y,-z
-x,-y,-z
x,-y,z
1/2+x,1/2+y,z
1/2-x,1/2+y,-z
1/2-x,1/2-y,-z
1/2+x,1/2-y,z
loop_
_atom_site_type_symbol
_atom_site_label
_atom_site_fract_x
_atom_site_fract_y
_atom_site_fract_z
Si Si1 0.327890 0.170668 0.079734
Si Si2 0.327491 0.668476 0.316673
Si Si3 0.666374 0.670496 0.060628
Si Si4 0.197639 0.834167 0.291840
Si Si5 0.766982 0.334696 0.430985
Si Si6 0.078015 0.172776 0.189158
Si Si7 0.421656 0.329895 0.195219
O O1 0.245722 0.203714 0.087628
O O2 0.370108 0.241213 0.144147
O O3 0.343891 0.000000 0.078086
O O4 0.354434 0.239780 0.008547
O O5 0.313438 0.500000 0.333350
O O6 0.262018 0.732228 0.268363
O O7 0.330890 0.756573 0.390685
O O8 0.397992 0.690133 0.274766
O O9 0.656118 0.500000 0.043754
O O10 0.614811 0.725210 0.119569
O O11 0.198180 0.831846 0.377036
O O12 0.124630 0.774423 0.257335
O O13 0.211090 0.000000 0.264933
O O14 0.789188 0.500000 0.450131
O O15 0.750000 0.250000 0.500000
O O16 0.999777 0.237599 0.191752
O O17 0.071749 0.000000 0.190627
O O18 0.418479 0.500000 0.173571
#
# Coordination Sequence:
#
# PCOD8095323 Si02
#       7
#     8   8   8   8   8   8   8
#     4  10  20  33  50  70  95 124 159 205 249 292
#     4   9  17  29  47  73 100 124 154 194 238 283
#     4   9  18  33  53  70  89 123 164 206 244 286
#     4   8  16  30  50  72  94 125 160 197 235 276
#     4   9  17  29  51  78 101 126 157 197 236 276
#     4   9  17  32  51  70  93 125 167 202 235 283
#     4  10  20  32  49  71  97 128 161 200 238 285
#
# _framework density 16.751021999999999
#
# number of rings (size 3 to 8) (size 9 to 14) (size 15 to 20)
#    0.857    2.000    0.000    1.714    0.000    3.429 
#    0.000    5.000    0.000    0.857    0.000    6.000 
#    0.000    0.000    0.000    0.000    0.000    0.000 
#
# Total GULP energy -346946.064530 kJ/mol
# GULP energy per Si atom -12390.930876 kJ/mol
# Density = 1.671290 g / cm^3
# Si number density = 16.751022 Si / 1000 Ang^3
#
#
#
# Elastic Constant Matrix: (Units=GPa)
#
#
# Indices 1 2 3 4 5 6 
#
# 1 84.9110 36.0277 49.0606 0.0000 -18.4418 0.0000
# 2 36.0277 81.4506 46.4767 0.0000 -10.5228 0.0000
# 3 49.0606 46.4767 98.9762 0.0000 -20.6478 0.0000
# 4 0.0000 0.0000 0.0000 28.0259 0.0000 0.2658
# 5 -18.4418 -10.5228 -20.6478 0.0000 16.3498 0.0000
# 6 0.0000 0.0000 0.0000 0.2658 0.0000 15.6571
#
#
#
# Elastic Compliance Matrix: (Units=1/GPa)
#
#
# Indices 1 2 3 4 5 6 
#
# 1 0.019081 -0.003980 -0.004933 0.000000 0.012731 0.000000
# 2 -0.003980 0.017617 -0.006613 0.000000 -0.001503 0.000000
# 3 -0.004933 -0.006613 0.018472 0.000000 0.013507 0.000000
# 4 0.000000 0.000000 0.000000 0.035687 0.000000 -0.000606
# 5 0.012731 -0.001503 0.013507 0.000000 0.091613 0.000000
# 6 0.000000 0.000000 0.000000 -0.000606 0.000000 0.063879
#
#
# Mechanical properties :
#
#
# Convention : Reuss Voigt Hill
#
# Bulk Modulus (GPa) = 41.46477 58.71865 50.09171
# Shear Modulus (GPa) = 17.51667 20.92475 19.22071
#
# Velocity S-wave (km/s) = 3.23725 3.53818 3.39106
# Velocity P-wave (km/s) = 6.22739 7.19872 6.73060
#
# Compressibility (1/GPa) = 0.02411686
#
# Stress axis : x y z
#
# Youngs Moduli (GPa) = 52.40718 56.76191 54.13635
#
# Poissons Ratio (x) = 0.22594 0.26707
# Poissons Ratio (y) = 0.20860 0.35801
# Poissons Ratio (z) = 0.25854 0.37537
#
# Static dielectric constant tensor:
#      x y z
#    x 3.126860 0.000000 -0.036260 
#    y 0.000000 3.089930 0.000000 
#    z -0.036260 0.000000 3.061720 
# 
# 
# High freq. dielectric constant tensor:
#      x y z
#    x 1.620650 0.000000 -0.005320 
#    y 0.000000 1.639820 0.000000 
#    z -0.005320 0.000000 1.641270 
# 
# From -- ./inp_files/280308.got.cif
#   From: 2010.06.25/outbox.cif.g09.slc.cpg/sg12_141_cif.got.tgz:280308.got - 2010.06.28 00:19:55.
