data_PCOD8095443
_publ_section_title
;
Structure prediction by ZEFSAII (Michael W. Deem and Ramdas Pophale) SiO2 
 PCOD8095443
Probable space group: C 2/M
;
_chemical_formula_sum "Si O2"
_cell_formula_units_Z 48
_cell_length_a 26.696080
_cell_length_b 23.973276
_cell_length_c 9.110284
_cell_angle_alpha 90.000000
_cell_angle_beta 28.543709
_cell_angle_gamma 90.000000
_cell_volume 2785.988616
_symmetry_space_group_name_H-M "C 2/M"
_symmetry_group_IT_number 12
_symmetry_cell_setting 'monoclinic'
loop_
_space_group_symop_operation_xyz
x,y,z
-x,y,-z
-x,-y,-z
x,-y,z
1/2+x,1/2+y,z
1/2-x,1/2+y,-z
1/2-x,1/2-y,-z
1/2+x,1/2-y,z
loop_
_atom_site_type_symbol
_atom_site_label
_atom_site_fract_x
_atom_site_fract_y
_atom_site_fract_z
Si Si1 0.560459 0.061771 0.068591
Si Si2 0.843829 0.561793 0.499835
Si Si3 0.728643 0.666330 0.724718
Si Si4 0.191443 0.765782 0.298749
Si Si5 0.177209 0.666329 0.833412
Si Si6 0.530474 0.733386 0.256584
O O1 0.435447 0.072993 0.383328
O O2 0.581980 0.000000 0.079269
O O3 0.605438 0.065854 0.790153
O O4 0.617026 0.108319 0.022940
O O5 0.795190 0.500000 0.649736
O O6 0.753707 0.608574 0.745482
O O7 0.800648 0.715088 0.607014
O O8 0.751789 0.661446 0.493411
O O9 0.605700 0.679238 0.063776
O O10 0.247308 0.820220 0.223672
O O11 0.070661 0.780162 0.580774
O O12 0.250000 0.750000 0.000000
O O13 0.091560 0.714650 0.028622
O O14 0.500000 0.749511 0.500000
#
# Coordination Sequence:
#
# PCOD8095443 Si02
#       6
#     8   8   8   8   8   8
#     4   8  14  27  49  76 103 128 157 201 254 295
#     4   8  14  27  49  76 102 128 160 202 249 292
#     4  10  20  32  51  78 100 125 168 210 241 290
#     4  11  20  33  49  70  98 138 165 197 251 297
#     4  10  20  32  51  78 101 126 165 209 244 291
#     4  11  20  33  49  70  98 135 167 199 244 300
#
# _framework density 17.229071999999999
#
# number of rings (size 3 to 8) (size 9 to 14) (size 15 to 20)
#    0.000    2.333    3.333    4.000    0.000    4.000 
#    0.000    0.000    0.000    3.000    0.000    4.667 
#    0.000    0.000    0.000    0.000    0.000    0.000 
#
# Total GULP energy -297517.485685 kJ/mol
# GULP energy per Si atom -12396.561904 kJ/mol
# Density = 1.718986 g / cm^3
# Si number density = 17.229072 Si / 1000 Ang^3
#
#
#
# Elastic Constant Matrix: (Units=GPa)
#
#
# Indices 1 2 3 4 5 6 
#
# 1 99.6366 50.5588 27.5948 0.0000 -30.7932 0.0000
# 2 50.5588 128.3211 29.6631 0.0000 -31.4184 0.0000
# 3 27.5948 29.6631 60.6590 0.0000 -22.9699 0.0000
# 4 0.0000 0.0000 0.0000 13.8379 0.0000 -13.4656
# 5 -30.7932 -31.4184 -22.9699 0.0000 39.6808 0.0000
# 6 0.0000 0.0000 0.0000 -13.4656 0.0000 27.0985
#
#
#
# Elastic Compliance Matrix: (Units=1/GPa)
#
#
# Indices 1 2 3 4 5 6 
#
# 1 0.014686 -0.003474 -0.002188 0.000000 0.007380 0.000000
# 2 -0.003474 0.010756 -0.001890 0.000000 0.004727 0.000000
# 3 -0.002188 -0.001890 0.022023 0.000000 0.009554 0.000000
# 4 0.000000 0.000000 0.000000 0.139924 0.000000 0.069530
# 5 0.007380 0.004727 0.009554 0.000000 0.040201 0.000000
# 6 0.000000 0.000000 0.000000 0.069530 0.000000 0.071452
#
#
# Mechanical properties :
#
#
# Convention : Reuss Voigt Hill
#
# Bulk Modulus (GPa) = 30.89994 56.02778 43.46386
# Shear Modulus (GPa) = 15.38789 28.17680 21.78235
#
# Velocity S-wave (km/s) = 2.99178 4.04842 3.55953
# Velocity P-wave (km/s) = 5.46882 7.37854 6.49426
#
# Compressibility (1/GPa) = 0.03236252
#
# Stress axis : x y z
#
# Youngs Moduli (GPa) = 68.09329 92.97436 45.40745
#
# Poissons Ratio (x) = 0.32296 0.09933
# Poissons Ratio (y) = 0.23653 0.08580
# Poissons Ratio (z) = 0.14896 0.17568
#
# Static dielectric constant tensor:
#      x y z
#    x 3.306200 0.000000 -0.216070 
#    y 0.000000 3.450170 0.000000 
#    z -0.216070 0.000000 3.104050 
# 
# 
# High freq. dielectric constant tensor:
#      x y z
#    x 1.656880 0.000000 -0.007210 
#    y 0.000000 1.656520 0.000000 
#    z -0.007210 0.000000 1.644060 
# 
# From -- ./inp_files/64699.got.cif
#   From: 2010.06.25/outbox.cif.g09.slc.cpg/sg12_33_cif.got.tgz:64699.got - 2010.06.28 00:19:55.
