data_PCOD8095161
_publ_section_title
;
Structure prediction by ZEFSAII (Michael W. Deem and Ramdas Pophale) SiO2 
 PCOD8095161
Probable space group: C 2/M
;
_chemical_formula_sum "Si O2"
_cell_formula_units_Z 56
_cell_length_a 18.996047
_cell_length_b 9.176976
_cell_length_c 20.048175
_cell_angle_alpha 90.000000
_cell_angle_beta 118.303972
_cell_angle_gamma 90.000000
_cell_volume 3077.086137
_symmetry_space_group_name_H-M "C 2/M"
_symmetry_group_IT_number 12
_symmetry_cell_setting 'monoclinic'
loop_
_space_group_symop_operation_xyz
x,y,z
-x,y,-z
-x,-y,-z
x,-y,z
1/2+x,1/2+y,z
1/2-x,1/2+y,-z
1/2-x,1/2-y,-z
1/2+x,1/2-y,z
loop_
_atom_site_type_symbol
_atom_site_label
_atom_site_fract_x
_atom_site_fract_y
_atom_site_fract_z
Si Si1 0.265199 0.172971 0.860718
Si Si2 0.658038 0.671700 0.692577
Si Si3 0.587946 0.672429 0.015912
Si Si4 0.312684 0.330910 0.441117
Si Si5 0.489938 0.671690 0.286808
Si Si6 0.864780 0.668456 0.589488
Si Si7 0.381492 0.327541 0.118503
O O1 0.227153 0.227554 0.773748
O O2 0.205188 0.222590 0.893280
O O3 0.278114 0.000000 0.867365
O O4 0.349443 0.252794 0.906396
O O5 0.667171 0.500000 0.693060
O O6 0.669139 0.736651 0.623618
O O7 0.570843 0.713461 0.680956
O O8 0.600282 0.500000 0.024532
O O9 0.602469 0.735067 0.947922
O O10 0.500000 0.717756 0.000000
O O11 0.336780 0.500000 0.456996
O O12 0.219726 0.306751 0.413334
O O13 0.366724 0.244562 0.518182
O O14 0.508025 0.500000 0.294428
O O15 0.571169 0.759176 0.332968
O O16 0.451605 0.724928 0.199747
O O17 0.885002 0.500000 0.588659
O O18 0.383687 0.500000 0.118679
#
# Coordination Sequence:
#
# PCOD8095161 Si02
#       7
#     8   8   8   8   8   8   8
#     4   9  17  32  53  72  91 119 159 202 235 267
#     4   8  16  32  53  73  90 117 161 202 230 266
#     4  10  20  32  46  69 101 130 155 187 231 283
#     4   9  18  34  52  67  90 127 163 190 225 279
#     4   9  17  32  53  71  90 122 161 195 230 277
#     4  10  20  32  47  71 100 124 150 191 238 279
#     4   8  16  32  51  69  92 125 161 193 228 275
#
# _framework density 18.199036
#
# number of rings (size 3 to 8) (size 9 to 14) (size 15 to 20)
#    0.000    3.000    0.000    2.571    0.000    2.571 
#    0.000    7.857    0.000    0.000    0.000    0.000 
#    0.000    0.000    0.000    0.000    0.000    0.000 
#
# Total GULP energy -347150.977524 kJ/mol
# GULP energy per Si atom -12398.249197 kJ/mol
# Density = 1.815761 g / cm^3
# Si number density = 18.199036 Si / 1000 Ang^3
#
#
#
# Elastic Constant Matrix: (Units=GPa)
#
#
# Indices 1 2 3 4 5 6 
#
# 1 45.5322 18.4153 18.2307 0.0000 5.4010 0.0000
# 2 18.4153 41.0783 22.3718 0.0000 11.7117 0.0000
# 3 18.2307 22.3718 66.6128 0.0000 10.4407 0.0000
# 4 0.0000 0.0000 0.0000 27.0419 0.0000 6.9565
# 5 5.4010 11.7117 10.4407 0.0000 39.1444 0.0000
# 6 0.0000 0.0000 0.0000 6.9565 0.0000 17.8361
#
#
#
# Elastic Compliance Matrix: (Units=1/GPa)
#
#
# Indices 1 2 3 4 5 6 
#
# 1 0.027751 -0.010251 -0.004208 0.000000 0.000361 0.000000
# 2 -0.010251 0.035264 -0.007937 0.000000 -0.007019 0.000000
# 3 -0.004208 -0.007937 0.019168 0.000000 -0.002157 0.000000
# 4 0.000000 0.000000 0.000000 0.041104 0.000000 -0.016032
# 5 0.000361 -0.007019 -0.002157 0.000000 0.028172 0.000000
# 6 0.000000 0.000000 0.000000 -0.016032 0.000000 0.062319
#
#
# Mechanical properties :
#
#
# Convention : Reuss Voigt Hill
#
# Bulk Modulus (GPa) = 26.74699 30.13987 28.44343
# Shear Modulus (GPa) = 18.44787 23.08484 20.76636
#
# Velocity S-wave (km/s) = 3.18728 3.56542 3.38164
# Velocity P-wave (km/s) = 5.31731 5.79196 5.55970
#
# Compressibility (1/GPa) = 0.03738738
#
# Stress axis : x y z
#
# Youngs Moduli (GPa) = 36.03488 28.35793 52.17096
#
# Poissons Ratio (x) = 0.29071 0.21956
# Poissons Ratio (y) = 0.36941 0.41410
# Poissons Ratio (z) = 0.15165 0.22509
#
# Static dielectric constant tensor:
#      x y z
#    x 3.446580 0.000000 -0.270860 
#    y 0.000000 2.995490 0.000000 
#    z -0.270860 0.000000 3.653440 
# 
# 
# High freq. dielectric constant tensor:
#      x y z
#    x 1.701410 0.000000 -0.000280 
#    y 0.000000 1.670460 0.000000 
#    z -0.000280 0.000000 1.716590 
# 
# From -- ./inp_files/275163.got.cif
#   From: 2010.06.25/outbox.cif.g09.slc.cpg/sg12_138_cif.got.tgz:275163.got - 2010.06.28 00:19:55.
