data_PCOD8095708
_publ_section_title
;
Structure prediction by ZEFSAII (Michael W. Deem and Ramdas Pophale) SiO2 
 PCOD8095708
Probable space group: C 2/M
;
_chemical_formula_sum "Si O2"
_cell_formula_units_Z 56
_cell_length_a 18.256333
_cell_length_b 9.363345
_cell_length_c 20.050409
_cell_angle_alpha 90.000000
_cell_angle_beta 62.925822
_cell_angle_gamma 90.000000
_cell_volume 3051.839925
_symmetry_space_group_name_H-M "C 2/M"
_symmetry_group_IT_number 12
_symmetry_cell_setting 'monoclinic'
loop_
_space_group_symop_operation_xyz
x,y,z
-x,y,-z
-x,-y,-z
x,-y,z
1/2+x,1/2+y,z
1/2-x,1/2+y,-z
1/2-x,1/2-y,-z
1/2+x,1/2-y,z
loop_
_atom_site_type_symbol
_atom_site_label
_atom_site_fract_x
_atom_site_fract_y
_atom_site_fract_z
Si Si1 0.030693 0.669872 0.777866
Si Si2 0.323180 0.168083 0.505150
Si Si3 0.305324 0.165740 0.221001
Si Si4 0.986842 0.669446 0.364572
Si Si5 0.218543 0.336765 0.919190
Si Si6 0.660493 0.168012 0.347615
Si Si7 0.365498 0.167163 0.912132
O O1 0.033327 0.500000 0.776716
O O2 0.115908 0.728577 0.772693
O O3 0.019499 0.730427 0.707857
O O4 0.955676 0.724404 0.855046
O O5 0.250000 0.250000 0.500000
O O6 0.409019 0.223848 0.439066
O O7 0.322596 0.207068 0.582989
O O8 0.311839 0.000000 0.497635
O O9 0.322724 0.187644 0.135363
O O10 0.225380 0.252786 0.274515
O O11 0.290549 0.000000 0.244383
O O12 0.987359 0.500000 0.363202
O O13 0.070097 0.724685 0.364868
O O14 0.246406 0.500000 0.917366
O O15 0.299364 0.241035 0.891738
O O16 0.151554 0.294944 0.003391
O O17 0.668188 0.000000 0.331501
O O18 0.358758 0.000000 0.900554
#
# Coordination Sequence:
#
# PCOD8095708 Si02
#       7
#     8   8   8   8   8   8   8
#     4   9  17  29  48  72  96 127 164 198 237 287
#     4  10  20  34  53  76 102 130 160 198 243 288
#     4  10  20  33  49  72 102 131 159 198 249 293
#     4   9  17  31  51  73  97 127 164 201 236 281
#     4   9  18  31  48  72 100 128 159 199 246 290
#     4  10  20  34  53  75  97 127 168 204 235 281
#     4   9  17  31  51  72  95 127 166 202 236 284
#
# _framework density 18.349587
#
# number of rings (size 3 to 8) (size 9 to 14) (size 15 to 20)
#    0.000    2.571    0.000    2.143    0.000    5.714 
#    0.000    4.286    0.000    6.857    0.000    5.000 
#    0.000    0.000    0.000    0.000    0.000    0.000 
#
# Total GULP energy -347216.817091 kJ/mol
# GULP energy per Si atom -12400.600610 kJ/mol
# Density = 1.830782 g / cm^3
# Si number density = 18.349587 Si / 1000 Ang^3
#
#
#
# Elastic Constant Matrix: (Units=GPa)
#
#
# Indices 1 2 3 4 5 6 
#
# 1 134.7593 29.3739 52.1058 0.0000 5.2345 0.0000
# 2 29.3739 25.5382 25.5718 0.0000 1.0819 0.0000
# 3 52.1058 25.5718 107.1969 0.0000 0.0252 0.0000
# 4 0.0000 0.0000 0.0000 22.0169 0.0000 -0.8677
# 5 5.2345 1.0819 0.0252 0.0000 35.7019 0.0000
# 6 0.0000 0.0000 0.0000 -0.8677 0.0000 26.3209
#
#
#
# Elastic Compliance Matrix: (Units=1/GPa)
#
#
# Indices 1 2 3 4 5 6 
#
# 1 0.010622 -0.009188 -0.002971 0.000000 -0.001277 0.000000
# 2 -0.009188 0.059480 -0.009723 0.000000 -0.000448 0.000000
# 3 -0.002971 -0.009723 0.013092 0.000000 0.000721 0.000000
# 4 0.000000 0.000000 0.000000 0.045479 0.000000 0.001499
# 5 -0.001277 -0.000448 0.000721 0.000000 0.028210 0.000000
# 6 0.000000 0.000000 0.000000 0.001499 0.000000 0.038042
#
#
# Mechanical properties :
#
#
# Convention : Reuss Voigt Hill
#
# Bulk Modulus (GPa) = 25.36143 53.51081 39.43612
# Shear Modulus (GPa) = 19.85462 27.50413 23.67938
#
# Velocity S-wave (km/s) = 3.29298 3.87576 3.59619
# Velocity P-wave (km/s) = 5.32067 7.01811 6.22749
#
# Compressibility (1/GPa) = 0.03942995
#
# Stress axis : x y z
#
# Youngs Moduli (GPa) = 94.14688 16.81247 76.38361
#
# Poissons Ratio (x) = 0.15448 0.22692
# Poissons Ratio (y) = 0.86504 0.74265
# Poissons Ratio (z) = 0.27969 0.16346
#
# Static dielectric constant tensor:
#      x y z
#    x 3.522000 0.000000 0.005290 
#    y 0.000000 3.049150 0.000000 
#    z 0.005290 0.000000 3.595640 
# 
# 
# High freq. dielectric constant tensor:
#      x y z
#    x 1.717860 0.000000 0.002440 
#    y 0.000000 1.671210 0.000000 
#    z 0.002440 0.000000 1.728510 
# 
# From -- ./inp_files/268638.got.cif
#   From: 2010.06.25/outbox.cif.g09.slc.cpg/sg12_135_cif.got.tgz:268638.got - 2010.06.28 00:19:55.
