data_PCOD8095776
_publ_section_title
;
Structure prediction by ZEFSAII (Michael W. Deem and Ramdas Pophale) SiO2 
 PCOD8095776
Probable space group: C 2/M
;
_chemical_formula_sum "Si O2"
_cell_formula_units_Z 40
_cell_length_a 19.701826
_cell_length_b 8.897326
_cell_length_c 23.075202
_cell_angle_alpha 90.000000
_cell_angle_beta 143.762090
_cell_angle_gamma 90.000000
_cell_volume 2391.120429
_symmetry_space_group_name_H-M "C 2/M"
_symmetry_group_IT_number 12
_symmetry_cell_setting 'monoclinic'
loop_
_space_group_symop_operation_xyz
x,y,z
-x,y,-z
-x,-y,-z
x,-y,z
1/2+x,1/2+y,z
1/2-x,1/2+y,-z
1/2-x,1/2-y,-z
1/2+x,1/2-y,z
loop_
_atom_site_type_symbol
_atom_site_label
_atom_site_fract_x
_atom_site_fract_y
_atom_site_fract_z
Si Si1 0.753996 0.829681 0.710510
Si Si2 0.878120 0.322078 0.890778
Si Si3 0.657661 0.829461 0.762386
Si Si4 0.744371 0.676582 0.585210
Si Si5 0.925932 0.823410 0.633793
O O1 0.864079 0.746811 0.816077
O O2 0.650436 0.827367 0.686707
O O3 0.711401 0.741418 0.624944
O O4 0.787888 0.000000 0.717411
O O5 0.865014 0.500000 0.878980
O O6 0.777478 0.252786 0.862611
O O7 0.000000 0.271817 0.000000
O O8 0.553297 0.740750 0.718634
O O9 0.657869 0.000000 0.785914
O O10 0.762340 0.500000 0.601612
O O11 0.641327 0.720001 0.471111
O O12 0.862758 0.750048 0.645128
O O13 0.931157 0.000000 0.646999
#
# Coordination Sequence:
#
# PCOD8095776 Si02
#       5
#     8   8   8   8   8
#     4   9  19  32  49  74 100 129 163 202 242 286
#     4   9  17  31  52  75  98 125 159 200 246 293
#     4   9  19  32  49  74 100 129 163 202 242 286
#     4  10  20  33  50  71  99 134 168 202 241 288
#     4  10  20  33  50  71  99 134 168 202 241 288
#
# _framework density 16.728560000000002
#
# number of rings (size 3 to 8) (size 9 to 14) (size 15 to 20)
#    1.200    1.400    0.000    2.400    0.000    4.800 
#    0.000    4.000    0.000    1.200    0.000    0.000 
#    0.000    0.000    0.000    0.000    0.000    0.000 
#
# Total GULP energy -247859.537777 kJ/mol
# GULP energy per Si atom -12392.976889 kJ/mol
# Density = 1.669048 g / cm^3
# Si number density = 16.728560 Si / 1000 Ang^3
#
#
#
# Elastic Constant Matrix: (Units=GPa)
#
#
# Indices 1 2 3 4 5 6 
#
# 1 34.8450 13.6148 6.0057 0.0000 19.0400 0.0000
# 2 13.6148 84.5541 20.0192 0.0000 12.0191 0.0000
# 3 6.0057 20.0192 43.1373 0.0000 21.6706 0.0000
# 4 0.0000 0.0000 0.0000 23.7886 0.0000 -0.3944
# 5 19.0400 12.0191 21.6706 0.0000 28.6488 0.0000
# 6 0.0000 0.0000 0.0000 -0.3944 0.0000 31.5947
#
#
#
# Elastic Compliance Matrix: (Units=1/GPa)
#
#
# Indices 1 2 3 4 5 6 
#
# 1 0.054166 -0.006537 0.019676 0.000000 -0.048140 0.000000
# 2 -0.006537 0.014114 -0.007819 0.000000 0.004338 0.000000
# 3 0.019676 -0.007819 0.046762 0.000000 -0.045168 0.000000
# 4 0.000000 0.000000 0.000000 0.042046 0.000000 0.000525
# 5 -0.048140 0.004338 -0.045168 0.000000 0.099245 0.000000
# 6 0.000000 0.000000 0.000000 0.000525 0.000000 0.031657
#
#
# Mechanical properties :
#
#
# Convention : Reuss Voigt Hill
#
# Bulk Modulus (GPa) = 7.95665 26.86841 17.41253
# Shear Modulus (GPa) = 15.66199 24.99953 20.33076
#
# Velocity S-wave (km/s) = 3.06313 3.86997 3.48994
# Velocity P-wave (km/s) = 4.15656 6.00543 5.16440
#
# Compressibility (1/GPa) = 0.12568106
#
# Stress axis : x y z
#
# Youngs Moduli (GPa) = 18.46177 70.85149 21.38498
#
# Poissons Ratio (x) = 0.46318 -0.42077
# Poissons Ratio (y) = 0.12069 0.16721
# Poissons Ratio (z) = -0.36326 0.55400
#
# Static dielectric constant tensor:
#      x y z
#    x 2.942210 0.000000 0.040810 
#    y 0.000000 3.224950 0.000000 
#    z 0.040810 0.000000 2.912450 
# 
# 
# High freq. dielectric constant tensor:
#      x y z
#    x 1.625020 0.000000 0.009030 
#    y 0.000000 1.667220 0.000000 
#    z 0.009030 0.000000 1.617040 
# 
# From -- ./inp_files/346385.got.cif
#   From: 2010.06.25/outbox.cif.g09.slc.cpg/sg12_174_cif.got.tgz:346385.got - 2010.06.28 00:19:55.
