data_PCOD8095745
_publ_section_title
;
Structure prediction by ZEFSAII (Michael W. Deem and Ramdas Pophale) SiO2 
 PCOD8095745
Probable space group: C 2/M
;
_chemical_formula_sum "Si O2"
_cell_formula_units_Z 56
_cell_length_a 31.678187
_cell_length_b 9.329555
_cell_length_c 22.843728
_cell_angle_alpha 90.000000
_cell_angle_beta 156.303796
_cell_angle_gamma 90.000000
_cell_volume 2713.265581
_symmetry_space_group_name_H-M "C 2/M"
_symmetry_group_IT_number 12
_symmetry_cell_setting 'monoclinic'
loop_
_space_group_symop_operation_xyz
x,y,z
-x,y,-z
-x,-y,-z
x,-y,z
1/2+x,1/2+y,z
1/2-x,1/2+y,-z
1/2-x,1/2-y,-z
1/2+x,1/2-y,z
loop_
_atom_site_type_symbol
_atom_site_label
_atom_site_fract_x
_atom_site_fract_y
_atom_site_fract_z
Si Si1 0.808765 0.834939 0.909961
Si Si2 0.648541 0.163256 0.354492
Si Si3 0.276216 0.842212 0.672849
Si Si4 0.046113 0.834032 0.396428
Si Si5 0.094362 0.336698 0.574799
Si Si6 0.402565 0.663510 0.910557
Si Si7 0.554984 0.170519 0.832246
O O1 0.698689 0.784808 0.741969
O O2 0.901564 0.817335 0.979157
O O3 0.801621 0.000000 0.921898
O O4 0.839671 0.735055 0.004214
O O5 0.750000 0.250000 0.500000
O O6 0.640959 0.180298 0.274673
O O7 0.542069 0.216612 0.249529
O O8 0.669317 0.000000 0.399414
O O9 0.155477 0.822366 0.498995
O O10 0.296168 0.731995 0.750421
O O11 0.290498 0.000000 0.717891
O O12 0.064269 0.767827 0.483471
O O13 0.960053 0.743281 0.250580
O O14 0.009815 0.000000 0.356117
O O15 0.111383 0.500000 0.573469
O O16 0.000000 0.330138 0.500000
O O17 0.398346 0.500000 0.886329
O O18 0.500000 0.737850 0.000000
O O19 0.567074 0.000000 0.840526
#
# Coordination Sequence:
#
# PCOD8095745 Si02
#       7
#     8   8   8   8   8   8   8
#     4  10  21  38  59  86 122 157 194 245 302 356
#     4  10  20  33  49  76 115 160 206 247 288 340
#     4  10  20  33  51  78 112 153 199 244 289 340
#     4  11  22  38  62  89 120 155 195 245 299 357
#     4  10  22  43  70  95 119 151 195 248 305 364
#     4  10  20  33  52  80 114 155 198 239 289 349
#     4  11  23  37  58  87 122 164 206 247 295 353
#
# _framework density 20.639337000000001
#
# number of rings (size 3 to 8) (size 9 to 14) (size 15 to 20)
#    0.000    1.714    2.857    1.714    0.000    3.429 
#    0.000    0.714    0.000    0.000    0.000    0.000 
#    0.000    0.000    0.000    0.000    0.000    0.000 
#
# Total GULP energy -347069.912463 kJ/mol
# GULP energy per Si atom -12395.354017 kJ/mol
# Density = 2.059236 g / cm^3
# Si number density = 20.639337 Si / 1000 Ang^3
#
#
#
# Elastic Constant Matrix: (Units=GPa)
#
#
# Indices 1 2 3 4 5 6 
#
# 1 53.4627 32.6799 38.0130 0.0000 -6.8549 0.0000
# 2 32.6799 99.4419 68.5708 0.0000 -25.6585 0.0000
# 3 38.0130 68.5708 126.5471 0.0000 -29.3269 0.0000
# 4 0.0000 0.0000 0.0000 37.6968 0.0000 -9.7439
# 5 -6.8549 -25.6585 -29.3269 0.0000 29.6399 0.0000
# 6 0.0000 0.0000 0.0000 -9.7439 0.0000 24.8590
#
#
#
# Elastic Compliance Matrix: (Units=1/GPa)
#
#
# Indices 1 2 3 4 5 6 
#
# 1 0.025638 -0.005699 -0.005686 0.000000 -0.004630 0.000000
# 2 -0.005699 0.018476 -0.006356 0.000000 0.008388 0.000000
# 3 -0.005686 -0.006356 0.014888 0.000000 0.007914 0.000000
# 4 0.000000 0.000000 0.000000 0.029518 0.000000 0.011570
# 5 -0.004630 0.008388 0.007914 0.000000 0.047759 0.000000
# 6 0.000000 0.000000 0.000000 0.011570 0.000000 0.044762
#
#
# Mechanical properties :
#
#
# Convention : Reuss Voigt Hill
#
# Bulk Modulus (GPa) = 42.51753 61.99769 52.25761
# Shear Modulus (GPa) = 22.28543 27.78500 25.03522
#
# Velocity S-wave (km/s) = 3.28953 3.67306 3.48657
# Velocity P-wave (km/s) = 5.92224 6.93486 6.44846
#
# Compressibility (1/GPa) = 0.02351971
#
# Stress axis : x y z
#
# Youngs Moduli (GPa) = 39.00520 54.12493 67.16798
#
# Poissons Ratio (x) = 0.30847 0.38192
# Poissons Ratio (y) = 0.22230 0.42689
# Poissons Ratio (z) = 0.22179 0.34399
#
# Static dielectric constant tensor:
#      x y z
#    x 3.673980 0.000000 0.029900 
#    y 0.000000 3.700090 0.000000 
#    z 0.029900 0.000000 3.624220 
# 
# 
# High freq. dielectric constant tensor:
#      x y z
#    x 1.791080 0.000000 -0.006430 
#    y 0.000000 1.805030 0.000000 
#    z -0.006430 0.000000 1.800460 
# 
# From -- ./inp_files/329681.got.cif
#   From: 2010.06.25/outbox.cif.g09.slc.cpg/sg12_165_cif.got.tgz:329681.got - 2010.06.28 00:19:55.
