data_PCOD8095795
_publ_section_title
;
Structure prediction by ZEFSAII (Michael W. Deem and Ramdas Pophale) SiO2 
 PCOD8095795
Probable space group: C 2/M
;
_chemical_formula_sum "Si O2"
_cell_formula_units_Z 64
_cell_length_a 22.452198
_cell_length_b 9.346385
_cell_length_c 17.064635
_cell_angle_alpha 90.000000
_cell_angle_beta 77.606248
_cell_angle_gamma 90.000000
_cell_volume 3497.508708
_symmetry_space_group_name_H-M "C 2/M"
_symmetry_group_IT_number 12
_symmetry_cell_setting 'monoclinic'
loop_
_space_group_symop_operation_xyz
x,y,z
-x,y,-z
-x,-y,-z
x,-y,z
1/2+x,1/2+y,z
1/2-x,1/2+y,-z
1/2-x,1/2-y,-z
1/2+x,1/2-y,z
loop_
_atom_site_type_symbol
_atom_site_label
_atom_site_fract_x
_atom_site_fract_y
_atom_site_fract_z
Si Si1 0.965996 0.664952 0.790618
Si Si2 0.320478 0.665949 0.399508
Si Si3 0.141264 0.334781 0.292011
Si Si4 0.392119 0.667599 0.933442
Si Si5 0.178486 0.335722 0.449942
Si Si6 0.216020 0.165888 0.151296
Si Si7 0.605013 0.163943 0.746562
Si Si8 0.646365 0.834134 0.909371
O O1 0.958402 0.500000 0.818784
O O2 0.924442 0.700586 0.726761
O O3 0.947087 0.763976 0.868585
O O4 0.034910 0.698722 0.746735
O O5 0.336919 0.500000 0.398682
O O6 0.248884 0.694155 0.410380
O O7 0.344969 0.738559 0.472242
O O8 0.352763 0.733441 0.315633
O O9 0.158833 0.500000 0.277057
O O10 0.139266 0.294119 0.384310
O O11 0.194612 0.247854 0.234650
O O12 0.404559 0.500000 0.938811
O O13 0.328041 0.700495 0.908931
O O14 0.391069 0.739514 0.018648
O O15 0.168366 0.500000 0.477176
O O16 0.283505 0.217196 0.110008
O O17 0.215617 0.000000 0.173640
O O18 0.616413 0.195127 0.834220
O O19 0.621273 0.000000 0.721715
O O20 0.641391 0.000000 0.935038
#
# Coordination Sequence:
#
# PCOD8095795 Si02
#       8
#     8   8   8   8   8   8   8   8
#     4   9  19  36  54  71  95 130 169 205 242 286
#     4  10  20  33  52  78 105 131 158 195 244 292
#     4   9  17  31  53  76  97 127 166 204 241 284
#     4  10  20  33  50  73  99 128 163 205 250 290
#     4   9  18  33  53  78 105 130 159 195 239 293
#     4   9  18  31  48  73 103 130 158 198 249 298
#     4  10  21  36  53  72  97 131 168 204 243 288
#     4  10  20  33  50  72  98 130 165 201 245 297
#
# _framework density 18.298739999999999
#
# number of rings (size 3 to 8) (size 9 to 14) (size 15 to 20)
#    0.000    2.500    0.000    1.875    0.000    3.500 
#    0.000    3.125    0.000    3.750    0.000    0.000 
#    0.000    0.000    0.000    0.000    0.000    0.000 
#
# Total GULP energy -396909.805205 kJ/mol
# GULP energy per Si atom -12403.431413 kJ/mol
# Density = 1.825709 g / cm^3
# Si number density = 18.298740 Si / 1000 Ang^3
#
#
#
# Elastic Constant Matrix: (Units=GPa)
#
#
# Indices 1 2 3 4 5 6 
#
# 1 53.9219 29.7553 30.2345 0.0000 3.8985 0.0000
# 2 29.7553 79.1099 50.5425 0.0000 3.0021 0.0000
# 3 30.2345 50.5425 87.8766 0.0000 14.5898 0.0000
# 4 0.0000 0.0000 0.0000 38.3807 0.0000 -4.2714
# 5 3.8985 3.0021 14.5898 0.0000 15.2075 0.0000
# 6 0.0000 0.0000 0.0000 -4.2714 0.0000 20.3290
#
#
#
# Elastic Compliance Matrix: (Units=1/GPa)
#
#
# Indices 1 2 3 4 5 6 
#
# 1 0.024716 -0.006154 -0.004894 0.000000 -0.000426 0.000000
# 2 -0.006154 0.022466 -0.012287 0.000000 0.008930 0.000000
# 3 -0.004894 -0.012287 0.023217 0.000000 -0.018594 0.000000
# 4 0.000000 0.000000 0.000000 0.026679 0.000000 0.005606
# 5 -0.000426 0.008930 -0.018594 0.000000 0.081942 0.000000
# 6 0.000000 0.000000 0.000000 0.005606 0.000000 0.050369
#
#
# Mechanical properties :
#
#
# Convention : Reuss Voigt Hill
#
# Bulk Modulus (GPa) = 42.13909 49.10812 45.62360
# Shear Modulus (GPa) = 17.60760 22.14182 19.87471
#
# Velocity S-wave (km/s) = 3.10535 3.48231 3.29922
# Velocity P-wave (km/s) = 5.99466 6.56230 6.28489
#
# Compressibility (1/GPa) = 0.02373094
#
# Stress axis : x y z
#
# Youngs Moduli (GPa) = 40.46005 44.51090 43.07121
#
# Poissons Ratio (x) = 0.27390 0.21077
# Poissons Ratio (y) = 0.24898 0.52922
# Poissons Ratio (z) = 0.19799 0.54691
#
# Static dielectric constant tensor:
#      x y z
#    x 3.349170 0.000000 0.145140 
#    y 0.000000 3.373340 0.000000 
#    z 0.145140 0.000000 3.299680 
# 
# 
# High freq. dielectric constant tensor:
#      x y z
#    x 1.699900 0.000000 0.009440 
#    y 0.000000 1.708760 0.000000 
#    z 0.009440 0.000000 1.708120 
# 
# From -- ./inp_files/287588.got.cif
#   From: 2010.06.25/outbox.cif.g09.slc.cpg/sg12_144_cif.got.tgz:287588.got - 2010.06.28 00:19:55.
