data_PCOD8095454
_publ_section_title
;
Structure prediction by ZEFSAII (Michael W. Deem and Ramdas Pophale) SiO2 
 PCOD8095454
Probable space group: C 2/M
;
_chemical_formula_sum "Si O2"
_cell_formula_units_Z 64
_cell_length_a 29.203913
_cell_length_b 9.685891
_cell_length_c 14.832256
_cell_angle_alpha 90.000000
_cell_angle_beta 120.566924
_cell_angle_gamma 90.000000
_cell_volume 3612.509663
_symmetry_space_group_name_H-M "C 2/M"
_symmetry_group_IT_number 12
_symmetry_cell_setting 'monoclinic'
loop_
_space_group_symop_operation_xyz
x,y,z
-x,y,-z
-x,-y,-z
x,-y,z
1/2+x,1/2+y,z
1/2-x,1/2+y,-z
1/2-x,1/2-y,-z
1/2+x,1/2-y,z
loop_
_atom_site_type_symbol
_atom_site_label
_atom_site_fract_x
_atom_site_fract_y
_atom_site_fract_z
Si Si1 0.054139 0.164442 0.511429
Si Si2 0.223200 0.659628 0.397445
Si Si3 0.754951 0.335974 0.779547
Si Si4 0.586727 0.658388 0.857698
Si Si5 0.536538 0.342079 0.294414
Si Si6 0.856734 0.164306 0.264913
Si Si7 0.603193 0.843309 0.234818
Si Si8 0.630073 0.838765 0.057686
O O1 0.059641 0.212075 0.413041
O O2 0.104191 0.222370 0.618145
O O3 0.000000 0.225160 0.500000
O O4 0.051830 0.000000 0.513317
O O5 0.238510 0.500000 0.427602
O O6 0.250000 0.750000 0.500000
O O7 0.245141 0.714999 0.323784
O O8 0.159975 0.680247 0.338436
O O9 0.755873 0.500000 0.778136
O O10 0.702760 0.277676 0.777759
O O11 0.808451 0.287069 0.884177
O O12 0.599970 0.500000 0.895283
O O13 0.526653 0.673424 0.764598
O O14 0.624104 0.713202 0.814114
O O15 0.595889 0.751793 0.953622
O O16 0.553138 0.500000 0.294207
O O17 0.559650 0.254292 0.235780
O O18 0.857418 0.000000 0.270241
O O19 0.584352 0.000000 0.229924
O O20 0.606214 0.809204 0.132162
O O21 0.625818 0.000000 0.029150
#
# Coordination Sequence:
#
# PCOD8095454 Si02
#       8
#     8   8   8   8   8   8   8   8
#     4   9  15  27  47  73 105 134 161 200 249 302
#     4   9  18  32  50  74 102 131 166 208 249 293
#     4   8  16  31  50  72  98 131 170 205 240 296
#     4  10  20  33  51  78 106 128 161 215 264 292
#     4  10  20  32  51  80 105 129 168 212 250 295
#     4   9  16  28  49  76 104 132 162 201 252 303
#     4   9  20  37  52  70 102 139 171 206 250 298
#     4   9  19  37  55  70  96 135 175 209 245 299
#
# _framework density 17.716215999999999
#
# number of rings (size 3 to 8) (size 9 to 14) (size 15 to 20)
#    0.000    2.875    1.250    1.500    1.750    2.500 
#    0.000    4.375    0.000    1.875    0.000    0.000 
#    0.000    0.000    0.000    0.000    0.000    0.000 
#
# Total GULP energy -396733.219016 kJ/mol
# GULP energy per Si atom -12397.913094 kJ/mol
# Density = 1.767589 g / cm^3
# Si number density = 17.716216 Si / 1000 Ang^3
#
#
#
# Elastic Constant Matrix: (Units=GPa)
#
#
# Indices 1 2 3 4 5 6 
#
# 1 93.5670 29.6357 17.4997 0.0000 -18.4258 0.0000
# 2 29.6357 46.1997 39.4305 0.0000 -8.6190 0.0000
# 3 17.4997 39.4305 97.8859 0.0000 -9.9434 0.0000
# 4 0.0000 0.0000 0.0000 26.9489 0.0000 1.7629
# 5 -18.4258 -8.6190 -9.9434 0.0000 18.5763 0.0000
# 6 0.0000 0.0000 0.0000 1.7629 0.0000 19.9247
#
#
#
# Elastic Compliance Matrix: (Units=1/GPa)
#
#
# Indices 1 2 3 4 5 6 
#
# 1 0.015807 -0.009892 0.002417 0.000000 0.012383 0.000000
# 2 -0.009892 0.040550 -0.014436 0.000000 0.001275 0.000000
# 3 0.002417 -0.014436 0.016034 0.000000 0.004282 0.000000
# 4 0.000000 0.000000 0.000000 0.037323 0.000000 -0.003302
# 5 0.012383 0.001275 0.004282 0.000000 0.068998 0.000000
# 6 0.000000 0.000000 0.000000 -0.003302 0.000000 0.050481
#
#
# Mechanical properties :
#
#
# Convention : Reuss Voigt Hill
#
# Bulk Modulus (GPa) = 35.00505 45.64272 40.32388
# Shear Modulus (GPa) = 17.69662 23.16243 20.42952
#
# Velocity S-wave (km/s) = 3.16396 3.61974 3.39950
# Velocity P-wave (km/s) = 5.75753 6.57945 6.18217
#
# Compressibility (1/GPa) = 0.02856730
#
# Stress axis : x y z
#
# Youngs Moduli (GPa) = 63.26176 24.66115 62.36722
#
# Poissons Ratio (x) = 0.24396 -0.15073
# Poissons Ratio (y) = 0.62581 0.90035
# Poissons Ratio (z) = -0.15289 0.35601
#
# Static dielectric constant tensor:
#      x y z
#    x 3.457320 0.000000 0.022170 
#    y 0.000000 2.853980 0.000000 
#    z 0.022170 0.000000 3.265700 
# 
# 
# High freq. dielectric constant tensor:
#      x y z
#    x 1.693070 0.000000 -0.000430 
#    y 0.000000 1.638050 0.000000 
#    z -0.000430 0.000000 1.690340 
# 
# From -- ./inp_files/175284.got.cif
#   From: 2010.06.25/outbox.cif.g09.slc.cpg/sg12_88_cif.got.tgz:175284.got - 2010.06.28 00:19:55.
