data_PCOD8095973
_publ_section_title
;
Structure prediction by ZEFSAII (Michael W. Deem and Ramdas Pophale) SiO2 
 PCOD8095973
Probable space group: C 2/M
;
_chemical_formula_sum "Si O2"
_cell_formula_units_Z 48
_cell_length_a 22.269349
_cell_length_b 8.965956
_cell_length_c 14.078174
_cell_angle_alpha 90.000000
_cell_angle_beta 103.955399
_cell_angle_gamma 90.000000
_cell_volume 2727.964550
_symmetry_space_group_name_H-M "C 2/M"
_symmetry_group_IT_number 12
_symmetry_cell_setting 'monoclinic'
loop_
_space_group_symop_operation_xyz
x,y,z
-x,y,-z
-x,-y,-z
x,-y,z
1/2+x,1/2+y,z
1/2-x,1/2+y,-z
1/2-x,1/2-y,-z
1/2+x,1/2-y,z
loop_
_atom_site_type_symbol
_atom_site_label
_atom_site_fract_x
_atom_site_fract_y
_atom_site_fract_z
Si Si1 0.929976 0.664343 0.007891
Si Si2 0.511784 0.824849 0.783251
Si Si3 0.694938 0.826421 0.357007
Si Si4 0.944730 0.326136 0.408338
Si Si5 0.109363 0.175713 0.183927
Si Si6 0.666251 0.673489 0.536049
O O1 0.899586 0.500000 0.987413
O O2 0.891617 0.778138 0.927793
O O3 0.933762 0.715227 0.119867
O O4 0.000000 0.657680 0.000000
O O5 0.535607 0.778289 0.689440
O O6 0.449848 0.734377 0.781514
O O7 0.495381 0.000000 0.782998
O O8 0.670837 0.744361 0.253797
O O9 0.659547 0.762412 0.435270
O O10 0.767710 0.794467 0.390908
O O11 0.679199 0.000000 0.344557
O O12 0.927718 0.500000 0.408036
O O13 0.885007 0.229763 0.410597
O O14 0.000000 0.284673 0.500000
O O15 0.111904 0.000000 0.191823
O O16 0.657225 0.500000 0.510294
#
# Coordination Sequence:
#
# PCOD8095973 Si02
#       6
#     8   8   8   8   8   8
#     4   8  15  29  47  67  96 132 166 200 241 291
#     4   9  18  32  49  71 101 137 169 196 238 295
#     4  10  20  35  53  71  97 131 163 198 242 293
#     4  10  20  33  51  74 101 134 165 193 234 291
#     4  11  20  29  48  77 102 125 161 208 250 286
#     4  10  21  35  52  75  99 126 162 203 244 283
#
# _framework density 17.595535999999999
#
# number of rings (size 3 to 8) (size 9 to 14) (size 15 to 20)
#    0.000    2.333    0.000    4.500    0.000    7.333 
#    0.000    0.000    0.000    1.000    0.000    0.000 
#    0.000    0.000    0.000    0.000    0.000    0.000 
#
# Total GULP energy -297613.462553 kJ/mol
# GULP energy per Si atom -12400.560940 kJ/mol
# Density = 1.755549 g / cm^3
# Si number density = 17.595536 Si / 1000 Ang^3
#
#
#
# Elastic Constant Matrix: (Units=GPa)
#
#
# Indices 1 2 3 4 5 6 
#
# 1 62.5573 38.0318 46.5561 0.0000 -3.0058 0.0000
# 2 38.0318 103.5147 59.4862 0.0000 8.6566 0.0000
# 3 46.5561 59.4862 157.6020 0.0000 -0.5153 0.0000
# 4 0.0000 0.0000 0.0000 25.8106 0.0000 1.6344
# 5 -3.0058 8.6566 -0.5153 0.0000 22.7914 0.0000
# 6 0.0000 0.0000 0.0000 1.6344 0.0000 26.7820
#
#
#
# Elastic Compliance Matrix: (Units=1/GPa)
#
#
# Indices 1 2 3 4 5 6 
#
# 1 0.023555 -0.006545 -0.004470 0.000000 0.005491 0.000000
# 2 -0.006545 0.014701 -0.003637 0.000000 -0.006529 0.000000
# 3 -0.004470 -0.003637 0.009042 0.000000 0.000996 0.000000
# 4 0.000000 0.000000 0.000000 0.038894 0.000000 -0.002374
# 5 0.005491 -0.006529 0.000996 0.000000 0.047103 0.000000
# 6 0.000000 0.000000 0.000000 -0.002374 0.000000 0.037483
#
#
# Mechanical properties :
#
#
# Convention : Reuss Voigt Hill
#
# Bulk Modulus (GPa) = 55.57314 67.98024 61.77669
# Shear Modulus (GPa) = 24.26267 27.05012 25.65640
#
# Velocity S-wave (km/s) = 3.71740 3.92513 3.82268
# Velocity P-wave (km/s) = 7.07655 7.69812 7.39387
#
# Compressibility (1/GPa) = 0.01799430
#
# Stress axis : x y z
#
# Youngs Moduli (GPa) = 42.45472 68.02288 110.60105
#
# Poissons Ratio (x) = 0.44518 0.49438
# Poissons Ratio (y) = 0.27785 0.40224
# Poissons Ratio (z) = 0.18977 0.24739
#
# Static dielectric constant tensor:
#      x y z
#    x 2.934080 0.000000 0.011350 
#    y 0.000000 3.243030 0.000000 
#    z 0.011350 0.000000 3.708370 
# 
# 
# High freq. dielectric constant tensor:
#      x y z
#    x 1.641950 0.000000 0.007110 
#    y 0.000000 1.682300 0.000000 
#    z 0.007110 0.000000 1.695610 
# 
# From -- ./inp_files/230414.got.cif
#   From: 2010.06.25/outbox.cif.g09.slc.cpg/sg12_116_cif.got.tgz:230414.got - 2010.06.28 00:19:55.
