data_PCOD8095435
_publ_section_title
;
Structure prediction by ZEFSAII (Michael W. Deem and Ramdas Pophale) SiO2 
 PCOD8095435
Probable space group: C 2/M
;
_chemical_formula_sum "Si O2"
_cell_formula_units_Z 64
_cell_length_a 17.080486
_cell_length_b 14.445060
_cell_length_c 21.209335
_cell_angle_alpha 90.000000
_cell_angle_beta 41.870571
_cell_angle_gamma 90.000000
_cell_volume 3492.733664
_symmetry_space_group_name_H-M "C 2/M"
_symmetry_group_IT_number 12
_symmetry_cell_setting 'monoclinic'
loop_
_space_group_symop_operation_xyz
x,y,z
-x,y,-z
-x,-y,-z
x,-y,z
1/2+x,1/2+y,z
1/2-x,1/2+y,-z
1/2-x,1/2-y,-z
1/2+x,1/2-y,z
loop_
_atom_site_type_symbol
_atom_site_label
_atom_site_fract_x
_atom_site_fract_y
_atom_site_fract_z
Si Si1 0.540438 0.105941 0.637819
Si Si2 0.021572 0.225275 0.560082
Si Si3 0.078502 0.895472 0.014584
Si Si4 0.646892 0.104157 0.150140
Si Si5 0.362394 0.898188 0.075303
Si Si6 0.702277 0.391858 0.287176
Si Si7 0.374365 0.776289 0.949054
Si Si8 0.759338 0.106635 0.592942
O O1 0.543450 0.174599 0.577266
O O2 0.415595 0.121277 0.746081
O O3 0.639986 0.131200 0.628807
O O4 0.554334 0.000000 0.605390
O O5 0.137373 0.164735 0.501087
O O6 0.000000 0.243034 0.500000
O O7 0.913138 0.169865 0.656174
O O8 0.043790 0.814676 0.085855
O O9 0.058341 0.000000 0.053209
O O10 0.215762 0.876331 0.918765
O O11 0.000000 0.880432 0.000000
O O12 0.577192 0.161223 0.137137
O O13 0.629334 0.000000 0.137240
O O14 0.300605 0.863570 0.176817
O O15 0.312844 0.000000 0.087822
O O16 0.500000 0.903108 0.000000
O O17 0.338641 0.829008 0.033655
O O18 0.667778 0.500000 0.302674
O O19 0.755703 0.369677 0.323974
O O20 0.250000 0.750000 0.000000
O O21 0.793921 0.000000 0.563845
#
# Coordination Sequence:
#
# PCOD8095435 Si02
#       8
#     8   8   8   8   8   8   8   8
#     4  10  21  35  55  79 109 141 174 213 263 321
#     4  10  20  35  57  80 107 137 175 220 264 316
#     4   9  18  34  52  70  97 139 187 223 253 295
#     4   9  19  34  52  75 103 138 176 218 263 313
#     4  10  21  34  51  78 111 141 173 219 268 311
#     4   9  19  34  54  80 108 139 175 217 267 318
#     4  10  20  32  51  74 103 139 179 218 260 303
#     4   9  18  35  58  82 105 136 173 216 270 323
#
# _framework density 18.323755999999999
#
# number of rings (size 3 to 8) (size 9 to 14) (size 15 to 20)
#    0.000    2.500    0.000    1.500    5.250    2.250 
#    0.000    0.000    0.000    0.000    0.000    0.000 
#    0.000    0.000    0.000    0.000    0.000    0.000 
#
# Total GULP energy -396535.024499 kJ/mol
# GULP energy per Si atom -12391.719516 kJ/mol
# Density = 1.828205 g / cm^3
# Si number density = 18.323756 Si / 1000 Ang^3
#
#
#
# Elastic Constant Matrix: (Units=GPa)
#
#
# Indices 1 2 3 4 5 6 
#
# 1 82.4185 54.4967 26.4238 0.0000 0.6906 0.0000
# 2 54.4967 109.9892 39.2856 0.0000 10.5525 0.0000
# 3 26.4238 39.2856 81.7613 0.0000 -2.6610 0.0000
# 4 0.0000 0.0000 0.0000 26.1738 0.0000 13.5846
# 5 0.6906 10.5525 -2.6610 0.0000 20.7361 0.0000
# 6 0.0000 0.0000 0.0000 13.5846 0.0000 41.3205
#
#
#
# Elastic Compliance Matrix: (Units=1/GPa)
#
#
# Indices 1 2 3 4 5 6 
#
# 1 0.018548 -0.008998 -0.001548 0.000000 0.003762 0.000000
# 2 -0.008998 0.016223 -0.005167 0.000000 -0.008619 0.000000
# 3 -0.001548 -0.005167 0.015365 0.000000 0.004653 0.000000
# 4 0.000000 0.000000 0.000000 0.046067 0.000000 -0.015145
# 5 0.003762 -0.008619 0.004653 0.000000 0.053083 0.000000
# 6 0.000000 0.000000 0.000000 -0.015145 0.000000 0.029180
#
#
# Mechanical properties :
#
#
# Convention : Reuss Voigt Hill
#
# Bulk Modulus (GPa) = 53.45186 57.17568 55.31377
# Shear Modulus (GPa) = 23.13433 27.91026 25.52230
#
# Velocity S-wave (km/s) = 3.55707 3.90702 3.73614
# Velocity P-wave (km/s) = 6.79002 7.18497 6.99029
#
# Compressibility (1/GPa) = 0.01870842
#
# Stress axis : x y z
#
# Youngs Moduli (GPa) = 53.91533 61.64266 65.08093
#
# Poissons Ratio (x) = 0.55464 0.10078
# Poissons Ratio (y) = 0.48512 0.33630
# Poissons Ratio (z) = 0.08349 0.31853
#
# Static dielectric constant tensor:
#      x y z
#    x 1.957270 0.000000 -1.704250 
#    y 0.000000 -0.295430 0.000000 
#    z -1.704250 0.000000 1.242060 
# 
# 
# High freq. dielectric constant tensor:
#      x y z
#    x 1.710850 0.000000 -0.002250 
#    y 0.000000 1.721620 0.000000 
#    z -0.002250 0.000000 1.689240 
# 
# From -- ./inp_files/270674.got.cif
#   From: 2010.06.25/outbox.cif.g09.slc.cpg/sg12_136_cif.got.tgz:270674.got - 2010.06.28 00:19:55.
