data_PCOD8095013
_publ_section_title
;
Structure prediction by ZEFSAII (Michael W. Deem and Ramdas Pophale) SiO2 
 PCOD8095013
Probable space group: C 2/M
;
_chemical_formula_sum "Si O2"
_cell_formula_units_Z 64
_cell_length_a 9.375082
_cell_length_b 24.071486
_cell_length_c 17.206199
_cell_angle_alpha 90.000000
_cell_angle_beta 73.840841
_cell_angle_gamma 90.000000
_cell_volume 3729.553227
_symmetry_space_group_name_H-M "C 2/M"
_symmetry_group_IT_number 12
_symmetry_cell_setting 'monoclinic'
loop_
_space_group_symop_operation_xyz
x,y,z
-x,y,-z
-x,-y,-z
x,-y,z
1/2+x,1/2+y,z
1/2-x,1/2+y,-z
1/2-x,1/2-y,-z
1/2+x,1/2-y,z
loop_
_atom_site_type_symbol
_atom_site_label
_atom_site_fract_x
_atom_site_fract_y
_atom_site_fract_z
Si Si1 0.630113 0.845712 0.240406
Si Si2 0.813192 0.641848 0.349446
Si Si3 0.662835 0.804343 0.493684
Si Si4 0.545473 0.565548 0.405957
Si Si5 0.152608 0.312436 0.074760
Si Si6 0.366907 0.713378 0.734826
Si Si7 0.179465 0.705543 0.905624
Si Si8 0.350888 0.357788 0.334096
O O1 0.469576 0.871455 0.284442
O O2 0.663248 0.857109 0.143523
O O3 0.629815 0.779679 0.259179
O O4 0.761542 0.875047 0.269507
O O5 0.841264 0.652853 0.435107
O O6 0.708435 0.587870 0.359120
O O7 0.730112 0.695271 0.324865
O O8 0.500000 0.782889 0.500000
O O9 0.750000 0.750000 0.500000
O O10 0.727136 0.835324 0.410284
O O11 0.500000 0.584888 0.500000
O O12 0.545727 0.500000 0.398524
O O13 0.429591 0.589117 0.360446
O O14 0.276006 0.266453 0.072877
O O15 0.985340 0.288066 0.104212
O O16 0.182274 0.335102 0.982046
O O17 0.291575 0.684582 0.822138
O O18 0.533428 0.691128 0.702586
#
# Coordination Sequence:
#
# PCOD8095013 Si02
#       8
#     8   8   8   8   8   8   8   8
#     4  11  19  32  47  75 108 141 167 210 249 295
#     4  11  21  34  50  73 100 132 176 208 252 302
#     4  12  24  33  47  73 110 144 169 199 240 297
#     4  10  22  42  60  72  92 127 175 225 276 316
#     4   9  18  28  45  65 100 146 184 213 236 282
#     4  10  20  31  47  72 108 148 173 203 246 299
#     4   9  17  30  42  66  99 146 188 209 237 285
#     4  11  23  34  50  75 102 134 175 212 254 308
#
# _framework density 17.160231
#
# number of rings (size 3 to 8) (size 9 to 14) (size 15 to 20)
#    0.000    1.625    3.750    2.250    8.750    0.000 
#    0.000    0.625    0.000    2.250    0.000    0.000 
#    0.000   16.000    0.000    0.000    0.000    0.000 
#
# Total GULP energy -396656.125966 kJ/mol
# GULP energy per Si atom -12395.503936 kJ/mol
# Density = 1.712117 g / cm^3
# Si number density = 17.160231 Si / 1000 Ang^3
#
#
#
# Elastic Constant Matrix: (Units=GPa)
#
#
# Indices 1 2 3 4 5 6 
#
# 1 121.2826 22.3532 43.6015 0.0000 8.8986 0.0000
# 2 22.3532 45.7908 16.4442 0.0000 2.5140 0.0000
# 3 43.6015 16.4442 119.8712 0.0000 1.6743 0.0000
# 4 0.0000 0.0000 0.0000 12.6766 0.0000 1.2578
# 5 8.8986 2.5140 1.6743 0.0000 28.7712 0.0000
# 6 0.0000 0.0000 0.0000 1.2578 0.0000 11.9143
#
#
#
# Elastic Compliance Matrix: (Units=1/GPa)
#
#
# Indices 1 2 3 4 5 6 
#
# 1 0.010274 -0.003724 -0.003189 0.000000 -0.002667 0.000000
# 2 -0.003724 0.024416 -0.001983 0.000000 -0.000866 0.000000
# 3 -0.003189 -0.001983 0.009766 0.000000 0.000591 0.000000
# 4 0.000000 0.000000 0.000000 0.079721 0.000000 -0.008416
# 5 -0.002667 -0.000866 0.000591 0.000000 0.035623 0.000000
# 6 0.000000 0.000000 0.000000 -0.008416 0.000000 0.084821
#
#
# Mechanical properties :
#
#
# Convention : Reuss Voigt Hill
#
# Bulk Modulus (GPa) = 37.50277 50.19361 43.84819
# Shear Modulus (GPa) = 18.42984 24.30880 21.36932
#
# Velocity S-wave (km/s) = 3.28073 3.76783 3.53268
# Velocity P-wave (km/s) = 6.02103 6.94566 6.49981
#
# Compressibility (1/GPa) = 0.02666469
#
# Stress axis : x y z
#
# Youngs Moduli (GPa) = 97.33770 40.95710 102.39676
#
# Poissons Ratio (x) = 0.15251 0.32652
# Poissons Ratio (y) = 0.36244 0.20304
# Poissons Ratio (z) = 0.31039 0.08121
#
# Static dielectric constant tensor:
#      x y z
#    x 3.421270 0.000000 0.110770 
#    y 0.000000 2.631060 0.000000 
#    z 0.110770 0.000000 3.899220 
# 
# 
# High freq. dielectric constant tensor:
#      x y z
#    x 1.685950 0.000000 0.004070 
#    y 0.000000 1.578610 0.000000 
#    z 0.004070 0.000000 1.684920 
# 
# From -- ./inp_files/258922.got.cif
#   From: 2010.06.25/outbox.cif.g09.slc.cpg/sg12_130_cif.got.tgz:258922.got - 2010.06.28 00:19:55.
