data_PCOD8095934
_publ_section_title
;
Structure prediction by ZEFSAII (Michael W. Deem and Ramdas Pophale) SiO2 
 PCOD8095934
Probable space group: C 2/M
;
_chemical_formula_sum "Si O2"
_cell_formula_units_Z 56
_cell_length_a 14.633595
_cell_length_b 13.993077
_cell_length_c 17.018189
_cell_angle_alpha 90.000000
_cell_angle_beta 126.338584
_cell_angle_gamma 90.000000
_cell_volume 2807.107266
_symmetry_space_group_name_H-M "C 2/M"
_symmetry_group_IT_number 12
_symmetry_cell_setting 'monoclinic'
loop_
_space_group_symop_operation_xyz
x,y,z
-x,y,-z
-x,-y,-z
x,-y,z
1/2+x,1/2+y,z
1/2-x,1/2+y,-z
1/2-x,1/2-y,-z
1/2+x,1/2-y,z
loop_
_atom_site_type_symbol
_atom_site_label
_atom_site_fract_x
_atom_site_fract_y
_atom_site_fract_z
Si Si1 0.196973 0.199884 0.723761
Si Si2 0.722652 0.387532 0.999392
Si Si3 0.870714 0.893549 0.461240
Si Si4 0.251697 0.609371 0.811595
Si Si5 0.477413 0.610560 0.842113
Si Si6 0.131497 0.386587 0.072346
Si Si7 0.033121 0.113380 0.334690
O O1 0.201919 0.173701 0.633737
O O2 0.182703 0.315233 0.723239
O O3 0.313660 0.165824 0.824466
O O4 0.093514 0.149740 0.714446
O O5 0.713742 0.500000 0.986886
O O6 0.597320 0.340760 0.925901
O O7 0.806709 0.347624 0.975257
O O8 0.771792 0.363042 0.110169
O O9 0.875372 0.850892 0.553008
O O10 0.000000 0.897813 0.500000
O O11 0.817010 0.000000 0.431496
O O12 0.215307 0.500000 0.773041
O O13 0.385627 0.625083 0.863504
O O14 0.502837 0.500000 0.841996
O O15 0.430659 0.649242 0.733792
O O16 0.146554 0.500000 0.090058
O O17 0.000000 0.357993 0.000000
O O18 0.027828 0.000000 0.340297
#
# Coordination Sequence:
#
# PCOD8095934 Si02
#       7
#     8   8   8   8   8   8   8
#     4  11  19  32  51  76 106 141 170 216 260 320
#     4   9  17  33  53  71 101 142 180 215 257 298
#     4   8  15  28  53  84 108 126 160 215 276 327
#     4  10  22  35  48  72 103 145 189 222 249 290
#     4   9  16  31  55  77 102 135 177 223 261 297
#     4  10  20  33  50  78 114 144 168 204 262 335
#     4   9  16  31  58  88 106 124 163 221 281 322
#
# _framework density 19.949362000000001
#
# number of rings (size 3 to 8) (size 9 to 14) (size 15 to 20)
#    0.000    2.571    1.429    2.571    0.000    3.429 
#    2.571    0.714    0.000    3.857    0.000    0.000 
#    0.000    0.000    0.000    0.000    0.000    0.000 
#
# Total GULP energy -346976.165748 kJ/mol
# GULP energy per Si atom -12392.005920 kJ/mol
# Density = 1.990396 g / cm^3
# Si number density = 19.949362 Si / 1000 Ang^3
#
#
#
# Elastic Constant Matrix: (Units=GPa)
#
#
# Indices 1 2 3 4 5 6 
#
# 1 55.6996 2.0101 26.6496 0.0000 -4.9412 0.0000
# 2 2.0101 60.0788 46.0175 0.0000 -4.1410 0.0000
# 3 26.6496 46.0175 121.8427 0.0000 -7.2459 0.0000
# 4 0.0000 0.0000 0.0000 19.0115 0.0000 0.0405
# 5 -4.9412 -4.1410 -7.2459 0.0000 16.0357 0.0000
# 6 0.0000 0.0000 0.0000 0.0405 0.0000 3.4548
#
#
#
# Elastic Compliance Matrix: (Units=1/GPa)
#
#
# Indices 1 2 3 4 5 6 
#
# 1 0.021049 0.004132 -0.005873 0.000000 0.004899 0.000000
# 2 0.004132 0.024300 -0.009899 0.000000 0.003076 0.000000
# 3 -0.005873 -0.009899 0.013329 0.000000 0.001657 0.000000
# 4 0.000000 0.000000 0.000000 0.052601 0.000000 -0.000617
# 5 0.004899 0.003076 0.001657 0.000000 0.065414 0.000000
# 6 0.000000 0.000000 0.000000 -0.000617 0.000000 0.289463
#
#
# Mechanical properties :
#
#
# Convention : Reuss Voigt Hill
#
# Bulk Modulus (GPa) = 28.24957 42.99729 35.62343
# Shear Modulus (GPa) = 9.97536 18.56331 14.26933
#
# Velocity S-wave (km/s) = 2.23857 3.05375 2.67737
# Velocity P-wave (km/s) = 4.56870 5.83386 5.23960
#
# Compressibility (1/GPa) = 0.03539877
#
# Stress axis : x y z
#
# Youngs Moduli (GPa) = 47.50841 41.15153 75.02495
#
# Poissons Ratio (x) = -0.17003 0.44062
# Poissons Ratio (y) = -0.19630 0.74264
# Poissons Ratio (z) = 0.27902 0.40734
#
# Static dielectric constant tensor:
#      x y z
#    x 3.532120 0.000000 -0.384510 
#    y 0.000000 3.508270 0.000000 
#    z -0.384510 0.000000 3.953060 
# 
# 
# High freq. dielectric constant tensor:
#      x y z
#    x 1.754970 0.000000 -0.025700 
#    y 0.000000 1.762500 0.000000 
#    z -0.025700 0.000000 1.770930 
# 
# From -- ./inp_files/143698.got.cif
#   From: 2010.06.25/outbox.cif.g09.slc.cpg/sg12_72_cif.got.tgz:143698.got - 2010.06.28 00:19:55.
