data_PCOD8095542
_publ_section_title
;
Structure prediction by ZEFSAII (Michael W. Deem and Ramdas Pophale) SiO2 
 PCOD8095542
Probable space group: C 2/M
;
_chemical_formula_sum "Si O2"
_cell_formula_units_Z 64
_cell_length_a 29.604663
_cell_length_b 10.092102
_cell_length_c 14.343149
_cell_angle_alpha 90.000000
_cell_angle_beta 130.144767
_cell_angle_gamma 90.000000
_cell_volume 3275.797954
_symmetry_space_group_name_H-M "C 2/M"
_symmetry_group_IT_number 12
_symmetry_cell_setting 'monoclinic'
loop_
_space_group_symop_operation_xyz
x,y,z
-x,y,-z
-x,-y,-z
x,-y,z
1/2+x,1/2+y,z
1/2-x,1/2+y,-z
1/2-x,1/2-y,-z
1/2+x,1/2-y,z
loop_
_atom_site_type_symbol
_atom_site_label
_atom_site_fract_x
_atom_site_fract_y
_atom_site_fract_z
Si Si1 0.753119 0.854520 0.585234
Si Si2 0.362048 0.752532 0.827118
Si Si3 0.153012 0.151416 0.697801
Si Si4 0.368609 0.849130 0.483557
Si Si5 0.289708 0.148594 0.897763
Si Si6 0.638141 0.348494 0.889880
Si Si7 0.563321 0.849692 0.238612
Si Si8 0.957304 0.149456 0.088488
O O1 0.750000 0.750000 0.500000
O O2 0.814293 0.848504 0.722205
O O3 0.700245 0.830648 0.586431
O O4 0.747333 0.000000 0.531909
O O5 0.329878 0.847172 0.858716
O O6 0.388697 0.841245 0.779833
O O7 0.412535 0.665541 0.943006
O O8 0.116689 0.248532 0.580852
O O9 0.222406 0.183098 0.784406
O O10 0.128416 0.179278 0.768275
O O11 0.140517 0.000000 0.651091
O O12 0.406853 0.808832 0.624400
O O13 0.382650 0.000000 0.471721
O O14 0.293984 0.000000 0.945059
O O15 0.311237 0.252459 0.003764
O O16 0.659151 0.500000 0.935030
O O17 0.576107 0.321595 0.858806
O O18 0.509796 0.752370 0.146064
O O19 0.539382 0.000000 0.210559
O O20 0.982608 0.000000 0.120183
#
# Coordination Sequence:
#
# PCOD8095542 Si02
#       8
#     8   8   8   8   8   8   8   8
#     4  11  22  37  58  85 120 159 193 233 287 344
#     4  11  21  37  60  88 120 153 191 233 284 344
#     4  10  20  36  58  86 115 150 192 236 288 348
#     4  10  22  39  57  84 118 154 192 234 287 345
#     4  10  20  32  54  88 120 150 188 230 282 350
#     4   9  20  38  58  81 115 151 190 241 294 341
#     4  11  24  41  59  82 116 156 195 239 287 337
#     4  10  23  41  60  84 112 149 198 245 285 337
#
# _framework density 19.537226
#
# number of rings (size 3 to 8) (size 9 to 14) (size 15 to 20)
#    0.000    1.750    2.500    1.500    0.000    7.500 
#    0.000    0.625    0.000    3.750    0.000    0.000 
#    0.000    0.000    0.000    0.000    0.000    0.000 
#
# Total GULP energy -396857.300492 kJ/mol
# GULP energy per Si atom -12401.790640 kJ/mol
# Density = 1.949276 g / cm^3
# Si number density = 19.537226 Si / 1000 Ang^3
#
#
#
# Elastic Constant Matrix: (Units=GPa)
#
#
# Indices 1 2 3 4 5 6 
#
# 1 54.0717 25.4007 36.3712 0.0000 -9.7119 0.0000
# 2 25.4007 95.5105 43.4251 0.0000 -10.2045 0.0000
# 3 36.3712 43.4251 100.8841 0.0000 -8.4197 0.0000
# 4 0.0000 0.0000 0.0000 34.2295 0.0000 -2.6125
# 5 -9.7119 -10.2045 -8.4197 0.0000 34.5204 0.0000
# 6 0.0000 0.0000 0.0000 -2.6125 0.0000 24.8608
#
#
#
# Elastic Compliance Matrix: (Units=1/GPa)
#
#
# Indices 1 2 3 4 5 6 
#
# 1 0.025842 -0.002889 -0.007694 0.000000 0.004540 0.000000
# 2 -0.002889 0.013561 -0.004623 0.000000 0.002068 0.000000
# 3 -0.007694 -0.004623 0.014680 0.000000 0.000049 0.000000
# 4 0.000000 0.000000 0.000000 0.029451 0.000000 0.003095
# 5 0.004540 0.002068 0.000049 0.000000 0.030869 0.000000
# 6 0.000000 0.000000 0.000000 0.003095 0.000000 0.040549
#
#
# Mechanical properties :
#
#
# Convention : Reuss Voigt Hill
#
# Bulk Modulus (GPa) = 42.24636 51.20669 46.72653
# Shear Modulus (GPa) = 25.87236 28.40676 27.13956
#
# Velocity S-wave (km/s) = 3.64299 3.81725 3.73113
# Velocity P-wave (km/s) = 6.27420 6.75982 6.52153
#
# Compressibility (1/GPa) = 0.02367068
#
# Stress axis : x y z
#
# Youngs Moduli (GPa) = 38.69655 73.73859 68.11797
#
# Poissons Ratio (x) = 0.21306 0.52411
# Poissons Ratio (y) = 0.11181 0.31492
# Poissons Ratio (z) = 0.29774 0.34090
#
# Static dielectric constant tensor:
#      x y z
#    x 3.614680 0.000000 -0.064160 
#    y 0.000000 3.652540 0.000000 
#    z -0.064160 0.000000 3.462260 
# 
# 
# High freq. dielectric constant tensor:
#      x y z
#    x 1.755700 0.000000 -0.008870 
#    y 0.000000 1.767120 0.000000 
#    z -0.008870 0.000000 1.752960 
# 
# From -- ./inp_files/250034.got.cif
#   From: 2010.06.25/outbox.cif.g09.slc.cpg/sg12_126_cif.got.tgz:250034.got - 2010.06.28 00:19:55.
