data_PCOD8095147
_publ_section_title
;
Structure prediction by ZEFSAII (Michael W. Deem and Ramdas Pophale) SiO2 
 PCOD8095147
Probable space group: C 2/M
;
_chemical_formula_sum "Si O2"
_cell_formula_units_Z 48
_cell_length_a 12.848194
_cell_length_b 14.183959
_cell_length_c 26.474428
_cell_angle_alpha 90.000000
_cell_angle_beta 33.698005
_cell_angle_gamma 90.000000
_cell_volume 2676.792408
_symmetry_space_group_name_H-M "C 2/M"
_symmetry_group_IT_number 12
_symmetry_cell_setting 'monoclinic'
loop_
_space_group_symop_operation_xyz
x,y,z
-x,y,-z
-x,-y,-z
x,-y,z
1/2+x,1/2+y,z
1/2-x,1/2+y,-z
1/2-x,1/2-y,-z
1/2+x,1/2-y,z
loop_
_atom_site_type_symbol
_atom_site_label
_atom_site_fract_x
_atom_site_fract_y
_atom_site_fract_z
Si Si1 0.856694 0.291958 0.290349
Si Si2 0.800505 0.388569 0.887741
Si Si3 0.593420 0.891402 0.625436
Si Si4 0.008273 0.103722 0.556770
Si Si5 0.473160 0.610850 0.088315
Si Si6 0.693508 0.391995 0.739788
O O1 0.915556 0.323063 0.322581
O O2 0.647257 0.325253 0.358889
O O3 0.858613 0.177883 0.285140
O O4 0.000338 0.336207 0.191773
O O5 0.835829 0.500000 0.870749
O O6 0.684422 0.349559 0.886234
O O7 0.682698 0.360428 0.985734
O O8 0.411620 0.878922 0.664746
O O9 0.776479 0.866557 0.517055
O O10 0.608190 0.000000 0.639187
O O11 0.000000 0.102578 0.500000
O O12 0.964264 0.000000 0.596571
O O13 0.451234 0.500000 0.092919
O O14 0.432621 0.641993 0.161821
O O15 0.650150 0.500000 0.741479
#
# Coordination Sequence:
#
# PCOD8095147 Si02
#       6
#     8   8   8   8   8   8
#     4  11  18  26  49  74  93 119 156 195 227 272
#     4   9  15  26  48  73  93 115 148 195 236 268
#     4   9  17  33  52  69  95 123 150 191 236 276
#     4   8  15  27  46  72  96 117 146 191 239 273
#     4   8  15  28  45  67  95 121 147 186 234 275
#     4  10  20  32  46  67  96 128 158 185 226 277
#
# _framework density 17.931909999999998
#
# number of rings (size 3 to 8) (size 9 to 14) (size 15 to 20)
#    0.000    2.833    1.667    3.500    0.000    1.333 
#    0.000    0.000    0.000    7.500    0.000    2.333 
#    0.000    0.000    0.000    0.000    0.000    0.000 
#
# Total GULP energy -297370.497725 kJ/mol
# GULP energy per Si atom -12390.437405 kJ/mol
# Density = 1.789110 g / cm^3
# Si number density = 17.931910 Si / 1000 Ang^3
#
#
#
# Elastic Constant Matrix: (Units=GPa)
#
#
# Indices 1 2 3 4 5 6 
#
# 1 26.8789 27.1638 13.5003 -0.0002 -2.2600 0.0001
# 2 27.1638 91.1097 37.0416 -0.0006 -1.0346 0.0002
# 3 13.5003 37.0416 114.4918 -0.0003 -22.4338 0.0005
# 4 -0.0002 -0.0006 -0.0003 8.8291 0.0002 9.9364
# 5 -2.2600 -1.0346 -22.4338 0.0002 14.4637 -0.0001
# 6 0.0001 0.0002 0.0005 9.9364 -0.0001 19.1718
#
#
#
# Elastic Compliance Matrix: (Units=1/GPa)
#
#
# Indices 1 2 3 4 5 6 
#
# 1 0.054017 -0.016187 0.000423 0.000000 0.007939 0.000000
# 2 -0.016187 0.018134 -0.006033 0.000002 -0.010590 -0.000001
# 3 0.000423 -0.006033 0.015177 -0.000001 0.023175 0.000000
# 4 0.000000 0.000002 -0.000001 0.271790 -0.000006 -0.140863
# 5 0.007939 -0.010590 0.023175 -0.000006 0.105567 0.000003
# 6 0.000000 -0.000001 0.000000 -0.140863 0.000003 0.125166
#
#
# Mechanical properties :
#
#
# Convention : Reuss Voigt Hill
#
# Bulk Modulus (GPa) = 22.86514 43.09910 32.98212
# Shear Modulus (GPa) = 7.71574 18.81124 13.26349
#
# Velocity S-wave (km/s) = 2.07657 3.24240 2.72262
# Velocity P-wave (km/s) = 4.30445 6.17289 5.32132
#
# Compressibility (1/GPa) = 0.04373470
#
# Stress axis : x y z
#
# Youngs Moduli (GPa) = 18.51258 55.14354 65.88735
#
# Poissons Ratio (x) = 0.89260 -0.02787
# Poissons Ratio (y) = 0.29966 0.39753
# Poissons Ratio (z) = -0.00783 0.33271
#
# Static dielectric constant tensor:
#      x y z
#    x 2.836760 0.000000 -0.163150 
#    y 0.000000 3.081000 0.000000 
#    z -0.163150 0.000000 4.148410 
# 
# 
# High freq. dielectric constant tensor:
#      x y z
#    x 1.636960 0.000000 -0.021160 
#    y 0.000000 1.669030 0.000000 
#    z -0.021160 0.000000 1.714940 
# 
# From -- ./inp_files/212622.got.cif
#   From: 2010.06.25/outbox.cif.g09.slc.cpg/sg12_107_cif.got.tgz:212622.got - 2010.06.28 00:19:55.
