data_PCOD8095451
_publ_section_title
;
Structure prediction by ZEFSAII (Michael W. Deem and Ramdas Pophale) SiO2 
 PCOD8095451
Probable space group: C 2/M
;
_chemical_formula_sum "Si O2"
_cell_formula_units_Z 56
_cell_length_a 28.674547
_cell_length_b 9.077618
_cell_length_c 16.301266
_cell_angle_alpha 90.000000
_cell_angle_beta 138.532442
_cell_angle_gamma 90.000000
_cell_volume 2809.805574
_symmetry_space_group_name_H-M "C 2/M"
_symmetry_group_IT_number 12
_symmetry_cell_setting 'monoclinic'
loop_
_space_group_symop_operation_xyz
x,y,z
-x,y,-z
-x,-y,-z
x,-y,z
1/2+x,1/2+y,z
1/2-x,1/2+y,-z
1/2-x,1/2-y,-z
1/2+x,1/2-y,z
loop_
_atom_site_type_symbol
_atom_site_label
_atom_site_fract_x
_atom_site_fract_y
_atom_site_fract_z
Si Si1 0.170491 0.327541 0.561710
Si Si2 0.034769 0.173372 0.959789
Si Si3 0.781364 0.669194 0.618459
Si Si4 0.919466 0.331536 0.714860
Si Si5 0.845551 0.672728 0.967228
Si Si6 0.175650 0.171937 0.904089
Si Si7 0.681112 0.667534 0.731008
O O1 0.183228 0.500000 0.578013
O O2 0.247135 0.248518 0.652076
O O3 0.116523 0.282072 0.418403
O O4 0.142785 0.272363 0.613715
O O5 0.109383 0.256268 0.047461
O O6 0.984489 0.225079 0.818926
O O7 0.047098 0.000000 0.970513
O O8 0.000000 0.219931 0.000000
O O9 0.757761 0.500000 0.587590
O O10 0.750000 0.750000 0.500000
O O11 0.865624 0.683087 0.721201
O O12 0.945740 0.500000 0.742247
O O13 0.860962 0.500000 0.991961
O O14 0.870559 0.748697 0.086327
O O15 0.763751 0.707311 0.845551
O O16 0.143337 0.191223 0.769749
O O17 0.184921 0.000000 0.937478
O O18 0.250000 0.250000 0.000000
O O19 0.671963 0.500000 0.689771
#
# Coordination Sequence:
#
# PCOD8095451 Si02
#       7
#     8   8   8   8   8   8   8
#     4  10  20  32  51  79 108 140 176 219 270 318
#     4  11  25  40  55  79 106 140 185 229 268 314
#     4   9  17  30  48  71  99 133 174 215 261 315
#     4   9  20  37  53  72 101 141 182 219 265 320
#     4  10  21  37  57  80 109 147 183 220 272 325
#     4   9  17  32  54  81 112 143 178 221 270 323
#     4   9  19  33  53  84 114 142 175 215 269 325
#
# _framework density 19.930204
#
# number of rings (size 3 to 8) (size 9 to 14) (size 15 to 20)
#    0.000    2.429    0.000    3.857    2.000    8.000 
#    0.000    0.000    0.000    0.857    0.000    6.000 
#    0.000    0.000    0.000    0.000    0.000    0.000 
#
# Total GULP energy -347025.532369 kJ/mol
# GULP energy per Si atom -12393.769013 kJ/mol
# Density = 1.988484 g / cm^3
# Si number density = 19.930204 Si / 1000 Ang^3
#
#
#
# Elastic Constant Matrix: (Units=GPa)
#
#
# Indices 1 2 3 4 5 6 
#
# 1 83.9630 36.6511 17.0000 0.0000 -20.2819 0.0000
# 2 36.6511 97.7721 25.2062 0.0000 -10.8783 0.0000
# 3 17.0000 25.2062 50.9312 0.0000 -14.6882 0.0000
# 4 0.0000 0.0000 0.0000 26.9020 0.0000 -3.6297
# 5 -20.2819 -10.8783 -14.6882 0.0000 28.2186 0.0000
# 6 0.0000 0.0000 0.0000 -3.6297 0.0000 36.9999
#
#
#
# Elastic Compliance Matrix: (Units=1/GPa)
#
#
# Indices 1 2 3 4 5 6 
#
# 1 0.016530 -0.005056 -0.000178 0.000000 0.009839 0.000000
# 2 -0.005056 0.013345 -0.005273 0.000000 -0.001234 0.000000
# 3 -0.000178 -0.005273 0.025509 0.000000 0.011118 0.000000
# 4 0.000000 0.000000 0.000000 0.037671 0.000000 0.003695
# 5 0.009839 -0.001234 0.011118 0.000000 0.047820 0.000000
# 6 0.000000 0.000000 0.000000 0.003695 0.000000 0.027390
#
#
# Mechanical properties :
#
#
# Convention : Reuss Voigt Hill
#
# Bulk Modulus (GPa) = 29.09392 43.37566 36.23479
# Shear Modulus (GPa) = 24.90847 28.67804 26.79326
#
# Velocity S-wave (km/s) = 3.53907 3.79743 3.67052
# Velocity P-wave (km/s) = 5.59728 6.40612 6.01531
#
# Compressibility (1/GPa) = 0.03437144
#
# Stress axis : x y z
#
# Youngs Moduli (GPa) = 60.49751 74.93322 39.20113
#
# Poissons Ratio (x) = 0.37885 0.00696
# Poissons Ratio (y) = 0.30586 0.20670
# Poissons Ratio (z) = 0.01075 0.39512
#
# Static dielectric constant tensor:
#      x y z
#    x 3.888340 0.000000 -0.287710 
#    y 0.000000 3.705940 0.000000 
#    z -0.287710 0.000000 3.323800 
# 
# 
# High freq. dielectric constant tensor:
#      x y z
#    x 1.771770 0.000000 -0.026840 
#    y 0.000000 1.785710 0.000000 
#    z -0.026840 0.000000 1.745120 
# 
# From -- ./inp_files/295186.got.cif
#   From: 2010.06.25/outbox.cif.g09.slc.cpg/sg12_148_cif.got.tgz:295186.got - 2010.06.28 00:19:55.
