data_PCOD8095411
_publ_section_title
;
Structure prediction by ZEFSAII (Michael W. Deem and Ramdas Pophale) SiO2 
 PCOD8095411
Probable space group: C 2/M
;
_chemical_formula_sum "Si O2"
_cell_formula_units_Z 56
_cell_length_a 20.180245
_cell_length_b 8.992204
_cell_length_c 19.154347
_cell_angle_alpha 90.000000
_cell_angle_beta 60.010184
_cell_angle_gamma 90.000000
_cell_volume 3010.475703
_symmetry_space_group_name_H-M "C 2/M"
_symmetry_group_IT_number 12
_symmetry_cell_setting 'monoclinic'
loop_
_space_group_symop_operation_xyz
x,y,z
-x,y,-z
-x,-y,-z
x,-y,z
1/2+x,1/2+y,z
1/2-x,1/2+y,-z
1/2-x,1/2-y,-z
1/2+x,1/2-y,z
loop_
_atom_site_type_symbol
_atom_site_label
_atom_site_fract_x
_atom_site_fract_y
_atom_site_fract_z
Si Si1 0.873290 0.176922 0.245325
Si Si2 0.433317 0.823287 0.484539
Si Si3 0.082316 0.823402 0.932321
Si Si4 0.354804 0.175979 0.764800
Si Si5 0.026622 0.676019 0.690053
Si Si6 0.202255 0.323259 0.351182
Si Si7 0.270470 0.323532 0.061570
O O1 0.895829 0.235775 0.156311
O O2 0.931093 0.242875 0.270153
O O3 0.788917 0.235869 0.310978
O O4 0.877177 0.000000 0.245502
O O5 0.500000 0.759375 0.500000
O O6 0.442666 0.764672 0.400766
O O7 0.350000 0.770248 0.556207
O O8 0.440245 0.000000 0.480890
O O9 0.146367 0.771528 0.954333
O O10 0.079595 0.000000 0.931363
O O11 0.000000 0.758792 0.000000
O O12 0.438747 0.225100 0.744201
O O13 0.336196 0.242279 0.698524
O O14 0.292762 0.237281 0.851486
O O15 0.349162 0.000000 0.763393
O O16 0.037682 0.500000 0.691093
O O17 0.203320 0.500000 0.346908
O O18 0.267115 0.500000 0.055407
O O19 0.250000 0.250000 0.000000
#
# Coordination Sequence:
#
# PCOD8095411 Si02
#       7
#     8   8   8   8   8   8   8
#     4  10  20  34  52  73 100 134 167 200 244 298
#     4   9  15  26  48  77 100 123 165 212 245 280
#     4   9  18  33  52  72  96 130 169 202 235 288
#     4   9  16  30  51  73  98 128 166 207 243 281
#     4  10  20  32  50  77 104 128 160 207 252 290
#     4   9  15  28  51  74  95 127 171 209 237 281
#     4  10  20  34  53  77 101 127 163 207 249 290
#
# _framework density 18.601711000000002
#
# number of rings (size 3 to 8) (size 9 to 14) (size 15 to 20)
#    0.000    2.571    2.857    0.000    2.000    0.571 
#    0.000    0.714    0.000    2.143    0.000    0.000 
#    0.000    0.000    0.000    0.000    0.000    0.000 
#
# Total GULP energy -347087.912828 kJ/mol
# GULP energy per Si atom -12395.996887 kJ/mol
# Density = 1.855937 g / cm^3
# Si number density = 18.601711 Si / 1000 Ang^3
#
#
#
# Elastic Constant Matrix: (Units=GPa)
#
#
# Indices 1 2 3 4 5 6 
#
# 1 167.3303 19.6664 86.9201 0.0000 -5.1192 0.0004
# 2 19.6664 10.8745 15.7458 0.0002 1.1552 0.0016
# 3 86.9201 15.7458 151.1712 -0.0001 -13.1358 0.0001
# 4 0.0000 0.0002 -0.0001 12.7899 0.0000 8.2431
# 5 -5.1192 1.1552 -13.1358 0.0000 42.9537 0.0000
# 6 0.0004 0.0016 0.0001 8.2431 0.0000 24.2337
#
#
#
# Elastic Compliance Matrix: (Units=1/GPa)
#
#
# Indices 1 2 3 4 5 6 
#
# 1 0.009510 -0.010959 -0.004317 0.000000 0.000108 0.000001
# 2 -0.010959 0.122735 -0.007071 0.000004 -0.006769 -0.000009
# 3 -0.004317 -0.007071 0.010073 0.000000 0.002756 0.000001
# 4 0.000000 0.000004 0.000000 0.100140 0.000000 -0.034062
# 5 0.000108 -0.006769 0.002756 0.000000 0.024319 0.000000
# 6 0.000001 -0.000009 0.000001 -0.034062 0.000000 0.052851
#
#
# Mechanical properties :
#
#
# Convention : Reuss Voigt Hill
#
# Bulk Modulus (GPa) = 10.24338 63.78228 37.01283
# Shear Modulus (GPa) = 12.59877 29.79837 21.19857
#
# Velocity S-wave (km/s) = 2.60530 4.00674 3.37946
# Velocity P-wave (km/s) = 3.81691 7.46780 5.93030
#
# Compressibility (1/GPa) = 0.09762404
#
# Stress axis : x y z
#
# Youngs Moduli (GPa) = 105.15079 8.14762 99.27203
#
# Poissons Ratio (x) = 0.08929 0.42858
# Poissons Ratio (y) = 1.15237 0.70194
# Poissons Ratio (z) = 0.45396 0.05761
#
# Static dielectric constant tensor:
#      x y z
#    x 3.560480 0.000000 -0.204760 
#    y 0.000000 2.733740 0.000000 
#    z -0.204760 0.000000 3.847130 
# 
# 
# High freq. dielectric constant tensor:
#      x y z
#    x 1.734110 0.000000 -0.006670 
#    y 0.000000 1.649590 0.000000 
#    z -0.006670 0.000000 1.740050 
# 
# From -- ./inp_files/223363.got.cif
#   From: 2010.06.25/outbox.cif.g09.slc.cpg/sg12_112_cif.got.tgz:223363.got - 2010.06.28 00:19:55.
