data_PCOD8095126
_publ_section_title
;
Structure prediction by ZEFSAII (Michael W. Deem and Ramdas Pophale) SiO2 
 PCOD8095126
Probable space group: C 2/M
;
_chemical_formula_sum "Si O2"
_cell_formula_units_Z 64
_cell_length_a 18.672635
_cell_length_b 9.322722
_cell_length_c 20.857251
_cell_angle_alpha 90.000000
_cell_angle_beta 90.564323
_cell_angle_gamma 90.000000
_cell_volume 3630.649663
_symmetry_space_group_name_H-M "C 2/M"
_symmetry_group_IT_number 12
_symmetry_cell_setting 'monoclinic'
loop_
_space_group_symop_operation_xyz
x,y,z
-x,y,-z
-x,-y,-z
x,-y,z
1/2+x,1/2+y,z
1/2-x,1/2+y,-z
1/2-x,1/2-y,-z
1/2+x,1/2-y,z
loop_
_atom_site_type_symbol
_atom_site_label
_atom_site_fract_x
_atom_site_fract_y
_atom_site_fract_z
Si Si1 0.329444 0.662153 0.136428
Si Si2 0.662351 0.167686 0.124328
Si Si3 0.670881 0.168316 0.362231
Si Si4 0.821371 0.336655 0.499204
Si Si5 0.074380 0.670142 0.246762
Si Si6 0.820121 0.332455 0.360461
Si Si7 0.823052 0.834484 0.994396
Si Si8 0.913430 0.329834 0.242464
O O1 0.339782 0.500000 0.161610
O O2 0.245495 0.702341 0.138304
O O3 0.372812 0.770067 0.180669
O O4 0.361053 0.676259 0.064261
O O5 0.616867 0.221808 0.184410
O O6 0.633090 0.257493 0.062552
O O7 0.651014 0.000000 0.109965
O O8 0.636751 0.197093 0.433632
O O9 0.614519 0.229645 0.310314
O O10 0.746276 0.247017 0.353594
O O11 0.684695 0.000000 0.350707
O O12 0.797125 0.500000 0.500464
O O13 0.750000 0.250000 0.500000
O O14 0.859067 0.304654 0.430668
O O15 0.072105 0.500000 0.249627
O O16 0.994029 0.732078 0.244523
O O17 0.802782 0.500000 0.350930
O O18 0.874644 0.277546 0.306969
O O19 0.808552 0.000000 0.976415
O O20 0.750000 0.750000 0.000000
O O21 0.913572 0.500000 0.236791
#
# Coordination Sequence:
#
# PCOD8095126 Si02
#       8
#     8   8   8   8   8   8   8   8
#     4   9  18  32  50  71  92 116 149 189 227 265
#     4   9  17  31  51  71  92 119 152 191 228 265
#     4   9  16  29  50  69  87 119 158 189 223 271
#     4   8  14  25  43  67  91 115 146 186 229 269
#     4   9  18  32  47  66  93 123 157 192 224 265
#     4   9  17  29  45  69  97 118 146 191 234 270
#     4   9  17  30  49  73  97 118 146 187 231 272
#     4  10  20  32  46  65  93 127 155 185 228 273
#
# _framework density 17.627697999999999
#
# number of rings (size 3 to 8) (size 9 to 14) (size 15 to 20)
#    0.000    3.000    0.000    1.875    0.000    4.000 
#    0.000    3.125    0.000    7.500    0.000    0.000 
#    0.000   11.000    0.000    0.000    0.000    0.000 
#
# Total GULP energy -396449.712948 kJ/mol
# GULP energy per Si atom -12389.053530 kJ/mol
# Density = 1.758758 g / cm^3
# Si number density = 17.627698 Si / 1000 Ang^3
#
#
#
# Elastic Constant Matrix: (Units=GPa)
#
#
# Indices 1 2 3 4 5 6 
#
# 1 84.0389 23.6932 68.3952 0.0000 -0.8337 0.0000
# 2 23.6932 42.6006 45.5534 0.0000 1.9018 0.0000
# 3 68.3952 45.5534 173.8354 0.0000 -0.3618 0.0000
# 4 0.0000 0.0000 0.0000 25.6896 0.0000 2.3179
# 5 -0.8337 1.9018 -0.3618 0.0000 4.5234 0.0000
# 6 0.0000 0.0000 0.0000 2.3179 0.0000 16.4538
#
#
#
# Elastic Compliance Matrix: (Units=1/GPa)
#
#
# Indices 1 2 3 4 5 6 
#
# 1 0.017926 -0.003657 -0.006086 0.000000 0.004355 0.000000
# 2 -0.003657 0.034323 -0.007588 0.000000 -0.015712 0.000000
# 3 -0.006086 -0.007588 0.010141 0.000000 0.002880 0.000000
# 4 0.000000 0.000000 0.000000 0.039427 0.000000 -0.005554
# 5 0.004355 -0.015712 0.002880 0.000000 0.228709 0.000000
# 6 0.000000 0.000000 0.000000 -0.005554 0.000000 0.061559
#
#
# Mechanical properties :
#
#
# Convention : Reuss Voigt Hill
#
# Bulk Modulus (GPa) = 36.06297 63.97316 50.01807
# Shear Modulus (GPa) = 11.46811 20.18891 15.82851
#
# Velocity S-wave (km/s) = 2.55340 3.38789 2.99981
# Velocity P-wave (km/s) = 5.40330 7.18845 6.35883
#
# Compressibility (1/GPa) = 0.02772927
#
# Stress axis : x y z
#
# Youngs Moduli (GPa) = 55.78379 29.13468 98.60498
#
# Poissons Ratio (x) = 0.10654 0.60008
# Poissons Ratio (y) = 0.20400 0.74824
# Poissons Ratio (z) = 0.33948 0.22108
#
# Static dielectric constant tensor:
#      x y z
#    x 2.956360 0.000000 -0.120980 
#    y 0.000000 3.150290 0.000000 
#    z -0.120980 0.000000 4.130660 
# 
# 
# High freq. dielectric constant tensor:
#      x y z
#    x 1.636250 0.000000 -0.003620 
#    y 0.000000 1.667620 0.000000 
#    z -0.003620 0.000000 1.709560 
# 
# From -- ./inp_files/319193.got.cif
#   From: 2010.06.25/outbox.cif.g09.slc.cpg/sg12_160_cif.got.tgz:319193.got - 2010.06.28 00:19:55.
