data_PCOD8095701
_publ_section_title
;
Structure prediction by ZEFSAII (Michael W. Deem and Ramdas Pophale) SiO2 
 PCOD8095701
Probable space group: C 2/M
;
_chemical_formula_sum "Si O2"
_cell_formula_units_Z 64
_cell_length_a 30.917550
_cell_length_b 9.019724
_cell_length_c 14.130554
_cell_angle_alpha 90.000000
_cell_angle_beta 90.968688
_cell_angle_gamma 90.000000
_cell_volume 3939.992881
_symmetry_space_group_name_H-M "C 2/M"
_symmetry_group_IT_number 12
_symmetry_cell_setting 'monoclinic'
loop_
_space_group_symop_operation_xyz
x,y,z
-x,y,-z
-x,-y,-z
x,-y,z
1/2+x,1/2+y,z
1/2-x,1/2+y,-z
1/2-x,1/2-y,-z
1/2+x,1/2-y,z
loop_
_atom_site_type_symbol
_atom_site_label
_atom_site_fract_x
_atom_site_fract_y
_atom_site_fract_z
Si Si1 0.842889 0.168478 0.603657
Si Si2 0.000226 0.676114 0.606031
Si Si3 0.753023 0.328767 0.400812
Si Si4 0.450190 0.671846 0.891746
Si Si5 0.582791 0.825027 0.284828
Si Si6 0.549539 0.327379 0.893366
Si Si7 0.336289 0.674283 0.382335
Si Si8 0.914919 0.675657 0.280282
O O1 0.794729 0.185429 0.647017
O O2 0.873546 0.276999 0.662307
O O3 0.843650 0.212580 0.492964
O O4 0.859149 0.000000 0.615846
O O5 0.998592 0.500000 0.603497
O O6 0.043376 0.730888 0.659682
O O7 0.000000 0.741554 0.500000
O O8 0.958302 0.738581 0.658800
O O9 0.765708 0.500000 0.415001
O O10 0.750000 0.250000 0.500000
O O11 0.790960 0.246090 0.343992
O O12 0.445057 0.500000 0.867658
O O13 0.418873 0.763266 0.821742
O O14 0.499770 0.721410 0.878496
O O15 0.435746 0.703975 0.998660
O O16 0.581766 0.000000 0.280051
O O17 0.555260 0.500000 0.868456
O O18 0.579588 0.227669 0.827613
O O19 0.334458 0.500000 0.364212
O O20 0.373639 0.745956 0.322227
O O21 0.908928 0.500000 0.284355
#
# Coordination Sequence:
#
# PCOD8095701 Si02
#       8
#     8   8   8   8   8   8   8   8
#     4   9  19  33  48  69  98 130 163 199 239 286
#     4   9  18  30  41  60  94 131 163 193 229 276
#     4   9  17  31  50  71  96 126 162 203 246 287
#     4   9  18  33  51  68  92 125 160 202 249 291
#     4  11  20  30  47  71  97 128 164 202 241 284
#     4   9  18  33  51  69  91 124 162 202 247 292
#     4  10  20  33  49  71  99 130 167 204 240 288
#     4  11  20  31  48  70  98 130 162 202 246 285
#
# _framework density 16.243684999999999
#
# number of rings (size 3 to 8) (size 9 to 14) (size 15 to 20)
#    0.000    2.375    1.250    3.750    0.000    4.500 
#    0.000    1.250    0.000    3.000    0.000    0.875 
#    0.000    0.000    0.000    0.000    0.000    0.000 
#
# Total GULP energy -396755.734194 kJ/mol
# GULP energy per Si atom -12398.616694 kJ/mol
# Density = 1.620671 g / cm^3
# Si number density = 16.243685 Si / 1000 Ang^3
#
#
#
# Elastic Constant Matrix: (Units=GPa)
#
#
# Indices 1 2 3 4 5 6 
#
# 1 116.9837 53.0383 48.6296 0.0000 -8.1053 0.0000
# 2 53.0383 81.3527 43.2934 0.0000 -4.0284 0.0000
# 3 48.6296 43.2934 88.0865 0.0000 -7.3369 0.0000
# 4 0.0000 0.0000 0.0000 25.8298 0.0000 -0.6306
# 5 -8.1053 -4.0284 -7.3369 0.0000 10.4761 0.0000
# 6 0.0000 0.0000 0.0000 -0.6306 0.0000 28.5917
#
#
#
# Elastic Compliance Matrix: (Units=1/GPa)
#
#
# Indices 1 2 3 4 5 6 
#
# 1 0.013423 -0.006473 -0.003792 0.000000 0.005240 0.000000
# 2 -0.006473 0.019773 -0.006295 0.000000 -0.001814 0.000000
# 3 -0.003792 -0.006295 0.017091 0.000000 0.006615 0.000000
# 4 0.000000 0.000000 0.000000 0.038736 0.000000 0.000854
# 5 0.005240 -0.001814 0.006615 0.000000 0.103444 0.000000
# 6 0.000000 0.000000 0.000000 0.000854 0.000000 0.034994
#
#
# Mechanical properties :
#
#
# Convention : Reuss Voigt Hill
#
# Bulk Modulus (GPa) = 58.25950 64.03840 61.14895
# Shear Modulus (GPa) = 18.77552 22.41030 20.59291
#
# Velocity S-wave (km/s) = 3.40349 3.71837 3.56441
# Velocity P-wave (km/s) = 7.16860 7.61211 7.39368
#
# Compressibility (1/GPa) = 0.01716458
#
# Stress axis : x y z
#
# Youngs Moduli (GPa) = 74.50172 50.57420 58.51004
#
# Poissons Ratio (x) = 0.32739 0.22188
# Poissons Ratio (y) = 0.48228 0.36835
# Poissons Ratio (z) = 0.28252 0.31839
#
# Static dielectric constant tensor:
#      x y z
#    x 3.204280 0.000000 -0.028220 
#    y 0.000000 3.050540 0.000000 
#    z -0.028220 0.000000 2.935630 
# 
# 
# High freq. dielectric constant tensor:
#      x y z
#    x 1.617310 0.000000 -0.002920 
#    y 0.000000 1.626490 0.000000 
#    z -0.002920 0.000000 1.602230 
# 
# From -- ./inp_files/248522.got.cif
#   From: 2010.06.25/outbox.cif.g09.slc.cpg/sg12_125_cif.got.tgz:248522.got - 2010.06.28 00:19:55.
