data_PCOD8095691
_publ_section_title
;
Structure prediction by ZEFSAII (Michael W. Deem and Ramdas Pophale) SiO2 
 PCOD8095691
Probable space group: C 2/M
;
_chemical_formula_sum "Si O2"
_cell_formula_units_Z 64
_cell_length_a 16.844435
_cell_length_b 28.243969
_cell_length_c 14.488776
_cell_angle_alpha 90.000000
_cell_angle_beta 149.333665
_cell_angle_gamma 90.000000
_cell_volume 3515.734536
_symmetry_space_group_name_H-M "C 2/M"
_symmetry_group_IT_number 12
_symmetry_cell_setting 'monoclinic'
loop_
_space_group_symop_operation_xyz
x,y,z
-x,y,-z
-x,-y,-z
x,-y,z
1/2+x,1/2+y,z
1/2-x,1/2+y,-z
1/2-x,1/2-y,-z
1/2+x,1/2-y,z
loop_
_atom_site_type_symbol
_atom_site_label
_atom_site_fract_x
_atom_site_fract_y
_atom_site_fract_z
Si Si1 0.320363 0.217460 0.427042
Si Si2 0.184970 0.052690 0.081799
Si Si3 0.184970 0.947310 0.288142
Si Si4 0.319585 0.182106 0.923910
Si Si5 0.317800 0.637144 0.045356
Si Si6 0.680415 0.817894 0.284740
Si Si7 0.179637 0.282540 0.786316
Si Si8 0.317800 0.637144 0.590244
O O1 0.277859 0.271337 0.408080
O O2 0.285453 0.206674 0.285453
O O3 0.500000 0.208973 0.631943
O O4 0.213467 0.183417 0.380219
O O5 0.248464 0.063714 0.248464
O O6 0.238515 0.000000 0.104759
O O7 0.251739 0.091173 0.076848
O O8 0.000000 0.055775 0.898699
O O9 0.251739 0.908827 0.426630
O O10 0.238515 0.000000 0.372271
O O11 0.267497 0.140568 0.941116
O O12 0.283505 0.165343 0.783505
O O13 0.222141 0.228663 0.852361
O O14 0.500000 0.194131 0.117098
O O15 0.500000 0.631801 0.245044
O O16 0.286533 0.683417 0.953285
O O17 0.732503 0.859432 0.406121
#
# Coordination Sequence:
#
# PCOD8095691 Si02
#       8
#     8   8   8   8   8   8   8   8
#     4  10  20  33  49  71 101 133 164 199 238 284
#     4   8  15  29  49  74 102 128 155 190 234 285
#     4   8  15  29  49  74 102 128 155 190 234 285
#     4  10  21  36  51  67  93 130 169 206 242 283
#     4  11  20  30  50  76 100 127 161 201 244 290
#     4  10  21  36  51  67  93 130 169 206 242 283
#     4  10  20  33  49  71 101 133 164 199 238 284
#     4  11  20  30  50  76 100 127 161 201 244 290
#
# _framework density 18.203876999999999
#
# number of rings (size 3 to 8) (size 9 to 14) (size 15 to 20)
#    0.000    2.250    0.000    4.500    0.000    4.000 
#    0.000    0.000    0.000    3.750    0.000   14.000 
#    0.000    0.000    0.000    0.000    0.000    0.000 
#
# Total GULP energy -396822.165789 kJ/mol
# GULP energy per Si atom -12400.692681 kJ/mol
# Density = 1.816244 g / cm^3
# Si number density = 18.203877 Si / 1000 Ang^3
#
#
#
# Elastic Constant Matrix: (Units=GPa)
#
#
# Indices 1 2 3 4 5 6 
#
# 1 100.3875 60.0272 23.6451 0.0000 -19.6189 0.0000
# 2 60.0272 94.0119 30.9024 0.0000 -29.5518 0.0000
# 3 23.6451 30.9024 62.5582 0.0000 -18.7649 0.0000
# 4 0.0000 0.0000 0.0000 20.8895 0.0000 -7.7506
# 5 -19.6189 -29.5518 -18.7649 0.0000 29.5699 0.0000
# 6 0.0000 0.0000 0.0000 -7.7506 0.0000 28.5281
#
#
#
# Elastic Compliance Matrix: (Units=1/GPa)
#
#
# Indices 1 2 3 4 5 6 
#
# 1 0.016190 -0.009923 -0.001198 0.000000 0.000064 0.000000
# 2 -0.009923 0.022326 -0.003162 0.000000 0.013722 0.000000
# 3 -0.001198 -0.003162 0.020766 0.000000 0.009224 0.000000
# 4 0.000000 0.000000 0.000000 0.053237 0.000000 0.014464
# 5 0.000064 0.013722 0.009224 0.000000 0.053427 0.000000
# 6 0.000000 0.000000 0.000000 0.014464 0.000000 0.038983
#
#
# Mechanical properties :
#
#
# Convention : Reuss Voigt Hill
#
# Bulk Modulus (GPa) = 32.55694 54.01190 43.28442
# Shear Modulus (GPa) = 20.51418 25.28971 22.90194
#
# Velocity S-wave (km/s) = 3.36059 3.73131 3.55079
# Velocity P-wave (km/s) = 5.74296 6.94971 6.37495
#
# Compressibility (1/GPa) = 0.03071542
#
# Stress axis : x y z
#
# Youngs Moduli (GPa) = 61.76711 44.79155 48.15450
#
# Poissons Ratio (x) = 0.44448 0.05770
# Poissons Ratio (y) = 0.61294 0.15225
# Poissons Ratio (z) = 0.07401 0.14162
#
# Static dielectric constant tensor:
#      x y z
#    x 3.476590 0.000000 -0.204950 
#    y 0.000000 3.377070 0.000000 
#    z -0.204950 0.000000 3.274600 
# 
# 
# High freq. dielectric constant tensor:
#      x y z
#    x 1.705800 0.000000 -0.008140 
#    y 0.000000 1.682100 0.000000 
#    z -0.008140 0.000000 1.697770 
# 
# From -- ./inp_files/228527.got.cif
#   From: 2010.06.25/outbox.cif.g09.slc.cpg/sg12_115_cif.got.tgz:228527.got - 2010.06.28 00:19:55.
