data_PCOD8095699
_publ_section_title
;
Structure prediction by ZEFSAII (Michael W. Deem and Ramdas Pophale) SiO2 
 PCOD8095699
Probable space group: C 2/M
;
_chemical_formula_sum "Si O2"
_cell_formula_units_Z 64
_cell_length_a 19.758092
_cell_length_b 8.999716
_cell_length_c 22.572455
_cell_angle_alpha 90.000000
_cell_angle_beta 64.375503
_cell_angle_gamma 90.000000
_cell_volume 3619.007518
_symmetry_space_group_name_H-M "C 2/M"
_symmetry_group_IT_number 12
_symmetry_cell_setting 'monoclinic'
loop_
_space_group_symop_operation_xyz
x,y,z
-x,y,-z
-x,-y,-z
x,-y,z
1/2+x,1/2+y,z
1/2-x,1/2+y,-z
1/2-x,1/2-y,-z
1/2+x,1/2-y,z
loop_
_atom_site_type_symbol
_atom_site_label
_atom_site_fract_x
_atom_site_fract_y
_atom_site_fract_z
Si Si1 0.200202 0.824252 0.198283
Si Si2 0.227800 0.676149 0.947782
Si Si3 0.852177 0.324994 0.202251
Si Si4 0.577057 0.175886 0.946181
Si Si5 0.390725 0.325606 0.309265
Si Si6 0.546179 0.325720 0.308579
Si Si7 0.177495 0.674975 0.554949
Si Si8 0.520663 0.826197 0.557387
O O1 0.216156 0.768140 0.125435
O O2 0.267579 0.778313 0.216668
O O3 0.121545 0.757232 0.250953
O O4 0.195746 0.000000 0.197879
O O5 0.230931 0.500000 0.953344
O O6 0.144489 0.731465 0.962356
O O7 0.250000 0.750000 0.000000
O O8 0.857554 0.500000 0.214406
O O9 0.908118 0.279415 0.127624
O O10 0.876168 0.229312 0.248984
O O11 0.573407 0.000000 0.951284
O O12 0.500000 0.247827 0.000000
O O13 0.374561 0.500000 0.320518
O O14 0.476713 0.286751 0.292275
O O15 0.335345 0.240769 0.374884
O O16 0.554230 0.500000 0.315419
O O17 0.535815 0.253465 0.376531
O O18 0.190495 0.500000 0.555484
O O19 0.250000 0.750000 0.500000
O O20 0.106823 0.713712 0.539684
O O21 0.500000 0.767814 0.500000
O O22 0.506062 0.000000 0.568745
#
# Coordination Sequence:
#
# PCOD8095699 Si02
#       8
#     8   8   8   8   8   8   8   8
#     4   8  16  32  50  68  93 126 161 196 237 284
#     4   9  17  30  48  69  95 125 157 196 240 285
#     4   9  17  31  51  71  93 125 164 202 239 283
#     4   8  15  29  48  69  94 126 163 200 238 285
#     4  10  20  33  49  71  99 127 157 196 240 284
#     4   9  18  33  51  69  92 125 162 194 228 279
#     4  10  20  35  54  74  99 129 160 195 235 282
#     4   9  19  35  52  72  99 126 153 192 240 279
#
# _framework density 17.684407
#
# number of rings (size 3 to 8) (size 9 to 14) (size 15 to 20)
#    0.000    3.000    0.000    2.250    0.000    3.250 
#    0.000    6.250    0.000    0.750    0.000    0.000 
#    0.000    0.000    0.000    0.000    0.000    0.000 
#
# Total GULP energy -396731.017821 kJ/mol
# GULP energy per Si atom -12397.844307 kJ/mol
# Density = 1.764416 g / cm^3
# Si number density = 17.684407 Si / 1000 Ang^3
#
#
#
# Elastic Constant Matrix: (Units=GPa)
#
#
# Indices 1 2 3 4 5 6 
#
# 1 108.7013 35.0435 107.2539 -0.0001 -3.7841 -0.0002
# 2 35.0435 42.3845 45.7562 -0.0003 -0.3127 -0.0007
# 3 107.2539 45.7562 171.8713 0.0000 -5.7425 0.0000
# 4 -0.0001 -0.0003 0.0000 29.5917 0.0000 7.7127
# 5 -3.7841 -0.3127 -5.7425 0.0000 43.3273 -0.0001
# 6 -0.0002 -0.0007 0.0000 7.7127 -0.0001 20.4077
#
#
#
# Elastic Compliance Matrix: (Units=1/GPa)
#
#
# Indices 1 2 3 4 5 6 
#
# 1 0.024770 -0.005333 -0.014029 0.000000 0.000266 0.000000
# 2 -0.005333 0.034295 -0.005835 0.000000 -0.000992 0.000001
# 3 -0.014029 -0.005835 0.016155 0.000000 0.000874 0.000000
# 4 0.000000 0.000000 0.000000 0.037486 0.000000 -0.014167
# 5 0.000266 -0.000992 0.000874 0.000000 0.023212 0.000000
# 6 0.000000 0.000001 0.000000 -0.014167 0.000000 0.054355
#
#
# Mechanical properties :
#
#
# Convention : Reuss Voigt Hill
#
# Bulk Modulus (GPa) = 40.27981 77.67379 58.97680
# Shear Modulus (GPa) = 20.08493 27.65891 23.87192
#
# Velocity S-wave (km/s) = 3.37373 3.95907 3.67806
# Velocity P-wave (km/s) = 6.16462 8.05708 7.17353
#
# Compressibility (1/GPa) = 0.02482634
#
# Stress axis : x y z
#
# Youngs Moduli (GPa) = 40.37151 29.15870 61.89902
#
# Poissons Ratio (x) = 0.15551 0.86836
# Poissons Ratio (y) = 0.21531 0.36119
# Poissons Ratio (z) = 0.56636 0.17015
#
# Static dielectric constant tensor:
#      x y z
#    x 3.451400 0.000000 -0.266670 
#    y 0.000000 3.005240 0.000000 
#    z -0.266670 0.000000 3.570040 
# 
# 
# High freq. dielectric constant tensor:
#      x y z
#    x 1.685250 0.000000 -0.002130 
#    y 0.000000 1.658880 0.000000 
#    z -0.002130 0.000000 1.693190 
# 
# From -- ./inp_files/319912.got.cif
#   From: 2010.06.25/outbox.cif.g09.slc.cpg/sg12_160_cif.got.tgz:319912.got - 2010.06.28 00:19:55.
