data_PCOD8095381
_publ_section_title
;
Structure prediction by ZEFSAII (Michael W. Deem and Ramdas Pophale) SiO2 
 PCOD8095381
Probable space group: C 2/M
;
_chemical_formula_sum "Si O2"
_cell_formula_units_Z 48
_cell_length_a 23.455478
_cell_length_b 10.638742
_cell_length_c 12.786191
_cell_angle_alpha 90.000000
_cell_angle_beta 52.272790
_cell_angle_gamma 90.000000
_cell_volume 2523.570624
_symmetry_space_group_name_H-M "C 2/M"
_symmetry_group_IT_number 12
_symmetry_cell_setting 'monoclinic'
loop_
_space_group_symop_operation_xyz
x,y,z
-x,y,-z
-x,-y,-z
x,-y,z
1/2+x,1/2+y,z
1/2-x,1/2+y,-z
1/2-x,1/2-y,-z
1/2+x,1/2-y,z
loop_
_atom_site_type_symbol
_atom_site_label
_atom_site_fract_x
_atom_site_fract_y
_atom_site_fract_z
Si Si1 0.580337 0.857554 0.577399
Si Si2 0.670359 0.363105 0.566156
Si Si3 0.175844 0.356559 0.270053
Si Si4 0.419712 0.147531 0.805256
Si Si5 0.784396 0.267883 0.290228
Si Si6 0.928258 0.646631 0.027186
O O1 0.617290 0.754891 0.610942
O O2 0.612214 0.847416 0.426331
O O3 0.496466 0.823579 0.666336
O O4 0.591751 0.000000 0.609821
O O5 0.631671 0.500000 0.602874
O O6 0.733680 0.365993 0.408468
O O7 0.704048 0.350091 0.644492
O O8 0.200110 0.500000 0.226742
O O9 0.143335 0.297370 0.199178
O O10 0.245338 0.277928 0.228077
O O11 0.406346 0.000000 0.826116
O O12 0.416292 0.207579 0.925449
O O13 0.859637 0.331186 0.176832
O O14 0.941978 0.500000 0.996269
O O15 0.000000 0.706245 0.000000
#
# Coordination Sequence:
#
# PCOD8095381 Si02
#       6
#     8   8   8   8   8   8
#     4   9  17  31  54  81 105 131 169 213 251 292
#     4  10  20  33  52  77 104 134 167 209 259 303
#     4   9  17  30  50  76 102 130 167 211 251 291
#     4   9  17  30  51  77 102 130 168 211 250 290
#     4  10  20  32  50  72 100 133 170 209 252 303
#     4  10  20  33  50  73  99 128 167 215 258 298
#
# _framework density 19.020668000000001
#
# number of rings (size 3 to 8) (size 9 to 14) (size 15 to 20)
#    0.000    2.500    0.000    2.500    0.000    8.667 
#    0.000    0.000    0.000   18.000    0.000    0.000 
#    0.000    0.000    0.000    0.000    0.000    0.000 
#
# Total GULP energy -297446.217420 kJ/mol
# GULP energy per Si atom -12393.592392 kJ/mol
# Density = 1.897738 g / cm^3
# Si number density = 19.020668 Si / 1000 Ang^3
#
#
#
# Elastic Constant Matrix: (Units=GPa)
#
#
# Indices 1 2 3 4 5 6 
#
# 1 154.7830 38.2904 41.3260 0.0000 17.7723 0.0000
# 2 38.2904 71.4130 4.4306 0.0000 7.7696 0.0000
# 3 41.3260 4.4306 50.3479 0.0000 6.7245 0.0000
# 4 0.0000 0.0000 0.0000 7.3350 0.0000 -2.0680
# 5 17.7723 7.7696 6.7245 0.0000 30.2382 0.0000
# 6 0.0000 0.0000 0.0000 -2.0680 0.0000 18.6471
#
#
#
# Elastic Compliance Matrix: (Units=1/GPa)
#
#
# Indices 1 2 3 4 5 6 
#
# 1 0.009874 -0.004512 -0.007304 0.000000 -0.003019 0.000000
# 2 -0.004512 0.016499 0.002539 0.000000 -0.002152 0.000000
# 3 -0.007304 0.002539 0.025917 0.000000 -0.002123 0.000000
# 4 0.000000 0.000000 0.000000 0.140733 0.000000 0.015607
# 5 -0.003019 -0.002152 -0.002123 0.000000 0.035871 0.000000
# 6 0.000000 0.000000 0.000000 0.015607 0.000000 0.055358
#
#
# Mechanical properties :
#
#
# Convention : Reuss Voigt Hill
#
# Bulk Modulus (GPa) = 29.64219 49.40418 39.52318
# Shear Modulus (GPa) = 15.92096 24.07720 19.99908
#
# Velocity S-wave (km/s) = 2.89629 3.56173 3.24611
# Velocity P-wave (km/s) = 5.17713 6.55324 5.90540
#
# Compressibility (1/GPa) = 0.03373570
#
# Stress axis : x y z
#
# Youngs Moduli (GPa) = 101.27796 60.60918 38.58442
#
# Poissons Ratio (x) = 0.27350 0.28183
# Poissons Ratio (y) = 0.45702 -0.09798
# Poissons Ratio (z) = 0.73975 -0.15391
#
# Static dielectric constant tensor:
#      x y z
#    x 3.731380 0.000000 0.213260 
#    y 0.000000 3.051420 0.000000 
#    z 0.213260 0.000000 3.389840 
# 
# 
# High freq. dielectric constant tensor:
#      x y z
#    x 1.748930 0.000000 0.008200 
#    y 0.000000 1.691820 0.000000 
#    z 0.008200 0.000000 1.732300 
# 
# From -- ./inp_files/174397.got.cif
#   From: 2010.06.25/outbox.cif.g09.slc.cpg/sg12_88_cif.got.tgz:174397.got - 2010.06.28 00:19:55.
