data_PCOD8095094
_publ_section_title
;
Structure prediction by ZEFSAII (Michael W. Deem and Ramdas Pophale) SiO2 
 PCOD8095094
Probable space group: C 2/M
;
_chemical_formula_sum "Si O2"
_cell_formula_units_Z 64
_cell_length_a 27.839584
_cell_length_b 9.644736
_cell_length_c 19.916426
_cell_angle_alpha 90.000000
_cell_angle_beta 125.768497
_cell_angle_gamma 90.000000
_cell_volume 4339.019892
_symmetry_space_group_name_H-M "C 2/M"
_symmetry_group_IT_number 12
_symmetry_cell_setting 'monoclinic'
loop_
_space_group_symop_operation_xyz
x,y,z
-x,y,-z
-x,-y,-z
x,-y,z
1/2+x,1/2+y,z
1/2-x,1/2+y,-z
1/2-x,1/2-y,-z
1/2+x,1/2-y,z
loop_
_atom_site_type_symbol
_atom_site_label
_atom_site_fract_x
_atom_site_fract_y
_atom_site_fract_z
Si Si1 0.899962 0.341212 0.010575
Si Si2 0.608115 0.838966 0.758717
Si Si3 0.191321 0.661568 0.948211
Si Si4 0.968632 0.341229 0.833059
Si Si5 0.916012 0.843687 0.378657
Si Si6 0.024882 0.659674 0.313785
Si Si7 0.933120 0.157539 0.920283
Si Si8 0.947366 0.843990 0.547922
O O1 0.895318 0.500000 0.981730
O O2 0.848156 0.303414 0.019479
O O3 0.961805 0.317477 0.098840
O O4 0.893017 0.239109 0.941393
O O5 0.656463 0.794586 0.852774
O O6 0.621352 0.756273 0.700600
O O7 0.544067 0.800478 0.736322
O O8 0.612225 0.000000 0.744616
O O9 0.207534 0.500000 0.959559
O O10 0.250000 0.750000 0.000000
O O11 0.951980 0.500000 0.837027
O O12 0.953729 0.306273 0.743842
O O13 0.929557 0.238210 0.846618
O O14 0.909267 0.797649 0.451307
O O15 0.984267 0.834956 0.415043
O O16 0.892410 0.000000 0.350118
O O17 0.034462 0.500000 0.339293
O O18 0.065433 0.745662 0.398975
O O19 0.909879 0.000000 0.892775
O O20 0.000000 0.159008 0.000000
O O21 0.930113 0.000000 0.554279
#
# Coordination Sequence:
#
# PCOD8095094 Si02
#       8
#     8   8   8   8   8   8   8   8
#     4   9  16  29  44  54  71 101 132 162 198 239
#     4   9  16  27  40  54  72  96 129 168 201 229
#     4  10  20  32  44  59  78 101 133 172 210 243
#     4   9  15  25  40  56  75 103 133 159 191 233
#     4   8  14  24  36  50  70  97 128 157 189 232
#     4   9  15  23  37  55  75 100 132 163 189 224
#     4   9  17  26  37  57  79  96 123 162 197 232
#     4   8  14  23  33  49  74 100 125 155 190 227
#
# _framework density 14.749876
#
# number of rings (size 3 to 8) (size 9 to 14) (size 15 to 20)
#    0.000    3.125    1.250    1.125    0.000    3.500 
#    0.000    2.500    0.000    0.000    0.000    0.000 
#    0.000    0.000    0.000    1.125    0.000   14.750 
#
# Total GULP energy -396650.646898 kJ/mol
# GULP energy per Si atom -12395.332716 kJ/mol
# Density = 1.471630 g / cm^3
# Si number density = 14.749876 Si / 1000 Ang^3
#
#
#
# Elastic Constant Matrix: (Units=GPa)
#
#
# Indices 1 2 3 4 5 6 
#
# 1 55.9603 47.5390 46.4412 0.0000 -18.8641 0.0000
# 2 47.5390 92.6435 65.5974 0.0000 -24.6732 0.0000
# 3 46.4412 65.5974 95.2170 0.0000 -29.9971 0.0000
# 4 0.0000 0.0000 0.0000 26.8329 0.0000 -5.7423
# 5 -18.8641 -24.6732 -29.9971 0.0000 23.1179 0.0000
# 6 0.0000 0.0000 0.0000 -5.7423 0.0000 18.6909
#
#
#
# Elastic Compliance Matrix: (Units=1/GPa)
#
#
# Indices 1 2 3 4 5 6 
#
# 1 0.036262 -0.011208 -0.007462 0.000000 0.007945 0.000000
# 2 -0.011208 0.025073 -0.010585 0.000000 0.003880 0.000000
# 3 -0.007462 -0.010585 0.026990 0.000000 0.017635 0.000000
# 4 0.000000 0.000000 0.000000 0.039890 0.000000 0.012255
# 5 0.007945 0.003880 0.017635 0.000000 0.076764 0.000000
# 6 0.000000 0.000000 0.000000 0.012255 0.000000 0.057267
#
#
# Mechanical properties :
#
#
# Convention : Reuss Voigt Hill
#
# Bulk Modulus (GPa) = 33.53918 62.55289 48.04604
# Shear Modulus (GPa) = 15.11972 19.34455 17.23214
#
# Velocity S-wave (km/s) = 3.20515 3.62540 3.42173
# Velocity P-wave (km/s) = 6.04031 7.74764 6.94662
#
# Compressibility (1/GPa) = 0.02981587
#
# Stress axis : x y z
#
# Youngs Moduli (GPa) = 27.57699 39.88316 37.05129
#
# Poissons Ratio (x) = 0.44701 0.27648
# Poissons Ratio (y) = 0.30908 0.39217
# Poissons Ratio (z) = 0.20578 0.42215
#
# Static dielectric constant tensor:
#      x y z
#    x 2.540490 0.000000 -0.377700 
#    y 0.000000 2.976020 0.000000 
#    z -0.377700 0.000000 2.901060 
# 
# 
# High freq. dielectric constant tensor:
#      x y z
#    x 1.517330 0.000000 -0.039990 
#    y 0.000000 1.569150 0.000000 
#    z -0.039990 0.000000 1.547110 
# 
# From -- ./inp_files/323713.got.cif
#   From: 2010.06.25/outbox.cif.g09.slc.cpg/sg12_162_cif.got.tgz:323713.got - 2010.06.28 00:19:55.
