data_PCOD8095809
_publ_section_title
;
Structure prediction by ZEFSAII (Michael W. Deem and Ramdas Pophale) SiO2 
 PCOD8095809
Probable space group: C 2/M
;
_chemical_formula_sum "Si O2"
_cell_formula_units_Z 56
_cell_length_a 14.761346
_cell_length_b 9.600293
_cell_length_c 21.600593
_cell_angle_alpha 90.000000
_cell_angle_beta 80.656866
_cell_angle_gamma 90.000000
_cell_volume 3020.481058
_symmetry_space_group_name_H-M "C 2/M"
_symmetry_group_IT_number 12
_symmetry_cell_setting 'monoclinic'
loop_
_space_group_symop_operation_xyz
x,y,z
-x,y,-z
-x,-y,-z
x,-y,z
1/2+x,1/2+y,z
1/2-x,1/2+y,-z
1/2-x,1/2-y,-z
1/2+x,1/2-y,z
loop_
_atom_site_type_symbol
_atom_site_label
_atom_site_fract_x
_atom_site_fract_y
_atom_site_fract_z
Si Si1 0.752915 0.844316 0.559888
Si Si2 0.718187 0.161648 0.088837
Si Si3 0.212796 0.336154 0.231486
Si Si4 0.603470 0.337702 0.008542
Si Si5 0.970069 0.343370 0.681312
Si Si6 0.666416 0.842413 0.694745
Si Si7 0.460590 0.343477 0.567973
O O1 0.750000 0.750000 0.500000
O O2 0.687138 0.789827 0.622197
O O3 0.851943 0.842022 0.579523
O O4 0.724887 0.000000 0.542199
O O5 0.715583 0.208997 0.160037
O O6 0.822211 0.190544 0.053994
O O7 0.692448 0.000000 0.083292
O O8 0.639210 0.249520 0.063045
O O9 0.228854 0.500000 0.237094
O O10 0.116250 0.286707 0.270758
O O11 0.293121 0.257998 0.258281
O O12 0.601672 0.500000 0.027408
O O13 0.500000 0.290540 0.000000
O O14 0.950922 0.500000 0.659734
O O15 0.994884 0.249766 0.620067
O O16 0.057193 0.339544 0.717195
O O17 0.705071 0.000000 0.698370
O O18 0.500000 0.279615 0.500000
O O19 0.499452 0.500000 0.572574
#
# Coordination Sequence:
#
# PCOD8095809 Si02
#       7
#     8   8   8   8   8   8   8
#     4  10  20  33  50  73 100 130 167 214 266 318
#     4   9  19  35  54  79 112 145 179 221 264 311
#     4  10  21  37  55  78 109 144 180 219 266 319
#     4   9  18  34  56  82 112 144 181 221 261 309
#     4  10  21  36  54  76 103 136 175 217 264 319
#     4  10  21  37  54  75 104 137 175 221 267 317
#     4  10  20  34  52  75 102 131 169 218 269 320
#
# _framework density 18.540094
#
# number of rings (size 3 to 8) (size 9 to 14) (size 15 to 20)
#    0.000    2.286    1.429    0.857    0.000    4.000 
#    0.000    0.000    0.000    0.000    0.000    0.000 
#    0.000    0.000    0.000    0.000    0.000    0.000 
#
# Total GULP energy -347177.206272 kJ/mol
# GULP energy per Si atom -12399.185938 kJ/mol
# Density = 1.849790 g / cm^3
# Si number density = 18.540094 Si / 1000 Ang^3
#
#
#
# Elastic Constant Matrix: (Units=GPa)
#
#
# Indices 1 2 3 4 5 6 
#
# 1 103.3799 36.8086 44.3112 0.0000 8.3815 0.0000
# 2 36.8086 66.4644 62.3438 0.0000 12.4276 0.0000
# 3 44.3112 62.3438 137.3960 0.0000 9.3631 0.0000
# 4 0.0000 0.0000 0.0000 32.9801 0.0000 6.4715
# 5 8.3815 12.4276 9.3631 0.0000 23.3740 0.0000
# 6 0.0000 0.0000 0.0000 6.4715 0.0000 21.7179
#
#
#
# Elastic Compliance Matrix: (Units=1/GPa)
#
#
# Indices 1 2 3 4 5 6 
#
# 1 0.012250 -0.005137 -0.001549 0.000000 -0.001041 0.000000
# 2 -0.005137 0.030536 -0.011533 0.000000 -0.009774 0.000000
# 3 -0.001549 -0.011533 0.012908 0.000000 0.001517 0.000000
# 4 0.000000 0.000000 0.000000 0.032204 0.000000 -0.009596
# 5 -0.001041 -0.009774 0.001517 0.000000 0.047745 0.000000
# 6 0.000000 0.000000 0.000000 -0.009596 0.000000 0.048904
#
#
# Mechanical properties :
#
#
# Convention : Reuss Voigt Hill
#
# Bulk Modulus (GPa) = 51.93123 66.01862 58.97492
# Shear Modulus (GPa) = 21.98732 26.53285 24.26008
#
# Velocity S-wave (km/s) = 3.44747 3.78710 3.62127
# Velocity P-wave (km/s) = 6.62705 7.40329 7.02590
#
# Compressibility (1/GPa) = 0.01925624
#
# Stress axis : x y z
#
# Youngs Moduli (GPa) = 81.63017 32.74833 77.47352
#
# Poissons Ratio (x) = 0.16822 0.12002
# Poissons Ratio (y) = 0.41930 0.89351
# Poissons Ratio (z) = 0.12646 0.37769
#
# Static dielectric constant tensor:
#      x y z
#    x 3.496260 0.000000 -0.148460 
#    y 0.000000 3.411520 0.000000 
#    z -0.148460 0.000000 3.284800 
# 
# 
# High freq. dielectric constant tensor:
#      x y z
#    x 1.727210 0.000000 -0.008700 
#    y 0.000000 1.713760 0.000000 
#    z -0.008700 0.000000 1.709700 
# 
# From -- ./inp_files/308922.got.cif
#   From: 2010.06.25/outbox.cif.g09.slc.cpg/sg12_155_cif.got.tgz:308922.got - 2010.06.28 00:19:55.
