data_PCOD8095372
_publ_section_title
;
Structure prediction by ZEFSAII (Michael W. Deem and Ramdas Pophale) SiO2 
 PCOD8095372
Probable space group: C 2/M
;
_chemical_formula_sum "Si O2"
_cell_formula_units_Z 64
_cell_length_a 23.285236
_cell_length_b 9.378225
_cell_length_c 15.644813
_cell_angle_alpha 90.000000
_cell_angle_beta 74.857124
_cell_angle_gamma 90.000000
_cell_volume 3297.796211
_symmetry_space_group_name_H-M "C 2/M"
_symmetry_group_IT_number 12
_symmetry_cell_setting 'monoclinic'
loop_
_space_group_symop_operation_xyz
x,y,z
-x,y,-z
-x,-y,-z
x,-y,z
1/2+x,1/2+y,z
1/2-x,1/2+y,-z
1/2-x,1/2-y,-z
1/2+x,1/2-y,z
loop_
_atom_site_type_symbol
_atom_site_label
_atom_site_fract_x
_atom_site_fract_y
_atom_site_fract_z
Si Si1 0.325744 0.350288 0.970109
Si Si2 0.024198 0.166353 0.895527
Si Si3 0.261236 0.215530 0.137959
Si Si4 0.820058 0.336649 0.547576
Si Si5 0.346633 0.164454 0.720990
Si Si6 0.578075 0.167854 0.150866
Si Si7 0.180876 0.165538 0.616921
Si Si8 0.867465 0.342030 0.206986
O O1 0.362689 0.500000 0.954144
O O2 0.272233 0.371296 0.923073
O O3 0.368163 0.217142 0.932164
O O4 0.297084 0.340721 0.075271
O O5 0.086054 0.250005 0.866092
O O6 0.980349 0.240869 0.844673
O O7 0.032086 0.000000 0.869281
O O8 0.000000 0.187078 0.000000
O O9 0.213600 0.263623 0.225472
O O10 0.309537 0.126972 0.172024
O O11 0.831190 0.500000 0.514258
O O12 0.858714 0.296426 0.617038
O O13 0.840420 0.230144 0.465383
O O14 0.751259 0.314742 0.598921
O O15 0.403152 0.203554 0.758468
O O16 0.332515 0.000000 0.735032
O O17 0.566936 0.000000 0.139954
O O18 0.147435 0.252877 0.702785
O O19 0.162182 0.000000 0.628982
O O20 0.892573 0.500000 0.221366
#
# Coordination Sequence:
#
# PCOD8095372 Si02
#       8
#     8   8   8   8   8   8   8   8
#     4  10  20  33  52  76 109 147 183 227 276 332
#     4  11  25  43  61  80 107 148 194 238 285 333
#     4  10  20  32  49  78 112 145 183 225 276 329
#     4   9  17  33  55  81 116 152 185 221 270 333
#     4   9  17  32  55  81 111 147 182 223 274 335
#     4  10  21  37  57  80 107 142 188 234 280 330
#     4  10  20  34  54  82 117 152 186 224 273 333
#     4  12  24  37  57  83 113 147 187 234 280 330
#
# _framework density 19.406898999999999
#
# number of rings (size 3 to 8) (size 9 to 14) (size 15 to 20)
#    0.000    1.875    1.250    3.000    0.000    8.500 
#    0.000    1.250    0.000    0.750    0.000    5.250 
#    0.000    0.000    0.000    0.000    0.000    0.000 
#
# Total GULP energy -396595.449411 kJ/mol
# GULP energy per Si atom -12393.607794 kJ/mol
# Density = 1.936273 g / cm^3
# Si number density = 19.406899 Si / 1000 Ang^3
#
#
#
# Elastic Constant Matrix: (Units=GPa)
#
#
# Indices 1 2 3 4 5 6 
#
# 1 73.2324 36.0109 19.7605 0.0000 9.9993 0.0000
# 2 36.0109 120.6220 51.0028 0.0000 4.7548 0.0000
# 3 19.7605 51.0028 88.2470 0.0000 8.3952 0.0000
# 4 0.0000 0.0000 0.0000 18.9983 0.0000 -5.4641
# 5 9.9993 4.7548 8.3952 0.0000 25.4872 0.0000
# 6 0.0000 0.0000 0.0000 -5.4641 0.0000 21.5950
#
#
#
# Elastic Compliance Matrix: (Units=1/GPa)
#
#
# Indices 1 2 3 4 5 6 
#
# 1 0.016811 -0.004541 -0.000612 0.000000 -0.005547 0.000000
# 2 -0.004541 0.012198 -0.006180 0.000000 0.001542 0.000000
# 3 -0.000612 -0.006180 0.015390 0.000000 -0.003676 0.000000
# 4 0.000000 0.000000 0.000000 0.056767 0.000000 0.014364
# 5 -0.005547 0.001542 -0.003676 0.000000 0.042335 0.000000
# 6 0.000000 0.000000 0.000000 0.014364 0.000000 0.049941
#
#
# Mechanical properties :
#
#
# Convention : Reuss Voigt Hill
#
# Bulk Modulus (GPa) = 46.01277 55.07222 50.54249
# Shear Modulus (GPa) = 22.38598 24.90456 23.64527
#
# Velocity S-wave (km/s) = 3.40002 3.58618 3.49434
# Velocity P-wave (km/s) = 6.25895 6.75180 6.51004
#
# Compressibility (1/GPa) = 0.02173310
#
# Stress axis : x y z
#
# Youngs Moduli (GPa) = 59.48566 81.97766 64.97596
#
# Poissons Ratio (x) = 0.37229 0.03976
# Poissons Ratio (y) = 0.27015 0.40154
# Poissons Ratio (z) = 0.03640 0.50661
#
# Static dielectric constant tensor:
#      x y z
#    x 3.518980 0.000000 0.331160 
#    y 0.000000 3.548660 0.000000 
#    z 0.331160 0.000000 3.629380 
# 
# 
# High freq. dielectric constant tensor:
#      x y z
#    x 1.734570 0.000000 0.020620 
#    y 0.000000 1.761500 0.000000 
#    z 0.020620 0.000000 1.748000 
# 
# From -- ./inp_files/243770.got.cif
#   From: 2010.06.25/outbox.cif.g09.slc.cpg/sg12_122_cif.got.tgz:243770.got - 2010.06.28 00:19:55.
