data_PCOD8095037
_publ_section_title
;
Structure prediction by ZEFSAII (Michael W. Deem and Ramdas Pophale) SiO2 
 PCOD8095037
Probable space group: C 2/M
;
_chemical_formula_sum "Si O2"
_cell_formula_units_Z 48
_cell_length_a 15.853862
_cell_length_b 8.881177
_cell_length_c 17.194648
_cell_angle_alpha 90.000000
_cell_angle_beta 89.712277
_cell_angle_gamma 90.000000
_cell_volume 2420.992326
_symmetry_space_group_name_H-M "C 2/M"
_symmetry_group_IT_number 12
_symmetry_cell_setting 'monoclinic'
loop_
_space_group_symop_operation_xyz
x,y,z
-x,y,-z
-x,-y,-z
x,-y,z
1/2+x,1/2+y,z
1/2-x,1/2+y,-z
1/2-x,1/2-y,-z
1/2+x,1/2-y,z
loop_
_atom_site_type_symbol
_atom_site_label
_atom_site_fract_x
_atom_site_fract_y
_atom_site_fract_z
Si Si1 0.647443 0.819518 0.809816
Si Si2 0.405481 0.836041 0.517313
Si Si3 0.839537 0.332719 0.360939
Si Si4 0.645516 0.332549 0.335343
Si Si5 0.990129 0.678646 0.913048
Si Si6 0.673796 0.177684 0.178140
O O1 0.631261 0.758558 0.721435
O O2 0.569108 0.760487 0.861581
O O3 0.736726 0.756511 0.841955
O O4 0.656131 0.000000 0.809036
O O5 0.500000 0.872557 0.500000
O O6 0.367262 0.749930 0.440792
O O7 0.406328 0.731614 0.592633
O O8 0.359989 0.000000 0.532413
O O9 0.879406 0.500000 0.364687
O O10 0.740194 0.339417 0.363222
O O11 0.612816 0.500000 0.313992
O O12 0.636677 0.223855 0.261715
O O13 0.995481 0.500000 0.912024
O O14 0.898485 0.730249 0.882348
O O15 0.000000 0.742971 0.000000
O O16 0.688001 0.000000 0.175435
#
# Coordination Sequence:
#
# PCOD8095037 Si02
#       6
#     8   8   8   8   8   8
#     4   9  18  35  58  80 111 148 183 222 274 330
#     4  10  20  31  49  76 105 135 180 228 266 310
#     4   8  16  31  50  72  98 136 177 217 263 314
#     4  10  20  35  53  72 104 143 181 220 272 325
#     4   9  19  35  58  86 113 145 182 222 273 335
#     4  10  20  35  58  84 111 142 186 231 271 323
#
# _framework density 19.826581999999998
#
# number of rings (size 3 to 8) (size 9 to 14) (size 15 to 20)
#    0.000    2.667    0.000    2.500    2.333    1.000 
#    0.000    5.000    0.000    3.500    0.000    0.000 
#    0.000    0.000    0.000    0.000    0.000    0.000 
#
# Total GULP energy -297363.575892 kJ/mol
# GULP energy per Si atom -12390.148996 kJ/mol
# Density = 1.978146 g / cm^3
# Si number density = 19.826582 Si / 1000 Ang^3
#
#
#
# Elastic Constant Matrix: (Units=GPa)
#
#
# Indices 1 2 3 4 5 6 
#
# 1 68.0377 19.7240 35.6817 0.0000 2.2067 0.0000
# 2 19.7240 43.7369 11.5559 0.0000 0.8754 0.0000
# 3 35.6817 11.5559 85.7505 0.0000 7.9945 0.0000
# 4 0.0000 0.0000 0.0000 -59.6224 0.0000 41.4884
# 5 2.2067 0.8754 7.9945 0.0000 39.7218 0.0000
# 6 0.0000 0.0000 0.0000 41.4884 0.0000 2.4274
#
#
#
# Elastic Compliance Matrix: (Units=1/GPa)
#
#
# Indices 1 2 3 4 5 6 
#
# 1 0.020882 -0.007382 -0.007747 0.000000 0.000562 0.000000
# 2 -0.007382 0.026318 -0.000468 0.000000 -0.000076 0.000000
# 3 -0.007747 -0.000468 0.015192 0.000000 -0.002617 0.000000
# 4 0.000000 0.000000 0.000000 -0.001301 0.000000 0.022234
# 5 0.000562 -0.000076 -0.002617 0.000000 0.025672 0.000000
# 6 0.000000 0.000000 0.000000 0.022234 0.000000 0.031952
#
#
# Mechanical properties :
#
#
# Convention : Reuss Voigt Hill
#
# Bulk Modulus (GPa) = 32.05183 36.82759 34.43971
# Shear Modulus (GPa) = 31.18978 5.20959 18.19968
#
# Velocity S-wave (km/s) = 3.97057 1.62274 3.03305
# Velocity P-wave (km/s) = 6.10097 4.70385 5.44738
#
# Compressibility (1/GPa) = 0.03119947
#
# Stress axis : x y z
#
# Youngs Moduli (GPa) = 47.88751 37.99670 65.82252
#
# Poissons Ratio (x) = 0.28048 0.50992
# Poissons Ratio (y) = 0.35349 0.03081
# Poissons Ratio (z) = 0.37098 0.01778
#
# Static dielectric constant tensor:
#      x y z
#    x 3.574290 0.000000 0.054040 
#    y 0.000000 3.383290 0.000000 
#    z 0.054040 0.000000 3.923900 
# 
# 
# High freq. dielectric constant tensor:
#      x y z
#    x 1.771880 0.000000 0.004270 
#    y 0.000000 1.734020 0.000000 
#    z 0.004270 0.000000 1.778940 
# 
# From -- ./inp_files/267733.got.cif
#   From: 2010.06.25/outbox.cif.g09.slc.cpg/sg12_134_cif.got.tgz:267733.got - 2010.06.28 00:19:55.
