data_PCOD8095039
_publ_section_title
;
Structure prediction by ZEFSAII (Michael W. Deem and Ramdas Pophale) SiO2 
 PCOD8095039
Probable space group: C 2/M
;
_chemical_formula_sum "Si O2"
_cell_formula_units_Z 64
_cell_length_a 33.332308
_cell_length_b 14.233925
_cell_length_c 8.808760
_cell_angle_alpha 90.000000
_cell_angle_beta 58.698432
_cell_angle_gamma 90.000000
_cell_volume 3570.990974
_symmetry_space_group_name_H-M "C 2/M"
_symmetry_group_IT_number 12
_symmetry_cell_setting 'monoclinic'
loop_
_space_group_symop_operation_xyz
x,y,z
-x,y,-z
-x,-y,-z
x,-y,z
1/2+x,1/2+y,z
1/2-x,1/2+y,-z
1/2-x,1/2-y,-z
1/2+x,1/2-y,z
loop_
_atom_site_type_symbol
_atom_site_label
_atom_site_fract_x
_atom_site_fract_y
_atom_site_fract_z
Si Si1 0.365077 0.790400 0.837384
Si Si2 0.669688 0.601656 0.237331
Si Si3 0.048755 0.606966 0.475532
Si Si4 0.827380 0.893479 0.412197
Si Si5 0.365688 0.784910 0.195125
Si Si6 0.549087 0.893078 0.832331
Si Si7 0.267461 0.156069 0.037087
Si Si8 0.776669 0.390925 0.352076
O O1 0.355439 0.681947 0.810931
O O2 0.410928 0.825168 0.663264
O O3 0.372641 0.795920 0.002223
O O4 0.321191 0.858823 0.871998
O O5 0.645400 0.500000 0.254688
O O6 0.667303 0.628663 0.419625
O O7 0.725215 0.584167 0.083368
O O8 0.059568 0.500000 0.403918
O O9 0.044973 0.616550 0.661534
O O10 0.000000 0.641500 0.500000
O O11 0.859818 0.824146 0.251373
O O12 0.772990 0.880778 0.463330
O O13 0.843596 0.000000 0.346137
O O14 0.411544 0.823496 0.185657
O O15 0.320908 0.843609 0.350720
O O16 0.561134 0.000000 0.857122
O O17 0.500000 0.860983 0.000000
O O18 0.272356 0.168026 0.206956
O O19 0.250000 0.250000 0.000000
O O20 0.787707 0.500000 0.295643
#
# Coordination Sequence:
#
# PCOD8095039 Si02
#       8
#     8   8   8   8   8   8   8   8
#     4  10  20  31  49  77 104 134 169 208 253 303
#     4   9  17  32  51  70  99 139 178 214 251 292
#     4  10  21  37  56  77 102 131 164 205 251 301
#     4   9  18  32  50  71  99 138 179 216 252 292
#     4  11  20  31  51  76 105 136 169 210 255 306
#     4  10  21  37  56  78 103 131 165 205 251 303
#     4   8  15  27  44  69  99 133 172 208 246 290
#     4   9  17  29  46  70 101 138 175 211 253 299
#
# _framework density 17.922194999999999
#
# number of rings (size 3 to 8) (size 9 to 14) (size 15 to 20)
#    0.000    2.500    0.000    3.375    0.000    4.500 
#    0.000    1.250    0.000    0.750    0.000    0.000 
#    0.000    0.000    0.000    0.000    0.000    0.000 
#
# Total GULP energy -396445.042965 kJ/mol
# GULP energy per Si atom -12388.907593 kJ/mol
# Density = 1.788140 g / cm^3
# Si number density = 17.922195 Si / 1000 Ang^3
#
#
#
# Elastic Constant Matrix: (Units=GPa)
#
#
# Indices 1 2 3 4 5 6 
#
# 1 98.6272 46.8648 38.2003 0.0000 -18.8288 0.0000
# 2 46.8648 85.3671 42.0828 0.0000 -13.1886 0.0000
# 3 38.2003 42.0828 75.4531 0.0000 -16.0457 0.0000
# 4 0.0000 0.0000 0.0000 25.4248 0.0000 0.0357
# 5 -18.8288 -13.1886 -16.0457 0.0000 26.2667 0.0000
# 6 0.0000 0.0000 0.0000 0.0357 0.0000 22.6202
#
#
#
# Elastic Compliance Matrix: (Units=1/GPa)
#
#
# Indices 1 2 3 4 5 6 
#
# 1 0.015342 -0.005918 -0.003172 0.000000 0.006089 0.000000
# 2 -0.005918 0.018647 -0.007258 0.000000 0.000687 0.000000
# 3 -0.003172 -0.007258 0.020283 0.000000 0.006473 0.000000
# 4 0.000000 0.000000 0.000000 0.039332 0.000000 -0.000062
# 5 0.006089 0.000687 0.006473 0.000000 0.046734 0.000000
# 6 0.000000 0.000000 0.000000 -0.000062 0.000000 0.044208
#
#
# Mechanical properties :
#
#
# Convention : Reuss Voigt Hill
#
# Bulk Modulus (GPa) = 46.34561 57.08257 51.71409
# Shear Modulus (GPa) = 22.27811 23.68232 22.98021
#
# Velocity S-wave (km/s) = 3.52951 3.63904 3.58470
# Velocity P-wave (km/s) = 6.52115 7.04104 6.78607
#
# Compressibility (1/GPa) = 0.02157702
#
# Stress axis : x y z
#
# Youngs Moduli (GPa) = 65.17921 53.62771 49.30123
#
# Poissons Ratio (x) = 0.31739 0.15637
# Poissons Ratio (y) = 0.38576 0.35781
# Poissons Ratio (z) = 0.20673 0.38922
#
# Static dielectric constant tensor:
#      x y z
#    x 3.420140 0.000000 -0.162180 
#    y 0.000000 2.468460 0.000000 
#    z -0.162180 0.000000 3.278480 
# 
# 
# High freq. dielectric constant tensor:
#      x y z
#    x 1.688010 0.000000 -0.000790 
#    y 0.000000 1.687380 0.000000 
#    z -0.000790 0.000000 1.679660 
# 
# From -- ./inp_files/111671.got.cif
#   From: 2010.06.25/outbox.cif.g09.slc.cpg/sg12_56_cif.got.tgz:111671.got - 2010.06.28 00:19:55.
