data_PCOD8095352
_publ_section_title
;
Structure prediction by ZEFSAII (Michael W. Deem and Ramdas Pophale) SiO2 
 PCOD8095352
Probable space group: C 2/M
;
_chemical_formula_sum "Si O2"
_cell_formula_units_Z 56
_cell_length_a 18.515812
_cell_length_b 9.485611
_cell_length_c 22.819891
_cell_angle_alpha 90.000000
_cell_angle_beta 51.971527
_cell_angle_gamma 90.000000
_cell_volume 3157.076301
_symmetry_space_group_name_H-M "C 2/M"
_symmetry_group_IT_number 12
_symmetry_cell_setting 'monoclinic'
loop_
_space_group_symop_operation_xyz
x,y,z
-x,y,-z
-x,-y,-z
x,-y,z
1/2+x,1/2+y,z
1/2-x,1/2+y,-z
1/2-x,1/2-y,-z
1/2+x,1/2-y,z
loop_
_atom_site_type_symbol
_atom_site_label
_atom_site_fract_x
_atom_site_fract_y
_atom_site_fract_z
Si Si1 0.029084 0.165275 0.351629
Si Si2 0.834899 0.659145 0.938925
Si Si3 0.623096 0.831853 0.770187
Si Si4 0.173026 0.834215 0.503789
Si Si5 0.819250 0.167155 0.633111
Si Si6 0.959733 0.665960 0.770229
Si Si7 0.492733 0.838122 0.067153
O O1 0.094468 0.218492 0.371722
O O2 0.058457 0.248413 0.279407
O O3 0.924856 0.200843 0.419371
O O4 0.043292 0.000000 0.333275
O O5 0.800328 0.500000 0.951593
O O6 0.877435 0.705834 0.855488
O O7 0.909589 0.676021 0.951788
O O8 0.750000 0.750000 0.000000
O O9 0.724722 0.772231 0.707718
O O10 0.556389 0.785690 0.750405
O O11 0.585014 0.770297 0.851245
O O12 0.620610 0.000000 0.774778
O O13 0.250000 0.750000 0.500000
O O14 0.170460 0.778597 0.438346
O O15 0.195631 0.000000 0.495556
O O16 0.815539 0.000000 0.634436
O O17 0.960979 0.500000 0.755878
O O18 0.465034 0.000000 0.071024
O O19 0.500000 0.761573 0.000000
#
# Coordination Sequence:
#
# PCOD8095352 Si02
#       7
#     8   8   8   8   8   8   8
#     4  10  20  32  49  75 100 122 156 201 244 285
#     4   9  18  31  48  71  98 128 161 198 240 285
#     4   8  14  26  45  66  88 121 161 192 228 283
#     4  10  20  34  52  73  98 128 161 198 240 287
#     4   9  17  30  48  70  97 126 156 197 246 288
#     4   9  18  33  50  69  97 131 162 193 237 291
#     4   8  14  25  42  66  93 118 152 199 237 269
#
# _framework density 17.737931
#
# number of rings (size 3 to 8) (size 9 to 14) (size 15 to 20)
#    0.000    3.000    0.000    3.000    0.000    5.143 
#    0.000    3.571    0.000    3.000    0.000    0.000 
#    0.000    0.000    0.000    0.000    0.000    0.000 
#
# Total GULP energy -347071.310180 kJ/mol
# GULP energy per Si atom -12395.403935 kJ/mol
# Density = 1.769756 g / cm^3
# Si number density = 17.737931 Si / 1000 Ang^3
#
#
#
# Elastic Constant Matrix: (Units=GPa)
#
#
# Indices 1 2 3 4 5 6 
#
# 1 124.4094 40.1204 80.7384 0.0000 11.6677 0.0000
# 2 40.1204 32.7966 44.2209 0.0000 0.0058 0.0000
# 3 80.7384 44.2209 140.5868 0.0000 10.4309 0.0000
# 4 0.0000 0.0000 0.0000 24.0637 0.0000 0.5104
# 5 11.6677 0.0058 10.4309 0.0000 39.9811 0.0000
# 6 0.0000 0.0000 0.0000 0.5104 0.0000 23.6332
#
#
#
# Elastic Compliance Matrix: (Units=1/GPa)
#
#
# Indices 1 2 3 4 5 6 
#
# 1 0.015430 -0.012599 -0.004654 0.000000 -0.003287 0.000000
# 2 -0.012599 0.064012 -0.013431 0.000000 0.007172 0.000000
# 3 -0.004654 -0.013431 0.014184 0.000000 -0.002340 0.000000
# 4 0.000000 0.000000 0.000000 0.041575 0.000000 -0.000898
# 5 -0.003287 0.007172 -0.002340 0.000000 0.026581 0.000000
# 6 0.000000 0.000000 0.000000 -0.000898 0.000000 0.042333
#
#
# Mechanical properties :
#
#
# Convention : Reuss Voigt Hill
#
# Bulk Modulus (GPa) = 31.00112 69.77246 50.38679
# Shear Modulus (GPa) = 18.10040 26.38316 22.24178
#
# Velocity S-wave (km/s) = 3.19789 3.86085 3.54490
# Velocity P-wave (km/s) = 5.58127 7.70035 6.72481
#
# Compressibility (1/GPa) = 0.03225690
#
# Stress axis : x y z
#
# Youngs Moduli (GPa) = 64.80910 15.62203 70.49981
#
# Poissons Ratio (x) = 0.19683 0.32814
# Poissons Ratio (y) = 0.81654 0.94689
# Poissons Ratio (z) = 0.30165 0.20982
#
# Static dielectric constant tensor:
#      x y z
#    x 3.166150 0.000000 -0.041380 
#    y 0.000000 2.799510 0.000000 
#    z -0.041380 0.000000 3.551770 
# 
# 
# High freq. dielectric constant tensor:
#      x y z
#    x 1.689040 0.000000 0.002830 
#    y 0.000000 1.631080 0.000000 
#    z 0.002830 0.000000 1.705960 
# 
# From -- ./inp_files/342321.got.cif
#   From: 2010.06.25/outbox.cif.g09.slc.cpg/sg12_172_cif.got.tgz:342321.got - 2010.06.28 00:19:55.
