data_PCOD8095885
_publ_section_title
;
Structure prediction by ZEFSAII (Michael W. Deem and Ramdas Pophale) SiO2 
 PCOD8095885
Probable space group: C 2/M
;
_chemical_formula_sum "Si O2"
_cell_formula_units_Z 48
_cell_length_a 26.565447
_cell_length_b 8.902154
_cell_length_c 20.304383
_cell_angle_alpha 90.000000
_cell_angle_beta 145.796589
_cell_angle_gamma 90.000000
_cell_volume 2699.235717
_symmetry_space_group_name_H-M "C 2/M"
_symmetry_group_IT_number 12
_symmetry_cell_setting 'monoclinic'
loop_
_space_group_symop_operation_xyz
x,y,z
-x,y,-z
-x,-y,-z
x,-y,z
1/2+x,1/2+y,z
1/2-x,1/2+y,-z
1/2-x,1/2-y,-z
1/2+x,1/2-y,z
loop_
_atom_site_type_symbol
_atom_site_label
_atom_site_fract_x
_atom_site_fract_y
_atom_site_fract_z
Si Si1 0.297607 0.825056 0.739830
Si Si2 0.803963 0.822944 0.498933
Si Si3 0.506104 0.329415 0.250306
Si Si4 0.167428 0.172744 0.094748
Si Si5 0.036614 0.833037 0.130973
Si Si6 0.325457 0.177270 0.037426
O O1 0.233159 0.766946 0.611630
O O2 0.273281 0.737525 0.780995
O O3 0.399932 0.793328 0.830428
O O4 0.284965 0.000000 0.739534
O O5 0.750000 0.750000 0.500000
O O6 0.909138 0.779081 0.613907
O O7 0.791237 0.000000 0.493114
O O8 0.476245 0.500000 0.233786
O O9 0.538628 0.316059 0.211096
O O10 0.421852 0.221984 0.172093
O O11 0.191976 0.000000 0.107452
O O12 0.186846 0.265263 0.050075
O O13 0.063813 0.190510 0.004385
O O14 0.071006 0.000000 0.148143
O O15 0.315637 0.000000 0.027773
O O16 0.250000 0.250000 0.000000
#
# Coordination Sequence:
#
# PCOD8095885 Si02
#       6
#     8   8   8   8   8   8
#     4  11  21  30  46  75 108 143 182 220 258 305
#     4  10  20  33  50  74 109 150 187 220 256 306
#     4   9  18  34  53  76 108 144 181 219 263 312
#     4  10  21  36  52  73 104 140 177 216 267 320
#     4   9  17  30  48  69 100 143 182 214 259 312
#     4  11  22  38  61  85 106 130 168 220 274 323
#
# _framework density 17.782812
#
# number of rings (size 3 to 8) (size 9 to 14) (size 15 to 20)
#    0.000    2.000    1.667    4.000    0.000    6.667 
#    0.000    0.000    0.000    1.000    0.000    7.000 
#    0.000    0.000    0.000    0.000    0.000    0.000 
#
# Total GULP energy -297595.376570 kJ/mol
# GULP energy per Si atom -12399.807357 kJ/mol
# Density = 1.774234 g / cm^3
# Si number density = 17.782812 Si / 1000 Ang^3
#
#
#
# Elastic Constant Matrix: (Units=GPa)
#
#
# Indices 1 2 3 4 5 6 
#
# 1 70.3420 48.3720 66.7813 0.0000 2.8395 0.0000
# 2 48.3720 105.8582 54.0759 0.0000 -1.7915 0.0000
# 3 66.7813 54.0759 121.0091 0.0000 -22.4944 0.0000
# 4 0.0000 0.0000 0.0000 26.8801 0.0000 -0.5981
# 5 2.8395 -1.7915 -22.4944 0.0000 21.3867 0.0000
# 6 0.0000 0.0000 0.0000 -0.5981 0.0000 30.7993
#
#
#
# Elastic Compliance Matrix: (Units=1/GPa)
#
#
# Indices 1 2 3 4 5 6 
#
# 1 0.054500 -0.007857 -0.034846 0.000000 -0.044545 0.000000
# 2 -0.007857 0.013998 -0.001874 0.000000 0.000245 0.000000
# 3 -0.034846 -0.001874 0.036250 0.000000 0.042597 0.000000
# 4 0.000000 0.000000 0.000000 0.037218 0.000000 0.000723
# 5 -0.044545 0.000245 0.042597 0.000000 0.097497 0.000000
# 6 0.000000 0.000000 0.000000 0.000723 0.000000 0.032482
#
#
# Mechanical properties :
#
#
# Convention : Reuss Voigt Hill
#
# Bulk Modulus (GPa) = 64.12705 70.62976 67.37840
# Shear Modulus (GPa) = 13.65010 24.34521 18.99765
#
# Velocity S-wave (km/s) = 2.77357 3.70405 3.27206
# Velocity P-wave (km/s) = 6.81149 7.62218 7.22821
#
# Compressibility (1/GPa) = 0.01559404
#
# Stress axis : x y z
#
# Youngs Moduli (GPa) = 18.34875 71.43748 27.58598
#
# Poissons Ratio (x) = 0.56128 0.96127
# Poissons Ratio (y) = 0.14416 0.05170
# Poissons Ratio (z) = 0.63938 0.13387
#
# Static dielectric constant tensor:
#      x y z
#    x 3.092970 0.000000 -0.203960 
#    y 0.000000 3.333110 0.000000 
#    z -0.203960 0.000000 3.617060 
# 
# 
# High freq. dielectric constant tensor:
#      x y z
#    x 1.661720 0.000000 -0.020300 
#    y 0.000000 1.690980 0.000000 
#    z -0.020300 0.000000 1.687790 
# 
# From -- ./inp_files/327341.got.cif
#   From: 2010.06.25/outbox.cif.g09.slc.cpg/sg12_164_cif.got.tgz:327341.got - 2010.06.28 00:19:55.
