data_PCOD8095017
_publ_section_title
;
Structure prediction by ZEFSAII (Michael W. Deem and Ramdas Pophale) SiO2 
 PCOD8095017
Probable space group: C 2/M
;
_chemical_formula_sum "Si O2"
_cell_formula_units_Z 64
_cell_length_a 40.374507
_cell_length_b 9.516926
_cell_length_c 22.271221
_cell_angle_alpha 90.000000
_cell_angle_beta 155.452049
_cell_angle_gamma 90.000000
_cell_volume 3555.261688
_symmetry_space_group_name_H-M "C 2/M"
_symmetry_group_IT_number 12
_symmetry_cell_setting 'monoclinic'
loop_
_space_group_symop_operation_xyz
x,y,z
-x,y,-z
-x,-y,-z
x,-y,z
1/2+x,1/2+y,z
1/2-x,1/2+y,-z
1/2-x,1/2-y,-z
1/2+x,1/2-y,z
loop_
_atom_site_type_symbol
_atom_site_label
_atom_site_fract_x
_atom_site_fract_y
_atom_site_fract_z
Si Si1 0.969798 0.161216 0.671150
Si Si2 0.393997 0.163675 0.161126
Si Si3 0.776905 0.834633 0.170478
Si Si4 0.303477 0.333500 0.348409
Si Si5 0.086185 0.663321 0.667993
Si Si6 0.079016 0.663578 0.167091
Si Si7 0.232204 0.666345 0.351270
Si Si8 0.603224 0.660315 0.321236
O O1 0.046743 0.252645 0.783725
O O2 0.894129 0.219701 0.508422
O O3 0.953005 0.176899 0.713887
O O4 0.987629 0.000000 0.683542
O O5 0.411333 0.203887 0.258203
O O6 0.407438 0.000000 0.170841
O O7 0.304114 0.208113 0.996509
O O8 0.771071 0.785944 0.230329
O O9 0.849242 0.754567 0.259617
O O10 0.793915 0.000000 0.193747
O O11 0.306033 0.500000 0.359344
O O12 0.245293 0.273664 0.304990
O O13 0.106296 0.500000 0.691244
O O14 0.000000 0.702408 0.500000
O O15 0.092526 0.500000 0.202842
O O16 0.152518 0.728380 0.249961
O O17 0.068903 0.741337 0.213189
O O18 0.000000 0.691925 0.000000
O O19 0.224998 0.500000 0.335314
O O20 0.307265 0.709858 0.515723
O O21 0.603434 0.500000 0.299069
#
# Coordination Sequence:
#
# PCOD8095017 Si02
#       8
#     8   8   8   8   8   8   8   8
#     4   9  18  33  53  74  94 124 166 203 240 290
#     4  10  21  34  49  74 104 131 161 200 248 295
#     4  10  20  33  52  77 100 126 163 203 244 292
#     4   8  15  30  51  72  94 123 162 205 243 284
#     4  10  21  36  52  71 100 136 168 202 247 292
#     4  10  20  31  47  74 102 129 163 201 245 294
#     4   8  15  30  50  70  95 127 162 200 242 290
#     4   9  18  33  52  71  94 128 166 202 241 287
#
# _framework density 18.001487000000001
#
# number of rings (size 3 to 8) (size 9 to 14) (size 15 to 20)
#    0.000    2.750    0.000    3.000    0.000    3.000 
#    0.000    2.500    0.000    2.250    0.000    0.000 
#    0.000    0.000    0.000    0.000    0.000    0.000 
#
# Total GULP energy -396781.247557 kJ/mol
# GULP energy per Si atom -12399.413986 kJ/mol
# Density = 1.796052 g / cm^3
# Si number density = 18.001487 Si / 1000 Ang^3
#
#
#
# Elastic Constant Matrix: (Units=GPa)
#
#
# Indices 1 2 3 4 5 6 
#
# 1 111.9850 48.0058 75.4980 0.0000 -5.8325 0.0000
# 2 48.0058 40.5936 47.5774 0.0000 -3.8525 0.0000
# 3 75.4980 47.5774 120.3288 0.0000 -10.3138 0.0000
# 4 0.0000 0.0000 0.0000 7.3870 0.0000 8.4283
# 5 -5.8325 -3.8525 -10.3138 0.0000 21.5770 0.0000
# 6 0.0000 0.0000 0.0000 8.4283 0.0000 29.4147
#
#
#
# Elastic Compliance Matrix: (Units=1/GPa)
#
#
# Indices 1 2 3 4 5 6 
#
# 1 0.020212 -0.016842 -0.006060 0.000000 -0.000440 0.000000
# 2 -0.016842 0.059949 -0.013148 0.000000 -0.000134 0.000000
# 3 -0.006060 -0.013148 0.017695 0.000000 0.004473 0.000000
# 4 0.000000 0.000000 0.000000 0.201125 0.000000 -0.057629
# 5 -0.000440 -0.000134 0.004473 0.000000 0.048341 0.000000
# 6 0.000000 0.000000 0.000000 -0.057629 0.000000 0.050509
#
#
# Mechanical properties :
#
#
# Convention : Reuss Voigt Hill
#
# Bulk Modulus (GPa) = 38.82600 68.34107 53.58353
# Shear Modulus (GPa) = 10.44897 18.46415 14.45656
#
# Velocity S-wave (km/s) = 2.41187 3.20613 2.83693
# Velocity P-wave (km/s) = 5.41952 7.19390 6.36881
#
# Compressibility (1/GPa) = 0.02575594
#
# Stress axis : x y z
#
# Youngs Moduli (GPa) = 49.47450 16.68098 56.51316
#
# Poissons Ratio (x) = 0.28094 0.34250
# Poissons Ratio (y) = 0.83324 0.74302
# Poissons Ratio (z) = 0.29984 0.21932
#
# Static dielectric constant tensor:
#      x y z
#    x 3.600170 0.000000 -0.048680 
#    y 0.000000 3.015600 0.000000 
#    z -0.048680 0.000000 3.387720 
# 
# 
# High freq. dielectric constant tensor:
#      x y z
#    x 1.708360 0.000000 -0.001570 
#    y 0.000000 1.665430 0.000000 
#    z -0.001570 0.000000 1.700970 
# 
# From -- ./inp_files/296488.got.cif
#   From: 2010.06.25/outbox.cif.g09.slc.cpg/sg12_149_cif.got.tgz:296488.got - 2010.06.28 00:19:55.
