data_PCOD8095520
_publ_section_title
;
Structure prediction by ZEFSAII (Michael W. Deem and Ramdas Pophale) SiO2 
 PCOD8095520
Probable space group: C 2/M
;
_chemical_formula_sum "Si O2"
_cell_formula_units_Z 64
_cell_length_a 24.127521
_cell_length_b 9.095483
_cell_length_c 19.934213
_cell_angle_alpha 90.000000
_cell_angle_beta 125.203438
_cell_angle_gamma 90.000000
_cell_volume 3574.524291
_symmetry_space_group_name_H-M "C 2/M"
_symmetry_group_IT_number 12
_symmetry_cell_setting 'monoclinic'
loop_
_space_group_symop_operation_xyz
x,y,z
-x,y,-z
-x,-y,-z
x,-y,z
1/2+x,1/2+y,z
1/2-x,1/2+y,-z
1/2-x,1/2-y,-z
1/2+x,1/2-y,z
loop_
_atom_site_type_symbol
_atom_site_label
_atom_site_fract_x
_atom_site_fract_y
_atom_site_fract_z
Si Si1 0.572070 0.327750 0.522613
Si Si2 0.318296 0.327831 0.789020
Si Si3 0.677725 0.326735 0.710805
Si Si4 0.927701 0.826187 0.971258
Si Si5 0.094510 0.672861 0.763894
Si Si6 0.941908 0.327793 0.621796
Si Si7 0.910942 0.167312 0.729231
Si Si8 0.937007 0.169448 0.127845
O O1 0.500000 0.271769 0.500000
O O2 0.570004 0.500000 0.506233
O O3 0.628950 0.283732 0.615560
O O4 0.589455 0.245631 0.465932
O O5 0.301729 0.500000 0.787285
O O6 0.251269 0.232034 0.744433
O O7 0.367851 0.267576 0.881943
O O8 0.351998 0.297844 0.740635
O O9 0.679375 0.500000 0.723834
O O10 0.651885 0.250698 0.760377
O O11 0.933117 0.000000 0.966125
O O12 0.910338 0.784154 0.035837
O O13 0.000000 0.756249 0.000000
O O14 0.106899 0.500000 0.771436
O O15 0.101146 0.729845 0.844641
O O16 0.020876 0.716517 0.683561
O O17 0.931590 0.500000 0.609336
O O18 0.900956 0.270830 0.657883
O O19 0.982424 0.197213 0.815370
O O20 0.907228 0.000000 0.701381
O O21 0.920296 0.000000 0.132180
#
# Coordination Sequence:
#
# PCOD8095520 Si02
#       8
#     8   8   8   8   8   8   8   8
#     4  10  20  36  57  79 103 136 181 225 265 318
#     4  10  20  35  56  82 112 145 179 219 267 318
#     4  11  23  38  56  78 107 143 180 220 268 324
#     4   9  15  29  55  85 110 137 181 225 260 308
#     4  10  20  34  52  78 111 142 174 217 270 321
#     4  10  20  32  53  83 111 136 170 223 273 313
#     4   9  17  31  53  79 109 144 178 213 259 317
#     4   9  16  29  54  83 108 137 178 223 261 307
#
# _framework density 17.90448
#
# number of rings (size 3 to 8) (size 9 to 14) (size 15 to 20)
#    0.000    2.250    2.500    1.125    0.000    2.750 
#    0.000    1.875    0.000    0.750    0.000    0.000 
#    0.000    0.000    0.000    0.000    0.000    0.000 
#
# Total GULP energy -396882.351516 kJ/mol
# GULP energy per Si atom -12402.573485 kJ/mol
# Density = 1.786373 g / cm^3
# Si number density = 17.904480 Si / 1000 Ang^3
#
#
#
# Elastic Constant Matrix: (Units=GPa)
#
#
# Indices 1 2 3 4 5 6 
#
# 1 112.3264 45.9042 61.5316 0.0000 -6.6047 0.0000
# 2 45.9042 57.9458 42.6039 0.0000 -5.8520 0.0000
# 3 61.5316 42.6039 111.2333 0.0000 -7.7291 0.0000
# 4 0.0000 0.0000 0.0000 16.6061 0.0000 0.9848
# 5 -6.6047 -5.8520 -7.7291 0.0000 26.2126 0.0000
# 6 0.0000 0.0000 0.0000 0.9848 0.0000 29.4457
#
#
#
# Elastic Compliance Matrix: (Units=1/GPa)
#
#
# Indices 1 2 3 4 5 6 
#
# 1 0.015088 -0.008064 -0.005226 0.000000 0.000461 0.000000
# 2 -0.008064 0.028522 -0.006291 0.000000 0.002481 0.000000
# 3 -0.005226 -0.006291 0.014396 0.000000 0.001524 0.000000
# 4 0.000000 0.000000 0.000000 0.060338 0.000000 -0.002018
# 5 0.000461 0.002481 0.001524 0.000000 0.039269 0.000000
# 6 0.000000 0.000000 0.000000 -0.002018 0.000000 0.034028
#
#
# Mechanical properties :
#
#
# Convention : Reuss Voigt Hill
#
# Bulk Modulus (GPa) = 53.06582 64.62055 58.84319
# Shear Modulus (GPa) = 21.08963 23.21726 22.15344
#
# Velocity S-wave (km/s) = 3.43577 3.60492 3.52136
# Velocity P-wave (km/s) = 6.74107 7.31419 7.03347
#
# Compressibility (1/GPa) = 0.01884452
#
# Stress axis : x y z
#
# Youngs Moduli (GPa) = 66.27937 35.06124 69.46253
#
# Poissons Ratio (x) = 0.28273 0.36298
# Poissons Ratio (y) = 0.53446 0.43700
# Poissons Ratio (z) = 0.34635 0.22057
#
# Static dielectric constant tensor:
#      x y z
#    x 3.224650 0.000000 -0.142740 
#    y 0.000000 3.133270 0.000000 
#    z -0.142740 0.000000 3.309540 
# 
# 
# High freq. dielectric constant tensor:
#      x y z
#    x 1.688770 0.000000 -0.019880 
#    y 0.000000 1.679540 0.000000 
#    z -0.019880 0.000000 1.686240 
# 
# From -- ./inp_files/324175.got.cif
#   From: 2010.06.25/outbox.cif.g09.slc.cpg/sg12_163_cif.got.tgz:324175.got - 2010.06.28 00:19:55.
