data_PCOD8095650
_publ_section_title
;
Structure prediction by ZEFSAII (Michael W. Deem and Ramdas Pophale) SiO2 
 PCOD8095650
Probable space group: C 2/M
;
_chemical_formula_sum "Si O2"
_cell_formula_units_Z 56
_cell_length_a 20.305413
_cell_length_b 9.121805
_cell_length_c 23.339133
_cell_angle_alpha 90.000000
_cell_angle_beta 49.214460
_cell_angle_gamma 90.000000
_cell_volume 3273.142831
_symmetry_space_group_name_H-M "C 2/M"
_symmetry_group_IT_number 12
_symmetry_cell_setting 'monoclinic'
loop_
_space_group_symop_operation_xyz
x,y,z
-x,y,-z
-x,-y,-z
x,-y,z
1/2+x,1/2+y,z
1/2-x,1/2+y,-z
1/2-x,1/2-y,-z
1/2+x,1/2-y,z
loop_
_atom_site_type_symbol
_atom_site_label
_atom_site_fract_x
_atom_site_fract_y
_atom_site_fract_z
Si Si1 0.341606 0.827945 0.951898
Si Si2 0.303610 0.175641 0.662015
Si Si3 0.974068 0.328476 0.777556
Si Si4 0.577424 0.159727 0.500628
Si Si5 0.476468 0.329408 0.949510
Si Si6 0.450150 0.824432 0.663147
Si Si7 0.391946 0.328870 0.224208
O O1 0.393125 0.791117 0.864404
O O2 0.393935 0.764449 0.976283
O O3 0.328266 0.000000 0.968266
O O4 0.250000 0.750000 0.000000
O O5 0.343510 0.239169 0.578869
O O6 0.361535 0.231305 0.682887
O O7 0.205785 0.233762 0.725492
O O8 0.306507 0.000000 0.658323
O O9 0.993401 0.500000 0.765494
O O10 0.951152 0.267148 0.727594
O O11 0.060940 0.250192 0.749977
O O12 0.500000 0.139286 0.500000
O O13 0.535877 0.239283 0.580421
O O14 0.611422 0.000000 0.500889
O O15 0.450598 0.500000 0.961471
O O16 0.559758 0.294691 0.862808
O O17 0.500000 0.280020 0.000000
O O18 0.453168 0.000000 0.659082
O O19 0.391657 0.500000 0.238104
#
# Coordination Sequence:
#
# PCOD8095650 Si02
#       7
#     8   8   8   8   8   8   8
#     4  10  20  33  49  68  91 119 150 185 225 269
#     4   8  13  22  39  63  86 110 144 182 217 251
#     4   9  18  31  46  64  88 117 144 174 214 260
#     4   7  10  18  34  58  86 110 136 177 220 250
#     4   9  18  32  49  68  90 118 152 188 226 268
#     4   8  13  23  41  63  85 111 145 182 215 248
#     4   9  17  29  45  64  89 118 143 175 218 261
#
# _framework density 17.108938999999999
#
# number of rings (size 3 to 8) (size 9 to 14) (size 15 to 20)
#    0.000    3.429    0.000    2.143    0.000    2.000 
#    0.000    5.000    0.000    0.857    0.000    0.000 
#    0.000    3.429    0.000    0.000    0.000    0.000 
#
# Total GULP energy -346933.414258 kJ/mol
# GULP energy per Si atom -12390.479081 kJ/mol
# Density = 1.707000 g / cm^3
# Si number density = 17.108939 Si / 1000 Ang^3
#
#
#
# Elastic Constant Matrix: (Units=GPa)
#
#
# Indices 1 2 3 4 5 6 
#
# 1 142.6955 38.0650 97.6013 0.0000 0.2027 0.0002
# 2 38.0650 29.5809 32.1257 0.0000 -1.8604 0.0006
# 3 97.6013 32.1257 118.4493 0.0000 -3.5293 0.0000
# 4 0.0000 0.0000 0.0000 9.9792 0.0000 -0.8087
# 5 0.2027 -1.8604 -3.5293 0.0000 33.3994 0.0000
# 6 0.0002 0.0006 0.0000 -0.8087 0.0000 24.7265
#
#
#
# Elastic Compliance Matrix: (Units=1/GPa)
#
#
# Indices 1 2 3 4 5 6 
#
# 1 0.018038 -0.010106 -0.012180 0.000000 -0.001959 0.000000
# 2 -0.010106 0.053639 -0.006149 0.000000 0.002399 -0.000001
# 3 -0.012180 -0.006149 0.020202 0.000000 0.001866 0.000000
# 4 0.000000 0.000000 0.000000 0.100474 0.000000 0.003286
# 5 -0.001959 0.002399 0.001866 0.000000 0.030283 0.000000
# 6 0.000000 -0.000001 0.000000 0.003286 0.000000 0.040550
#
#
# Mechanical properties :
#
#
# Convention : Reuss Voigt Hill
#
# Bulk Modulus (GPa) = 28.56479 69.58995 49.07737
# Shear Modulus (GPa) = 15.07260 21.81660 18.44460
#
# Velocity S-wave (km/s) = 2.97135 3.57481 3.28696
# Velocity P-wave (km/s) = 5.33891 7.60276 6.56909
#
# Compressibility (1/GPa) = 0.03500813
#
# Stress axis : x y z
#
# Youngs Moduli (GPa) = 55.43917 18.64302 49.49932
#
# Poissons Ratio (x) = 0.18841 0.60292
# Poissons Ratio (y) = 0.56028 0.30437
# Poissons Ratio (z) = 0.67527 0.11464
#
# Static dielectric constant tensor:
#      x y z
#    x 3.221520 0.000000 0.048100 
#    y 0.000000 2.767550 0.000000 
#    z 0.048100 0.000000 3.589270 
# 
# 
# High freq. dielectric constant tensor:
#      x y z
#    x 1.648460 0.000000 0.001050 
#    y 0.000000 1.610690 0.000000 
#    z 0.001050 0.000000 1.673140 
# 
# From -- ./inp_files/276097.got.cif
#   From: 2010.06.25/outbox.cif.g09.slc.cpg/sg12_139_cif.got.tgz:276097.got - 2010.06.28 00:19:55.
