data_PCOD8095914
_publ_section_title
;
Structure prediction by ZEFSAII (Michael W. Deem and Ramdas Pophale) SiO2 
 PCOD8095914
Probable space group: C 2/M
;
_chemical_formula_sum "Si O2"
_cell_formula_units_Z 56
_cell_length_a 19.514897
_cell_length_b 9.008972
_cell_length_c 18.761759
_cell_angle_alpha 90.000000
_cell_angle_beta 66.462798
_cell_angle_gamma 90.000000
_cell_volume 3024.058023
_symmetry_space_group_name_H-M "C 2/M"
_symmetry_group_IT_number 12
_symmetry_cell_setting 'monoclinic'
loop_
_space_group_symop_operation_xyz
x,y,z
-x,y,-z
-x,-y,-z
x,-y,z
1/2+x,1/2+y,z
1/2-x,1/2+y,-z
1/2-x,1/2-y,-z
1/2+x,1/2-y,z
loop_
_atom_site_type_symbol
_atom_site_label
_atom_site_fract_x
_atom_site_fract_y
_atom_site_fract_z
Si Si1 0.225589 0.823375 0.371832
Si Si2 0.704131 0.174530 0.957867
Si Si3 0.945544 0.328499 0.188850
Si Si4 0.287574 0.824301 0.201901
Si Si5 0.053007 0.832632 0.045485
Si Si6 0.075387 0.823565 0.507472
Si Si7 0.382858 0.171063 0.367890
O O1 0.232546 0.763873 0.287008
O O2 0.148666 0.759909 0.436108
O O3 0.298371 0.770545 0.386626
O O4 0.224405 0.000000 0.372645
O O5 0.737909 0.224429 0.866685
O O6 0.709181 0.000000 0.964921
O O7 0.750000 0.250000 0.000000
O O8 0.619426 0.223506 0.998695
O O9 0.961008 0.500000 0.162889
O O10 0.871378 0.266694 0.180878
O O11 0.935849 0.308885 0.277444
O O12 0.013530 0.228101 0.133215
O O13 0.290779 0.000000 0.207513
O O14 0.081244 0.000000 0.049431
O O15 0.000000 0.829722 0.000000
O O16 0.078339 0.765848 0.586625
O O17 0.000000 0.765712 0.500000
O O18 0.076183 0.000000 0.508492
O O19 0.379446 0.000000 0.392877
#
# Coordination Sequence:
#
# PCOD8095914 Si02
#       7
#     8   8   8   8   8   8   8
#     4   8  15  31  54  77 100 132 178 219 254 311
#     4  11  22  37  56  78 109 148 189 228 271 322
#     4   9  17  33  56  81 103 134 181 225 271 321
#     4   8  15  30  54  77  99 137 183 220 261 316
#     4  11  22  35  55  83 112 141 178 225 277 326
#     4  10  20  33  50  76 110 143 172 208 262 323
#     4   9  18  33  56  79 101 133 177 225 262 306
#
# _framework density 18.518162
#
# number of rings (size 3 to 8) (size 9 to 14) (size 15 to 20)
#    0.000    2.571    1.429    3.000    0.000    1.429 
#    2.571    0.000    0.000    2.571    0.000    0.000 
#    0.000    0.000    0.000    0.000    0.000    0.000 
#
# Total GULP energy -347070.205127 kJ/mol
# GULP energy per Si atom -12395.364469 kJ/mol
# Density = 1.847601 g / cm^3
# Si number density = 18.518162 Si / 1000 Ang^3
#
#
#
# Elastic Constant Matrix: (Units=GPa)
#
#
# Indices 1 2 3 4 5 6 
#
# 1 85.9684 26.9300 53.7116 0.0000 13.8906 0.0000
# 2 26.9300 40.6933 37.8218 -0.0001 7.3621 -0.0001
# 3 53.7116 37.8218 123.9538 0.0000 10.0060 0.0000
# 4 0.0000 -0.0001 0.0000 26.3865 0.0000 5.1214
# 5 13.8906 7.3621 10.0060 0.0000 29.4272 0.0000
# 6 0.0000 -0.0001 0.0000 5.1214 0.0000 21.4019
#
#
#
# Elastic Compliance Matrix: (Units=1/GPa)
#
#
# Indices 1 2 3 4 5 6 
#
# 1 0.017669 -0.005642 -0.005527 0.000000 -0.005049 0.000000
# 2 -0.005642 0.036885 -0.008513 0.000000 -0.003670 0.000000
# 3 -0.005527 -0.008513 0.013035 0.000000 0.000306 0.000000
# 4 0.000000 0.000000 0.000000 0.039744 0.000000 -0.009511
# 5 -0.005049 -0.003670 0.000306 0.000000 0.037179 0.000000
# 6 0.000000 0.000000 0.000000 -0.009511 0.000000 0.049001
#
#
# Mechanical properties :
#
#
# Convention : Reuss Voigt Hill
#
# Bulk Modulus (GPa) = 35.43165 54.17137 44.80151
# Shear Modulus (GPa) = 20.63676 24.25325 22.44501
#
# Velocity S-wave (km/s) = 3.34189 3.62290 3.48523
# Velocity P-wave (km/s) = 5.83661 6.84231 6.35937
#
# Compressibility (1/GPa) = 0.02822335
#
# Stress axis : x y z
#
# Youngs Moduli (GPa) = 56.59740 27.11160 76.71421
#
# Poissons Ratio (x) = 0.15297 0.42400
# Poissons Ratio (y) = 0.31934 0.65310
# Poissons Ratio (z) = 0.31281 0.23081
#
# Static dielectric constant tensor:
#      x y z
#    x 3.245490 0.000000 -0.096750 
#    y 0.000000 3.181810 0.000000 
#    z -0.096750 0.000000 3.759720 
# 
# 
# High freq. dielectric constant tensor:
#      x y z
#    x 1.700570 0.000000 0.000380 
#    y 0.000000 1.688660 0.000000 
#    z 0.000380 0.000000 1.735020 
# 
# From -- ./inp_files/275112.got.cif
#   From: 2010.06.25/outbox.cif.g09.slc.cpg/sg12_138_cif.got.tgz:275112.got - 2010.06.28 00:19:55.
