data_PCOD8095392
_publ_section_title
;
Structure prediction by ZEFSAII (Michael W. Deem and Ramdas Pophale) SiO2 
 PCOD8095392
Probable space group: C 2/M
;
_chemical_formula_sum "Si O2"
_cell_formula_units_Z 64
_cell_length_a 24.913643
_cell_length_b 9.290997
_cell_length_c 23.011689
_cell_angle_alpha 90.000000
_cell_angle_beta 135.597261
_cell_angle_gamma 90.000000
_cell_volume 3726.991237
_symmetry_space_group_name_H-M "C 2/M"
_symmetry_group_IT_number 12
_symmetry_cell_setting 'monoclinic'
loop_
_space_group_symop_operation_xyz
x,y,z
-x,y,-z
-x,-y,-z
x,-y,z
1/2+x,1/2+y,z
1/2-x,1/2+y,-z
1/2-x,1/2-y,-z
1/2+x,1/2-y,z
loop_
_atom_site_type_symbol
_atom_site_label
_atom_site_fract_x
_atom_site_fract_y
_atom_site_fract_z
Si Si1 0.475078 0.166217 0.218148
Si Si2 0.951254 0.833288 0.824691
Si Si3 0.174131 0.165012 0.183540
Si Si4 0.829260 0.170338 0.308962
Si Si5 0.320208 0.165226 0.028623
Si Si6 0.604079 0.663670 0.008460
Si Si7 0.470881 0.670813 0.335611
Si Si8 0.570264 0.668062 0.513729
O O1 0.538137 0.237568 0.224593
O O2 0.391475 0.185798 0.126515
O O3 0.474749 0.244697 0.279084
O O4 0.496914 0.000000 0.243404
O O5 0.870375 0.791473 0.791880
O O6 0.952531 0.000000 0.807075
O O7 0.017081 0.801291 0.923132
O O8 0.249008 0.259273 0.230876
O O9 0.114426 0.189393 0.084833
O O10 0.200549 0.000000 0.206786
O O11 0.892922 0.211230 0.309839
O O12 0.855043 0.228203 0.393820
O O13 0.818513 0.000000 0.301877
O O14 0.297276 0.000000 0.002902
O O15 0.250000 0.250000 0.000000
O O16 0.338268 0.229943 0.979720
O O17 0.625215 0.500000 0.007565
O O18 0.473579 0.500000 0.326232
O O19 0.546616 0.723891 0.431149
O O20 0.500000 0.706461 0.500000
O O21 0.581404 0.500000 0.516946
#
# Coordination Sequence:
#
# PCOD8095392 Si02
#       8
#     8   8   8   8   8   8   8   8
#     4  10  21  34  49  72  99 126 160 207 251 284
#     4   9  18  35  54  69  91 130 174 205 238 290
#     4  10  20  32  50  75 101 127 160 207 251 288
#     4   9  18  31  49  76 104 130 159 195 242 293
#     4  10  21  34  47  66  97 133 164 198 242 287
#     4   9  18  33  51  70  93 126 167 206 243 284
#     4   9  17  31  53  76  98 130 166 196 232 293
#     4   7  12  27  49  71  97 127 161 196 231 281
#
# _framework density 17.172028999999998
#
# number of rings (size 3 to 8) (size 9 to 14) (size 15 to 20)
#    0.000    2.875    0.000    2.625    1.750    4.500 
#    0.000    0.625    0.000    6.750    0.000    0.000 
#    0.000    0.000    0.000    0.000    0.000    0.000 
#
# Total GULP energy -396530.358851 kJ/mol
# GULP energy per Si atom -12391.573714 kJ/mol
# Density = 1.713294 g / cm^3
# Si number density = 17.172029 Si / 1000 Ang^3
#
#
#
# Elastic Constant Matrix: (Units=GPa)
#
#
# Indices 1 2 3 4 5 6 
#
# 1 90.1014 47.1135 47.9587 0.0000 -19.3911 0.0000
# 2 47.1135 70.9639 39.5489 0.0000 -14.9700 0.0000
# 3 47.9587 39.5489 78.2481 0.0000 -13.9006 0.0000
# 4 0.0000 0.0000 0.0000 19.7770 0.0000 -1.4865
# 5 -19.3911 -14.9700 -13.9006 0.0000 20.0351 0.0000
# 6 0.0000 0.0000 0.0000 -1.4865 0.0000 25.3985
#
#
#
# Elastic Compliance Matrix: (Units=1/GPa)
#
#
# Indices 1 2 3 4 5 6 
#
# 1 0.021198 -0.008034 -0.007247 0.000000 0.009486 0.000000
# 2 -0.008034 0.024150 -0.006225 0.000000 0.005950 0.000000
# 3 -0.007247 -0.006225 0.020868 0.000000 0.002813 0.000000
# 4 0.000000 0.000000 0.000000 0.050787 0.000000 0.002972
# 5 0.009486 0.005950 0.002813 0.000000 0.065491 0.000000
# 6 0.000000 0.000000 0.000000 0.002972 0.000000 0.039546
#
#
# Mechanical properties :
#
#
# Convention : Reuss Voigt Hill
#
# Bulk Modulus (GPa) = 43.09564 56.50617 49.80091
# Shear Modulus (GPa) = 18.32936 20.02162 19.17549
#
# Velocity S-wave (km/s) = 3.27065 3.41830 3.34529
# Velocity P-wave (km/s) = 6.27804 6.96829 6.63215
#
# Compressibility (1/GPa) = 0.02320420
#
# Stress axis : x y z
#
# Youngs Moduli (GPa) = 47.17352 41.40815 47.92140
#
# Poissons Ratio (x) = 0.33267 0.34728
# Poissons Ratio (y) = 0.37899 0.29831
# Poissons Ratio (z) = 0.34186 0.25777
#
# Static dielectric constant tensor:
#      x y z
#    x 3.275860 0.000000 -0.093030 
#    y 0.000000 3.019160 0.000000 
#    z -0.093030 0.000000 3.402960 
# 
# 
# High freq. dielectric constant tensor:
#      x y z
#    x 1.647140 0.000000 -0.008790 
#    y 0.000000 1.649840 0.000000 
#    z -0.008790 0.000000 1.661580 
# 
# From -- ./inp_files/324321.got.cif
#   From: 2010.06.25/outbox.cif.g09.slc.cpg/sg12_163_cif.got.tgz:324321.got - 2010.06.28 00:19:55.
