data_PCOD8095656
_publ_section_title
;
Structure prediction by ZEFSAII (Michael W. Deem and Ramdas Pophale) SiO2 
 PCOD8095656
Probable space group: C 2/M
;
_chemical_formula_sum "Si O2"
_cell_formula_units_Z 56
_cell_length_a 18.904337
_cell_length_b 9.424649
_cell_length_c 29.478041
_cell_angle_alpha 90.000000
_cell_angle_beta 143.042144
_cell_angle_gamma 90.000000
_cell_volume 3157.650327
_symmetry_space_group_name_H-M "C 2/M"
_symmetry_group_IT_number 12
_symmetry_cell_setting 'monoclinic'
loop_
_space_group_symop_operation_xyz
x,y,z
-x,y,-z
-x,-y,-z
x,-y,z
1/2+x,1/2+y,z
1/2-x,1/2+y,-z
1/2-x,1/2-y,-z
1/2+x,1/2-y,z
loop_
_atom_site_type_symbol
_atom_site_label
_atom_site_fract_x
_atom_site_fract_y
_atom_site_fract_z
Si Si1 0.439771 0.837133 0.697888
Si Si2 0.579227 0.331898 0.000939
Si Si3 0.629065 0.833753 0.437706
Si Si4 0.039404 0.668223 0.569050
Si Si5 0.156587 0.665519 0.868986
Si Si6 0.802959 0.834513 0.699113
Si Si7 0.019605 0.165855 0.870819
O O1 0.438166 0.803976 0.643804
O O2 0.570547 0.800439 0.782783
O O3 0.342372 0.744218 0.673593
O O4 0.408310 0.000000 0.691815
O O5 0.572281 0.500000 0.000046
O O6 0.713204 0.281637 0.077122
O O7 0.500000 0.263205 0.000000
O O8 0.526945 0.280380 0.926153
O O9 0.750000 0.750000 0.500000
O O10 0.545889 0.773249 0.435194
O O11 0.655901 0.000000 0.457882
O O12 0.031096 0.500000 0.564921
O O13 0.173235 0.717291 0.647149
O O14 0.000000 0.729178 0.500000
O O15 0.155894 0.500000 0.881180
O O16 0.117551 0.750293 0.893251
O O17 0.889664 0.799360 0.785237
O O18 0.802906 0.000000 0.686945
O O19 0.048795 0.000000 0.881575
#
# Coordination Sequence:
#
# PCOD8095656 Si02
#       7
#     8   8   8   8   8   8   8
#     4   9  18  31  47  69  94 119 149 185 226 272
#     4   9  17  28  44  68  95 121 152 191 229 265
#     4  10  20  33  49  69  93 120 151 187 225 268
#     4   9  17  29  46  67  89 115 148 184 222 265
#     4   9  17  30  48  67  90 122 153 183 225 273
#     4   9  17  30  49  70  91 118 152 190 229 267
#     4   9  17  29  47  70  92 117 153 192 226 266
#
# _framework density 17.734705000000002
#
# number of rings (size 3 to 8) (size 9 to 14) (size 15 to 20)
#    0.000    2.857    0.000    1.286    0.000    2.857 
#    0.000    6.429    0.000    4.286    0.000    8.000 
#    0.000    0.000    0.000    0.000    0.000    0.000 
#
# Total GULP energy -347174.399698 kJ/mol
# GULP energy per Si atom -12399.085703 kJ/mol
# Density = 1.769434 g / cm^3
# Si number density = 17.734705 Si / 1000 Ang^3
#
#
#
# Elastic Constant Matrix: (Units=GPa)
#
#
# Indices 1 2 3 4 5 6 
#
# 1 182.8942 39.5137 102.0207 0.0000 4.1330 0.0000
# 2 39.5137 28.9644 30.6874 0.0000 0.5835 0.0000
# 3 102.0207 30.6874 127.6742 0.0000 1.7772 0.0000
# 4 0.0000 0.0000 0.0000 18.7296 0.0000 0.4976
# 5 4.1330 0.5835 1.7772 0.0000 35.6591 0.0000
# 6 0.0000 0.0000 0.0000 0.4976 0.0000 23.4199
#
#
#
# Elastic Compliance Matrix: (Units=1/GPa)
#
#
# Indices 1 2 3 4 5 6 
#
# 1 0.011017 -0.007645 -0.006954 0.000000 -0.000805 0.000000
# 2 -0.007645 0.051628 -0.006305 0.000000 0.000356 0.000000
# 3 -0.006954 -0.006305 0.014903 0.000000 0.000166 0.000000
# 4 0.000000 0.000000 0.000000 0.053422 0.000000 -0.001135
# 5 -0.000805 0.000356 0.000166 0.000000 0.028123 0.000000
# 6 0.000000 0.000000 0.000000 -0.001135 0.000000 0.042723
#
#
# Mechanical properties :
#
#
# Convention : Reuss Voigt Hill
#
# Bulk Modulus (GPa) = 27.98147 75.99738 51.98942
# Shear Modulus (GPa) = 19.56673 26.71578 23.14125
#
# Velocity S-wave (km/s) = 3.32520 3.88546 3.61620
# Velocity P-wave (km/s) = 5.52763 7.94194 6.84212
#
# Compressibility (1/GPa) = 0.03573794
#
# Stress axis : x y z
#
# Youngs Moduli (GPa) = 90.77054 19.36951 67.10175
#
# Poissons Ratio (x) = 0.14808 0.46666
# Poissons Ratio (y) = 0.69393 0.42309
# Poissons Ratio (z) = 0.63126 0.12213
#
# Static dielectric constant tensor:
#      x y z
#    x 3.485000 0.000000 -0.005150 
#    y 0.000000 3.000140 0.000000 
#    z -0.005150 0.000000 3.520920 
# 
# 
# High freq. dielectric constant tensor:
#      x y z
#    x 1.684230 0.000000 0.000910 
#    y 0.000000 1.649000 0.000000 
#    z 0.000910 0.000000 1.702110 
# 
# From -- ./inp_files/342484.got.cif
#   From: 2010.06.25/outbox.cif.g09.slc.cpg/sg12_172_cif.got.tgz:342484.got - 2010.06.28 00:19:55.
