data_PCOD8095746
_publ_section_title
;
Structure prediction by ZEFSAII (Michael W. Deem and Ramdas Pophale) SiO2 
 PCOD8095746
Probable space group: C 2/M
;
_chemical_formula_sum "Si O2"
_cell_formula_units_Z 56
_cell_length_a 26.336991
_cell_length_b 13.941239
_cell_length_c 24.698923
_cell_angle_alpha 90.000000
_cell_angle_beta 160.731104
_cell_angle_gamma 90.000000
_cell_volume 2992.692511
_symmetry_space_group_name_H-M "C 2/M"
_symmetry_group_IT_number 12
_symmetry_cell_setting 'monoclinic'
loop_
_space_group_symop_operation_xyz
x,y,z
-x,y,-z
-x,-y,-z
x,-y,z
1/2+x,1/2+y,z
1/2-x,1/2+y,-z
1/2-x,1/2-y,-z
1/2+x,1/2-y,z
loop_
_atom_site_type_symbol
_atom_site_label
_atom_site_fract_x
_atom_site_fract_y
_atom_site_fract_z
Si Si1 0.017307 0.107442 0.384880
Si Si2 0.134406 0.391649 0.522200
Si Si3 0.602130 0.257048 0.919045
Si Si4 0.258461 0.238239 0.572765
Si Si5 0.294844 0.394960 0.060717
Si Si6 0.846892 0.721857 0.259957
Si Si7 0.818435 0.110490 0.815281
O O1 0.172197 0.146996 0.512360
O O2 0.891234 0.100167 0.212004
O O3 0.949411 0.179146 0.363377
O O4 0.048148 0.000000 0.439877
O O5 0.137235 0.500000 0.506393
O O6 0.179250 0.333517 0.514523
O O7 0.256253 0.372445 0.692571
O O8 0.960938 0.365946 0.363847
O O9 0.432843 0.232580 0.769632
O O10 0.601428 0.355576 0.884148
O O11 0.648979 0.173007 0.924313
O O12 0.715769 0.268860 0.083295
O O13 0.250000 0.250000 0.500000
O O14 0.234409 0.500000 0.983645
O O15 0.764813 0.693188 0.233254
O O16 0.782518 0.000000 0.797810
O O17 0.000000 0.129264 0.000000
#
# Coordination Sequence:
#
# PCOD8095746 Si02
#       7
#     8   8   8   8   8   8   8
#     4   9  19  36  54  76 106 145 186 224 274 328
#     4  10  22  37  55  83 114 147 186 224 275 338
#     4  10  20  33  49  77 107 136 186 227 269 330
#     4  11  21  35  54  77 109 144 183 234 277 323
#     4   9  18  32  49  69 102 142 178 222 270 319
#     4  10  20  35  57  80 111 147 181 229 274 330
#     4  10  20  36  59  87 116 146 181 224 280 336
#
# _framework density 18.712246
#
# number of rings (size 3 to 8) (size 9 to 14) (size 15 to 20)
#    0.000    2.143    1.429    1.714    2.000    4.000 
#    0.000    0.000    0.000    7.286    0.000    0.000 
#    0.000    0.000    0.000    0.000    0.000    0.000 
#
# Total GULP energy -347048.583141 kJ/mol
# GULP energy per Si atom -12394.592255 kJ/mol
# Density = 1.866966 g / cm^3
# Si number density = 18.712246 Si / 1000 Ang^3
#
#
#
# Elastic Constant Matrix: (Units=GPa)
#
#
# Indices 1 2 3 4 5 6 
#
# 1 75.8448 46.4021 15.5612 -0.0006 11.1833 0.0007
# 2 46.4021 120.9606 14.3660 0.0004 6.3376 0.0013
# 3 15.5612 14.3660 87.5511 -0.0102 9.4399 -0.0029
# 4 -0.0006 0.0004 -0.0102 19.3403 -0.0025 -0.9018
# 5 11.1833 6.3376 9.4399 -0.0025 27.3924 -0.0003
# 6 0.0007 0.0013 -0.0029 -0.9018 -0.0003 21.9233
#
#
#
# Elastic Compliance Matrix: (Units=1/GPa)
#
#
# Indices 1 2 3 4 5 6 
#
# 1 0.018321 -0.006555 -0.001597 -0.000001 -0.005413 -0.000001
# 2 -0.006555 0.010839 -0.000656 -0.000001 0.000394 -0.000001
# 3 -0.001597 -0.000656 0.012179 0.000006 -0.003393 0.000002
# 4 -0.000001 -0.000001 0.000006 0.051805 0.000003 0.002131
# 5 -0.005413 0.000394 -0.003393 0.000003 0.039794 0.000000
# 6 -0.000001 -0.000001 0.000002 0.002131 0.000000 0.045701
#
#
# Mechanical properties :
#
#
# Convention : Reuss Voigt Hill
#
# Bulk Modulus (GPa) = 42.15301 48.55723 45.35512
# Shear Modulus (GPa) = 24.49020 27.59970 26.04495
#
# Velocity S-wave (km/s) = 3.62163 3.84468 3.73482
# Velocity P-wave (km/s) = 6.32962 6.76125 6.54899
#
# Compressibility (1/GPa) = 0.02372310
#
# Stress axis : x y z
#
# Youngs Moduli (GPa) = 54.58251 92.26003 82.10657
#
# Poissons Ratio (x) = 0.60475 0.13114
# Poissons Ratio (y) = 0.35778 0.05386
# Poissons Ratio (z) = 0.08718 0.06052
#
# Static dielectric constant tensor:
#      x y z
#    x 3.296420 0.000000 0.142680 
#    y 0.000000 3.832550 -0.000020 
#    z 0.142680 -0.000020 3.515330 
# 
# 
# High freq. dielectric constant tensor:
#      x y z
#    x 1.709980 0.000000 0.007540 
#    y 0.000000 1.725900 0.000000 
#    z 0.007540 0.000000 1.732450 
# 
# From -- ./inp_files/96495.got.cif
#   From: 2010.06.25/outbox.cif.g09.slc.cpg/sg12_49_cif.got.tgz:96495.got - 2010.06.28 00:19:55.
