data_PCOD8095702
_publ_section_title
;
Structure prediction by ZEFSAII (Michael W. Deem and Ramdas Pophale) SiO2 
 PCOD8095702
Probable space group: C 2/M
;
_chemical_formula_sum "Si O2"
_cell_formula_units_Z 64
_cell_length_a 24.546038
_cell_length_b 9.092310
_cell_length_c 16.553763
_cell_angle_alpha 90.000000
_cell_angle_beta 92.698363
_cell_angle_gamma 90.000000
_cell_volume 3690.375563
_symmetry_space_group_name_H-M "C 2/M"
_symmetry_group_IT_number 12
_symmetry_cell_setting 'monoclinic'
loop_
_space_group_symop_operation_xyz
x,y,z
-x,y,-z
-x,-y,-z
x,-y,z
1/2+x,1/2+y,z
1/2-x,1/2+y,-z
1/2-x,1/2-y,-z
1/2+x,1/2-y,z
loop_
_atom_site_type_symbol
_atom_site_label
_atom_site_fract_x
_atom_site_fract_y
_atom_site_fract_z
Si Si1 0.413890 0.171232 0.135897
Si Si2 0.706442 0.170390 0.603416
Si Si3 0.101897 0.672051 0.052790
Si Si4 0.689836 0.325168 0.152689
Si Si5 0.305841 0.174537 0.217445
Si Si6 0.476862 0.673024 0.829138
Si Si7 0.884054 0.828533 0.706992
Si Si8 0.327159 0.670315 0.549454
O O1 0.359045 0.230608 0.174329
O O2 0.463099 0.263054 0.177598
O O3 0.423187 0.000000 0.155362
O O4 0.410585 0.201110 0.041090
O O5 0.694494 0.237532 0.691292
O O6 0.667111 0.246666 0.535128
O O7 0.769029 0.200780 0.586606
O O8 0.692119 0.000000 0.600407
O O9 0.102845 0.500000 0.073533
O O10 0.160923 0.743256 0.075740
O O11 0.053673 0.748701 0.099129
O O12 0.683465 0.500000 0.140265
O O13 0.752522 0.273605 0.163738
O O14 0.659069 0.267826 0.230849
O O15 0.303634 0.000000 0.222059
O O16 0.478484 0.500000 0.847725
O O17 0.445101 0.705158 0.742541
O O18 0.872161 0.765196 0.616272
O O19 0.872194 0.000000 0.699229
O O20 0.336106 0.500000 0.531037
#
# Coordination Sequence:
#
# PCOD8095702 Si02
#       8
#     8   8   8   8   8   8   8   8
#     4  10  21  35  50  69  96 131 165 198 243 291
#     4   9  16  27  46  71  97 125 157 190 227 280
#     4  10  20  33  49  72 100 125 154 202 255 290
#     4   9  16  30  51  72  94 127 167 197 230 283
#     4   9  17  32  52  69  95 136 169 191 229 292
#     4  10  20  34  54  74  92 121 166 209 241 281
#     4   8  14  27  48  71  93 120 154 195 238 280
#     4   9  15  26  46  71  98 122 149 190 240 282
#
# _framework density 17.342407000000001
#
# number of rings (size 3 to 8) (size 9 to 14) (size 15 to 20)
#    0.000    2.750    1.250    1.875    0.000    3.000 
#    0.000    5.000    0.000    0.750    0.000    5.250 
#    0.000    0.000    0.000    0.000    0.000    0.000 
#
# Total GULP energy -396671.747224 kJ/mol
# GULP energy per Si atom -12395.992101 kJ/mol
# Density = 1.730294 g / cm^3
# Si number density = 17.342407 Si / 1000 Ang^3
#
#
#
# Elastic Constant Matrix: (Units=GPa)
#
#
# Indices 1 2 3 4 5 6 
#
# 1 126.2004 39.9999 44.5496 0.0000 18.0436 0.0000
# 2 39.9999 49.2948 31.3889 0.0000 11.8433 0.0000
# 3 44.5496 31.3889 59.4998 0.0000 24.2258 0.0000
# 4 0.0000 0.0000 0.0000 23.2832 0.0000 6.3302
# 5 18.0436 11.8433 24.2258 0.0000 25.8323 0.0000
# 6 0.0000 0.0000 0.0000 6.3302 0.0000 24.0995
#
#
#
# Elastic Compliance Matrix: (Units=1/GPa)
#
#
# Indices 1 2 3 4 5 6 
#
# 1 0.011831 -0.005971 -0.005595 0.000000 -0.000280 0.000000
# 2 -0.005971 0.033612 -0.014050 0.000000 0.001937 0.000000
# 3 -0.005595 -0.014050 0.039139 0.000000 -0.026355 0.000000
# 4 0.000000 0.000000 0.000000 0.046252 0.000000 -0.012149
# 5 -0.000280 0.001937 -0.026355 0.000000 0.062735 0.000000
# 6 0.000000 0.000000 0.000000 -0.012149 0.000000 0.044686
#
#
# Mechanical properties :
#
#
# Convention : Reuss Voigt Hill
#
# Bulk Modulus (GPa) = 29.98402 51.87464 40.92933
# Shear Modulus (GPa) = 16.63321 22.58012 19.60667
#
# Velocity S-wave (km/s) = 3.10030 3.61226 3.36603
# Velocity P-wave (km/s) = 5.49025 6.88294 6.22566
#
# Compressibility (1/GPa) = 0.03335109
#
# Stress axis : x y z
#
# Youngs Moduli (GPa) = 84.52110 29.75110 25.55027
#
# Poissons Ratio (x) = 0.17764 0.14295
# Poissons Ratio (y) = 0.50465 0.35898
# Poissons Ratio (z) = 0.47288 0.41800
#
# Static dielectric constant tensor:
#      x y z
#    x 3.237310 0.000000 0.239010 
#    y 0.000000 3.024910 0.000000 
#    z 0.239010 0.000000 3.386230 
# 
# 
# High freq. dielectric constant tensor:
#      x y z
#    x 1.655590 0.000000 0.022960 
#    y 0.000000 1.645900 0.000000 
#    z 0.022960 0.000000 1.668410 
# 
# From -- ./inp_files/287692.got.cif
#   From: 2010.06.25/outbox.cif.g09.slc.cpg/sg12_144_cif.got.tgz:287692.got - 2010.06.28 00:19:55.
