data_PCOD8095620
_publ_section_title
;
Structure prediction by ZEFSAII (Michael W. Deem and Ramdas Pophale) SiO2 
 PCOD8095620
Probable space group: C 2/M
;
_chemical_formula_sum "Si O2"
_cell_formula_units_Z 56
_cell_length_a 29.408370
_cell_length_b 9.391639
_cell_length_c 15.333080
_cell_angle_alpha 90.000000
_cell_angle_beta 46.161392
_cell_angle_gamma 90.000000
_cell_volume 3054.596632
_symmetry_space_group_name_H-M "C 2/M"
_symmetry_group_IT_number 12
_symmetry_cell_setting 'monoclinic'
loop_
_space_group_symop_operation_xyz
x,y,z
-x,y,-z
-x,-y,-z
x,-y,z
1/2+x,1/2+y,z
1/2-x,1/2+y,-z
1/2-x,1/2-y,-z
1/2+x,1/2-y,z
loop_
_atom_site_type_symbol
_atom_site_label
_atom_site_fract_x
_atom_site_fract_y
_atom_site_fract_z
Si Si1 0.844946 0.666055 0.340817
Si Si2 0.485737 0.169217 0.115202
Si Si3 0.661955 0.831785 0.333295
Si Si4 0.972622 0.330333 0.445748
Si Si5 0.561723 0.169061 0.177303
Si Si6 0.742661 0.834258 0.382789
Si Si7 0.813230 0.669260 0.894136
O O1 0.841255 0.500000 0.324025
O O2 0.917149 0.719829 0.240689
O O3 0.805287 0.746307 0.319424
O O4 0.814839 0.701097 0.474778
O O5 0.539849 0.224095 0.110682
O O6 0.487281 0.000000 0.109451
O O7 0.500000 0.232530 0.000000
O O8 0.598950 0.773388 0.463843
O O9 0.721186 0.787216 0.314415
O O10 0.667472 0.775489 0.227575
O O11 0.656244 0.000000 0.337037
O O12 0.976121 0.500000 0.436968
O O13 0.000000 0.273731 0.500000
O O14 0.012873 0.266091 0.312629
O O15 0.632737 0.216068 0.108331
O O16 0.557822 0.000000 0.185856
O O17 0.759720 0.000000 0.365315
O O18 0.802114 0.500000 0.910843
O O19 0.750000 0.750000 0.000000
#
# Coordination Sequence:
#
# PCOD8095620 Si02
#       7
#     8   8   8   8   8   8   8
#     4   9  17  30  47  69  95 122 155 193 232 272
#     4   9  17  28  43  64  91 121 152 189 230 271
#     4   9  16  27  44  69  96 120 150 191 238 277
#     4   9  13  21  41  67  90 109 139 191 239 266
#     4   9  16  27  44  67  91 115 149 193 236 271
#     4   9  17  29  47  69  95 124 152 188 233 278
#     4  10  20  33  48  68  95 125 155 187 226 278
#
# _framework density 18.333026
#
# number of rings (size 3 to 8) (size 9 to 14) (size 15 to 20)
#    0.000    2.857    1.429    0.857    0.000    4.571 
#    0.000    2.143    0.000    1.286    0.000    3.000 
#    0.000    0.000    0.000    0.000    0.000    0.000 
#
# Total GULP energy -347007.224880 kJ/mol
# GULP energy per Si atom -12393.115174 kJ/mol
# Density = 1.829130 g / cm^3
# Si number density = 18.333026 Si / 1000 Ang^3
#
#
#
# Elastic Constant Matrix: (Units=GPa)
#
#
# Indices 1 2 3 4 5 6 
#
# 1 178.8783 24.8969 74.8801 0.0000 0.6533 0.0000
# 2 24.8969 14.8084 16.8539 -0.0003 -4.6466 0.0001
# 3 74.8801 16.8539 101.3577 0.0000 -6.9263 0.0000
# 4 0.0000 -0.0003 0.0000 15.7510 0.0000 -4.8107
# 5 0.6533 -4.6466 -6.9263 0.0000 33.8501 0.0000
# 6 0.0000 0.0001 0.0000 -4.8107 0.0000 18.2997
#
#
#
# Elastic Compliance Matrix: (Units=1/GPa)
#
#
# Indices 1 2 3 4 5 6 
#
# 1 0.009265 -0.010387 -0.005301 0.000000 -0.002689 0.000000
# 2 -0.010387 0.097557 -0.007727 0.000002 0.012011 0.000000
# 3 -0.005301 -0.007727 0.015215 0.000000 0.002155 0.000000
# 4 0.000000 0.000002 0.000000 0.069031 0.000000 0.018147
# 5 -0.002689 0.012011 0.002155 0.000000 0.031684 0.000000
# 6 0.000000 0.000000 0.000000 0.018147 0.000000 0.059416
#
#
# Mechanical properties :
#
#
# Convention : Reuss Voigt Hill
#
# Bulk Modulus (GPa) = 13.29705 58.70070 35.99888
# Shear Modulus (GPa) = 14.12161 25.47438 19.79800
#
# Velocity S-wave (km/s) = 2.77841 3.73169 3.28976
# Velocity P-wave (km/s) = 4.19065 7.11730 5.84027
#
# Compressibility (1/GPa) = 0.07520462
#
# Stress axis : x y z
#
# Youngs Moduli (GPa) = 107.93083 10.25044 65.72587
#
# Poissons Ratio (x) = 0.10648 0.34844
# Poissons Ratio (y) = 1.12113 0.50787
# Poissons Ratio (z) = 0.57218 0.07921
#
# Static dielectric constant tensor:
#      x y z
#    x 3.764520 0.000000 0.093120 
#    y 0.000000 2.724540 0.000000 
#    z 0.093120 0.000000 3.498280 
# 
# 
# High freq. dielectric constant tensor:
#      x y z
#    x 1.730390 0.000000 0.000010 
#    y 0.000000 1.632640 0.000000 
#    z 0.000010 0.000000 1.709330 
# 
# From -- ./inp_files/250532.got.cif
#   From: 2010.06.25/outbox.cif.g09.slc.cpg/sg12_126_cif.got.tgz:250532.got - 2010.06.28 00:19:55.
