data_PCOD8095056
_publ_section_title
;
Structure prediction by ZEFSAII (Michael W. Deem and Ramdas Pophale) SiO2 
 PCOD8095056
Probable space group: C 2/M
;
_chemical_formula_sum "Si O2"
_cell_formula_units_Z 64
_cell_length_a 19.578035
_cell_length_b 9.413742
_cell_length_c 19.139422
_cell_angle_alpha 90.000000
_cell_angle_beta 77.557347
_cell_angle_gamma 90.000000
_cell_volume 3444.592583
_symmetry_space_group_name_H-M "C 2/M"
_symmetry_group_IT_number 12
_symmetry_cell_setting 'monoclinic'
loop_
_space_group_symop_operation_xyz
x,y,z
-x,y,-z
-x,-y,-z
x,-y,z
1/2+x,1/2+y,z
1/2-x,1/2+y,-z
1/2-x,1/2-y,-z
1/2+x,1/2-y,z
loop_
_atom_site_type_symbol
_atom_site_label
_atom_site_fract_x
_atom_site_fract_y
_atom_site_fract_z
Si Si1 0.689315 0.337353 0.218276
Si Si2 0.691892 0.336577 0.379624
Si Si3 0.666666 0.831671 0.873247
Si Si4 0.083516 0.331477 0.760362
Si Si5 0.927799 0.669084 0.983451
Si Si6 0.658234 0.168558 0.607291
Si Si7 0.581492 0.168332 0.484272
Si Si8 0.927967 0.667597 0.826387
O O1 0.669524 0.500000 0.206876
O O2 0.710855 0.318671 0.294094
O O3 0.753120 0.286437 0.154766
O O4 0.624842 0.238277 0.215398
O O5 0.674580 0.500000 0.401055
O O6 0.760212 0.283809 0.408216
O O7 0.623862 0.242759 0.412336
O O8 0.621337 0.766252 0.819982
O O9 0.659172 0.000000 0.871800
O O10 0.636527 0.776478 0.954059
O O11 0.092223 0.500000 0.758484
O O12 0.117480 0.266517 0.682816
O O13 0.003150 0.287045 0.781187
O O14 0.931683 0.500000 0.980153
O O15 0.917206 0.727193 0.907416
O O16 0.000000 0.728132 0.000000
O O17 0.618375 0.223334 0.547168
O O18 0.654615 0.000000 0.611285
O O19 0.500000 0.214532 0.500000
O O20 0.587950 0.000000 0.473513
O O21 0.916909 0.500000 0.826680
#
# Coordination Sequence:
#
# PCOD8095056 Si02
#       8
#     8   8   8   8   8   8   8   8
#     4  10  21  35  51  74 104 139 174 209 254 308
#     4  10  20  36  57  75  98 137 180 213 242 296
#     4   9  15  28  50  74 101 134 175 216 251 295
#     4   9  15  27  51  78  99 129 175 218 250 290
#     4   9  15  26  47  78 106 128 169 224 260 290
#     4   9  17  32  53  76 102 134 174 210 246 303
#     4  10  22  36  53  81 111 134 160 205 264 313
#     4  10  20  31  51  81 107 133 169 218 267 301
#
# _framework density 18.579846
#
# number of rings (size 3 to 8) (size 9 to 14) (size 15 to 20)
#    0.000    2.500    2.500    0.375    1.750    1.250 
#    0.000    0.000    0.000    1.875    0.000    0.000 
#    0.000    0.000    0.000    0.000    0.000    0.000 
#
# Total GULP energy -396708.914722 kJ/mol
# GULP energy per Si atom -12397.153585 kJ/mol
# Density = 1.853756 g / cm^3
# Si number density = 18.579846 Si / 1000 Ang^3
#
#
#
# Elastic Constant Matrix: (Units=GPa)
#
#
# Indices 1 2 3 4 5 6 
#
# 1 125.7808 31.7450 39.0596 0.0000 -7.9344 0.0000
# 2 31.7450 22.0473 18.3751 0.0000 -4.8426 0.0000
# 3 39.0596 18.3751 81.5855 0.0000 -17.1779 0.0000
# 4 0.0000 0.0000 0.0000 17.1348 0.0000 0.7590
# 5 -7.9344 -4.8426 -17.1779 0.0000 38.1975 0.0000
# 6 0.0000 0.0000 0.0000 0.7590 0.0000 20.7847
#
#
#
# Elastic Compliance Matrix: (Units=1/GPa)
#
#
# Indices 1 2 3 4 5 6 
#
# 1 0.012885 -0.016542 -0.002564 0.000000 -0.000574 0.000000
# 2 -0.016542 0.077161 -0.008972 0.000000 0.002311 0.000000
# 3 -0.002564 -0.008972 0.016739 0.000000 0.005858 0.000000
# 4 0.000000 0.000000 0.000000 0.058455 0.000000 -0.002135
# 5 -0.000574 0.002311 0.005858 0.000000 0.028988 0.000000
# 6 0.000000 0.000000 0.000000 -0.002135 0.000000 0.048190
#
#
# Mechanical properties :
#
#
# Convention : Reuss Voigt Hill
#
# Bulk Modulus (GPa) = 19.75193 45.30812 32.53003
# Shear Modulus (GPa) = 15.85031 24.57231 20.21131
#
# Velocity S-wave (km/s) = 2.92394 3.64060 3.30177
# Velocity P-wave (km/s) = 4.69608 6.48926 5.66408
#
# Compressibility (1/GPa) = 0.05062797
#
# Stress axis : x y z
#
# Youngs Moduli (GPa) = 77.60759 12.95995 59.74171
#
# Poissons Ratio (x) = 0.21438 0.15318
# Poissons Ratio (y) = 1.28379 0.53602
# Poissons Ratio (z) = 0.19899 0.11628
#
# Static dielectric constant tensor:
#      x y z
#    x 3.466680 0.000000 -0.083830 
#    y 0.000000 2.791870 0.000000 
#    z -0.083830 0.000000 3.691320 
# 
# 
# High freq. dielectric constant tensor:
#      x y z
#    x 1.730160 0.000000 -0.006340 
#    y 0.000000 1.653770 0.000000 
#    z -0.006340 0.000000 1.734750 
# 
# From -- ./inp_files/276443.got.cif
#   From: 2010.06.25/outbox.cif.g09.slc.cpg/sg12_139_cif.got.tgz:276443.got - 2010.06.28 00:19:55.
