data_PCOD8095297
_publ_section_title
;
Structure prediction by ZEFSAII (Michael W. Deem and Ramdas Pophale) SiO2 
 PCOD8095297
Probable space group: C 2/M
;
_chemical_formula_sum "Si O2"
_cell_formula_units_Z 56
_cell_length_a 19.231758
_cell_length_b 9.218005
_cell_length_c 19.678462
_cell_angle_alpha 90.000000
_cell_angle_beta 118.411871
_cell_angle_gamma 90.000000
_cell_volume 3068.369205
_symmetry_space_group_name_H-M "C 2/M"
_symmetry_group_IT_number 12
_symmetry_cell_setting 'monoclinic'
loop_
_space_group_symop_operation_xyz
x,y,z
-x,y,-z
-x,-y,-z
x,-y,z
1/2+x,1/2+y,z
1/2-x,1/2+y,-z
1/2-x,1/2-y,-z
1/2+x,1/2-y,z
loop_
_atom_site_type_symbol
_atom_site_label
_atom_site_fract_x
_atom_site_fract_y
_atom_site_fract_z
Si Si1 0.617436 0.672161 0.375826
Si Si2 0.767533 0.330755 0.365254
Si Si3 0.831590 0.162483 0.811925
Si Si4 0.914577 0.171976 0.487345
Si Si5 0.216198 0.668888 0.083056
Si Si6 0.860181 0.330738 0.094596
Si Si7 0.014555 0.834668 0.204736
O O1 0.619970 0.500000 0.373663
O O2 0.703316 0.728333 0.390478
O O3 0.597594 0.730416 0.441548
O O4 0.548344 0.723226 0.292519
O O5 0.784596 0.500000 0.385123
O O6 0.734979 0.301623 0.274804
O O7 0.848386 0.242353 0.409098
O O8 0.828480 0.277523 0.870879
O O9 0.917523 0.174247 0.819540
O O10 0.818264 0.000000 0.834223
O O11 0.000000 0.221719 0.500000
O O12 0.905497 0.000000 0.479721
O O13 0.234813 0.500000 0.097856
O O14 0.298850 0.752367 0.115829
O O15 0.160532 0.703707 0.993108
O O16 0.857114 0.500000 0.109090
O O17 0.946489 0.271971 0.149686
O O18 0.983203 0.000000 0.196354
#
# Coordination Sequence:
#
# PCOD8095297 Si02
#       7
#     8   8   8   8   8   8   8
#     4   8  16  33  53  72  99 134 169 205 248 300
#     4   9  18  34  54  73  97 132 170 207 249 298
#     4   9  19  35  54  77 104 133 170 217 261 303
#     4  10  20  32  48  74 105 133 165 208 253 297
#     4  10  21  36  54  75 102 138 174 209 256 311
#     4  10  21  36  53  76 106 136 170 213 255 301
#     4   9  18  34  55  76 101 138 177 210 254 310
#
# _framework density 18.250737000000001
#
# number of rings (size 3 to 8) (size 9 to 14) (size 15 to 20)
#    0.000    2.714    0.000    3.000    0.000    4.857 
#    0.000    7.143    0.000    0.000    0.000    0.000 
#    0.000    0.000    0.000    0.000    0.000    0.000 
#
# Total GULP energy -347224.623334 kJ/mol
# GULP energy per Si atom -12400.879405 kJ/mol
# Density = 1.820920 g / cm^3
# Si number density = 18.250737 Si / 1000 Ang^3
#
#
#
# Elastic Constant Matrix: (Units=GPa)
#
#
# Indices 1 2 3 4 5 6 
#
# 1 60.6161 23.6366 32.6683 0.0000 17.2888 0.0000
# 2 23.6366 53.3311 29.3318 0.0000 11.1016 0.0000
# 3 32.6683 29.3318 66.7334 0.0000 19.2931 0.0000
# 4 0.0000 0.0000 0.0000 29.0815 0.0000 4.4573
# 5 17.2888 11.1016 19.2931 0.0000 32.9833 0.0000
# 6 0.0000 0.0000 0.0000 4.4573 0.0000 30.1474
#
#
#
# Elastic Compliance Matrix: (Units=1/GPa)
#
#
# Indices 1 2 3 4 5 6 
#
# 1 0.024649 -0.005230 -0.007873 0.000000 -0.006555 0.000000
# 2 -0.005230 0.025993 -0.008578 0.000000 -0.000989 0.000000
# 3 -0.007873 -0.008578 0.024771 0.000000 -0.007475 0.000000
# 4 0.000000 0.000000 0.000000 0.035183 0.000000 -0.005202
# 5 -0.006555 -0.000989 -0.007475 0.000000 0.038460 0.000000
# 6 0.000000 0.000000 0.000000 -0.005202 0.000000 0.033939
#
#
# Mechanical properties :
#
#
# Convention : Reuss Voigt Hill
#
# Bulk Modulus (GPa) = 31.20117 39.10597 35.15357
# Shear Modulus (GPa) = 21.09338 24.77870 22.93604
#
# Velocity S-wave (km/s) = 3.40333 3.68867 3.54887
# Velocity P-wave (km/s) = 5.70758 6.29407 6.00799
#
# Compressibility (1/GPa) = 0.03205008
#
# Stress axis : x y z
#
# Youngs Moduli (GPa) = 40.56929 38.47214 40.37047
#
# Poissons Ratio (x) = 0.20122 0.31782
# Poissons Ratio (y) = 0.21219 0.34631
# Poissons Ratio (z) = 0.31939 0.33003
#
# Static dielectric constant tensor:
#      x y z
#    x 3.354010 0.000000 -0.079140 
#    y 0.000000 3.185190 0.000000 
#    z -0.079140 0.000000 3.408100 
# 
# 
# High freq. dielectric constant tensor:
#      x y z
#    x 1.706890 0.000000 0.000380 
#    y 0.000000 1.692410 0.000000 
#    z 0.000380 0.000000 1.711400 
# 
# From -- ./inp_files/314358.got.cif
#   From: 2010.06.25/outbox.cif.g09.slc.cpg/sg12_158_cif.got.tgz:314358.got - 2010.06.28 00:19:55.
