data_PCOD8095741
_publ_section_title
;
Structure prediction by ZEFSAII (Michael W. Deem and Ramdas Pophale) SiO2 
 PCOD8095741
Probable space group: C 2/M
;
_chemical_formula_sum "Si O2"
_cell_formula_units_Z 48
_cell_length_a 17.797998
_cell_length_b 14.362216
_cell_length_c 11.436996
_cell_angle_alpha 90.000000
_cell_angle_beta 66.923515
_cell_angle_gamma 90.000000
_cell_volume 2689.577822
_symmetry_space_group_name_H-M "C 2/M"
_symmetry_group_IT_number 12
_symmetry_cell_setting 'monoclinic'
loop_
_space_group_symop_operation_xyz
x,y,z
-x,y,-z
-x,-y,-z
x,-y,z
1/2+x,1/2+y,z
1/2-x,1/2+y,-z
1/2-x,1/2-y,-z
1/2+x,1/2-y,z
loop_
_atom_site_type_symbol
_atom_site_label
_atom_site_fract_x
_atom_site_fract_y
_atom_site_fract_z
Si Si1 0.757336 0.727536 0.173076
Si Si2 0.015615 0.598441 0.128212
Si Si3 0.295486 0.893452 0.934868
Si Si4 0.628879 0.610424 0.372629
Si Si5 0.561912 0.273865 0.855885
Si Si6 0.032319 0.891140 0.657582
O O1 0.719257 0.829639 0.170352
O O2 0.708678 0.674691 0.305342
O O3 0.850306 0.747060 0.149138
O O4 0.748250 0.656573 0.069692
O O5 0.981567 0.500000 0.199340
O O6 0.968608 0.687371 0.207537
O O7 0.109997 0.605343 0.095845
O O8 0.000000 0.602609 0.000000
O O9 0.263038 0.000000 0.936931
O O10 0.650436 0.500000 0.355730
O O11 0.561121 0.636949 0.315576
O O12 0.594220 0.642588 0.519220
O O13 0.562592 0.358983 0.766266
O O14 0.500000 0.296639 0.000000
O O15 0.036872 0.000000 0.656387
#
# Coordination Sequence:
#
# PCOD8095741 Si02
#       6
#     8   8   8   8   8   8
#     4  11  21  32  53  79 106 139 179 215 265 313
#     4   9  16  30  49  69  99 134 169 210 255 299
#     4  10  20  33  49  75 109 140 172 215 261 314
#     4   9  19  37  60  80  99 137 186 223 256 303
#     4  11  21  34  51  80 114 138 172 212 269 323
#     4   9  20  38  57  77 106 140 177 221 263 309
#
# _framework density 17.846668000000001
#
# number of rings (size 3 to 8) (size 9 to 14) (size 15 to 20)
#    0.000    2.167    3.333    2.500    2.333    2.333 
#    0.000    0.000    0.000    1.000    0.000    4.667 
#    0.000    0.000    0.000    0.000    0.000    0.000 
#
# Total GULP energy -297367.755618 kJ/mol
# GULP energy per Si atom -12390.323151 kJ/mol
# Density = 1.780605 g / cm^3
# Si number density = 17.846668 Si / 1000 Ang^3
#
#
#
# Elastic Constant Matrix: (Units=GPa)
#
#
# Indices 1 2 3 4 5 6 
#
# 1 61.8907 35.6760 41.1746 0.0000 -16.2342 0.0000
# 2 35.6760 60.5882 30.8080 0.0000 0.6305 0.0000
# 3 41.1746 30.8080 81.1127 0.0000 -5.9364 0.0000
# 4 0.0000 0.0000 0.0000 23.9259 0.0000 1.5781
# 5 -16.2342 0.6305 -5.9364 0.0000 18.2973 0.0000
# 6 0.0000 0.0000 0.0000 1.5781 0.0000 29.3557
#
#
#
# Elastic Compliance Matrix: (Units=1/GPa)
#
#
# Indices 1 2 3 4 5 6 
#
# 1 0.047503 -0.021752 -0.013021 0.000000 0.038672 0.000000
# 2 -0.021752 0.030613 -0.002126 0.000000 -0.021044 0.000000
# 3 -0.013021 -0.002126 0.019365 0.000000 -0.005197 0.000000
# 4 0.000000 0.000000 0.000000 0.041944 0.000000 -0.002255
# 5 0.038672 -0.021044 -0.005197 0.000000 0.088004 0.000000
# 6 0.000000 0.000000 0.000000 -0.002255 0.000000 0.034186
#
#
# Mechanical properties :
#
#
# Convention : Reuss Voigt Hill
#
# Bulk Modulus (GPa) = 42.22455 46.54543 44.38499
# Shear Modulus (GPa) = 14.56414 20.71129 17.63772
#
# Velocity S-wave (km/s) = 2.85979 3.41033 3.14712
# Velocity P-wave (km/s) = 5.88350 6.45325 6.17495
#
# Compressibility (1/GPa) = 0.02368290
#
# Stress axis : x y z
#
# Youngs Moduli (GPa) = 21.05122 32.66580 51.63828
#
# Poissons Ratio (x) = 0.71056 0.67241
# Poissons Ratio (y) = 0.45792 0.10976
# Poissons Ratio (z) = 0.27412 0.06943
#
# Static dielectric constant tensor:
#      x y z
#    x 3.336370 0.000000 0.006190 
#    y 0.000000 3.814750 0.000000 
#    z 0.006190 0.000000 3.121550 
# 
# 
# High freq. dielectric constant tensor:
#      x y z
#    x 1.690500 0.000000 -0.006930 
#    y 0.000000 1.702660 0.000000 
#    z -0.006930 0.000000 1.653560 
# 
# From -- ./inp_files/142714.got.cif
#   From: 2010.06.25/outbox.cif.g09.slc.cpg/sg12_72_cif.got.tgz:142714.got - 2010.06.28 00:19:55.
