data_PCOD8095071
_publ_section_title
;
Structure prediction by ZEFSAII (Michael W. Deem and Ramdas Pophale) SiO2 
 PCOD8095071
Probable space group: C 2/M
;
_chemical_formula_sum "Si O2"
_cell_formula_units_Z 48
_cell_length_a 25.815017
_cell_length_b 7.743724
_cell_length_c 11.917641
_cell_angle_alpha 90.000000
_cell_angle_beta 75.524776
_cell_angle_gamma 90.000000
_cell_volume 2306.761508
_symmetry_space_group_name_H-M "C 2/M"
_symmetry_group_IT_number 12
_symmetry_cell_setting 'monoclinic'
loop_
_space_group_symop_operation_xyz
x,y,z
-x,y,-z
-x,-y,-z
x,-y,z
1/2+x,1/2+y,z
1/2-x,1/2+y,-z
1/2-x,1/2-y,-z
1/2+x,1/2-y,z
loop_
_atom_site_type_symbol
_atom_site_label
_atom_site_fract_x
_atom_site_fract_y
_atom_site_fract_z
Si Si1 0.868151 0.300756 0.294727
Si Si2 0.902776 0.706149 0.758452
Si Si3 0.709805 0.812775 0.112969
Si Si4 0.859553 0.699737 0.544037
Si Si5 0.577470 0.500000 0.870138
Si Si6 0.248371 0.808275 0.312902
Si Si7 0.956136 0.000000 0.861506
O O1 0.880922 0.500000 0.253558
O O2 0.889541 0.259520 0.409669
O O3 0.893811 0.173591 0.189735
O O4 0.804598 0.267185 0.340902
O O5 0.913970 0.500000 0.771776
O O6 0.847390 0.780888 0.842757
O O7 0.898689 0.747008 0.626918
O O8 0.947268 0.825458 0.792937
O O9 0.740701 0.820998 0.213744
O O10 0.692069 0.000000 0.085025
O O11 0.750000 0.750000 0.000000
O O12 0.844462 0.500000 0.559627
O O13 0.802236 0.796068 0.576373
O O14 0.517722 0.500000 0.858653
O O15 0.579110 0.500000 0.004959
O O16 0.250149 0.000000 0.260340
#
# Coordination Sequence:
#
# PCOD8095071 Si02
#       7
#     8   8   8   8   4   8   4
#     4  10  23  40  61  90 128 163 205 258 302 364
#     4   9  21  39  63  90 120 161 199 250 317 366
#     4  10  21  32  50  83 122 161 203 248 297 364
#     4   9  19  37  59  92 129 164 200 240 303 375
#     4  11  28  45  65  91 113 162 219 261 318 367
#     4  10  20  31  52  87 125 169 200 232 299 364
#     4  11  26  47  67  87 117 158 215 271 318 360
#
# _framework density 20.808392999999999
#
# number of rings (size 3 to 8) (size 9 to 14) (size 15 to 20)
#    0.000    2.167    0.000    2.500   11.667    1.333 
#    0.000    3.333    0.000    3.000    0.000    0.000 
#    0.000    0.000    0.000    0.000    0.000    0.000 
#
# Total GULP energy -297323.896259 kJ/mol
# GULP energy per Si atom -12388.495677 kJ/mol
# Density = 2.076103 g / cm^3
# Si number density = 20.808393 Si / 1000 Ang^3
#
#
#
# Elastic Constant Matrix: (Units=GPa)
#
#
# Indices 1 2 3 4 5 6 
#
# 1 64.0308 34.1423 18.5298 0.0000 14.6234 0.0000
# 2 34.1423 96.1102 35.7688 0.0000 5.8898 0.0000
# 3 18.5298 35.7688 79.7849 0.0000 6.8535 0.0000
# 4 0.0000 0.0000 0.0000 26.0338 0.0000 7.9360
# 5 14.6234 5.8898 6.8535 0.0000 21.1688 0.0000
# 6 0.0000 0.0000 0.0000 7.9360 0.0000 21.6154
#
#
#
# Elastic Compliance Matrix: (Units=1/GPa)
#
#
# Indices 1 2 3 4 5 6 
#
# 1 0.022616 -0.006826 -0.001042 0.000000 -0.013386 0.000000
# 2 -0.006826 0.014609 -0.005164 0.000000 0.002322 0.000000
# 3 -0.001042 -0.005164 0.015332 0.000000 -0.002807 0.000000
# 4 0.000000 0.000000 0.000000 0.043252 0.000000 -0.015880
# 5 -0.013386 0.002322 -0.002807 0.000000 0.056749 0.000000
# 6 0.000000 0.000000 0.000000 -0.015880 0.000000 0.052094
#
#
# Mechanical properties :
#
#
# Convention : Reuss Voigt Hill
#
# Bulk Modulus (GPa) = 37.74585 46.31195 42.02890
# Shear Modulus (GPa) = 20.87272 23.86259 22.36765
#
# Velocity S-wave (km/s) = 3.17060 3.39008 3.28218
# Velocity P-wave (km/s) = 5.61985 6.13419 5.88264
#
# Compressibility (1/GPa) = 0.02649298
#
# Stress axis : x y z
#
# Youngs Moduli (GPa) = 44.21651 68.45133 65.22361
#
# Poissons Ratio (x) = 0.46724 0.06799
# Poissons Ratio (y) = 0.30181 0.33679
# Poissons Ratio (z) = 0.04609 0.35346
#
# Static dielectric constant tensor:
#      x y z
#    x 3.467340 0.000000 0.189650 
#    y 0.000000 4.125520 0.000000 
#    z 0.189650 0.000000 4.049100 
# 
# 
# High freq. dielectric constant tensor:
#      x y z
#    x 1.787570 0.000000 0.014860 
#    y 0.000000 1.817910 0.000000 
#    z 0.014860 0.000000 1.814120 
# 
# From -- ./inp_files/172977.got.cif
#   From: 2010.06.25/outbox.cif.g09.slc.cpg/sg12_87_cif.got.tgz:172977.got - 2010.06.28 00:19:55.
