data_PCOD8095942
_publ_section_title
;
Structure prediction by ZEFSAII (Michael W. Deem and Ramdas Pophale) SiO2 
 PCOD8095942
Probable space group: C 2/M
;
_chemical_formula_sum "Si O2"
_cell_formula_units_Z 36
_cell_length_a 5.263980
_cell_length_b 24.650759
_cell_length_c 16.127988
_cell_angle_alpha 90.000000
_cell_angle_beta 121.983739
_cell_angle_gamma 90.000000
_cell_volume 1775.097434
_symmetry_space_group_name_H-M "C 2/M"
_symmetry_group_IT_number 12
_symmetry_cell_setting 'monoclinic'
loop_
_space_group_symop_operation_xyz
x,y,z
-x,y,-z
-x,-y,-z
x,-y,z
1/2+x,1/2+y,z
1/2-x,1/2+y,-z
1/2-x,1/2-y,-z
1/2+x,1/2-y,z
loop_
_atom_site_type_symbol
_atom_site_label
_atom_site_fract_x
_atom_site_fract_y
_atom_site_fract_z
Si Si1 0.095510 0.891930 0.110860
Si Si2 0.162645 0.436932 0.608125
Si Si3 0.161825 0.436155 0.275856
Si Si4 0.150016 0.000000 0.935600
Si Si5 0.431014 0.273211 0.110913
O O1 0.454119 0.898579 0.180458
O O2 0.954184 0.945658 0.131651
O O3 0.954565 0.837790 0.124469
O O4 0.000000 0.891734 0.000000
O O5 0.206601 0.500000 0.597997
O O6 0.500530 0.413522 0.675748
O O7 0.000000 0.410317 0.500000
O O8 0.955898 0.425539 0.651401
O O9 0.130963 0.500000 0.246278
O O10 0.500000 0.000000 0.000000
O O11 0.000000 0.000000 0.000000
O O12 0.765712 0.248671 0.164275
O O13 0.250000 0.250000 0.000000
#
# Coordination Sequence:
#
# PCOD8095942 Si02
#       5
#     8   8   8   4   8
#     4  11  22  38  55  78 119 153 188 224 275 325
#     4   9  18  34  54  74 106 144 180 225 272 323
#     4  10  20  33  50  81 109 143 186 218 267 336
#     4  10  24  34  50  74 103 154 187 210 264 324
#     4  10  21  37  55  73  97 148 194 237 266 305
#
# _framework density 20.280578999999999
#
# number of rings (size 3 to 8) (size 9 to 14) (size 15 to 20)
#    0.000    2.000    3.333    0.667    3.111    8.000 
#    0.000    0.000    0.000    0.000    0.000    0.000 
#    0.000   17.778    0.000    0.000    0.000    0.000 
#
# Total GULP energy -223051.889647 kJ/mol
# GULP energy per Si atom -12391.771647 kJ/mol
# Density = 2.023442 g / cm^3
# Si number density = 20.280579 Si / 1000 Ang^3
#
#
#
# Elastic Constant Matrix: (Units=GPa)
#
#
# Indices 1 2 3 4 5 6 
#
# 1 116.7544 37.2377 9.7014 0.0000 28.2861 0.0000
# 2 37.2377 140.0065 10.2789 0.0000 14.7406 0.0000
# 3 9.7014 10.2789 83.7929 0.0000 19.9092 0.0000
# 4 0.0000 0.0000 0.0000 1.7611 0.0000 5.4935
# 5 28.2861 14.7406 19.9092 0.0000 28.7933 0.0000
# 6 0.0000 0.0000 0.0000 5.4935 0.0000 18.6883
#
#
#
# Elastic Compliance Matrix: (Units=1/GPa)
#
#
# Indices 1 2 3 4 5 6 
#
# 1 0.011952 -0.002055 0.001685 0.000000 -0.011855 0.000000
# 2 -0.002055 0.007903 -0.000299 0.000000 -0.001821 0.000000
# 3 0.001685 -0.000299 0.014518 0.000000 -0.011541 0.000000
# 4 0.000000 0.000000 0.000000 6.837643 0.000000 -2.009956
# 5 -0.011855 -0.001821 -0.011541 0.000000 0.055289 0.000000
# 6 0.000000 0.000000 0.000000 -2.009956 0.000000 0.644345
#
#
# Mechanical properties :
#
#
# Convention : Reuss Voigt Hill
#
# Bulk Modulus (GPa) = 30.27014 50.55442 40.41228
# Shear Modulus (GPa) = 0.65928 28.73760 14.69844
#
# Velocity S-wave (km/s) = 0.57078 3.76839 2.69505
# Velocity P-wave (km/s) = 3.92332 6.62691 5.44557
#
# Compressibility (1/GPa) = 0.03303585
#
# Stress axis : x y z
#
# Youngs Moduli (GPa) = 83.66513 126.54057 68.88077
#
# Poissons Ratio (x) = 0.25998 -0.11606
# Poissons Ratio (y) = 0.17189 0.02059
# Poissons Ratio (z) = -0.14098 0.03783
#
# Static dielectric constant tensor:
#      x y z
#    x 4.405360 0.000000 0.330540 
#    y 0.000000 18.998220 0.000000 
#    z 0.330540 0.000000 3.623270 
# 
# 
# High freq. dielectric constant tensor:
#      x y z
#    x 1.812000 0.000000 0.017920 
#    y 0.000000 1.750580 0.000000 
#    z 0.017920 0.000000 1.759560 
# 
# From -- ./inp_files/191435.got.cif
#   From: 2010.06.25/outbox.cif.g09.slc.cpg/sg12_96_cif.got.tgz:191435.got - 2010.06.28 00:19:55.
