data_PCOD8095248
_publ_section_title
;
Structure prediction by ZEFSAII (Michael W. Deem and Ramdas Pophale) SiO2 
 PCOD8095248
Probable space group: C 2/M
;
_chemical_formula_sum "Si O2"
_cell_formula_units_Z 40
_cell_length_a 30.623865
_cell_length_b 7.958214
_cell_length_c 9.697996
_cell_angle_alpha 90.000000
_cell_angle_beta 108.662552
_cell_angle_gamma 90.000000
_cell_volume 2239.236642
_symmetry_space_group_name_H-M "C 2/M"
_symmetry_group_IT_number 12
_symmetry_cell_setting 'monoclinic'
loop_
_space_group_symop_operation_xyz
x,y,z
-x,y,-z
-x,-y,-z
x,-y,z
1/2+x,1/2+y,z
1/2-x,1/2+y,-z
1/2-x,1/2-y,-z
1/2+x,1/2-y,z
loop_
_atom_site_type_symbol
_atom_site_label
_atom_site_fract_x
_atom_site_fract_y
_atom_site_fract_z
Si Si1 0.109106 0.816614 0.447227
Si Si2 0.212618 0.194216 0.853048
Si Si3 0.947404 0.500000 0.611018
Si Si4 0.890494 0.813611 0.225405
Si Si5 0.292346 0.809518 0.452870
Si Si6 0.947946 0.500000 0.282077
O O1 0.077525 0.667064 0.354242
O O2 0.104952 0.813660 0.606539
O O3 0.162544 0.796280 0.460343
O O4 0.092541 0.000000 0.374940
O O5 0.162242 0.229603 0.867296
O O6 0.220265 0.296740 0.720840
O O7 0.217931 0.000000 0.820260
O O8 0.250000 0.250000 0.000000
O O9 0.945216 0.500000 0.444017
O O10 0.999676 0.500000 0.717447
O O11 0.923357 0.667976 0.197103
O O12 0.904389 0.000000 0.182726
O O13 0.250000 0.750000 0.500000
O O14 0.304257 0.000000 0.499924
#
# Coordination Sequence:
#
# PCOD8095248 Si02
#       6
#     8   8   4   8   8   4
#     4   9  16  28  42  60  89 121 154 194 240 286
#     4  10  20  32  48  71  97 131 168 201 245 292
#     4   9  16  26  38  64  83 121 159 195 234 291
#     4   8  16  27  40  60  88 120 154 193 237 285
#     4  11  20  32  49  70  98 131 167 203 243 293
#     4   9  16  24  42  58  87 119 161 191 238 287
#
# _framework density 17.863230000000001
#
# number of rings (size 3 to 8) (size 9 to 14) (size 15 to 20)
#    0.000    2.600    1.000    3.600    5.600    0.800 
#    0.000    4.000    0.000    0.000    0.000    0.000 
#    0.000    3.200    0.000    8.400    0.000    7.000 
#
# Total GULP energy -247906.078456 kJ/mol
# GULP energy per Si atom -12395.303923 kJ/mol
# Density = 1.782257 g / cm^3
# Si number density = 17.863230 Si / 1000 Ang^3
#
#
#
# Elastic Constant Matrix: (Units=GPa)
#
#
# Indices 1 2 3 4 5 6 
#
# 1 129.7522 78.2192 28.5728 0.0000 18.7824 0.0000
# 2 78.2192 162.5515 18.3277 0.0000 16.0148 0.0000
# 3 28.5728 18.3277 22.2598 0.0000 10.4250 0.0000
# 4 0.0000 0.0000 0.0000 14.4583 0.0000 4.0635
# 5 18.7824 16.0148 10.4250 0.0000 19.9165 0.0000
# 6 0.0000 0.0000 0.0000 4.0635 0.0000 31.2432
#
#
#
# Elastic Compliance Matrix: (Units=1/GPa)
#
#
# Indices 1 2 3 4 5 6 
#
# 1 0.013829 -0.005003 -0.012463 0.000000 -0.002495 0.000000
# 2 -0.005003 0.008765 0.000393 0.000000 -0.002535 0.000000
# 3 -0.012463 0.000393 0.073181 0.000000 -0.026869 0.000000
# 4 0.000000 0.000000 0.000000 0.071788 0.000000 -0.009337
# 5 -0.002495 -0.002535 -0.026869 0.000000 0.068665 0.000000
# 6 0.000000 0.000000 0.000000 -0.009337 0.000000 0.033221
#
#
# Mechanical properties :
#
#
# Convention : Reuss Voigt Hill
#
# Bulk Modulus (GPa) = 16.22619 62.75587 39.49103
# Shear Modulus (GPa) = 15.42549 25.75321 20.58935
#
# Velocity S-wave (km/s) = 2.94178 3.80108 3.39870
# Velocity P-wave (km/s) = 4.54335 7.38050 6.12837
#
# Compressibility (1/GPa) = 0.06162876
#
# Stress axis : x y z
#
# Youngs Moduli (GPa) = 72.31308 114.09069 13.66466
#
# Poissons Ratio (x) = 0.57084 0.17030
# Poissons Ratio (y) = 0.36181 -0.00537
# Poissons Ratio (z) = 0.90122 -0.04483
#
# Static dielectric constant tensor:
#      x y z
#    x 3.566570 0.000000 0.341750 
#    y 0.000000 3.797000 0.000000 
#    z 0.341750 0.000000 2.759220 
# 
# 
# High freq. dielectric constant tensor:
#      x y z
#    x 1.687880 0.000000 0.020760 
#    y 0.000000 1.718630 0.000000 
#    z 0.020760 0.000000 1.611200 
# 
# From -- ./inp_files/101224.got.cif
#   From: 2010.06.25/outbox.cif.g09.slc.cpg/sg12_51_cif.got.tgz:101224.got - 2010.06.28 00:19:55.
