data_PCOD8095527
_publ_section_title
;
Structure prediction by ZEFSAII (Michael W. Deem and Ramdas Pophale) SiO2 
 PCOD8095527
Probable space group: C 2/M
;
_chemical_formula_sum "Si O2"
_cell_formula_units_Z 44
_cell_length_a 20.483193
_cell_length_b 24.328711
_cell_length_c 11.308709
_cell_angle_alpha 90.000000
_cell_angle_beta 24.252931
_cell_angle_gamma 90.000000
_cell_volume 2314.854715
_symmetry_space_group_name_H-M "C 2/M"
_symmetry_group_IT_number 12
_symmetry_cell_setting 'monoclinic'
loop_
_space_group_symop_operation_xyz
x,y,z
-x,y,-z
-x,-y,-z
x,-y,z
1/2+x,1/2+y,z
1/2-x,1/2+y,-z
1/2-x,1/2-y,-z
1/2+x,1/2-y,z
loop_
_atom_site_type_symbol
_atom_site_label
_atom_site_fract_x
_atom_site_fract_y
_atom_site_fract_z
Si Si1 0.048826 0.362357 0.727633
Si Si2 0.700939 0.768549 0.346769
Si Si3 0.407678 0.354949 0.880911
Si Si4 0.130696 0.435578 0.381521
Si Si5 0.242987 0.343436 0.635387
Si Si6 0.000000 0.797187 0.500000
O O1 0.060773 0.306225 0.632475
O O2 0.073909 0.415143 0.603552
O O3 0.187052 0.359766 0.597595
O O4 0.876106 0.368171 0.070325
O O5 0.754563 0.722878 0.353570
O O6 0.632150 0.739800 0.344183
O O7 0.848940 0.806399 0.065018
O O8 0.585353 0.370568 0.627867
O O9 0.407334 0.335090 0.746387
O O10 0.297381 0.408103 0.071209
O O11 0.159300 0.500000 0.340344
O O12 0.000000 0.419271 0.500000
#
# Coordination Sequence:
#
# PCOD8095527 Si02
#       6
#     8   8   8   8   8   4
#     4  10  22  37  60  81 121 155 190 230 281 338
#     4  10  20  32  54  84 124 160 189 217 274 344
#     4  10  22  35  59  83 118 150 195 234 277 334
#     4  10  24  44  63  81 107 148 194 241 296 340
#     4  10  20  37  55  91 119 153 183 229 282 333
#     4  10  20  32  53  86 121 152 188 230 280 334
#
# _framework density 19.007673
#
# number of rings (size 3 to 8) (size 9 to 14) (size 15 to 20)
#    0.000    2.000    0.000    3.273   10.182    4.364 
#    0.000    5.000    0.000    0.000    0.000    0.000 
#    0.000    0.000    0.000    0.000    0.000    0.000 
#
# Total GULP energy -272853.276001 kJ/mol
# GULP energy per Si atom -12402.421636 kJ/mol
# Density = 1.896441 g / cm^3
# Si number density = 19.007673 Si / 1000 Ang^3
#
#
#
# Elastic Constant Matrix: (Units=GPa)
#
#
# Indices 1 2 3 4 5 6 
#
# 1 125.2382 57.7145 60.2551 -0.0034 -5.0400 -0.0024
# 2 57.7145 101.6354 63.3117 -0.0017 -4.2452 0.0003
# 3 60.2551 63.3117 129.8862 -0.0152 -12.3049 -0.0051
# 4 -0.0034 -0.0017 -0.0152 15.9726 -0.0011 0.2346
# 5 -5.0400 -4.2452 -12.3049 -0.0011 34.5211 0.0004
# 6 -0.0024 0.0003 -0.0051 0.2346 0.0004 23.7355
#
#
#
# Elastic Compliance Matrix: (Units=1/GPa)
#
#
# Indices 1 2 3 4 5 6 
#
# 1 0.011637 -0.004661 -0.003126 -0.000001 0.000012 0.000001
# 2 -0.004661 0.016014 -0.005715 -0.000005 -0.000748 -0.000002
# 3 -0.003126 -0.005715 0.012238 0.000011 0.003203 0.000002
# 4 -0.000001 -0.000005 0.000011 0.062616 0.000005 -0.000619
# 5 0.000012 -0.000748 0.003203 0.000005 0.030019 0.000000
# 6 0.000001 -0.000002 0.000002 -0.000619 0.000000 0.042137
#
#
# Mechanical properties :
#
#
# Convention : Reuss Voigt Hill
#
# Bulk Modulus (GPa) = 77.59540 79.92469 78.76004
# Shear Modulus (GPa) = 24.27661 26.54440 25.41050
#
# Velocity S-wave (km/s) = 3.57767 3.74104 3.66027
# Velocity P-wave (km/s) = 7.61434 7.79747 7.70645
#
# Compressibility (1/GPa) = 0.01288736
#
# Stress axis : x y z
#
# Youngs Moduli (GPa) = 85.93438 62.44410 81.71211
#
# Poissons Ratio (x) = 0.29103 0.25539
# Poissons Ratio (y) = 0.40050 0.46697
# Poissons Ratio (z) = 0.26859 0.35686
#
# Static dielectric constant tensor:
#      x y z
#    x 3.601700 -0.000020 0.131380 
#    y -0.000020 3.178340 0.000060 
#    z 0.131380 0.000060 3.606430 
# 
# 
# High freq. dielectric constant tensor:
#      x y z
#    x 1.748930 0.000000 0.006140 
#    y 0.000000 1.706350 0.000010 
#    z 0.006140 0.000010 1.752510 
# 
# From -- ./inp_files/170558.got.cif
#   From: 2010.06.25/outbox.cif.g09.slc.cpg/sg12_86_cif.got.tgz:170558.got - 2010.06.28 00:19:55.
