data_PCOD8095749
_publ_section_title
;
Structure prediction by ZEFSAII (Michael W. Deem and Ramdas Pophale) SiO2 
 PCOD8095749
Probable space group: C 2/M
;
_chemical_formula_sum "Si O2"
_cell_formula_units_Z 64
_cell_length_a 30.879115
_cell_length_b 9.756566
_cell_length_c 23.960837
_cell_angle_alpha 90.000000
_cell_angle_beta 28.438164
_cell_angle_gamma 90.000000
_cell_volume 3437.655493
_symmetry_space_group_name_H-M "C 2/M"
_symmetry_group_IT_number 12
_symmetry_cell_setting 'monoclinic'
loop_
_space_group_symop_operation_xyz
x,y,z
-x,y,-z
-x,-y,-z
x,-y,z
1/2+x,1/2+y,z
1/2-x,1/2+y,-z
1/2-x,1/2-y,-z
1/2+x,1/2-y,z
loop_
_atom_site_type_symbol
_atom_site_label
_atom_site_fract_x
_atom_site_fract_y
_atom_site_fract_z
Si Si1 0.024382 0.163117 0.145946
Si Si2 0.908538 0.655644 0.631562
Si Si3 0.837106 0.157531 0.413086
Si Si4 0.746170 0.156102 0.283191
Si Si5 0.557522 0.654410 0.313213
Si Si6 0.353998 0.654852 0.524210
Si Si7 0.563109 0.337228 0.977904
Si Si8 0.663807 0.657734 0.081241
O O1 0.110202 0.212615 0.086820
O O2 0.926018 0.214476 0.279502
O O3 0.024745 0.000000 0.147738
O O4 0.036696 0.221093 0.068990
O O5 0.921358 0.500000 0.637310
O O6 0.829390 0.670624 0.677533
O O7 0.884438 0.745862 0.712910
O O8 0.000000 0.712652 0.500000
O O9 0.750000 0.250000 0.500000
O O10 0.859097 0.169581 0.452738
O O11 0.816214 0.000000 0.419723
O O12 0.722652 0.245732 0.363927
O O13 0.836528 0.211924 0.151657
O O14 0.757935 0.000000 0.290618
O O15 0.571597 0.500000 0.318709
O O16 0.452172 0.697490 0.436598
O O17 0.589926 0.668947 0.213486
O O18 0.329621 0.500000 0.569362
O O19 0.555751 0.500000 0.989071
O O20 0.500000 0.278203 0.000000
O O21 0.696400 0.500000 0.036390
O O22 0.750000 0.750000 0.000000
#
# Coordination Sequence:
#
# PCOD8095749 Si02
#       8
#     8   8   8   8   8   8   8   8
#     4   9  18  36  58  80 112 148 182 227 279 329
#     4  10  20  33  49  78 115 143 172 220 277 324
#     4  10  21  37  59  85 110 142 181 226 283 337
#     4  10  21  35  54  82 111 142 185 228 270 323
#     4  10  20  35  54  77 107 145 188 223 264 333
#     4  10  20  36  56  80 111 144 181 224 274 331
#     4   9  19  34  54  81 107 138 186 233 267 313
#     4  10  21  37  57  81 110 148 188 228 277 333
#
# _framework density 18.617339000000001
#
# number of rings (size 3 to 8) (size 9 to 14) (size 15 to 20)
#    0.000    2.250    2.500    0.000    3.500    1.750 
#    0.000    0.625    0.000    1.125    0.000    0.000 
#    0.000    0.000    0.000    0.000    0.000    0.000 
#
# Total GULP energy -396740.689658 kJ/mol
# GULP energy per Si atom -12398.146552 kJ/mol
# Density = 1.857497 g / cm^3
# Si number density = 18.617339 Si / 1000 Ang^3
#
#
#
# Elastic Constant Matrix: (Units=GPa)
#
#
# Indices 1 2 3 4 5 6 
#
# 1 96.8336 37.4671 57.3893 0.0052 3.9541 -0.0088
# 2 37.4671 56.8191 44.9977 -0.0023 0.8141 0.0062
# 3 57.3893 44.9977 138.6000 -0.0155 -0.9002 0.0086
# 4 0.0052 -0.0023 -0.0155 29.1038 -0.0042 -5.8753
# 5 3.9541 0.8141 -0.9002 -0.0042 32.7039 0.0047
# 6 -0.0088 0.0062 0.0086 -5.8753 0.0047 41.6699
#
#
#
# Elastic Compliance Matrix: (Units=1/GPa)
#
#
# Indices 1 2 3 4 5 6 
#
# 1 0.015572 -0.006901 -0.004219 -0.000005 -0.001827 0.000005
# 2 -0.006901 0.026770 -0.005834 -0.000001 0.000007 -0.000004
# 3 -0.004219 -0.005834 0.010862 0.000006 0.000954 -0.000002
# 4 -0.000005 -0.000001 0.000006 0.035366 0.000005 0.004987
# 5 -0.001827 0.000007 0.000954 0.000005 0.030824 -0.000003
# 6 0.000005 -0.000004 -0.000002 0.004987 -0.000003 0.024701
#
#
# Mechanical properties :
#
#
# Convention : Reuss Voigt Hill
#
# Bulk Modulus (GPa) = 51.82203 63.55119 57.68661
# Shear Modulus (GPa) = 27.10954 30.85542 28.98248
#
# Velocity S-wave (km/s) = 3.82009 4.07547 3.94984
# Velocity P-wave (km/s) = 6.88137 7.50703 7.20100
#
# Compressibility (1/GPa) = 0.01929681
#
# Stress axis : x y z
#
# Youngs Moduli (GPa) = 64.21629 37.35518 92.06172
#
# Poissons Ratio (x) = 0.25778 0.38845
# Poissons Ratio (y) = 0.44315 0.53706
# Poissons Ratio (z) = 0.27096 0.21792
#
# Static dielectric constant tensor:
#      x y z
#    x 3.576780 0.000060 -0.032440 
#    y 0.000060 3.307420 -0.000050 
#    z -0.032440 -0.000050 3.453300 
# 
# 
# High freq. dielectric constant tensor:
#      x y z
#    x 1.730900 0.000000 0.002380 
#    y 0.000000 1.686490 0.000000 
#    z 0.002380 0.000000 1.728930 
# 
# From -- ./inp_files/249993.got.cif
#   From: 2010.06.25/outbox.cif.g09.slc.cpg/sg12_125_cif.got.tgz:249993.got - 2010.06.28 00:19:55.
