data_PCOD8095478
_publ_section_title
;
Structure prediction by ZEFSAII (Michael W. Deem and Ramdas Pophale) SiO2 
 PCOD8095478
Probable space group: C 2/M
;
_chemical_formula_sum "Si O2"
_cell_formula_units_Z 56
_cell_length_a 9.433710
_cell_length_b 20.813787
_cell_length_c 14.732042
_cell_angle_alpha 90.000000
_cell_angle_beta 105.089190
_cell_angle_gamma 90.000000
_cell_volume 2792.920946
_symmetry_space_group_name_H-M "C 2/M"
_symmetry_group_IT_number 12
_symmetry_cell_setting 'monoclinic'
loop_
_space_group_symop_operation_xyz
x,y,z
-x,y,-z
-x,-y,-z
x,-y,z
1/2+x,1/2+y,z
1/2-x,1/2+y,-z
1/2-x,1/2-y,-z
1/2+x,1/2-y,z
loop_
_atom_site_type_symbol
_atom_site_label
_atom_site_fract_x
_atom_site_fract_y
_atom_site_fract_z
Si Si1 0.643118 0.206518 0.920485
Si Si2 0.503585 0.572109 0.137247
Si Si3 0.660346 0.837692 0.532750
Si Si4 0.348460 0.254463 0.803877
Si Si5 0.260586 0.423815 0.963989
Si Si6 0.185401 0.802306 0.619207
Si Si7 0.932589 0.862409 0.682613
O O1 0.472003 0.227968 0.894429
O O2 0.707177 0.216080 0.830037
O O3 0.632649 0.129926 0.943407
O O4 0.750000 0.250000 0.000000
O O5 0.517590 0.500000 0.108346
O O6 0.641549 0.601455 0.105505
O O7 0.510014 0.577842 0.247967
O O8 0.347523 0.594133 0.071159
O O9 0.500000 0.870706 0.500000
O O10 0.723504 0.838411 0.442289
O O11 0.640456 0.767577 0.574380
O O12 0.771948 0.877907 0.614799
O O13 0.287445 0.199927 0.725429
O O14 0.431167 0.307027 0.757480
O O15 0.209330 0.500000 0.950866
O O16 0.038239 0.842417 0.617325
#
# Coordination Sequence:
#
# PCOD8095478 Si02
#       7
#     8   8   8   8   8   8   8
#     4  12  23  35  54  83 122 151 189 243 295 335
#     4   9  18  33  56  81 105 143 196 241 275 329
#     4  10  20  32  52  77 110 146 177 219 276 354
#     4  11  22  33  51  83 115 150 182 230 286 343
#     4   9  19  35  56  80 112 157 203 238 274 337
#     4  10  20  33  50  77 111 146 178 221 279 350
#     4  11  19  33  54  79 112 139 180 230 288 340
#
# _framework density 20.050692999999999
#
# number of rings (size 3 to 8) (size 9 to 14) (size 15 to 20)
#    0.000    1.714    2.857    5.143    4.000    0.000 
#    0.000    0.000    0.000    4.714    0.000    0.000 
#    0.000    0.000    0.000    0.000    0.000    0.000 
#
# Total GULP energy -346892.313940 kJ/mol
# GULP energy per Si atom -12389.011212 kJ/mol
# Density = 2.000506 g / cm^3
# Si number density = 20.050693 Si / 1000 Ang^3
#
#
#
# Elastic Constant Matrix: (Units=GPa)
#
#
# Indices 1 2 3 4 5 6 
#
# 1 80.9768 4.9776 28.3578 0.0000 8.3250 0.0000
# 2 4.9776 45.1137 11.2776 0.0000 6.5638 0.0000
# 3 28.3578 11.2776 107.5806 0.0000 10.6956 0.0000
# 4 0.0000 0.0000 0.0000 21.7548 0.0000 1.1187
# 5 8.3250 6.5638 10.6956 0.0000 37.6252 0.0000
# 6 0.0000 0.0000 0.0000 1.1187 0.0000 15.7052
#
#
#
# Elastic Compliance Matrix: (Units=1/GPa)
#
#
# Indices 1 2 3 4 5 6 
#
# 1 0.013766 -0.000378 -0.003389 0.000000 -0.002017 0.000000
# 2 -0.000378 0.023201 -0.001995 0.000000 -0.003397 0.000000
# 3 -0.003389 -0.001995 0.010588 0.000000 -0.001912 0.000000
# 4 0.000000 0.000000 0.000000 0.046136 0.000000 -0.003286
# 5 -0.002017 -0.003397 -0.001912 0.000000 0.028160 0.000000
# 6 0.000000 0.000000 0.000000 -0.003286 0.000000 0.063907
#
#
# Mechanical properties :
#
#
# Convention : Reuss Voigt Hill
#
# Bulk Modulus (GPa) = 27.75338 35.87748 31.81543
# Shear Modulus (GPa) = 23.89003 27.62091 25.75547
#
# Velocity S-wave (km/s) = 3.45553 3.71557 3.58791
# Velocity P-wave (km/s) = 5.45826 6.02822 5.75031
#
# Compressibility (1/GPa) = 0.03603164
#
# Stress axis : x y z
#
# Youngs Moduli (GPa) = 72.64015 43.10194 94.44855
#
# Poissons Ratio (x) = 0.01631 0.32005
# Poissons Ratio (y) = 0.02749 0.18839
# Poissons Ratio (z) = 0.24615 0.08597
#
# Static dielectric constant tensor:
#      x y z
#    x 3.612470 0.000000 0.023820 
#    y 0.000000 3.360850 0.000000 
#    z 0.023820 0.000000 3.982330 
# 
# 
# High freq. dielectric constant tensor:
#      x y z
#    x 1.773850 0.000000 -0.001620 
#    y 0.000000 1.731200 0.000000 
#    z -0.001620 0.000000 1.797750 
# 
# From -- ./inp_files/198497.got.cif
#   From: 2010.06.25/outbox.cif.g09.slc.cpg/sg12_100_cif.got.tgz:198497.got - 2010.06.28 00:19:55.
