data_PCOD8095090
_publ_section_title
;
Structure prediction by ZEFSAII (Michael W. Deem and Ramdas Pophale) SiO2 
 PCOD8095090
Probable space group: C 2/M
;
_chemical_formula_sum "Si O2"
_cell_formula_units_Z 32
_cell_length_a 8.971042
_cell_length_b 17.638893
_cell_length_c 12.740022
_cell_angle_alpha 90.000000
_cell_angle_beta 53.459788
_cell_angle_gamma 90.000000
_cell_volume 1619.710544
_symmetry_space_group_name_H-M "C 2/M"
_symmetry_group_IT_number 12
_symmetry_cell_setting 'monoclinic'
loop_
_space_group_symop_operation_xyz
x,y,z
-x,y,-z
-x,-y,-z
x,-y,z
1/2+x,1/2+y,z
1/2-x,1/2+y,-z
1/2-x,1/2-y,-z
1/2+x,1/2-y,z
loop_
_atom_site_type_symbol
_atom_site_label
_atom_site_fract_x
_atom_site_fract_y
_atom_site_fract_z
Si Si1 0.692690 0.650444 0.559841
Si Si2 0.052815 0.648913 0.744083
Si Si3 0.852041 0.257034 0.680914
Si Si4 0.991293 0.000000 0.629293
Si Si5 0.937044 0.500000 0.144950
O O1 0.828912 0.627601 0.408769
O O2 0.808356 0.681901 0.609064
O O3 0.550253 0.714710 0.576567
O O4 0.585920 0.574484 0.638447
O O5 0.185543 0.697367 0.765989
O O6 0.980892 0.574181 0.832289
O O7 0.874761 0.697872 0.781684
O O8 0.000000 0.000000 0.500000
O O9 0.782879 0.000000 0.756220
O O10 0.000000 0.500000 0.000000
#
# Coordination Sequence:
#
# PCOD8095090 Si02
#       5
#     8   8   8   4   4
#     4  11  18  32  58  92 121 144 182 235 292 340
#     4  11  19  36  57  86 120 150 188 230 289 344
#     4  10  20  31  59  96 121 142 180 242 291 339
#     4  12  20  37  59  85 111 155 194 237 285 338
#     4  12  26  41  57  79 117 161 197 236 283 336
#
# _framework density 19.756618
#
# number of rings (size 3 to 8) (size 9 to 14) (size 15 to 20)
#    0.000    1.000    5.000    6.000    0.000    1.000 
#    0.000    3.750    0.000    1.500    0.000    0.000 
#    0.000    0.000    0.000    0.000    0.000    0.000 
#
# Total GULP energy -198396.878922 kJ/mol
# GULP energy per Si atom -12399.804933 kJ/mol
# Density = 1.971165 g / cm^3
# Si number density = 19.756618 Si / 1000 Ang^3
#
#
#
# Elastic Constant Matrix: (Units=GPa)
#
#
# Indices 1 2 3 4 5 6 
#
# 1 122.6114 48.8694 22.3983 0.0000 15.3990 0.0000
# 2 48.8694 124.9754 40.7590 0.0000 17.3550 0.0000
# 3 22.3983 40.7590 74.0152 0.0000 10.7793 0.0000
# 4 0.0000 0.0000 0.0000 17.5875 0.0000 13.2736
# 5 15.3990 17.3550 10.7793 0.0000 17.2940 0.0000
# 6 0.0000 0.0000 0.0000 13.2736 0.0000 38.3922
#
#
#
# Elastic Compliance Matrix: (Units=1/GPa)
#
#
# Indices 1 2 3 4 5 6 
#
# 1 0.010172 -0.002992 -0.000603 0.000000 -0.005678 0.000000
# 2 -0.002992 0.011492 -0.004544 0.000000 -0.006036 0.000000
# 3 -0.000603 -0.004544 0.016996 0.000000 -0.005496 0.000000
# 4 0.000000 0.000000 0.000000 0.076933 0.000000 -0.026599
# 5 -0.005678 -0.006036 -0.005496 0.000000 0.072363 0.000000
# 6 0.000000 0.000000 0.000000 -0.026599 0.000000 0.035243
#
#
# Mechanical properties :
#
#
# Convention : Reuss Voigt Hill
#
# Bulk Modulus (GPa) = 44.68127 60.62839 52.65483
# Shear Modulus (GPa) = 20.24807 28.62643 24.43725
#
# Velocity S-wave (km/s) = 3.20484 3.81064 3.52080
# Velocity P-wave (km/s) = 6.02989 7.07924 6.57553
#
# Compressibility (1/GPa) = 0.02238074
#
# Stress axis : x y z
#
# Youngs Moduli (GPa) = 98.31073 87.01957 58.83727
#
# Poissons Ratio (x) = 0.26038 0.03551
# Poissons Ratio (y) = 0.29416 0.26734
# Poissons Ratio (z) = 0.05933 0.39540
#
# Static dielectric constant tensor:
#      x y z
#    x 2.738060 0.000000 1.660870 
#    y 0.000000 4.052900 0.000000 
#    z 1.660870 0.000000 0.964290 
# 
# 
# High freq. dielectric constant tensor:
#      x y z
#    x 1.781950 0.000000 0.008960 
#    y 0.000000 1.790590 0.000000 
#    z 0.008960 0.000000 1.699630 
# 
# From -- ./inp_files/118331.got.cif
#   From: 2010.06.25/outbox.cif.g09.slc.cpg/sg12_60_cif.got.tgz:118331.got - 2010.06.28 00:19:55.
