data_PCOD8095232
_publ_section_title
;
Structure prediction by ZEFSAII (Michael W. Deem and Ramdas Pophale) SiO2 
 PCOD8095232
Probable space group: C 2/M
;
_chemical_formula_sum "Si O2"
_cell_formula_units_Z 64
_cell_length_a 24.538777
_cell_length_b 9.251962
_cell_length_c 16.969768
_cell_angle_alpha 90.000000
_cell_angle_beta 94.654437
_cell_angle_gamma 90.000000
_cell_volume 3839.972283
_symmetry_space_group_name_H-M "C 2/M"
_symmetry_group_IT_number 12
_symmetry_cell_setting 'monoclinic'
loop_
_space_group_symop_operation_xyz
x,y,z
-x,y,-z
-x,-y,-z
x,-y,z
1/2+x,1/2+y,z
1/2-x,1/2+y,-z
1/2-x,1/2-y,-z
1/2+x,1/2-y,z
loop_
_atom_site_type_symbol
_atom_site_label
_atom_site_fract_x
_atom_site_fract_y
_atom_site_fract_z
Si Si1 0.406289 0.170147 0.122175
Si Si2 0.711838 0.169462 0.605215
Si Si3 0.104248 0.829931 0.041505
Si Si4 0.694867 0.332375 0.173957
Si Si5 0.314044 0.170446 0.226889
Si Si6 0.469420 0.832151 0.846381
Si Si7 0.879051 0.665682 0.719218
Si Si8 0.318088 0.833783 0.565574
O O1 0.365630 0.231632 0.184577
O O2 0.467344 0.205322 0.158495
O O3 0.398101 0.000000 0.105206
O O4 0.392595 0.256035 0.042079
O O5 0.685714 0.231437 0.683166
O O6 0.671990 0.204033 0.525717
O O7 0.770273 0.238986 0.596594
O O8 0.722130 0.000000 0.616416
O O9 0.162272 0.795896 0.090141
O O10 0.054430 0.762634 0.085322
O O11 0.093530 0.000000 0.031639
O O12 0.690581 0.500000 0.193604
O O13 0.758200 0.284459 0.174865
O O14 0.668644 0.253080 0.244615
O O15 0.320151 0.000000 0.230583
O O16 0.438657 0.791604 0.760601
O O17 0.461455 0.000000 0.868019
O O18 0.867712 0.500000 0.738122
O O19 0.873318 0.693745 0.624015
O O20 0.299533 0.000000 0.570256
#
# Coordination Sequence:
#
# PCOD8095232 Si02
#       8
#     8   8   8   8   8   8   8   8
#     4  10  20  33  48  64  84 118 158 184 212 261
#     4   9  16  27  44  65  91 120 145 173 212 260
#     4  10  20  32  48  69  90 110 141 190 235 264
#     4   9  17  30  46  65  89 117 146 176 219 269
#     4   9  17  30  47  64  88 121 152 179 208 260
#     4   9  18  32  49  66  86 116 151 185 219 258
#     4   9  16  27  44  67  93 115 141 182 224 256
#     4   9  16  25  42  69  94 114 141 178 219 257
#
# _framework density 16.666786999999999
#
# number of rings (size 3 to 8) (size 9 to 14) (size 15 to 20)
#    0.000    2.750    1.250    0.750    0.000    3.000 
#    0.000    1.250    0.000    0.750    0.000    5.250 
#    0.000    0.000    0.000   13.625    0.000   14.250 
#
# Total GULP energy -396555.441007 kJ/mol
# GULP energy per Si atom -12392.357531 kJ/mol
# Density = 1.662885 g / cm^3
# Si number density = 16.666787 Si / 1000 Ang^3
#
#
#
# Elastic Constant Matrix: (Units=GPa)
#
#
# Indices 1 2 3 4 5 6 
#
# 1 118.2494 30.2119 84.1540 0.0000 -2.5246 0.0000
# 2 30.2119 35.6966 37.5020 0.0000 0.6402 0.0000
# 3 84.1540 37.5020 139.2177 0.0000 13.8983 0.0000
# 4 0.0000 0.0000 0.0000 17.9670 0.0000 1.7865
# 5 -2.5246 0.6402 13.8983 0.0000 19.0289 0.0000
# 6 0.0000 0.0000 0.0000 1.7865 0.0000 16.1543
#
#
#
# Elastic Compliance Matrix: (Units=1/GPa)
#
#
# Indices 1 2 3 4 5 6 
#
# 1 0.016848 -0.003781 -0.010141 0.000000 0.009770 0.000000
# 2 -0.003781 0.040771 -0.009180 0.000000 0.004831 0.000000
# 3 -0.010141 -0.009180 0.017139 0.000000 -0.013555 0.000000
# 4 0.000000 0.000000 0.000000 0.056276 0.000000 -0.006223
# 5 0.009770 0.004831 -0.013555 0.000000 0.063585 0.000000
# 6 0.000000 0.000000 0.000000 -0.006223 0.000000 0.062591
#
#
# Mechanical properties :
#
#
# Convention : Reuss Voigt Hill
#
# Bulk Modulus (GPa) = 35.01999 66.32216 50.67108
# Shear Modulus (GPa) = 15.97782 20.04978 18.01380
#
# Velocity S-wave (km/s) = 3.09959 3.47216 3.29115
# Velocity P-wave (km/s) = 5.81957 7.48024 6.70154
#
# Compressibility (1/GPa) = 0.02855512
#
# Stress axis : x y z
#
# Youngs Moduli (GPa) = 59.35249 24.52721 58.34551
#
# Poissons Ratio (x) = 0.09273 0.59171
# Poissons Ratio (y) = 0.22439 0.53560
# Poissons Ratio (z) = 0.60192 0.22516
#
# Static dielectric constant tensor:
#      x y z
#    x 3.189070 0.000000 0.209070 
#    y 0.000000 3.059640 0.000000 
#    z 0.209070 0.000000 3.502320 
# 
# 
# High freq. dielectric constant tensor:
#      x y z
#    x 1.619810 0.000000 0.024400 
#    y 0.000000 1.630370 0.000000 
#    z 0.024400 0.000000 1.647750 
# 
# From -- ./inp_files/287632.got.cif
#   From: 2010.06.25/outbox.cif.g09.slc.cpg/sg12_144_cif.got.tgz:287632.got - 2010.06.28 00:19:55.
