data_PCOD8095562
_publ_section_title
;
Structure prediction by ZEFSAII (Michael W. Deem and Ramdas Pophale) SiO2 
 PCOD8095562
Probable space group: C 2/M
;
_chemical_formula_sum "Si O2"
_cell_formula_units_Z 56
_cell_length_a 12.516836
_cell_length_b 25.163974
_cell_length_c 14.478180
_cell_angle_alpha 90.000000
_cell_angle_beta 139.028683
_cell_angle_gamma 90.000000
_cell_volume 2990.063740
_symmetry_space_group_name_H-M "C 2/M"
_symmetry_group_IT_number 12
_symmetry_cell_setting 'monoclinic'
loop_
_space_group_symop_operation_xyz
x,y,z
-x,y,-z
-x,-y,-z
x,-y,z
1/2+x,1/2+y,z
1/2-x,1/2+y,-z
1/2-x,1/2-y,-z
1/2+x,1/2-y,z
loop_
_atom_site_type_symbol
_atom_site_label
_atom_site_fract_x
_atom_site_fract_y
_atom_site_fract_z
Si Si1 0.764075 0.350737 0.132587
Si Si2 0.853955 0.099010 0.585128
Si Si3 0.119138 0.797116 0.498303
Si Si4 0.536669 0.233159 0.270283
Si Si5 0.521342 0.059122 0.285902
Si Si6 0.591825 0.000000 0.156133
Si Si7 0.937778 0.840976 0.819216
Si Si8 0.539147 0.500000 0.633305
O O1 0.698797 0.334352 0.190905
O O2 0.875605 0.303352 0.164017
O O3 0.863170 0.405560 0.200230
O O4 0.609252 0.363321 0.967402
O O5 0.928478 0.145980 0.572803
O O6 0.669276 0.086468 0.436648
O O7 0.862244 0.117634 0.696814
O O8 0.968602 0.049669 0.641651
O O9 0.304393 0.799947 0.658115
O O10 0.085298 0.749979 0.404785
O O11 0.000000 0.781091 0.500000
O O12 0.516092 0.283429 0.190698
O O13 0.491737 0.000000 0.308845
O O14 0.558474 0.052110 0.199354
O O15 0.770815 0.000000 0.233094
O O16 0.500000 0.000000 0.000000
O O17 0.500000 0.500000 0.500000
#
# Coordination Sequence:
#
# PCOD8095562 Si02
#       8
#     8   8   8   8   8   4   8   4
#     4  11  22  44  63  85 128 166 197 271 307 372
#     4  11  21  38  58  91 118 159 205 253 305 369
#     4  10  20  32  56  91 119 151 197 253 307 368
#     4  10  20  38  61  85 120 160 204 250 310 374
#     4  10  22  41  62  91 123 161 206 249 305 365
#     4  10  24  40  63  94 123 161 204 251 310 364
#     4  10  25  40  61  91 120 162 212 250 320 368
#     4  12  20  38  65  86 125 163 196 261 307 355
#
# _framework density 18.728698000000001
#
# number of rings (size 3 to 8) (size 9 to 14) (size 15 to 20)
#    0.429    1.143    3.571    1.714    2.000    0.571 
#    1.286    1.429    3.143    0.000    0.000    0.000 
#    0.000    0.000    0.000    0.000    0.000    0.000 
#
# Total GULP energy -347065.164101 kJ/mol
# GULP energy per Si atom -12395.184432 kJ/mol
# Density = 1.868607 g / cm^3
# Si number density = 18.728698 Si / 1000 Ang^3
#
#
#
# Elastic Constant Matrix: (Units=GPa)
#
#
# Indices 1 2 3 4 5 6 
#
# 1 119.3412 42.6335 61.7211 0.0000 11.6673 0.0000
# 2 42.6335 96.4474 38.1652 0.0000 4.4335 0.0000
# 3 61.7211 38.1652 131.2805 0.0000 4.3148 0.0000
# 4 0.0000 0.0000 0.0000 36.7739 0.0000 -15.7832
# 5 11.6673 4.4335 4.3148 0.0000 35.0683 0.0000
# 6 0.0000 0.0000 0.0000 -15.7832 0.0000 33.1711
#
#
#
# Elastic Compliance Matrix: (Units=1/GPa)
#
#
# Indices 1 2 3 4 5 6 
#
# 1 0.012346 -0.003456 -0.004698 0.000000 -0.003093 0.000000
# 2 -0.003456 0.012724 -0.002067 0.000000 -0.000204 0.000000
# 3 -0.004698 -0.002067 0.010409 0.000000 0.000544 0.000000
# 4 0.000000 0.000000 0.000000 0.034172 0.000000 0.016259
# 5 -0.003093 -0.000204 0.000544 0.000000 0.029504 0.000000
# 6 0.000000 0.000000 0.000000 0.016259 0.000000 0.037883
#
#
# Mechanical properties :
#
#
# Convention : Reuss Voigt Hill
#
# Bulk Modulus (GPa) = 66.50831 70.23431 68.37131
# Shear Modulus (GPa) = 30.77072 34.63929 32.70500
#
# Velocity S-wave (km/s) = 4.05776 4.30528 4.18335
# Velocity P-wave (km/s) = 7.58567 7.89280 7.74076
#
# Compressibility (1/GPa) = 0.01503571
#
# Stress axis : x y z
#
# Youngs Moduli (GPa) = 80.99689 78.59424 96.06900
#
# Poissons Ratio (x) = 0.27164 0.45134
# Poissons Ratio (y) = 0.27994 0.19860
# Poissons Ratio (z) = 0.38053 0.16248
#
# Static dielectric constant tensor:
#      x y z
#    x 3.409820 0.000000 0.018810 
#    y 0.000000 3.406630 0.000000 
#    z 0.018810 0.000000 3.406710 
# 
# 
# High freq. dielectric constant tensor:
#      x y z
#    x 1.726280 0.000000 0.009590 
#    y 0.000000 1.729100 0.000000 
#    z 0.009590 0.000000 1.730870 
# 
# From -- ./inp_files/209200.got.cif
#   From: 2010.06.25/outbox.cif.g09.slc.cpg/sg12_105_cif.got.tgz:209200.got - 2010.06.28 00:19:55.
