data_PCOD8095905
_publ_section_title
;
Structure prediction by ZEFSAII (Michael W. Deem and Ramdas Pophale) SiO2 
 PCOD8095905
Probable space group: C 2/M
;
_chemical_formula_sum "Si O2"
_cell_formula_units_Z 56
_cell_length_a 30.743378
_cell_length_b 9.607203
_cell_length_c 20.856287
_cell_angle_alpha 90.000000
_cell_angle_beta 150.778323
_cell_angle_gamma 90.000000
_cell_volume 3007.283146
_symmetry_space_group_name_H-M "C 2/M"
_symmetry_group_IT_number 12
_symmetry_cell_setting 'monoclinic'
loop_
_space_group_symop_operation_xyz
x,y,z
-x,y,-z
-x,-y,-z
x,-y,z
1/2+x,1/2+y,z
1/2-x,1/2+y,-z
1/2-x,1/2-y,-z
1/2+x,1/2-y,z
loop_
_atom_site_type_symbol
_atom_site_label
_atom_site_fract_x
_atom_site_fract_y
_atom_site_fract_z
Si Si1 0.713895 0.163520 0.013872
Si Si2 0.523122 0.335982 0.102343
Si Si3 0.370013 0.663279 0.303537
Si Si4 0.400108 0.153180 0.581509
Si Si5 0.544599 0.664137 0.460810
Si Si6 0.039127 0.340041 0.864223
Si Si7 0.284431 0.343745 0.601373
O O1 0.774613 0.204841 0.153072
O O2 0.721781 0.000000 0.006969
O O3 0.750000 0.250000 0.000000
O O4 0.614567 0.204303 0.908939
O O5 0.507115 0.500000 0.090821
O O6 0.458557 0.254911 0.069024
O O7 0.625097 0.291748 0.248366
O O8 0.500000 0.290264 0.000000
O O9 0.384986 0.500000 0.324606
O O10 0.448189 0.721628 0.358512
O O11 0.382537 0.715834 0.392726
O O12 0.434871 0.271079 0.580426
O O13 0.443171 0.180549 0.707037
O O14 0.293362 0.159591 0.445844
O O15 0.430902 0.000000 0.597316
O O16 0.546260 0.500000 0.453022
O O17 0.055312 0.500000 0.905965
O O18 0.298392 0.500000 0.592639
O O19 0.250000 0.250000 0.500000
#
# Coordination Sequence:
#
# PCOD8095905 Si02
#       7
#     8   8   8   8   8   8   8
#     4  10  20  34  53  77 107 141 178 219 266 319
#     4  10  22  39  58  82 111 144 184 230 279 329
#     4   8  16  32  50  70 101 135 171 216 256 300
#     4  10  20  33  50  76 107 132 166 218 269 312
#     4   9  17  31  52  74  97 133 176 213 255 310
#     4  10  21  36  54  78 109 144 180 223 274 328
#     4  10  20  36  57  77 104 139 174 217 266 318
#
# _framework density 18.621459000000002
#
# number of rings (size 3 to 8) (size 9 to 14) (size 15 to 20)
#    0.000    2.429    1.429    1.714    0.000    3.143 
#    0.000    2.143    0.000    0.000    0.000    0.000 
#    0.000    0.000    0.000    0.000    0.000    0.000 
#
# Total GULP energy -347057.451463 kJ/mol
# GULP energy per Si atom -12394.908981 kJ/mol
# Density = 1.857908 g / cm^3
# Si number density = 18.621459 Si / 1000 Ang^3
#
#
#
# Elastic Constant Matrix: (Units=GPa)
#
#
# Indices 1 2 3 4 5 6 
#
# 1 108.7254 51.7343 37.8845 0.0000 -6.7648 0.0000
# 2 51.7343 59.5438 32.1055 0.0000 -8.5079 0.0000
# 3 37.8845 32.1055 102.6553 0.0000 -0.6841 0.0000
# 4 0.0000 0.0000 0.0000 20.0303 0.0000 -1.9586
# 5 -6.7648 -8.5079 -0.6841 0.0000 26.3940 0.0000
# 6 0.0000 0.0000 0.0000 -1.9586 0.0000 36.0980
#
#
#
# Elastic Compliance Matrix: (Units=1/GPa)
#
#
# Indices 1 2 3 4 5 6 
#
# 1 0.015973 -0.012888 -0.001865 0.000000 -0.000109 0.000000
# 2 -0.012888 0.031723 -0.005120 0.000000 0.006790 0.000000
# 3 -0.001865 -0.005120 0.012019 0.000000 -0.001817 0.000000
# 4 0.000000 0.000000 0.000000 0.050191 0.000000 0.002723
# 5 -0.000109 0.006790 -0.001817 0.000000 0.040001 0.000000
# 6 0.000000 0.000000 0.000000 0.002723 0.000000 0.027850
#
#
# Mechanical properties :
#
#
# Convention : Reuss Voigt Hill
#
# Bulk Modulus (GPa) = 50.07722 57.15258 53.61490
# Shear Modulus (GPa) = 22.30572 26.45114 24.37843
#
# Velocity S-wave (km/s) = 3.46475 3.77299 3.62215
# Velocity P-wave (km/s) = 6.55413 7.05259 6.80792
#
# Compressibility (1/GPa) = 0.01996916
#
# Stress axis : x y z
#
# Youngs Moduli (GPa) = 62.60578 31.52306 83.20436
#
# Poissons Ratio (x) = 0.40627 0.15515
# Poissons Ratio (y) = 0.80687 0.42599
# Poissons Ratio (z) = 0.11674 0.16139
#
# Static dielectric constant tensor:
#      x y z
#    x 3.264790 0.000000 0.035790 
#    y 0.000000 3.244200 0.000000 
#    z 0.035790 0.000000 3.765460 
# 
# 
# High freq. dielectric constant tensor:
#      x y z
#    x 1.713670 0.000000 0.003220 
#    y 0.000000 1.703480 0.000000 
#    z 0.003220 0.000000 1.731630 
# 
# From -- ./inp_files/329515.got.cif
#   From: 2010.06.25/outbox.cif.g09.slc.cpg/sg12_165_cif.got.tgz:329515.got - 2010.06.28 00:19:55.
