data_PCOD8095422
_publ_section_title
;
Structure prediction by ZEFSAII (Michael W. Deem and Ramdas Pophale) SiO2 
 PCOD8095422
Probable space group: C 2/M
;
_chemical_formula_sum "Si O2"
_cell_formula_units_Z 56
_cell_length_a 20.115663
_cell_length_b 9.231781
_cell_length_c 28.810902
_cell_angle_alpha 90.000000
_cell_angle_beta 146.953468
_cell_angle_gamma 90.000000
_cell_volume 2917.615801
_symmetry_space_group_name_H-M "C 2/M"
_symmetry_group_IT_number 12
_symmetry_cell_setting 'monoclinic'
loop_
_space_group_symop_operation_xyz
x,y,z
-x,y,-z
-x,-y,-z
x,-y,z
1/2+x,1/2+y,z
1/2-x,1/2+y,-z
1/2-x,1/2-y,-z
1/2+x,1/2-y,z
loop_
_atom_site_type_symbol
_atom_site_label
_atom_site_fract_x
_atom_site_fract_y
_atom_site_fract_z
Si Si1 0.313882 0.168781 0.772503
Si Si2 0.245937 0.832671 0.928449
Si Si3 0.061441 0.168933 0.900308
Si Si4 0.127814 0.165288 0.589544
Si Si5 0.941728 0.329844 0.616740
Si Si6 0.179234 0.833498 0.785427
Si Si7 0.287978 0.335865 0.459467
O O1 0.430729 0.256683 0.824579
O O2 0.197185 0.230661 0.674984
O O3 0.287991 0.190964 0.812006
O O4 0.335479 0.000000 0.773206
O O5 0.123660 0.802375 0.886649
O O6 0.225500 0.788852 0.863243
O O7 0.285096 0.000000 0.956150
O O8 0.355920 0.734847 0.010741
O O9 0.045092 0.000000 0.900637
O O10 0.220830 0.178534 0.600988
O O11 0.000000 0.243144 0.500000
O O12 0.095304 0.000000 0.583089
O O13 0.954425 0.500000 0.617848
O O14 0.841196 0.284140 0.596096
O O15 0.900140 0.260924 0.543609
O O16 0.068783 0.268508 0.707694
O O17 0.135393 0.000000 0.759082
O O18 0.315635 0.500000 0.491169
#
# Coordination Sequence:
#
# PCOD8095422 Si02
#       7
#     8   8   8   8   8   8   8
#     4  10  21  36  58  84 111 147 187 230 275 328
#     4   9  20  39  61  83 110 147 186 225 272 331
#     4  10  21  38  59  85 114 144 180 228 280 330
#     4   9  17  31  53  78 104 140 187 230 268 313
#     4  10  20  32  50  78 109 141 182 231 280 324
#     4  10  21  37  57  81 109 146 186 225 272 328
#     4   9  18  33  51  73 103 143 186 229 273 325
#
# _framework density 19.193754999999999
#
# number of rings (size 3 to 8) (size 9 to 14) (size 15 to 20)
#    0.000    2.429    0.000    1.714    2.000    5.143 
#    0.000    3.571    0.000    1.714    0.000    0.000 
#    0.000    0.000    0.000    0.000    0.000    0.000 
#
# Total GULP energy -347183.050504 kJ/mol
# GULP energy per Si atom -12399.394661 kJ/mol
# Density = 1.915007 g / cm^3
# Si number density = 19.193755 Si / 1000 Ang^3
#
#
#
# Elastic Constant Matrix: (Units=GPa)
#
#
# Indices 1 2 3 4 5 6 
#
# 1 94.6546 31.6246 63.8409 0.0000 -12.1317 0.0001
# 2 31.6246 70.1083 53.2153 0.0001 1.9410 0.0002
# 3 63.8409 53.2153 127.3342 -0.0001 0.0086 0.0000
# 4 0.0000 0.0001 -0.0001 33.9005 0.0000 7.1551
# 5 -12.1317 1.9410 0.0086 0.0000 33.6633 0.0000
# 6 0.0001 0.0002 0.0000 7.1551 0.0000 22.2274
#
#
#
# Elastic Compliance Matrix: (Units=1/GPa)
#
#
# Indices 1 2 3 4 5 6 
#
# 1 0.017360 -0.002051 -0.007847 0.000000 0.006376 0.000000
# 2 -0.002051 0.021182 -0.007824 0.000000 -0.001958 0.000000
# 3 -0.007847 -0.007824 0.015057 0.000000 -0.002381 0.000000
# 4 0.000000 0.000000 0.000000 0.031648 0.000000 -0.010188
# 5 0.006376 -0.001958 -0.002381 0.000000 0.032117 0.000000
# 6 0.000000 0.000000 0.000000 -0.010188 0.000000 0.048269
#
#
# Mechanical properties :
#
#
# Convention : Reuss Voigt Hill
#
# Bulk Modulus (GPa) = 55.08014 65.49542 60.28778
# Shear Modulus (GPa) = 24.13965 27.51931 25.82948
#
# Velocity S-wave (km/s) = 3.55023 3.79062 3.67239
# Velocity P-wave (km/s) = 6.75016 7.30450 7.03280
#
# Compressibility (1/GPa) = 0.01815537
#
# Stress axis : x y z
#
# Youngs Moduli (GPa) = 57.60510 47.21080 66.41327
#
# Poissons Ratio (x) = 0.09684 0.52113
# Poissons Ratio (y) = 0.11816 0.51960
# Poissons Ratio (z) = 0.45201 0.36936
#
# Static dielectric constant tensor:
#      x y z
#    x 3.645500 0.000000 -0.084230 
#    y 0.000000 3.355770 0.000000 
#    z -0.084230 0.000000 3.476070 
# 
# 
# High freq. dielectric constant tensor:
#      x y z
#    x 1.756530 0.000000 -0.002520 
#    y 0.000000 1.726450 0.000000 
#    z -0.002520 0.000000 1.742670 
# 
# From -- ./inp_files/380719.got.cif
#   From: 2010.06.25/outbox.cif.g09.slc.cpg/sg12_191_cif.got.tgz:380719.got - 2010.06.28 00:19:55.
