data_PCOD8095715
_publ_section_title
;
Structure prediction by ZEFSAII (Michael W. Deem and Ramdas Pophale) SiO2 
 PCOD8095715
Probable space group: C 2/M
;
_chemical_formula_sum "Si O2"
_cell_formula_units_Z 64
_cell_length_a 8.738518
_cell_length_b 28.462370
_cell_length_c 15.464579
_cell_angle_alpha 90.000000
_cell_angle_beta 89.999987
_cell_angle_gamma 90.000000
_cell_volume 3846.333581
_symmetry_space_group_name_H-M "C 2/M"
_symmetry_group_IT_number 12
_symmetry_cell_setting 'monoclinic'
loop_
_space_group_symop_operation_xyz
x,y,z
-x,y,-z
-x,-y,-z
x,-y,z
1/2+x,1/2+y,z
1/2-x,1/2+y,-z
1/2-x,1/2-y,-z
1/2+x,1/2-y,z
loop_
_atom_site_type_symbol
_atom_site_label
_atom_site_fract_x
_atom_site_fract_y
_atom_site_fract_z
Si Si1 0.680405 0.299028 0.598942
Si Si2 0.821320 0.054958 0.177208
Si Si3 0.819595 0.799028 0.598942
Si Si4 0.319068 0.890694 0.665230
Si Si5 0.321320 0.554958 0.822792
Si Si6 0.680932 0.890694 0.665230
Si Si7 0.817971 0.552532 0.500000
Si Si8 0.172081 0.555673 0.000000
O O1 0.750000 0.250000 0.631222
O O2 0.500000 0.296579 0.607924
O O3 0.731395 0.309053 0.500000
O O4 0.745202 0.339306 0.661040
O O5 0.728552 0.083938 0.247454
O O6 0.763431 0.073038 0.084209
O O7 0.000000 0.065585 0.185646
O O8 0.785417 0.000000 0.190236
O O9 0.754799 0.839306 0.661040
O O10 0.500000 0.885538 0.661622
O O11 0.256182 0.921117 0.584793
O O12 0.285417 0.500000 0.809764
O O13 0.228553 0.583938 0.752546
O O14 0.263431 0.573038 0.915791
O O15 0.743818 0.921117 0.584793
O O16 0.749880 0.500000 0.500000
O O17 0.000000 0.551013 0.500000
O O18 0.165679 0.500000 0.000000
O O19 0.000000 0.576509 0.000000
#
# Coordination Sequence:
#
# PCOD8095715 Si02
#       8
#     8   8   8   8   8   8   8   8
#     4  10  20  34  52  72  97 127 165 210 257 302
#     4  10  20  33  49  72 103 136 169 208 253 299
#     4  10  20  34  52  72  97 127 165 210 257 302
#     4  11  20  32  50  72 100 133 171 209 250 298
#     4  10  20  33  49  72 103 136 169 208 253 299
#     4  11  20  32  50  72 100 133 171 209 250 298
#     4   9  18  30  44  65  96 133 170 205 240 283
#     4   9  17  31  51  73  96 127 168 211 253 297
#
# _framework density 16.639223000000001
#
# number of rings (size 3 to 8) (size 9 to 14) (size 15 to 20)
#    0.000    2.000    1.250    3.375    0.000    5.000 
#    0.000    0.000    0.000    3.000    0.000    0.875 
#    0.000    0.000    0.000    0.000    0.000    0.000 
#
# Total GULP energy -396908.383797 kJ/mol
# GULP energy per Si atom -12403.386994 kJ/mol
# Density = 1.660135 g / cm^3
# Si number density = 16.639223 Si / 1000 Ang^3
#
#
#
# Elastic Constant Matrix: (Units=GPa)
#
#
# Indices 1 2 3 4 5 6 
#
# 1 68.5020 33.8044 22.6613 0.0000 0.8897 0.0000
# 2 33.8044 98.1505 44.7206 0.0000 0.9329 0.0000
# 3 22.6613 44.7206 103.1934 0.0000 2.0750 0.0000
# 4 0.0000 0.0000 0.0000 -0.1177 0.0000 -2.2488
# 5 0.8897 0.9329 2.0750 0.0000 28.2273 0.0000
# 6 0.0000 0.0000 0.0000 -2.2488 0.0000 26.1971
#
#
#
# Elastic Compliance Matrix: (Units=1/GPa)
#
#
# Indices 1 2 3 4 5 6 
#
# 1 0.017788 -0.005416 -0.001554 0.000000 -0.000267 0.000000
# 2 -0.005416 0.014344 -0.005028 0.000000 0.000066 0.000000
# 3 -0.001554 -0.005028 0.012225 0.000000 -0.000683 0.000000
# 4 0.000000 0.000000 0.000000 -3.217611 0.000000 -0.276208
# 5 -0.000267 0.000066 -0.000683 0.000000 0.035483 0.000000
# 6 0.000000 0.000000 0.000000 -0.276208 0.000000 0.014462
#
#
# Mechanical properties :
#
#
# Convention : Reuss Voigt Hill
#
# Bulk Modulus (GPa) = 49.11379 52.46872 50.79125
# Shear Modulus (GPa) = -1.61680 22.10529 10.24424
#
# Velocity S-wave (km/s) = -0.98681 3.64882 2.48396
# Velocity P-wave (km/s) = 5.31814 7.02520 6.23041
#
# Compressibility (1/GPa) = 0.02036088
#
# Stress axis : x y z
#
# Youngs Moduli (GPa) = 56.21663 69.71444 81.80227
#
# Poissons Ratio (x) = 0.37758 0.12710
# Poissons Ratio (y) = 0.30447 0.41133
# Poissons Ratio (z) = 0.08735 0.35054
#
# Static dielectric constant tensor:
#      x y z
#    x 3.118400 0.000000 0.000890 
#    y 0.000000 3.023410 0.000000 
#    z 0.000890 0.000000 3.128860 
# 
# 
# High freq. dielectric constant tensor:
#      x y z
#    x 1.649710 0.000000 -0.001680 
#    y 0.000000 1.622220 0.000000 
#    z -0.001680 0.000000 1.630110 
# 
# From -- ./inp_files/199812.got.cif
#   From: 2010.06.25/outbox.cif.g09.slc.cpg/sg12_100_cif.got.tgz:199812.got - 2010.06.28 00:19:55.
