data_PCOD8095672
_publ_section_title
;
Structure prediction by ZEFSAII (Michael W. Deem and Ramdas Pophale) SiO2 
 PCOD8095672
Probable space group: C 2/M
;
_chemical_formula_sum "Si O2"
_cell_formula_units_Z 56
_cell_length_a 18.582360
_cell_length_b 9.338118
_cell_length_c 20.311276
_cell_angle_alpha 90.000000
_cell_angle_beta 60.782096
_cell_angle_gamma 90.000000
_cell_volume 3076.075839
_symmetry_space_group_name_H-M "C 2/M"
_symmetry_group_IT_number 12
_symmetry_cell_setting 'monoclinic'
loop_
_space_group_symop_operation_xyz
x,y,z
-x,y,-z
-x,-y,-z
x,-y,z
1/2+x,1/2+y,z
1/2-x,1/2+y,-z
1/2-x,1/2-y,-z
1/2+x,1/2-y,z
loop_
_atom_site_type_symbol
_atom_site_label
_atom_site_fract_x
_atom_site_fract_y
_atom_site_fract_z
Si Si1 0.786739 0.830721 0.269483
Si Si2 0.598783 0.333195 0.157571
Si Si3 0.069063 0.167328 0.697036
Si Si4 0.447706 0.169472 0.425709
Si Si5 0.271352 0.837548 0.146774
Si Si6 0.381095 0.830476 0.593246
Si Si7 0.331228 0.834589 0.982283
O O1 0.863049 0.784959 0.280486
O O2 0.800441 0.764831 0.191771
O O3 0.703134 0.767236 0.339228
O O4 0.781388 0.000000 0.263546
O O5 0.597990 0.500000 0.138638
O O6 0.520372 0.289844 0.235774
O O7 0.680423 0.292583 0.162168
O O8 0.594882 0.241374 0.091225
O O9 0.087599 0.251869 0.622107
O O10 0.075149 0.000000 0.678751
O O11 0.541708 0.220423 0.397057
O O12 0.392127 0.218781 0.512651
O O13 0.443104 0.000000 0.416729
O O14 0.268441 0.000000 0.174088
O O15 0.339373 0.823055 0.057883
O O16 0.378713 0.000000 0.594886
O O17 0.323918 0.000000 0.963980
O O18 0.250000 0.750000 0.000000
#
# Coordination Sequence:
#
# PCOD8095672 Si02
#       7
#     8   8   8   8   8   8   8
#     4  10  20  33  49  69  97 133 165 195 239 294
#     4   9  18  33  51  71  98 129 161 201 244 286
#     4  10  21  34  47  70 103 131 159 200 245 287
#     4   9  17  32  54  74  94 125 163 203 244 287
#     4   9  18  32  50  72  96 121 155 202 244 278
#     4   8  16  32  52  74  97 122 161 206 241 283
#     4   9  17  30  50  76 101 125 158 202 247 287
#
# _framework density 18.205012
#
# number of rings (size 3 to 8) (size 9 to 14) (size 15 to 20)
#    0.000    2.857    0.000    3.000    0.000    4.571 
#    0.000    2.857    0.000    4.286    0.000    0.000 
#    0.000    0.000    0.000    0.000    0.000    0.000 
#
# Total GULP energy -347113.881068 kJ/mol
# GULP energy per Si atom -12396.924324 kJ/mol
# Density = 1.816358 g / cm^3
# Si number density = 18.205012 Si / 1000 Ang^3
#
#
#
# Elastic Constant Matrix: (Units=GPa)
#
#
# Indices 1 2 3 4 5 6 
#
# 1 74.7839 31.0505 40.6807 0.0000 23.5367 0.0000
# 2 31.0505 54.5530 44.8001 -0.0001 15.5464 -0.0002
# 3 40.6807 44.8001 99.3248 0.0000 28.4213 0.0000
# 4 0.0000 -0.0001 0.0000 31.2826 0.0000 6.9675
# 5 23.5367 15.5464 28.4213 0.0000 20.9156 0.0000
# 6 0.0000 -0.0002 0.0000 6.9675 0.0000 19.6194
#
#
#
# Elastic Compliance Matrix: (Units=1/GPa)
#
#
# Indices 1 2 3 4 5 6 
#
# 1 0.022731 -0.006843 -0.000588 0.000000 -0.019695 0.000000
# 2 -0.006843 0.031677 -0.011374 0.000000 -0.000390 0.000000
# 3 -0.000588 -0.011374 0.020993 0.000000 -0.019411 0.000000
# 4 0.000000 0.000000 0.000000 0.034712 0.000000 -0.012327
# 5 -0.019695 -0.000390 -0.019411 0.000000 0.096641 0.000000
# 6 0.000000 0.000000 0.000000 -0.012327 0.000000 0.055348
#
#
# Mechanical properties :
#
#
# Convention : Reuss Voigt Hill
#
# Bulk Modulus (GPa) = 26.46030 51.30269 38.88149
# Shear Modulus (GPa) = 16.00978 21.83888 18.92433
#
# Velocity S-wave (km/s) = 2.96871 3.46729 3.22764
# Velocity P-wave (km/s) = 5.13003 6.65366 5.94089
#
# Compressibility (1/GPa) = 0.03779247
#
# Stress axis : x y z
#
# Youngs Moduli (GPa) = 43.99191 31.56875 47.63411
#
# Poissons Ratio (x) = 0.21601 0.02802
# Poissons Ratio (y) = 0.30102 0.54177
# Poissons Ratio (z) = 0.02588 0.35905
#
# Static dielectric constant tensor:
#      x y z
#    x 3.206790 0.000000 -0.123310 
#    y 0.000000 3.205890 0.000000 
#    z -0.123310 0.000000 3.792930 
# 
# 
# High freq. dielectric constant tensor:
#      x y z
#    x 1.680150 0.000000 0.002770 
#    y 0.000000 1.688490 0.000000 
#    z 0.002770 0.000000 1.719650 
# 
# From -- ./inp_files/313750.got.cif
#   From: 2010.06.25/outbox.cif.g09.slc.cpg/sg12_157_cif.got.tgz:313750.got - 2010.06.28 00:19:55.
