data_PCOD8095498
_publ_section_title
;
Structure prediction by ZEFSAII (Michael W. Deem and Ramdas Pophale) SiO2 
 PCOD8095498
Probable space group: C 2/M
;
_chemical_formula_sum "Si O2"
_cell_formula_units_Z 64
_cell_length_a 10.886398
_cell_length_b 18.565978
_cell_length_c 15.849407
_cell_angle_alpha 90.000000
_cell_angle_beta 88.794707
_cell_angle_gamma 90.000000
_cell_volume 3202.719887
_symmetry_space_group_name_H-M "C 2/M"
_symmetry_group_IT_number 12
_symmetry_cell_setting 'monoclinic'
loop_
_space_group_symop_operation_xyz
x,y,z
-x,y,-z
-x,-y,-z
x,-y,z
1/2+x,1/2+y,z
1/2-x,1/2+y,-z
1/2-x,1/2-y,-z
1/2+x,1/2-y,z
loop_
_atom_site_type_symbol
_atom_site_label
_atom_site_fract_x
_atom_site_fract_y
_atom_site_fract_z
Si Si1 0.619485 0.170721 0.947739
Si Si2 0.120666 0.666895 0.342049
Si Si3 0.366375 0.658748 0.033093
Si Si4 0.534598 0.579161 0.633361
Si Si5 0.305735 0.322533 0.625113
Si Si6 0.338029 0.647358 0.220984
Si Si7 0.729035 0.082092 0.481023
Si Si8 0.112499 0.691179 0.759114
O O1 0.628860 0.255622 0.960847
O O2 0.599712 0.151553 0.849362
O O3 0.500000 0.140523 0.000000
O O4 0.750147 0.136115 0.975672
O O5 0.168047 0.738116 0.391458
O O6 0.199636 0.654288 0.256381
O O7 0.131375 0.602411 0.409527
O O8 0.983090 0.667447 0.310802
O O9 0.338350 0.622968 0.124005
O O10 0.500000 0.629777 0.000000
O O11 0.474703 0.500000 0.628277
O O12 0.434726 0.638841 0.620514
O O13 0.592635 0.587624 0.725118
O O14 0.635028 0.589293 0.559391
O O15 0.217827 0.360474 0.557238
O O16 0.244976 0.329320 0.718668
O O17 0.407127 0.723713 0.228471
O O18 0.703095 0.000000 0.511214
#
# Coordination Sequence:
#
# PCOD8095498 Si02
#       8
#     8   8   8   8   8   8   8   8
#     4   9  17  29  46  74 112 148 179 219 276 340
#     4  10  20  36  54  80 111 148 185 225 273 334
#     4   9  17  26  47  77 108 143 180 226 281 328
#     4  10  20  36  58  80 106 144 186 227 275 331
#     4  11  21  34  55  82 112 141 180 234 282 325
#     4   9  18  32  52  77 111 145 179 225 272 331
#     4  10  22  40  58  79 107 145 190 228 272 332
#     4  10  20  32  52  81 113 143 181 225 280 329
#
# _framework density 19.983015999999999
#
# number of rings (size 3 to 8) (size 9 to 14) (size 15 to 20)
#    0.000    2.250    1.250    1.875    1.750    4.500 
#    2.250    1.875    0.000    0.375    0.000    0.000 
#    0.000    7.000    0.000    0.000    0.000    0.000 
#
# Total GULP energy -396654.850689 kJ/mol
# GULP energy per Si atom -12395.464084 kJ/mol
# Density = 1.993753 g / cm^3
# Si number density = 19.983016 Si / 1000 Ang^3
#
#
#
# Elastic Constant Matrix: (Units=GPa)
#
#
# Indices 1 2 3 4 5 6 
#
# 1 77.6797 10.1941 25.5328 0.0000 12.6872 0.0000
# 2 10.1941 44.4478 31.8822 0.0000 0.1951 0.0000
# 3 25.5328 31.8822 113.7269 0.0000 -0.7844 0.0000
# 4 0.0000 0.0000 0.0000 10.3610 0.0000 -1.5911
# 5 12.6872 0.1951 -0.7844 0.0000 22.8411 0.0000
# 6 0.0000 0.0000 0.0000 -1.5911 0.0000 15.0193
#
#
#
# Elastic Compliance Matrix: (Units=1/GPa)
#
#
# Indices 1 2 3 4 5 6 
#
# 1 0.015509 -0.001224 -0.003199 0.000000 -0.008714 0.000000
# 2 -0.001224 0.028264 -0.007647 0.000000 0.000176 0.000000
# 3 -0.003199 -0.007647 0.011670 0.000000 0.002243 0.000000
# 4 0.000000 0.000000 0.000000 0.098112 0.000000 0.010393
# 5 -0.008714 0.000176 0.002243 0.000000 0.048696 0.000000
# 6 0.000000 0.000000 0.000000 0.010393 0.000000 0.067682
#
#
# Mechanical properties :
#
#
# Convention : Reuss Voigt Hill
#
# Bulk Modulus (GPa) = 31.94667 41.23029 36.58848
# Shear Modulus (GPa) = 16.41994 20.86064 18.64029
#
# Velocity S-wave (km/s) = 2.86963 3.23448 3.05750
# Velocity P-wave (km/s) = 5.19628 5.88444 5.55103
#
# Compressibility (1/GPa) = 0.03130217
#
# Stress axis : x y z
#
# Youngs Moduli (GPa) = 64.48026 35.38105 85.68625
#
# Poissons Ratio (x) = 0.04331 0.27409
# Poissons Ratio (y) = 0.07894 0.65528
# Poissons Ratio (z) = 0.20626 0.27057
#
# Static dielectric constant tensor:
#      x y z
#    x 3.614400 0.000000 0.014970 
#    y 0.000000 3.298360 0.000000 
#    z 0.014970 0.000000 3.801930 
# 
# 
# High freq. dielectric constant tensor:
#      x y z
#    x 1.780950 0.000000 0.001110 
#    y 0.000000 1.730270 0.000000 
#    z 0.001110 0.000000 1.786760 
# 
# From -- ./inp_files/206671.got.cif
#   From: 2010.06.25/outbox.cif.g09.slc.cpg/sg12_104_cif.got.tgz:206671.got - 2010.06.28 00:19:55.
