data_PCOD8095070
_publ_section_title
;
Structure prediction by ZEFSAII (Michael W. Deem and Ramdas Pophale) SiO2 
 PCOD8095070
Probable space group: C 2/M
;
_chemical_formula_sum "Si O2"
_cell_formula_units_Z 40
_cell_length_a 22.796685
_cell_length_b 7.808600
_cell_length_c 16.407754
_cell_angle_alpha 90.000000
_cell_angle_beta 134.555313
_cell_angle_gamma 90.000000
_cell_volume 2081.247148
_symmetry_space_group_name_H-M "C 2/M"
_symmetry_group_IT_number 12
_symmetry_cell_setting 'monoclinic'
loop_
_space_group_symop_operation_xyz
x,y,z
-x,y,-z
-x,-y,-z
x,-y,z
1/2+x,1/2+y,z
1/2-x,1/2+y,-z
1/2-x,1/2-y,-z
1/2+x,1/2-y,z
loop_
_atom_site_type_symbol
_atom_site_label
_atom_site_fract_x
_atom_site_fract_y
_atom_site_fract_z
Si Si1 0.323516 0.299833 0.515629
Si Si2 0.706276 0.689532 0.687907
Si Si3 0.057619 0.305641 0.630787
Si Si4 0.487108 0.000000 0.123276
Si Si5 0.634809 0.000000 0.145386
Si Si6 0.998833 0.196449 0.743051
O O1 0.325036 0.500000 0.503142
O O2 0.250000 0.250000 0.500000
O O3 0.310360 0.214785 0.414231
O O4 0.406649 0.236353 0.638016
O O5 0.665983 0.500000 0.649153
O O6 0.655404 0.795248 0.705654
O O7 0.805542 0.669569 0.798442
O O8 0.032684 0.500000 0.624735
O O9 0.000000 0.235367 0.500000
O O10 0.045722 0.200447 0.702398
O O11 0.467760 0.171003 0.156954
O O12 0.578731 0.000000 0.172643
O O13 0.420439 0.000000 0.987542
O O14 0.003036 0.000000 0.780125
#
# Coordination Sequence:
#
# PCOD8095070 Si02
#       6
#     8   8   8   4   4   8
#     4  10  20  31  52  86 122 154 195 250 309 365
#     4   9  19  36  56  83 116 155 204 241 310 357
#     4  11  21  35  58  91 128 169 204 249 311 384
#     4  11  22  46  67  88 126 160 223 252 302 379
#     4   9  22  42  69  86 116 176 201 266 308 357
#     4  11  23  37  61  94 123 165 202 256 314 367
#
# _framework density 19.219245999999998
#
# number of rings (size 3 to 8) (size 9 to 14) (size 15 to 20)
#    0.600    1.200    3.000    1.800    1.400    1.600 
#    0.000    5.000    0.000    0.000    0.000    0.000 
#    0.000    0.000    0.000    0.000    0.000    0.000 
#
# Total GULP energy -247819.965808 kJ/mol
# GULP energy per Si atom -12390.998290 kJ/mol
# Density = 1.917550 g / cm^3
# Si number density = 19.219246 Si / 1000 Ang^3
#
#
#
# Elastic Constant Matrix: (Units=GPa)
#
#
# Indices 1 2 3 4 5 6 
#
# 1 119.7680 20.9198 27.8194 0.0000 -9.1301 0.0000
# 2 20.9198 63.2412 34.5628 0.0000 -7.0200 0.0000
# 3 27.8194 34.5628 73.8702 0.0000 -11.3334 0.0000
# 4 0.0000 0.0000 0.0000 13.4952 0.0000 1.8337
# 5 -9.1301 -7.0200 -11.3334 0.0000 29.3550 0.0000
# 6 0.0000 0.0000 0.0000 1.8337 0.0000 31.4454
#
#
#
# Elastic Compliance Matrix: (Units=1/GPa)
#
#
# Indices 1 2 3 4 5 6 
#
# 1 0.009328 -0.001510 -0.002569 0.000000 0.001548 0.000000
# 2 -0.001510 0.021538 -0.009344 0.000000 0.001074 0.000000
# 3 -0.002569 -0.009344 0.019570 0.000000 0.004522 0.000000
# 4 0.000000 0.000000 0.000000 0.074692 0.000000 -0.004356
# 5 0.001548 0.001074 0.004522 0.000000 0.036550 0.000000
# 6 0.000000 0.000000 0.000000 -0.004356 0.000000 0.032055
#
#
# Mechanical properties :
#
#
# Convention : Reuss Voigt Hill
#
# Bulk Modulus (GPa) = 42.38934 47.05371 44.72153
# Shear Modulus (GPa) = 21.88739 26.43095 24.15917
#
# Velocity S-wave (km/s) = 3.37831 3.71244 3.54931
# Velocity P-wave (km/s) = 6.10908 6.55073 6.33375
#
# Compressibility (1/GPa) = 0.02359084
#
# Stress axis : x y z
#
# Youngs Moduli (GPa) = 107.20497 46.43016 51.09758
#
# Poissons Ratio (x) = 0.07010 0.13127
# Poissons Ratio (y) = 0.16186 0.47745
# Poissons Ratio (z) = 0.27540 0.43384
#
# Static dielectric constant tensor:
#      x y z
#    x 3.565900 0.000000 -0.019680 
#    y 0.000000 3.257130 0.000000 
#    z -0.019680 0.000000 3.301360 
# 
# 
# High freq. dielectric constant tensor:
#      x y z
#    x 1.764680 0.000000 -0.005600 
#    y 0.000000 1.731920 0.000000 
#    z -0.005600 0.000000 1.716350 
# 
# From -- ./inp_files/230661.got.cif
#   From: 2010.06.25/outbox.cif.g09.slc.cpg/sg12_116_cif.got.tgz:230661.got - 2010.06.28 00:19:55.
