data_PCOD8095511
_publ_section_title
;
Structure prediction by ZEFSAII (Michael W. Deem and Ramdas Pophale) SiO2 
 PCOD8095511
Probable space group: C 2/M
;
_chemical_formula_sum "Si O2"
_cell_formula_units_Z 60
_cell_length_a 30.357427
_cell_length_b 13.227496
_cell_length_c 15.432726
_cell_angle_alpha 90.000000
_cell_angle_beta 151.931219
_cell_angle_gamma 90.000000
_cell_volume 2915.906779
_symmetry_space_group_name_H-M "C 2/M"
_symmetry_group_IT_number 12
_symmetry_cell_setting 'monoclinic'
loop_
_space_group_symop_operation_xyz
x,y,z
-x,y,-z
-x,-y,-z
x,-y,z
1/2+x,1/2+y,z
1/2-x,1/2+y,-z
1/2-x,1/2-y,-z
1/2+x,1/2-y,z
loop_
_atom_site_type_symbol
_atom_site_label
_atom_site_fract_x
_atom_site_fract_y
_atom_site_fract_z
Si Si1 0.779505 0.118190 0.071878
Si Si2 0.054437 0.119024 0.759114
Si Si3 0.189325 0.808400 0.508987
Si Si4 0.393638 0.884776 0.342171
Si Si5 0.355227 0.701436 0.375354
Si Si6 0.835483 0.616638 0.636740
Si Si7 0.000000 0.263975 0.000000
Si Si8 0.983905 0.881179 0.116036
O O1 0.859767 0.164356 0.147744
O O2 0.789098 0.159521 0.185135
O O3 0.791602 0.000000 0.097085
O O4 0.677127 0.148859 0.857888
O O5 0.956570 0.149788 0.546325
O O6 0.061924 0.154526 0.872473
O O7 0.058639 0.000000 0.765624
O O8 0.197001 0.817882 0.625499
O O9 0.202383 0.690048 0.505380
O O10 0.270685 0.875993 0.609016
O O11 0.094203 0.858270 0.309593
O O12 0.500000 0.864579 0.500000
O O13 0.370834 0.821097 0.388441
O O14 0.376020 0.000000 0.337439
O O15 0.841779 0.500000 0.616118
O O16 0.936176 0.659914 0.835701
O O17 0.942989 0.189264 0.967515
O O18 0.965901 0.000000 0.065642
#
# Coordination Sequence:
#
# PCOD8095511 Si02
#       8
#     8   8   8   8   8   8   4   8
#     4  10  20  34  54  80 109 143 183 226 275 326
#     4   9  18  32  53  82 112 143 180 227 285 335
#     4   9  21  36  56  83 103 136 185 222 273 345
#     4  10  22  38  53  74 109 153 193 221 257 317
#     4  11  20  34  57  82 109 137 177 234 282 322
#     4  10  20  38  57  76 110 145 177 223 275 329
#     4  10  20  32  52  84 110 144 192 226 268 328
#     4   9  17  32  53  79 114 146 180 232 280 321
#
# _framework density 20.576789999999999
#
# number of rings (size 3 to 8) (size 9 to 14) (size 15 to 20)
#    0.000    2.267    0.000    2.800    0.000    4.267 
#    0.000    3.333    0.000    6.400    0.000    0.000 
#    0.000    0.000    0.000    0.000    0.000    0.000 
#
# Total GULP energy -371889.998721 kJ/mol
# GULP energy per Si atom -12396.333291 kJ/mol
# Density = 2.052996 g / cm^3
# Si number density = 20.576790 Si / 1000 Ang^3
#
#
#
# Elastic Constant Matrix: (Units=GPa)
#
#
# Indices 1 2 3 4 5 6 
#
# 1 99.4909 22.6050 31.4186 0.0000 -2.4212 0.0000
# 2 22.6050 61.1533 5.0165 0.0000 -0.6413 0.0000
# 3 31.4186 5.0165 67.4758 0.0000 6.8528 0.0000
# 4 0.0000 0.0000 0.0000 15.7897 0.0000 -1.0323
# 5 -2.4212 -0.6413 6.8528 0.0000 23.1690 0.0000
# 6 0.0000 0.0000 0.0000 -1.0323 0.0000 24.9716
#
#
#
# Elastic Compliance Matrix: (Units=1/GPa)
#
#
# Indices 1 2 3 4 5 6 
#
# 1 0.013007 -0.004280 -0.006046 0.000000 0.003029 0.000000
# 2 -0.004280 0.017877 0.000679 0.000000 -0.000153 0.000000
# 3 -0.006046 0.000679 0.018193 0.000000 -0.005994 0.000000
# 4 0.000000 0.000000 0.000000 0.063504 0.000000 0.002625
# 5 0.003029 -0.000153 -0.005994 0.000000 0.045246 0.000000
# 6 0.000000 0.000000 0.000000 0.002625 0.000000 0.040154
#
#
# Mechanical properties :
#
#
# Convention : Reuss Voigt Hill
#
# Bulk Modulus (GPa) = 33.57453 38.46668 36.02060
# Shear Modulus (GPa) = 22.00685 24.05806 23.03246
#
# Velocity S-wave (km/s) = 3.27387 3.42304 3.34929
# Velocity P-wave (km/s) = 5.53562 5.86155 5.70091
#
# Compressibility (1/GPa) = 0.02978449
#
# Stress axis : x y z
#
# Youngs Moduli (GPa) = 76.88456 55.93745 54.96508
#
# Poissons Ratio (x) = 0.23942 0.33230
# Poissons Ratio (y) = 0.32907 -0.03735
# Poissons Ratio (z) = 0.46481 -0.03801
#
# Static dielectric constant tensor:
#      x y z
#    x 3.856790 0.000000 -0.006130 
#    y 0.000000 3.890660 0.000000 
#    z -0.006130 0.000000 3.691710 
# 
# 
# High freq. dielectric constant tensor:
#      x y z
#    x 1.797580 0.000000 -0.001950 
#    y 0.000000 1.813760 0.000000 
#    z -0.001950 0.000000 1.795260 
# 
# From -- ./inp_files/246755.got.cif
#   From: 2010.06.25/outbox.cif.g09.slc.cpg/sg12_124_cif.got.tgz:246755.got - 2010.06.28 00:19:55.
