data_PCOD8095082
_publ_section_title
;
Structure prediction by ZEFSAII (Michael W. Deem and Ramdas Pophale) SiO2 
 PCOD8095082
Probable space group: C 2/M
;
_chemical_formula_sum "Si O2"
_cell_formula_units_Z 44
_cell_length_a 10.789621
_cell_length_b 19.814878
_cell_length_c 15.672101
_cell_angle_alpha 90.000000
_cell_angle_beta 131.010826
_cell_angle_gamma 90.000000
_cell_volume 2528.327511
_symmetry_space_group_name_H-M "C 2/M"
_symmetry_group_IT_number 12
_symmetry_cell_setting 'monoclinic'
loop_
_space_group_symop_operation_xyz
x,y,z
-x,y,-z
-x,-y,-z
x,-y,z
1/2+x,1/2+y,z
1/2-x,1/2+y,-z
1/2-x,1/2-y,-z
1/2+x,1/2-y,z
loop_
_atom_site_type_symbol
_atom_site_label
_atom_site_fract_x
_atom_site_fract_y
_atom_site_fract_z
Si Si1 0.535579 0.000000 0.378372
Si Si2 0.930639 0.256861 0.127494
Si Si3 0.881684 0.384646 0.210207
Si Si4 0.733044 0.072622 0.019881
Si Si5 0.500000 0.828905 0.000000
Si Si6 0.419948 0.615840 0.797858
Si Si7 0.733386 0.500000 0.369512
O O1 0.523046 0.070021 0.319033
O O2 0.387887 0.000000 0.377744
O O3 0.709702 0.000000 0.506194
O O4 0.933189 0.308265 0.208737
O O5 0.014947 0.189435 0.202154
O O6 0.750000 0.250000 0.000000
O O7 0.046836 0.283940 0.103383
O O8 0.722912 0.379375 0.197787
O O9 0.850069 0.423945 0.109161
O O10 0.661848 0.127006 0.053808
O O11 0.925201 0.080892 0.088080
O O12 0.696706 0.000000 0.044406
O O13 0.368317 0.569091 0.693982
#
# Coordination Sequence:
#
# PCOD8095082 Si02
#       7
#     4   8   8   8   4   8   4
#     4   9  18  37  55  75  98 127 180 216 270 292
#     4  11  20  32  49  76 113 140 168 197 257 312
#     4  10  20  31  54  77 104 137 165 218 252 308
#     4  11  20  31  49  77 107 136 172 202 259 309
#     4  10  21  32  44  71 114 146 158 202 242 323
#     4  11  20  32  51  78 108 131 171 211 264 302
#     4   9  20  35  55  75  98 131 168 234 258 294
#
# _framework density 17.402809000000001
#
# number of rings (size 3 to 8) (size 9 to 14) (size 15 to 20)
#    0.000    1.636    5.455    1.909    0.000    0.727 
#    0.000    0.909    0.000    0.000    0.000    8.909 
#    0.000    0.000    0.000    0.000    0.000    0.000 
#
# Total GULP energy -272549.190710 kJ/mol
# GULP energy per Si atom -12388.599578 kJ/mol
# Density = 1.736320 g / cm^3
# Si number density = 17.402809 Si / 1000 Ang^3
#
#
#
# Elastic Constant Matrix: (Units=GPa)
#
#
# Indices 1 2 3 4 5 6 
#
# 1 63.4102 38.6674 34.8032 0.0000 -2.7045 0.0000
# 2 38.6674 161.3494 63.8823 0.0000 0.9064 0.0000
# 3 34.8032 63.8823 97.4021 0.0000 -7.1388 0.0000
# 4 0.0000 0.0000 0.0000 20.7138 0.0000 1.2831
# 5 -2.7045 0.9064 -7.1388 0.0000 12.0470 0.0000
# 6 0.0000 0.0000 0.0000 1.2831 0.0000 20.2777
#
#
#
# Elastic Compliance Matrix: (Units=1/GPa)
#
#
# Indices 1 2 3 4 5 6 
#
# 1 0.020491 -0.002794 -0.005370 0.000000 0.001628 0.000000
# 2 -0.002794 0.008947 -0.005190 0.000000 -0.004376 0.000000
# 3 -0.005370 -0.005190 0.016235 0.000000 0.008806 0.000000
# 4 0.000000 0.000000 0.000000 0.048467 0.000000 -0.003067
# 5 0.001628 -0.004376 0.008806 0.000000 0.088921 0.000000
# 6 0.000000 0.000000 0.000000 -0.003067 0.000000 0.049509
#
#
# Mechanical properties :
#
#
# Convention : Reuss Voigt Hill
#
# Bulk Modulus (GPa) = 52.73030 66.31861 59.52446
# Shear Modulus (GPa) = 18.82530 22.92828 20.87679
#
# Velocity S-wave (km/s) = 3.29255 3.63368 3.46731
# Velocity P-wave (km/s) = 6.69479 7.46964 7.09280
#
# Compressibility (1/GPa) = 0.01896443
#
# Stress axis : x y z
#
# Youngs Moduli (GPa) = 48.80256 111.77177 61.59489
#
# Poissons Ratio (x) = 0.31224 0.33077
# Poissons Ratio (y) = 0.13633 0.31970
# Poissons Ratio (z) = 0.26208 0.58014
#
# Static dielectric constant tensor:
#      x y z
#    x 3.330900 0.000000 0.023870 
#    y 0.000000 3.683090 0.000000 
#    z 0.023870 0.000000 3.164760 
# 
# 
# High freq. dielectric constant tensor:
#      x y z
#    x 1.659890 0.000000 0.000520 
#    y 0.000000 1.698480 0.000000 
#    z 0.000520 0.000000 1.627150 
# 
# From -- ./inp_files/207841.got.cif
#   From: 2010.06.25/outbox.cif.g09.slc.cpg/sg12_104_cif.got.tgz:207841.got - 2010.06.28 00:19:55.
