data_PCOD8095265
_publ_section_title
;
Structure prediction by ZEFSAII (Michael W. Deem and Ramdas Pophale) SiO2 
 PCOD8095265
Probable space group: C 2/M
;
_chemical_formula_sum "Si O2"
_cell_formula_units_Z 56
_cell_length_a 19.234409
_cell_length_b 8.819797
_cell_length_c 26.879418
_cell_angle_alpha 90.000000
_cell_angle_beta 39.453530
_cell_angle_gamma 90.000000
_cell_volume 2897.611603
_symmetry_space_group_name_H-M "C 2/M"
_symmetry_group_IT_number 12
_symmetry_cell_setting 'monoclinic'
loop_
_space_group_symop_operation_xyz
x,y,z
-x,y,-z
-x,-y,-z
x,-y,z
1/2+x,1/2+y,z
1/2-x,1/2+y,-z
1/2-x,1/2-y,-z
1/2+x,1/2-y,z
loop_
_atom_site_type_symbol
_atom_site_label
_atom_site_fract_x
_atom_site_fract_y
_atom_site_fract_z
Si Si1 0.329451 0.180587 0.322731
Si Si2 0.537763 0.319448 0.246979
Si Si3 0.850666 0.824008 0.712783
Si Si4 0.114643 0.676910 0.411528
Si Si5 0.614134 0.175366 0.815136
Si Si6 0.555899 0.178428 0.016989
Si Si7 0.283857 0.676715 0.929204
O O1 0.415798 0.249246 0.314305
O O2 0.205663 0.241155 0.396193
O O3 0.368905 0.249251 0.247977
O O4 0.328072 0.000000 0.328134
O O5 0.532884 0.500000 0.248608
O O6 0.592329 0.263447 0.268395
O O7 0.608907 0.261207 0.159426
O O8 0.891833 0.735460 0.641497
O O9 0.720358 0.799547 0.791280
O O10 0.877862 0.000000 0.688913
O O11 0.141088 0.500000 0.396249
O O12 0.000000 0.714521 0.500000
O O13 0.506914 0.247972 0.900193
O O14 0.595091 0.000000 0.815002
O O15 0.531087 0.000000 0.030535
O O16 0.500000 0.254603 0.000000
O O17 0.684014 0.212138 0.946861
O O18 0.296343 0.500000 0.932760
O O19 0.250000 0.750000 0.000000
#
# Coordination Sequence:
#
# PCOD8095265 Si02
#       7
#     8   8   8   8   8   8   8
#     4  10  20  34  55  79 103 137 179 217 257 313
#     4  10  20  34  51  75 110 146 182 226 270 312
#     4   9  18  33  54  79 107 142 181 219 263 315
#     4  10  21  38  60  85 111 136 165 206 259 320
#     4   8  14  26  44  67  94 126 170 218 257 300
#     4   9  15  24  42  67  93 125 169 216 257 298
#     4  10  20  32  48  72 104 142 181 224 271 314
#
# _framework density 19.326262
#
# number of rings (size 3 to 8) (size 9 to 14) (size 15 to 20)
#    0.000    2.571    0.000    3.429    0.000    6.857 
#    0.000    0.714    0.000    0.429    0.000    0.000 
#    0.000    0.000    0.000    0.000    0.000    0.000 
#
# Total GULP energy -346969.234296 kJ/mol
# GULP energy per Si atom -12391.758368 kJ/mol
# Density = 1.928227 g / cm^3
# Si number density = 19.326262 Si / 1000 Ang^3
#
#
#
# Elastic Constant Matrix: (Units=GPa)
#
#
# Indices 1 2 3 4 5 6 
#
# 1 89.5330 27.3273 20.1487 0.0003 -11.4823 -0.0006
# 2 27.3273 44.3255 30.1346 0.0004 -6.4209 -0.0017
# 3 20.1487 30.1346 89.5137 0.0001 -12.6949 -0.0002
# 4 0.0003 0.0004 0.0001 22.9331 0.0000 -0.7708
# 5 -11.4823 -6.4209 -12.6949 0.0000 26.1597 0.0001
# 6 -0.0006 -0.0017 -0.0002 -0.7708 0.0001 25.9312
#
#
#
# Elastic Compliance Matrix: (Units=1/GPa)
#
#
# Indices 1 2 3 4 5 6 
#
# 1 0.014199 -0.008264 0.000196 0.000000 0.004299 0.000000
# 2 -0.008264 0.034229 -0.009650 0.000000 0.000091 0.000002
# 3 0.000196 -0.009650 0.015091 0.000000 0.005041 -0.000001
# 4 0.000000 0.000000 0.000000 0.043649 0.000000 0.001297
# 5 0.004299 0.000091 0.005041 0.000000 0.042582 0.000000
# 6 0.000000 0.000002 -0.000001 0.001297 0.000000 0.038602
#
#
# Mechanical properties :
#
#
# Convention : Reuss Voigt Hill
#
# Bulk Modulus (GPa) = 35.61003 42.06593 38.83798
# Shear Modulus (GPa) = 21.44550 24.72224 23.08387
#
# Velocity S-wave (km/s) = 3.33476 3.58048 3.45980
# Velocity P-wave (km/s) = 5.77003 6.23751 6.00832
#
# Compressibility (1/GPa) = 0.02808198
#
# Stress axis : x y z
#
# Youngs Moduli (GPa) = 70.42904 29.21496 66.26482
#
# Poissons Ratio (x) = 0.24143 -0.01297
# Poissons Ratio (y) = 0.58203 0.63946
# Poissons Ratio (z) = -0.01379 0.28193
#
# Static dielectric constant tensor:
#      x y z
#    x 3.749790 0.000000 -0.102230 
#    y 0.000000 3.153390 0.000000 
#    z -0.102230 0.000000 3.605830 
# 
# 
# High freq. dielectric constant tensor:
#      x y z
#    x 1.759620 0.000000 -0.010670 
#    y 0.000000 1.715990 0.000000 
#    z -0.010670 0.000000 1.745870 
# 
# From -- ./inp_files/363014.got.cif
#   From: 2010.06.25/outbox.cif.g09.slc.cpg/sg12_182_cif.got.tgz:363014.got - 2010.06.28 00:19:55.
