data_PCOD8095203
_publ_section_title
;
Structure prediction by ZEFSAII (Michael W. Deem and Ramdas Pophale) SiO2 
 PCOD8095203
Probable space group: C 2/M
;
_chemical_formula_sum "Si O2"
_cell_formula_units_Z 64
_cell_length_a 24.942833
_cell_length_b 9.384623
_cell_length_c 16.296487
_cell_angle_alpha 90.000000
_cell_angle_beta 75.436274
_cell_angle_gamma 90.000000
_cell_volume 3692.096025
_symmetry_space_group_name_H-M "C 2/M"
_symmetry_group_IT_number 12
_symmetry_cell_setting 'monoclinic'
loop_
_space_group_symop_operation_xyz
x,y,z
-x,y,-z
-x,-y,-z
x,-y,z
1/2+x,1/2+y,z
1/2-x,1/2+y,-z
1/2-x,1/2-y,-z
1/2+x,1/2-y,z
loop_
_atom_site_type_symbol
_atom_site_label
_atom_site_fract_x
_atom_site_fract_y
_atom_site_fract_z
Si Si1 0.928449 0.665238 0.176811
Si Si2 0.877861 0.664726 0.722365
Si Si3 0.436625 0.835858 0.531301
Si Si4 0.065501 0.160616 0.982238
Si Si5 0.712436 0.337679 0.322685
Si Si6 0.845372 0.166940 0.486335
Si Si7 0.943983 0.666853 0.856752
Si Si8 0.329915 0.164014 0.333346
O O1 0.923017 0.500000 0.154066
O O2 0.909850 0.758251 0.105883
O O3 0.887070 0.704459 0.266471
O O4 0.990924 0.701071 0.181478
O O5 0.863198 0.500000 0.735817
O O6 0.917644 0.696944 0.630762
O O7 0.819451 0.745088 0.733257
O O8 0.910469 0.718311 0.789887
O O9 0.500000 0.793726 0.500000
O O10 0.405116 0.737165 0.478674
O O11 0.426107 0.000000 0.511366
O O12 0.089416 0.000000 0.976783
O O13 0.081989 0.245689 0.057811
O O14 0.000000 0.158637 0.000000
O O15 0.696527 0.500000 0.310354
O O16 0.694173 0.296363 0.422009
O O17 0.778352 0.311340 0.291013
O O18 0.819730 0.235946 0.415080
O O19 0.852499 0.000000 0.469432
O O20 0.935760 0.500000 0.877546
O O21 0.330524 0.000000 0.362738
#
# Coordination Sequence:
#
# PCOD8095203 Si02
#       8
#     8   8   8   8   8   8   8   8
#     4   9  18  31  50  74  99 125 155 197 244 285
#     4   9  18  31  49  73  95 124 164 203 239 283
#     4   9  18  31  49  68  95 131 165 202 241 284
#     4   9  17  30  48  71 101 130 155 185 233 294
#     4   9  19  35  50  68  96 130 167 205 245 286
#     4  10  20  32  47  69  98 130 165 204 247 289
#     4   9  17  30  50  74  99 124 158 196 234 287
#     4  10  20  33  52  73  95 127 167 207 243 286
#
# _framework density 17.334326999999998
#
# number of rings (size 3 to 8) (size 9 to 14) (size 15 to 20)
#    0.000    2.750    0.000    1.125    1.750    3.750 
#    0.000    0.000    0.000    0.750    0.000    0.000 
#    0.000    0.000    0.000    0.000    0.000    0.000 
#
# Total GULP energy -396813.105118 kJ/mol
# GULP energy per Si atom -12400.409535 kJ/mol
# Density = 1.729487 g / cm^3
# Si number density = 17.334327 Si / 1000 Ang^3
#
#
#
# Elastic Constant Matrix: (Units=GPa)
#
#
# Indices 1 2 3 4 5 6 
#
# 1 82.8540 40.6647 40.3499 0.0000 17.0888 0.0000
# 2 40.6647 73.8199 44.8534 0.0000 12.5294 0.0000
# 3 40.3499 44.8534 74.7783 0.0000 21.6879 0.0000
# 4 0.0000 0.0000 0.0000 24.7643 0.0000 6.5836
# 5 17.0888 12.5294 21.6879 0.0000 22.3970 0.0000
# 6 0.0000 0.0000 0.0000 6.5836 0.0000 25.6246
#
#
#
# Elastic Compliance Matrix: (Units=1/GPa)
#
#
# Indices 1 2 3 4 5 6 
#
# 1 0.018730 -0.006638 -0.004251 0.000000 -0.006461 0.000000
# 2 -0.006638 0.023674 -0.011466 0.000000 0.002924 0.000000
# 3 -0.004251 -0.011466 0.027453 0.000000 -0.016926 0.000000
# 4 0.000000 0.000000 0.000000 0.043341 0.000000 -0.011135
# 5 -0.006461 0.002924 -0.016926 0.000000 0.064333 0.000000
# 6 0.000000 0.000000 0.000000 -0.011135 0.000000 0.041886
#
#
# Mechanical properties :
#
#
# Convention : Reuss Voigt Hill
#
# Bulk Modulus (GPa) = 39.76707 53.68759 46.72733
# Shear Modulus (GPa) = 18.34790 21.59613 19.97201
#
# Velocity S-wave (km/s) = 3.25695 3.53350 3.39804
# Velocity P-wave (km/s) = 6.09382 6.90555 6.51234
#
# Compressibility (1/GPa) = 0.02514643
#
# Stress axis : x y z
#
# Youngs Moduli (GPa) = 53.38912 42.24076 36.42528
#
# Poissons Ratio (x) = 0.28040 0.15485
# Poissons Ratio (y) = 0.35441 0.41766
# Poissons Ratio (z) = 0.22697 0.48434
#
# Static dielectric constant tensor:
#      x y z
#    x 3.182880 0.000000 0.070780 
#    y 0.000000 3.277450 0.000000 
#    z 0.070780 0.000000 3.127540 
# 
# 
# High freq. dielectric constant tensor:
#      x y z
#    x 1.656610 0.000000 0.007850 
#    y 0.000000 1.669390 0.000000 
#    z 0.007850 0.000000 1.654250 
# 
# From -- ./inp_files/244008.got.cif
#   From: 2010.06.25/outbox.cif.g09.slc.cpg/sg12_123_cif.got.tgz:244008.got - 2010.06.28 00:19:55.
