data_PCOD8095774
_publ_section_title
;
Structure prediction by ZEFSAII (Michael W. Deem and Ramdas Pophale) SiO2 
 PCOD8095774
Probable space group: C 2/M
;
_chemical_formula_sum "Si O2"
_cell_formula_units_Z 64
_cell_length_a 29.837754
_cell_length_b 8.688430
_cell_length_c 15.105795
_cell_angle_alpha 90.000000
_cell_angle_beta 60.362876
_cell_angle_gamma 90.000000
_cell_volume 3403.753498
_symmetry_space_group_name_H-M "C 2/M"
_symmetry_group_IT_number 12
_symmetry_cell_setting 'monoclinic'
loop_
_space_group_symop_operation_xyz
x,y,z
-x,y,-z
-x,-y,-z
x,-y,z
1/2+x,1/2+y,z
1/2-x,1/2+y,-z
1/2-x,1/2-y,-z
1/2+x,1/2-y,z
loop_
_atom_site_type_symbol
_atom_site_label
_atom_site_fract_x
_atom_site_fract_y
_atom_site_fract_z
Si Si1 0.029884 0.684067 0.716335
Si Si2 0.112633 0.322487 0.770011
Si Si3 0.226889 0.678231 0.609680
Si Si4 0.248894 0.681923 0.229606
Si Si5 0.449453 0.183264 0.499402
Si Si6 0.136951 0.316907 0.284708
Si Si7 0.586365 0.183317 0.154517
Si Si8 0.146484 0.316489 0.924448
O O1 0.031324 0.500000 0.715587
O O2 0.066568 0.753864 0.757817
O O3 0.050401 0.744858 0.601502
O O4 0.972129 0.744933 0.789560
O O5 0.099050 0.500000 0.795277
O O6 0.165491 0.299729 0.664897
O O7 0.118330 0.251159 0.863197
O O8 0.241795 0.500000 0.603306
O O9 0.250000 0.750000 0.500000
O O10 0.250509 0.767230 0.669440
O O11 0.253764 0.500000 0.219523
O O12 0.195268 0.741279 0.240083
O O13 0.295042 0.756435 0.128257
O O14 0.500000 0.246619 0.500000
O O15 0.398737 0.244725 0.599947
O O16 0.450639 0.000000 0.498671
O O17 0.134904 0.500000 0.285995
O O18 0.115280 0.252196 0.212979
O O19 0.586614 0.000000 0.154750
O O20 0.615561 0.246098 0.039210
O O21 0.148976 0.500000 0.918791
#
# Coordination Sequence:
#
# PCOD8095774 Si02
#       8
#     8   8   8   8   8   8   8   8
#     4   9  15  23  40  66  95 126 158 195 248 308
#     4   8  16  28  42  65  96 127 158 195 243 296
#     4  10  20  34  51  74 104 134 167 203 244 290
#     4  10  20  33  50  71  98 131 169 207 244 289
#     4   9  14  22  37  59  94 129 153 192 252 304
#     4   9  17  27  41  67  98 127 163 204 248 297
#     4   9  16  27  44  67  96 129 162 203 256 305
#     4   9  18  33  49  67  99 132 160 206 257 297
#
# _framework density 18.802772000000001
#
# number of rings (size 3 to 8) (size 9 to 14) (size 15 to 20)
#    0.000    2.875    1.250    1.500    1.750    1.000 
#    0.000    2.500    0.000    0.750    0.000    7.875 
#    0.000    3.500    0.000    0.000    0.000    0.000 
#
# Total GULP energy -396675.053860 kJ/mol
# GULP energy per Si atom -12396.095433 kJ/mol
# Density = 1.875998 g / cm^3
# Si number density = 18.802772 Si / 1000 Ang^3
#
#
#
# Elastic Constant Matrix: (Units=GPa)
#
#
# Indices 1 2 3 4 5 6 
#
# 1 178.9736 13.1683 87.2814 0.0000 -3.2640 0.0000
# 2 13.1683 14.4553 13.4083 0.0001 -2.0102 0.0001
# 3 87.2814 13.4083 183.7285 0.0000 -4.4911 0.0000
# 4 0.0000 0.0001 0.0000 16.5139 0.0000 -3.7325
# 5 -3.2640 -2.0102 -4.4911 0.0000 19.1982 0.0000
# 6 0.0000 0.0001 0.0000 -3.7325 0.0000 15.9811
#
#
#
# Elastic Compliance Matrix: (Units=1/GPa)
#
#
# Indices 1 2 3 4 5 6 
#
# 1 0.007458 -0.003749 -0.003267 0.000000 0.000111 0.000000
# 2 -0.003749 0.076911 -0.003672 0.000000 0.006557 -0.000001
# 3 -0.003267 -0.003672 0.007281 0.000000 0.000763 0.000000
# 4 0.000000 0.000000 0.000000 0.063930 0.000000 0.014931
# 5 0.000111 0.006557 0.000763 0.000000 0.052972 0.000000
# 6 0.000000 -0.000001 0.000000 0.014931 0.000000 0.066061
#
#
# Mechanical properties :
#
#
# Convention : Reuss Voigt Hill
#
# Bulk Modulus (GPa) = 14.22952 67.20815 40.71883
# Shear Modulus (GPa) = 15.65363 27.89193 21.77278
#
# Velocity S-wave (km/s) = 2.88847 3.85566 3.40657
# Velocity P-wave (km/s) = 4.32534 7.45941 6.09719
#
# Compressibility (1/GPa) = 0.07027642
#
# Stress axis : x y z
#
# Youngs Moduli (GPa) = 134.07613 13.00201 137.33623
#
# Poissons Ratio (x) = 0.04874 0.44866
# Poissons Ratio (y) = 0.50260 0.50427
# Poissons Ratio (z) = 0.43801 0.04774
#
# Static dielectric constant tensor:
#      x y z
#    x 3.758070 0.000000 0.087910 
#    y 0.000000 2.832020 0.000000 
#    z 0.087910 0.000000 3.663120 
# 
# 
# High freq. dielectric constant tensor:
#      x y z
#    x 1.740300 0.000000 0.001050 
#    y 0.000000 1.663400 0.000000 
#    z 0.001050 0.000000 1.739680 
# 
# From -- ./inp_files/249121.got.cif
#   From: 2010.06.25/outbox.cif.g09.slc.cpg/sg12_125_cif.got.tgz:249121.got - 2010.06.28 00:19:55.
