data_PCOD8095294
_publ_section_title
;
Structure prediction by ZEFSAII (Michael W. Deem and Ramdas Pophale) SiO2 
 PCOD8095294
Probable space group: C 2/M
;
_chemical_formula_sum "Si O2"
_cell_formula_units_Z 64
_cell_length_a 27.827435
_cell_length_b 9.258867
_cell_length_c 14.320631
_cell_angle_alpha 90.000000
_cell_angle_beta 75.692375
_cell_angle_gamma 90.000000
_cell_volume 3575.273488
_symmetry_space_group_name_H-M "C 2/M"
_symmetry_group_IT_number 12
_symmetry_cell_setting 'monoclinic'
loop_
_space_group_symop_operation_xyz
x,y,z
-x,y,-z
-x,-y,-z
x,-y,z
1/2+x,1/2+y,z
1/2-x,1/2+y,-z
1/2-x,1/2-y,-z
1/2+x,1/2-y,z
loop_
_atom_site_type_symbol
_atom_site_label
_atom_site_fract_x
_atom_site_fract_y
_atom_site_fract_z
Si Si1 0.394837 0.332809 0.597507
Si Si2 0.313098 0.666886 0.785864
Si Si3 0.410102 0.170471 0.400226
Si Si4 0.644208 0.328198 0.042048
Si Si5 0.982658 0.341743 0.614105
Si Si6 0.713284 0.664896 0.845280
Si Si7 0.120874 0.165064 0.760677
Si Si8 0.944729 0.828316 0.035664
O O1 0.405277 0.500000 0.570609
O O2 0.343860 0.309885 0.676887
O O3 0.390859 0.244530 0.504040
O O4 0.439068 0.275390 0.643622
O O5 0.302122 0.500000 0.809949
O O6 0.343931 0.729210 0.859870
O O7 0.261318 0.744550 0.797163
O O8 0.468284 0.205849 0.352293
O O9 0.379256 0.232725 0.329112
O O10 0.401179 0.000000 0.414649
O O11 0.642018 0.500000 0.037740
O O12 0.687838 0.274417 0.951912
O O13 0.590644 0.269666 0.031486
O O14 0.963641 0.500000 0.656489
O O15 0.000000 0.353621 0.500000
O O16 0.729685 0.500000 0.851292
O O17 0.675120 0.679601 0.778570
O O18 0.079160 0.217871 0.854156
O O19 0.110522 0.000000 0.735505
O O20 0.947224 0.000000 0.029173
O O21 0.000000 0.761229 0.000000
#
# Coordination Sequence:
#
# PCOD8095294 Si02
#       8
#     8   8   8   8   8   8   8   8
#     4  10  20  32  48  74 103 128 161 206 248 286
#     4  10  20  32  49  74 101 127 159 205 252 291
#     4  10  20  34  52  72  97 133 169 200 241 293
#     4   8  15  29  47  70 100 129 160 196 236 290
#     4   8  16  31  48  67  94 127 160 193 234 286
#     4   9  18  33  52  72  96 128 164 202 245 294
#     4   9  18  32  51  75  99 127 168 209 240 283
#     4   8  14  26  47  75 105 133 158 192 241 290
#
# _framework density 17.900728999999998
#
# number of rings (size 3 to 8) (size 9 to 14) (size 15 to 20)
#    0.000    3.000    0.000    3.375    0.000    5.250 
#    0.000    3.125    0.000    1.125    0.000    0.000 
#    0.000    0.000    0.000    0.000    0.000    0.000 
#
# Total GULP energy -396655.097861 kJ/mol
# GULP energy per Si atom -12395.471808 kJ/mol
# Density = 1.785999 g / cm^3
# Si number density = 17.900729 Si / 1000 Ang^3
#
#
#
# Elastic Constant Matrix: (Units=GPa)
#
#
# Indices 1 2 3 4 5 6 
#
# 1 111.4803 48.0801 56.3724 0.0000 -9.3666 0.0000
# 2 48.0801 70.6320 47.5348 0.0000 -1.9928 0.0000
# 3 56.3724 47.5348 84.7334 0.0000 4.7447 0.0000
# 4 0.0000 0.0000 0.0000 15.3369 0.0000 -0.9779
# 5 -9.3666 -1.9928 4.7447 0.0000 27.4209 0.0000
# 6 0.0000 0.0000 0.0000 -0.9779 0.0000 28.2019
#
#
#
# Elastic Compliance Matrix: (Units=1/GPa)
#
#
# Indices 1 2 3 4 5 6 
#
# 1 0.015759 -0.005224 -0.007910 0.000000 0.006372 0.000000
# 2 -0.005224 0.024897 -0.010596 0.000000 0.001858 0.000000
# 3 -0.007910 -0.010596 0.023430 0.000000 -0.007526 0.000000
# 4 0.000000 0.000000 0.000000 0.065347 0.000000 0.002266
# 5 0.006372 0.001858 -0.007526 0.000000 0.040083 0.000000
# 6 0.000000 0.000000 0.000000 0.002266 0.000000 0.035537
#
#
# Mechanical properties :
#
#
# Convention : Reuss Voigt Hill
#
# Bulk Modulus (GPa) = 60.14731 63.42449 61.78590
# Shear Modulus (GPa) = 19.37580 21.84916 20.61248
#
# Velocity S-wave (km/s) = 3.29356 3.49746 3.39704
# Velocity P-wave (km/s) = 6.93807 7.19846 7.06946
#
# Compressibility (1/GPa) = 0.01662585
#
# Stress axis : x y z
#
# Youngs Moduli (GPa) = 63.45770 40.16541 42.68016
#
# Poissons Ratio (x) = 0.20981 0.33762
# Poissons Ratio (y) = 0.33148 0.45223
# Poissons Ratio (z) = 0.50198 0.42559
#
# Static dielectric constant tensor:
#      x y z
#    x 3.525070 0.000000 0.057510 
#    y 0.000000 3.090660 0.000000 
#    z 0.057510 0.000000 3.151010 
# 
# 
# High freq. dielectric constant tensor:
#      x y z
#    x 1.695360 0.000000 0.004360 
#    y 0.000000 1.668030 0.000000 
#    z 0.004360 0.000000 1.679680 
# 
# From -- ./inp_files/243812.got.cif
#   From: 2010.06.25/outbox.cif.g09.slc.cpg/sg12_122_cif.got.tgz:243812.got - 2010.06.28 00:19:55.
