data_PCOD8095345
_publ_section_title
;
Structure prediction by ZEFSAII (Michael W. Deem and Ramdas Pophale) SiO2 
 PCOD8095345
Probable space group: C 2/M
;
_chemical_formula_sum "Si O2"
_cell_formula_units_Z 48
_cell_length_a 22.783624
_cell_length_b 8.774954
_cell_length_c 26.518725
_cell_angle_alpha 90.000000
_cell_angle_beta 149.317658
_cell_angle_gamma 90.000000
_cell_volume 2705.372361
_symmetry_space_group_name_H-M "C 2/M"
_symmetry_group_IT_number 12
_symmetry_cell_setting 'monoclinic'
loop_
_space_group_symop_operation_xyz
x,y,z
-x,y,-z
-x,-y,-z
x,-y,z
1/2+x,1/2+y,z
1/2-x,1/2+y,-z
1/2-x,1/2-y,-z
1/2+x,1/2-y,z
loop_
_atom_site_type_symbol
_atom_site_label
_atom_site_fract_x
_atom_site_fract_y
_atom_site_fract_z
Si Si1 0.884943 0.167945 0.392828
Si Si2 0.788395 0.678995 0.605004
Si Si3 0.390844 0.819464 0.886558
Si Si4 0.852756 0.832942 0.256185
Si Si5 0.662975 0.323483 0.255547
Si Si6 0.919779 0.321667 0.601222
O O1 0.906439 0.145947 0.350355
O O2 0.794536 0.298235 0.338119
O O3 0.000000 0.235266 0.500000
O O4 0.851770 0.000000 0.391465
O O5 0.777669 0.500000 0.603676
O O6 0.854442 0.746401 0.702727
O O7 0.867453 0.725096 0.616351
O O8 0.658703 0.743982 0.500539
O O9 0.276079 0.760861 0.831702
O O10 0.409292 0.750409 0.844140
O O11 0.377987 0.000000 0.869981
O O12 0.500000 0.771234 0.000000
O O13 0.945790 0.728259 0.296377
O O14 0.844486 0.000000 0.223475
O O15 0.631093 0.500000 0.235744
O O16 0.914838 0.500000 0.587425
#
# Coordination Sequence:
#
# PCOD8095345 Si02
#       6
#     8   8   8   8   8   8
#     4   9  17  29  45  66  95 131 164 193 234 290
#     4  10  20  34  50  69 100 140 174 202 236 286
#     4   9  19  37  58  76  96 127 164 200 247 306
#     4   9  17  29  48  73  99 128 160 197 243 294
#     4  11  21  31  48  74 100 126 160 205 250 289
#     4  10  20  32  49  74 102 134 170 206 242 282
#
# _framework density 17.742474000000001
#
# number of rings (size 3 to 8) (size 9 to 14) (size 15 to 20)
#    0.000    2.333    0.000    4.500    0.000    6.667 
#    0.000    0.000    0.000    1.000    0.000    0.000 
#    0.000    0.000    0.000    0.000    0.000    0.000 
#
# Total GULP energy -297336.871387 kJ/mol
# GULP energy per Si atom -12389.036308 kJ/mol
# Density = 1.770209 g / cm^3
# Si number density = 17.742474 Si / 1000 Ang^3
#
#
#
# Elastic Constant Matrix: (Units=GPa)
#
#
# Indices 1 2 3 4 5 6 
#
# 1 79.7234 31.3248 46.0455 0.0000 -2.9519 0.0000
# 2 31.3248 74.3659 32.8056 0.0003 -4.7189 0.0002
# 3 46.0455 32.8056 133.1489 0.0004 -7.9126 0.0000
# 4 0.0000 0.0003 0.0004 21.3677 0.0000 0.0324
# 5 -2.9519 -4.7189 -7.9126 0.0000 27.4875 0.0000
# 6 0.0000 0.0002 0.0000 0.0324 0.0000 24.2979
#
#
#
# Elastic Compliance Matrix: (Units=1/GPa)
#
#
# Indices 1 2 3 4 5 6 
#
# 1 0.017312 -0.005235 -0.004721 0.000000 -0.000398 0.000000
# 2 -0.005235 0.016735 -0.002213 0.000000 0.001674 0.000000
# 3 -0.004721 -0.002213 0.009803 0.000000 0.001935 0.000000
# 4 0.000000 0.000000 0.000000 0.046800 0.000000 -0.000062
# 5 -0.000398 0.001674 0.001935 0.000000 0.037182 0.000000
# 6 0.000000 0.000000 0.000000 -0.000062 0.000000 0.041156
#
#
# Mechanical properties :
#
#
# Convention : Reuss Voigt Hill
#
# Bulk Modulus (GPa) = 51.25091 56.39889 53.82490
# Shear Modulus (GPa) = 25.02131 26.43476 25.72804
#
# Velocity S-wave (km/s) = 3.75940 3.86413 3.81213
# Velocity P-wave (km/s) = 6.91324 7.19480 7.05542
#
# Compressibility (1/GPa) = 0.01951185
#
# Stress axis : x y z
#
# Youngs Moduli (GPa) = 57.76309 59.75588 102.00738
#
# Poissons Ratio (x) = 0.31283 0.48155
# Poissons Ratio (y) = 0.30240 0.22577
# Poissons Ratio (z) = 0.27268 0.13226
#
# Static dielectric constant tensor:
#      x y z
#    x 3.418500 0.000000 -0.106280 
#    y 0.000000 3.235970 0.000000 
#    z -0.106280 0.000000 3.249310 
# 
# 
# High freq. dielectric constant tensor:
#      x y z
#    x 1.676740 0.000000 -0.002370 
#    y 0.000000 1.682690 0.000000 
#    z -0.002370 0.000000 1.664890 
# 
# From -- ./inp_files/381791.got.cif
#   From: 2010.06.25/outbox.cif.g09.slc.cpg/sg12_191_cif.got.tgz:381791.got - 2010.06.28 00:19:55.
