data_PCOD8095450
_publ_section_title
;
Structure prediction by ZEFSAII (Michael W. Deem and Ramdas Pophale) SiO2 
 PCOD8095450
Probable space group: C 2/M
;
_chemical_formula_sum "Si O2"
_cell_formula_units_Z 52
_cell_length_a 8.778148
_cell_length_b 20.924260
_cell_length_c 15.187146
_cell_angle_alpha 90.000000
_cell_angle_beta 85.199589
_cell_angle_gamma 90.000000
_cell_volume 2779.733135
_symmetry_space_group_name_H-M "C 2/M"
_symmetry_group_IT_number 12
_symmetry_cell_setting 'monoclinic'
loop_
_space_group_symop_operation_xyz
x,y,z
-x,y,-z
-x,-y,-z
x,-y,z
1/2+x,1/2+y,z
1/2-x,1/2+y,-z
1/2-x,1/2-y,-z
1/2+x,1/2-y,z
loop_
_atom_site_type_symbol
_atom_site_label
_atom_site_fract_x
_atom_site_fract_y
_atom_site_fract_z
Si Si1 0.839977 0.076215 0.902749
Si Si2 0.144847 0.423914 0.276188
Si Si3 0.680150 0.424798 0.904221
Si Si4 0.334350 0.428056 0.550948
Si Si5 0.303843 0.925514 0.264829
Si Si6 0.258158 0.164638 0.575352
Si Si7 0.500000 0.258920 0.500000
O O1 0.745456 0.106736 0.825505
O O2 0.013228 0.102544 0.887606
O O3 0.837998 0.000000 0.894906
O O4 0.768746 0.098871 0.000297
O O5 0.171323 0.500000 0.295201
O O6 0.197340 0.405486 0.175112
O O7 0.242466 0.379105 0.337160
O O8 0.968680 0.401960 0.291088
O O9 0.663455 0.500000 0.910348
O O10 0.500000 0.417442 0.500000
O O11 0.278021 0.500000 0.539776
O O12 0.326302 0.410824 0.655237
O O13 0.212460 0.383382 0.507690
O O14 0.320362 0.000000 0.246452
O O15 0.390573 0.217297 0.568058
O O16 0.094305 0.198536 0.565801
#
# Coordination Sequence:
#
# PCOD8095450 Si02
#       7
#     8   8   8   8   8   8   4
#     4   8  14  26  42  63 102 145 175 200 231 298
#     4  10  20  32  51  79 109 136 166 210 262 313
#     4   8  15  26  43  70 102 140 173 201 245 299
#     4  10  20  32  51  79 106 136 170 209 258 307
#     4   9  18  29  43  69 105 144 174 199 246 306
#     4  11  21  39  53  75  99 135 172 219 254 304
#     4  10  24  38  56  68  98 136 182 216 256 294
#
# _framework density 18.706831000000001
#
# number of rings (size 3 to 8) (size 9 to 14) (size 15 to 20)
#    0.000    2.615    0.769    2.308    2.154    0.615 
#    0.000    6.154    0.000    0.000    0.000    0.000 
#    0.000   41.846    0.000    0.000    0.000    0.000 
#
# Total GULP energy -322097.193812 kJ/mol
# GULP energy per Si atom -12388.353608 kJ/mol
# Density = 1.866425 g / cm^3
# Si number density = 18.706831 Si / 1000 Ang^3
#
#
#
# Elastic Constant Matrix: (Units=GPa)
#
#
# Indices 1 2 3 4 5 6 
#
# 1 93.5803 31.8251 65.4031 0.0000 2.4949 0.0000
# 2 31.8251 58.3979 46.6207 0.0000 4.2222 0.0000
# 3 65.4031 46.6207 147.2317 0.0000 7.2839 0.0000
# 4 0.0000 0.0000 0.0000 8.9338 0.0000 7.2174
# 5 2.4949 4.2222 7.2839 0.0000 30.3691 0.0000
# 6 0.0000 0.0000 0.0000 7.2174 0.0000 15.1673
#
#
#
# Elastic Compliance Matrix: (Units=1/GPa)
#
#
# Indices 1 2 3 4 5 6 
#
# 1 0.016222 -0.004161 -0.005921 0.000000 0.000666 0.000000
# 2 -0.004161 0.024049 -0.005685 0.000000 -0.001638 0.000000
# 3 -0.005921 -0.005685 0.011294 0.000000 -0.001432 0.000000
# 4 0.000000 0.000000 0.000000 0.181838 0.000000 -0.086527
# 5 0.000666 -0.001638 -0.001432 0.000000 0.033445 0.000000
# 6 0.000000 0.000000 0.000000 -0.086527 0.000000 0.107105
#
#
# Mechanical properties :
#
#
# Convention : Reuss Voigt Hill
#
# Bulk Modulus (GPa) = 49.93010 65.21197 57.57104
# Shear Modulus (GPa) = 12.13107 21.25143 16.69125
#
# Velocity S-wave (km/s) = 2.54930 3.37415 2.99030
# Velocity P-wave (km/s) = 5.95097 7.07923 6.53948
#
# Compressibility (1/GPa) = 0.02002800
#
# Stress axis : x y z
#
# Youngs Moduli (GPa) = 61.64520 41.58165 88.54646
#
# Poissons Ratio (x) = 0.17304 0.52431
# Poissons Ratio (y) = 0.25653 0.50343
# Poissons Ratio (z) = 0.36502 0.23641
#
# Static dielectric constant tensor:
#      x y z
#    x 3.489430 0.000000 0.080260 
#    y 0.000000 3.108120 0.000000 
#    z 0.080260 0.000000 3.711620 
# 
# 
# High freq. dielectric constant tensor:
#      x y z
#    x 1.723630 0.000000 0.002220 
#    y 0.000000 1.667990 0.000000 
#    z 0.002220 0.000000 1.732810 
# 
# From -- ./inp_files/197996.got.cif
#   From: 2010.06.25/outbox.cif.g09.slc.cpg/sg12_99_cif.got.tgz:197996.got - 2010.06.28 00:19:55.
