data_PCOD8095368
_publ_section_title
;
Structure prediction by ZEFSAII (Michael W. Deem and Ramdas Pophale) SiO2 
 PCOD8095368
Probable space group: C 2/M
;
_chemical_formula_sum "Si O2"
_cell_formula_units_Z 56
_cell_length_a 23.567937
_cell_length_b 9.106301
_cell_length_c 17.243251
_cell_angle_alpha 90.000000
_cell_angle_beta 49.231350
_cell_angle_gamma 90.000000
_cell_volume 2802.726793
_symmetry_space_group_name_H-M "C 2/M"
_symmetry_group_IT_number 12
_symmetry_cell_setting 'monoclinic'
loop_
_space_group_symop_operation_xyz
x,y,z
-x,y,-z
-x,-y,-z
x,-y,z
1/2+x,1/2+y,z
1/2-x,1/2+y,-z
1/2-x,1/2-y,-z
1/2+x,1/2-y,z
loop_
_atom_site_type_symbol
_atom_site_label
_atom_site_fract_x
_atom_site_fract_y
_atom_site_fract_z
Si Si1 0.440112 0.660316 0.115484
Si Si2 0.778274 0.672050 0.699000
Si Si3 0.925292 0.830462 0.519197
Si Si4 0.958880 0.829910 0.314667
Si Si5 0.949625 0.673180 0.876058
Si Si6 0.168623 0.327293 0.894478
Si Si7 0.701838 0.332003 0.606315
O O1 0.403456 0.500000 0.174812
O O2 0.481211 0.742958 0.147244
O O3 0.383282 0.775261 0.129399
O O4 0.500000 0.612822 0.000000
O O5 0.782141 0.500000 0.709446
O O6 0.861090 0.731622 0.613167
O O7 0.746617 0.744168 0.807677
O O8 0.725685 0.714058 0.672239
O O9 0.937254 0.781218 0.420210
O O10 0.000000 0.800245 0.500000
O O11 0.900580 0.000000 0.545732
O O12 0.886453 0.797475 0.324350
O O13 0.034685 0.735616 0.224442
O O14 0.982028 0.000000 0.291106
O O15 0.961084 0.500000 0.870827
O O16 0.869845 0.714834 0.987735
O O17 0.181454 0.500000 0.878179
O O18 0.720158 0.500000 0.573815
O O19 0.750000 0.250000 0.500000
#
# Coordination Sequence:
#
# PCOD8095368 Si02
#       7
#     8   8   8   8   8   8   8
#     4   9  16  27  44  68 103 146 187 224 263 314
#     4  11  22  35  56  86 116 148 186 229 280 333
#     4  10  22  41  63  84 108 144 188 231 279 336
#     4  10  20  35  56  82 113 148 185 227 277 332
#     4  10  20  32  49  76 109 147 188 227 272 327
#     4  10  20  33  50  75 109 148 188 228 271 326
#     4  10  20  33  51  79 113 147 183 222 271 328
#
# _framework density 19.980542
#
# number of rings (size 3 to 8) (size 9 to 14) (size 15 to 20)
#    0.000    2.000    1.429    2.571    0.000    6.571 
#    0.000    0.000    0.000    0.857    0.000    0.000 
#    0.000    0.000    0.000    0.000    0.000    0.000 
#
# Total GULP energy -346909.968168 kJ/mol
# GULP energy per Si atom -12389.641720 kJ/mol
# Density = 1.993507 g / cm^3
# Si number density = 19.980542 Si / 1000 Ang^3
#
#
#
# Elastic Constant Matrix: (Units=GPa)
#
#
# Indices 1 2 3 4 5 6 
#
# 1 46.1675 18.4520 20.4477 0.0002 -9.6976 -0.0006
# 2 18.4520 98.4697 82.6027 -0.0070 -13.5742 0.0015
# 3 20.4477 82.6027 180.6705 -0.0027 -26.4076 0.0017
# 4 0.0002 -0.0070 -0.0027 39.9785 0.0005 -2.5896
# 5 -9.6976 -13.5742 -26.4076 0.0005 7.1338 0.0013
# 6 -0.0006 0.0015 0.0017 -2.5896 0.0013 16.9079
#
#
#
# Elastic Compliance Matrix: (Units=1/GPa)
#
#
# Indices 1 2 3 4 5 6 
#
# 1 0.033898 -0.003405 0.007645 -0.000001 0.067903 -0.000005
# 2 -0.003405 0.017004 -0.007270 0.000002 0.000817 -0.000001
# 3 0.007645 -0.007270 0.016322 -0.000001 0.056979 -0.000005
# 4 -0.000001 0.000002 -0.000001 0.025264 -0.000005 0.003869
# 5 0.067903 0.000817 0.056979 -0.000005 0.444961 -0.000037
# 6 -0.000005 -0.000001 -0.000005 0.003869 -0.000037 0.059737
#
#
# Mechanical properties :
#
#
# Convention : Reuss Voigt Hill
#
# Bulk Modulus (GPa) = 16.34909 63.14585 39.74747
# Shear Modulus (GPa) = 8.01753 26.39105 17.20429
#
# Velocity S-wave (km/s) = 2.00534 3.63828 2.93755
# Velocity P-wave (km/s) = 3.68268 7.02294 5.60731
#
# Compressibility (1/GPa) = 0.06116549
#
# Stress axis : x y z
#
# Youngs Moduli (GPa) = 29.50016 58.80870 61.26848
#
# Poissons Ratio (x) = 0.20023 -0.46841
# Poissons Ratio (y) = 0.10044 0.44540
# Poissons Ratio (z) = -0.22553 0.42751
#
# Static dielectric constant tensor:
#      x y z
#    x 3.188450 0.000000 0.046400 
#    y 0.000000 3.597370 0.000000 
#    z 0.046400 0.000000 4.223190 
# 
# 
# High freq. dielectric constant tensor:
#      x y z
#    x 1.720260 0.000000 -0.003840 
#    y 0.000000 1.782720 0.000000 
#    z -0.003840 0.000000 1.815140 
# 
# From -- ./inp_files/288215.got.cif
#   From: 2010.06.25/outbox.cif.g09.slc.cpg/sg12_145_cif.got.tgz:288215.got - 2010.06.28 00:19:55.
