data_PCOD8095863
_publ_section_title
;
Structure prediction by ZEFSAII (Michael W. Deem and Ramdas Pophale) SiO2 
 PCOD8095863
Probable space group: C 2/M
;
_chemical_formula_sum "Si O2"
_cell_formula_units_Z 64
_cell_length_a 28.139908
_cell_length_b 8.970552
_cell_length_c 16.032743
_cell_angle_alpha 90.000000
_cell_angle_beta 62.197990
_cell_angle_gamma 90.000000
_cell_volume 3579.968735
_symmetry_space_group_name_H-M "C 2/M"
_symmetry_group_IT_number 12
_symmetry_cell_setting 'monoclinic'
loop_
_space_group_symop_operation_xyz
x,y,z
-x,y,-z
-x,-y,-z
x,-y,z
1/2+x,1/2+y,z
1/2-x,1/2+y,-z
1/2-x,1/2-y,-z
1/2+x,1/2-y,z
loop_
_atom_site_type_symbol
_atom_site_label
_atom_site_fract_x
_atom_site_fract_y
_atom_site_fract_z
Si Si1 0.886782 0.674009 0.745076
Si Si2 0.763185 0.674533 0.238243
Si Si3 0.641804 0.323820 0.742842
Si Si4 0.268056 0.825081 0.900286
Si Si5 0.473405 0.323817 0.104132
Si Si6 0.400677 0.676341 0.398315
Si Si7 0.144763 0.825308 0.391560
Si Si8 0.015372 0.823757 0.245691
O O1 0.894917 0.500000 0.726925
O O2 0.830460 0.712417 0.835084
O O3 0.890220 0.747782 0.651359
O O4 0.933011 0.738226 0.764827
O O5 0.769985 0.500000 0.216162
O O6 0.808843 0.732331 0.261930
O O7 0.766894 0.757953 0.146691
O O8 0.707290 0.712039 0.329465
O O9 0.653499 0.500000 0.738153
O O10 0.589158 0.279914 0.839380
O O11 0.632549 0.268982 0.655283
O O12 0.256814 0.000000 0.913963
O O13 0.250000 0.750000 0.000000
O O14 0.477972 0.500000 0.096960
O O15 0.505833 0.269530 0.158732
O O16 0.500000 0.250686 0.000000
O O17 0.397692 0.500000 0.400418
O O18 0.374198 0.741389 0.504020
O O19 0.463110 0.724144 0.342165
O O20 0.133177 0.000000 0.395327
O O21 0.025361 0.000000 0.243159
#
# Coordination Sequence:
#
# PCOD8095863 Si02
#       8
#     8   8   8   8   8   8   8   8
#     4  10  21  35  50  73 104 130 157 201 253 298
#     4  10  20  33  50  74 102 131 166 205 246 297
#     4   9  17  31  51  73  99 130 163 205 253 293
#     4  10  21  37  55  74  99 131 165 203 246 293
#     4   8  15  29  49  73  97 123 161 202 237 285
#     4   8  16  32  52  73  97 129 172 213 245 287
#     4   9  18  34  53  70  94 132 173 208 243 291
#     4   9  17  31  52  74  97 129 168 206 243 290
#
# _framework density 17.877251999999999
#
# number of rings (size 3 to 8) (size 9 to 14) (size 15 to 20)
#    0.000    2.875    0.000    2.625    0.000    4.000 
#    0.000    7.500    0.000    0.750    0.000    0.000 
#    0.000    0.000    0.000    0.000    0.000    0.000 
#
# Total GULP energy -396762.316130 kJ/mol
# GULP energy per Si atom -12398.822379 kJ/mol
# Density = 1.783656 g / cm^3
# Si number density = 17.877252 Si / 1000 Ang^3
#
#
#
# Elastic Constant Matrix: (Units=GPa)
#
#
# Indices 1 2 3 4 5 6 
#
# 1 124.5242 39.7582 53.9573 0.0000 12.5251 0.0000
# 2 39.7582 48.8406 41.3283 0.0000 3.1990 0.0000
# 3 53.9573 41.3283 155.2384 0.0000 8.4657 0.0000
# 4 0.0000 0.0000 0.0000 17.0184 0.0000 3.0929
# 5 12.5251 3.1990 8.4657 0.0000 16.2331 0.0000
# 6 0.0000 0.0000 0.0000 3.0929 0.0000 33.5298
#
#
#
# Elastic Compliance Matrix: (Units=1/GPa)
#
#
# Indices 1 2 3 4 5 6 
#
# 1 0.011955 -0.007854 -0.001694 0.000000 -0.006793 0.000000
# 2 -0.007854 0.031627 -0.005847 0.000000 0.002876 0.000000
# 3 -0.001694 -0.005847 0.008700 0.000000 -0.002078 0.000000
# 4 0.000000 0.000000 0.000000 0.059762 0.000000 -0.005513
# 5 -0.006793 0.002876 -0.002078 0.000000 0.067361 0.000000
# 6 0.000000 0.000000 0.000000 -0.005513 0.000000 0.030333
#
#
# Mechanical properties :
#
#
# Convention : Reuss Voigt Hill
#
# Bulk Modulus (GPa) = 46.52576 66.52118 56.52347
# Shear Modulus (GPa) = 20.18628 26.26022 23.22325
#
# Velocity S-wave (km/s) = 3.36394 3.83680 3.60813
# Velocity P-wave (km/s) = 6.41637 7.54446 7.00316
#
# Compressibility (1/GPa) = 0.02149347
#
# Stress axis : x y z
#
# Youngs Moduli (GPa) = 83.64355 31.61828 114.93600
#
# Poissons Ratio (x) = 0.24832 0.19472
# Poissons Ratio (y) = 0.65691 0.67204
# Poissons Ratio (z) = 0.14170 0.18487
#
# Static dielectric constant tensor:
#      x y z
#    x 3.285240 0.000000 0.044960 
#    y 0.000000 3.058700 0.000000 
#    z 0.044960 0.000000 3.827670 
# 
# 
# High freq. dielectric constant tensor:
#      x y z
#    x 1.694510 0.000000 0.004290 
#    y 0.000000 1.668230 0.000000 
#    z 0.004290 0.000000 1.699120 
# 
# From -- ./inp_files/243782.got.cif
#   From: 2010.06.25/outbox.cif.g09.slc.cpg/sg12_122_cif.got.tgz:243782.got - 2010.06.28 00:19:55.
