data_PCOD8095080
_publ_section_title
;
Structure prediction by ZEFSAII (Michael W. Deem and Ramdas Pophale) SiO2 
 PCOD8095080
Probable space group: C 2/M
;
_chemical_formula_sum "Si O2"
_cell_formula_units_Z 56
_cell_length_a 12.240363
_cell_length_b 28.042784
_cell_length_c 8.844262
_cell_angle_alpha 90.000000
_cell_angle_beta 80.836442
_cell_angle_gamma 90.000000
_cell_volume 2997.083064
_symmetry_space_group_name_H-M "C 2/M"
_symmetry_group_IT_number 12
_symmetry_cell_setting 'monoclinic'
loop_
_space_group_symop_operation_xyz
x,y,z
-x,y,-z
-x,-y,-z
x,-y,z
1/2+x,1/2+y,z
1/2-x,1/2+y,-z
1/2-x,1/2-y,-z
1/2+x,1/2-y,z
loop_
_atom_site_type_symbol
_atom_site_label
_atom_site_fract_x
_atom_site_fract_y
_atom_site_fract_z
Si Si1 0.221328 0.799592 0.585515
Si Si2 0.000536 0.204273 0.821449
Si Si3 0.049882 0.706044 0.337495
Si Si4 0.730809 0.056315 0.761744
Si Si5 0.109168 0.552009 0.076552
Si Si6 0.106596 0.132951 0.379592
Si Si7 0.980956 0.395369 0.333167
O O1 0.250000 0.750000 0.500000
O O2 0.329182 0.815896 0.655377
O O3 0.193594 0.838006 0.462719
O O4 0.123994 0.794964 0.728779
O O5 0.945917 0.255840 0.798236
O O6 0.926640 0.163827 0.759158
O O7 0.000000 0.195265 0.000000
O O8 0.969047 0.661827 0.314609
O O9 0.000000 0.731929 0.500000
O O10 0.711534 0.066113 0.945067
O O11 0.841417 0.083390 0.687688
O O12 0.627788 0.077342 0.693611
O O13 0.742367 0.000000 0.725658
O O14 0.131350 0.500000 0.143489
O O15 0.090439 0.589283 0.215001
O O16 0.000000 0.549948 0.000000
O O17 0.000000 0.119147 0.500000
O O18 0.000000 0.409930 0.500000
#
# Coordination Sequence:
#
# PCOD8095080 Si02
#       7
#     8   8   8   8   8   8   8
#     4  11  20  39  61  76 112 158 193 223 276 342
#     4  11  24  37  55  86 115 148 189 242 282 329
#     4  11  20  35  56  82 115 155 193 225 281 346
#     4  10  21  37  59  83 111 150 191 233 286 337
#     4   8  16  32  49  70 106 146 179 220 275 330
#     4  10  21  40  61  80 111 153 191 238 281 332
#     4  10  20  31  53  86 119 148 183 230 281 339
#
# _framework density 18.684833999999999
#
# number of rings (size 3 to 8) (size 9 to 14) (size 15 to 20)
#    0.000    1.857    2.857    3.429    0.000    4.857 
#    0.000    0.000    0.000    0.429    0.000    0.000 
#    0.000    0.000    0.000    0.000    0.000    0.000 
#
# Total GULP energy -347133.777338 kJ/mol
# GULP energy per Si atom -12397.634905 kJ/mol
# Density = 1.864231 g / cm^3
# Si number density = 18.684834 Si / 1000 Ang^3
#
#
#
# Elastic Constant Matrix: (Units=GPa)
#
#
# Indices 1 2 3 4 5 6 
#
# 1 90.2432 47.4609 39.9898 0.0000 -4.4194 0.0000
# 2 47.4609 123.3103 64.1735 0.0000 -4.3786 0.0000
# 3 39.9898 64.1735 128.0816 0.0000 1.2780 0.0000
# 4 0.0000 0.0000 0.0000 24.9334 0.0000 -5.8988
# 5 -4.4194 -4.3786 1.2780 0.0000 24.8089 0.0000
# 6 0.0000 0.0000 0.0000 -5.8988 0.0000 25.9501
#
#
#
# Elastic Compliance Matrix: (Units=1/GPa)
#
#
# Indices 1 2 3 4 5 6 
#
# 1 0.014480 -0.004249 -0.002412 0.000000 0.001954 0.000000
# 2 -0.004249 0.012340 -0.004873 0.000000 0.001672 0.000000
# 3 -0.002412 -0.004873 0.011021 0.000000 -0.001857 0.000000
# 4 0.000000 0.000000 0.000000 0.042386 0.000000 0.009635
# 5 0.001954 0.001672 -0.001857 0.000000 0.041047 0.000000
# 6 0.000000 0.000000 0.000000 0.009635 0.000000 0.040726
#
#
# Mechanical properties :
#
#
# Convention : Reuss Voigt Hill
#
# Bulk Modulus (GPa) = 67.68665 71.65373 69.67019
# Shear Modulus (GPa) = 26.31693 27.80589 27.06141
#
# Velocity S-wave (km/s) = 3.75702 3.86184 3.80979
# Velocity P-wave (km/s) = 7.42458 7.63655 7.53131
#
# Compressibility (1/GPa) = 0.01477396
#
# Stress axis : x y z
#
# Youngs Moduli (GPa) = 69.06047 81.03485 90.73888
#
# Poissons Ratio (x) = 0.34430 0.21884
# Poissons Ratio (y) = 0.29342 0.44218
# Poissons Ratio (z) = 0.16655 0.39489
#
# Static dielectric constant tensor:
#      x y z
#    x 3.450350 0.000000 -0.174250 
#    y 0.000000 3.403890 0.000000 
#    z -0.174250 0.000000 3.570190 
# 
# 
# High freq. dielectric constant tensor:
#      x y z
#    x 1.709900 0.000000 -0.011280 
#    y 0.000000 1.723720 0.000000 
#    z -0.011280 0.000000 1.724500 
# 
# From -- ./inp_files/53143.got.cif
#   From: 2010.06.25/outbox.cif.g09.slc.cpg/sg12_27_cif.got.tgz:53143.got - 2010.06.28 00:19:55.
