data_PCOD8095901
_publ_section_title
;
Structure prediction by ZEFSAII (Michael W. Deem and Ramdas Pophale) SiO2 
 PCOD8095901
Probable space group: C 2/M
;
_chemical_formula_sum "Si O2"
_cell_formula_units_Z 64
_cell_length_a 30.861060
_cell_length_b 8.727831
_cell_length_c 14.576993
_cell_angle_alpha 90.000000
_cell_angle_beta 118.583171
_cell_angle_gamma 90.000000
_cell_volume 3447.789413
_symmetry_space_group_name_H-M "C 2/M"
_symmetry_group_IT_number 12
_symmetry_cell_setting 'monoclinic'
loop_
_space_group_symop_operation_xyz
x,y,z
-x,y,-z
-x,-y,-z
x,-y,z
1/2+x,1/2+y,z
1/2-x,1/2+y,-z
1/2-x,1/2-y,-z
1/2+x,1/2-y,z
loop_
_atom_site_type_symbol
_atom_site_label
_atom_site_fract_x
_atom_site_fract_y
_atom_site_fract_z
Si Si1 0.195121 0.822932 0.339306
Si Si2 0.417222 0.178171 0.264440
Si Si3 0.297380 0.322657 0.442632
Si Si4 0.610585 0.179011 0.136359
Si Si5 0.031517 0.822177 0.182447
Si Si6 0.082951 0.178507 0.925705
Si Si7 0.391805 0.679080 0.420767
Si Si8 0.468562 0.178031 0.628757
O O1 0.250677 0.779693 0.367422
O O2 0.185875 0.786510 0.436797
O O3 0.157719 0.720162 0.244492
O O4 0.185375 0.000000 0.306908
O O5 0.399005 0.232474 0.146353
O O6 0.386999 0.272676 0.309949
O O7 0.474855 0.215906 0.335939
O O8 0.405718 0.000000 0.264528
O O9 0.282597 0.500000 0.417593
O O10 0.341350 0.275491 0.419913
O O11 0.560397 0.227687 0.135497
O O12 0.609255 0.000000 0.116151
O O13 0.615175 0.264584 0.043721
O O14 0.049729 0.773974 0.301917
O O15 0.974152 0.784080 0.111763
O O16 0.043566 0.000000 0.180050
O O17 0.091396 0.000000 0.917618
O O18 0.402926 0.500000 0.441794
O O19 0.436859 0.773778 0.509256
O O20 0.461214 0.000000 0.643308
#
# Coordination Sequence:
#
# PCOD8095901 Si02
#       8
#     8   8   8   8   8   8   8   8
#     4  10  20  36  58  81 107 138 172 212 259 312
#     4  10  21  36  52  74 106 141 180 224 265 307
#     4   9  20  37  55  79 109 137 169 212 261 312
#     4  12  23  34  53  79 108 141 176 215 260 312
#     4  10  20  34  52  76 107 141 178 219 260 309
#     4  10  21  37  55  75 103 140 181 222 263 308
#     4  11  21  33  53  78 106 142 180 217 260 314
#     4  10  20  33  50  75 108 143 178 219 264 310
#
# _framework density 18.562618000000001
#
# number of rings (size 3 to 8) (size 9 to 14) (size 15 to 20)
#    0.000    1.750    0.000    4.875    0.000    8.500 
#    0.000    0.000    0.000    0.750    0.000    0.000 
#    0.000    0.000    0.000    0.000    0.000    0.000 
#
# Total GULP energy -397010.413637 kJ/mol
# GULP energy per Si atom -12406.575426 kJ/mol
# Density = 1.852037 g / cm^3
# Si number density = 18.562618 Si / 1000 Ang^3
#
#
#
# Elastic Constant Matrix: (Units=GPa)
#
#
# Indices 1 2 3 4 5 6 
#
# 1 88.6062 32.1886 40.8654 0.0000 -16.4289 0.0000
# 2 32.1886 56.8292 19.5298 0.0000 1.1980 0.0000
# 3 40.8654 19.5298 84.9723 0.0000 -11.6198 0.0000
# 4 0.0000 0.0000 0.0000 34.7873 0.0000 -2.4040
# 5 -16.4289 1.1980 -11.6198 0.0000 20.9742 0.0000
# 6 0.0000 0.0000 0.0000 -2.4040 0.0000 28.7207
#
#
#
# Elastic Compliance Matrix: (Units=1/GPa)
#
#
# Indices 1 2 3 4 5 6 
#
# 1 0.019681 -0.009526 -0.005511 0.000000 0.012907 0.000000
# 2 -0.009526 0.024002 -0.002319 0.000000 -0.010117 0.000000
# 3 -0.005511 -0.002319 0.015558 0.000000 0.004435 0.000000
# 4 0.000000 0.000000 0.000000 0.028913 0.000000 0.002420
# 5 0.012907 -0.010117 0.004435 0.000000 0.060823 0.000000
# 6 0.000000 0.000000 0.000000 0.002420 0.000000 0.035021
#
#
# Mechanical properties :
#
#
# Convention : Reuss Voigt Hill
#
# Bulk Modulus (GPa) = 40.76519 46.17503 43.47011
# Shear Modulus (GPa) = 22.03745 26.08471 24.06108
#
# Velocity S-wave (km/s) = 3.44931 3.75270 3.60420
# Velocity P-wave (km/s) = 6.15404 6.61108 6.38665
#
# Compressibility (1/GPa) = 0.02453073
#
# Stress axis : x y z
#
# Youngs Moduli (GPa) = 50.80996 41.66266 64.27444
#
# Poissons Ratio (x) = 0.39687 0.35420
# Poissons Ratio (y) = 0.48401 0.14904
# Poissons Ratio (z) = 0.28000 0.09661
#
# Static dielectric constant tensor:
#      x y z
#    x 3.288860 0.000000 -0.140480 
#    y 0.000000 3.445580 0.000000 
#    z -0.140480 0.000000 3.372010 
# 
# 
# High freq. dielectric constant tensor:
#      x y z
#    x 1.701410 0.000000 -0.013750 
#    y 0.000000 1.733450 0.000000 
#    z -0.013750 0.000000 1.715720 
# 
# From -- ./inp_files/249144.got.cif
#   From: 2010.06.25/outbox.cif.g09.slc.cpg/sg12_125_cif.got.tgz:249144.got - 2010.06.28 00:19:55.
