data_PCOD8095138
_publ_section_title
;
Structure prediction by ZEFSAII (Michael W. Deem and Ramdas Pophale) SiO2 
 PCOD8095138
Probable space group: C 2/M
;
_chemical_formula_sum "Si O2"
_cell_formula_units_Z 64
_cell_length_a 25.258841
_cell_length_b 9.287225
_cell_length_c 18.261197
_cell_angle_alpha 90.000000
_cell_angle_beta 61.549900
_cell_angle_gamma 90.000000
_cell_volume 3766.450680
_symmetry_space_group_name_H-M "C 2/M"
_symmetry_group_IT_number 12
_symmetry_cell_setting 'monoclinic'
loop_
_space_group_symop_operation_xyz
x,y,z
-x,y,-z
-x,-y,-z
x,-y,z
1/2+x,1/2+y,z
1/2-x,1/2+y,-z
1/2-x,1/2-y,-z
1/2+x,1/2-y,z
loop_
_atom_site_type_symbol
_atom_site_label
_atom_site_fract_x
_atom_site_fract_y
_atom_site_fract_z
Si Si1 0.756585 0.665327 0.716831
Si Si2 0.904746 0.832879 0.488399
Si Si3 0.514086 0.670175 0.319331
Si Si4 0.871384 0.832864 0.675092
Si Si5 0.058260 0.337970 0.011676
Si Si6 0.510868 0.330498 0.827085
Si Si7 0.790792 0.333469 0.528793
Si Si8 0.124188 0.169027 0.850237
O O1 0.765159 0.500000 0.732591
O O2 0.808112 0.751572 0.726332
O O3 0.762856 0.690800 0.626796
O O4 0.690219 0.719842 0.781891
O O5 0.902942 0.804371 0.576092
O O6 0.856403 0.734761 0.479480
O O7 0.968362 0.781835 0.413402
O O8 0.891523 0.000000 0.479107
O O9 0.516866 0.500000 0.316311
O O10 0.581106 0.726379 0.295811
O O11 0.491861 0.725770 0.254798
O O12 0.857088 0.000000 0.695299
O O13 0.079667 0.500000 0.016675
O O14 0.110524 0.254599 0.933784
O O15 0.000000 0.341846 0.000000
O O16 0.042553 0.251918 0.095731
O O17 0.498032 0.500000 0.841756
O O18 0.576385 0.292677 0.817536
O O19 0.794172 0.500000 0.505011
O O20 0.750000 0.250000 0.500000
O O21 0.121564 0.000000 0.869281
#
# Coordination Sequence:
#
# PCOD8095138 Si02
#       8
#     8   8   8   8   8   8   8   8
#     4   9  19  33  49  69  94 126 163 199 235 280
#     4   9  17  30  49  69  94 127 165 203 240 278
#     4   9  17  29  50  74  96 125 164 204 238 279
#     4   9  17  31  49  71  96 126 165 204 240 278
#     4   9  17  30  47  69  99 126 147 184 239 290
#     4   9  17  29  48  72  96 124 157 192 233 283
#     4  10  20  32  46  66  97 131 162 197 240 284
#     4   9  17  30  50  72  93 122 160 193 227 284
#
# _framework density 16.992125000000001
#
# number of rings (size 3 to 8) (size 9 to 14) (size 15 to 20)
#    0.000    2.875    0.000    1.125    1.750    4.000 
#    0.000    1.875    0.000    3.750    0.000    0.000 
#    0.000    0.000    0.000    0.000    0.000    0.000 
#
# Total GULP energy -396720.796549 kJ/mol
# GULP energy per Si atom -12397.524892 kJ/mol
# Density = 1.695345 g / cm^3
# Si number density = 16.992125 Si / 1000 Ang^3
#
#
#
# Elastic Constant Matrix: (Units=GPa)
#
#
# Indices 1 2 3 4 5 6 
#
# 1 116.2747 43.7252 60.6536 0.0000 -16.4805 0.0000
# 2 43.7252 59.0332 37.3446 0.0000 -8.4820 0.0001
# 3 60.6536 37.3446 91.6194 0.0000 -15.1282 0.0000
# 4 0.0000 0.0000 0.0000 20.2599 0.0000 -5.2288
# 5 -16.4805 -8.4820 -15.1282 0.0000 21.5595 0.0000
# 6 0.0000 0.0001 0.0000 -5.2288 0.0000 22.9287
#
#
#
# Elastic Compliance Matrix: (Units=1/GPa)
#
#
# Indices 1 2 3 4 5 6 
#
# 1 0.015082 -0.006312 -0.006694 0.000000 0.004349 0.000000
# 2 -0.006312 0.025614 -0.006102 0.000000 0.000971 0.000000
# 3 -0.006694 -0.006102 0.018766 0.000000 0.005651 0.000000
# 4 0.000000 0.000000 0.000000 0.052445 0.000000 0.011960
# 5 0.004349 0.000971 0.005651 0.000000 0.054055 0.000000
# 6 0.000000 0.000000 0.000000 0.011960 0.000000 0.046341
#
#
# Mechanical properties :
#
#
# Convention : Reuss Voigt Hill
#
# Bulk Modulus (GPa) = 47.06328 61.15270 54.10799
# Shear Modulus (GPa) = 19.40994 21.29656 20.35325
#
# Velocity S-wave (km/s) = 3.38344 3.54407 3.46469
# Velocity P-wave (km/s) = 6.55903 7.26734 6.92225
#
# Compressibility (1/GPa) = 0.02124799
#
# Stress axis : x y z
#
# Youngs Moduli (GPa) = 66.30445 39.04111 53.28711
#
# Poissons Ratio (x) = 0.24641 0.35669
# Poissons Ratio (y) = 0.41849 0.32514
# Poissons Ratio (z) = 0.44383 0.23822
#
# Static dielectric constant tensor:
#      x y z
#    x 2.873830 0.000000 -0.051100 
#    y 0.000000 3.130020 0.000000 
#    z -0.051100 0.000000 3.390950 
# 
# 
# High freq. dielectric constant tensor:
#      x y z
#    x 1.644230 0.000000 -0.006370 
#    y 0.000000 1.643120 0.000000 
#    z -0.006370 0.000000 1.646700 
# 
# From -- ./inp_files/323653.got.cif
#   From: 2010.06.25/outbox.cif.g09.slc.cpg/sg12_162_cif.got.tgz:323653.got - 2010.06.28 00:19:55.
