data_PCOD8095310
_publ_section_title
;
Structure prediction by ZEFSAII (Michael W. Deem and Ramdas Pophale) SiO2 
 PCOD8095310
Probable space group: C 2/M
;
_chemical_formula_sum "Si O2"
_cell_formula_units_Z 64
_cell_length_a 29.598714
_cell_length_b 9.314682
_cell_length_c 15.922133
_cell_angle_alpha 90.000000
_cell_angle_beta 130.467568
_cell_angle_gamma 90.000000
_cell_volume 3339.623254
_symmetry_space_group_name_H-M "C 2/M"
_symmetry_group_IT_number 12
_symmetry_cell_setting 'monoclinic'
loop_
_space_group_symop_operation_xyz
x,y,z
-x,y,-z
-x,-y,-z
x,-y,z
1/2+x,1/2+y,z
1/2-x,1/2+y,-z
1/2-x,1/2-y,-z
1/2+x,1/2-y,z
loop_
_atom_site_type_symbol
_atom_site_label
_atom_site_fract_x
_atom_site_fract_y
_atom_site_fract_z
Si Si1 0.643611 0.332346 0.123343
Si Si2 0.107163 0.834325 0.894665
Si Si3 0.561688 0.341965 0.605182
Si Si4 0.151516 0.668085 0.803269
Si Si5 0.028872 0.167629 0.264290
Si Si6 0.628684 0.656377 0.516229
Si Si7 0.445333 0.168708 0.873896
Si Si8 0.718929 0.167314 0.718684
O O1 0.632900 0.500000 0.128456
O O2 0.613857 0.240047 0.160547
O O3 0.712731 0.293055 0.207431
O O4 0.615123 0.286277 0.000475
O O5 0.156833 0.748576 0.899444
O O6 0.038574 0.803918 0.785335
O O7 0.124483 0.000000 0.905563
O O8 0.500000 0.279227 0.500000
O O9 0.554109 0.500000 0.640855
O O10 0.586517 0.221363 0.696615
O O11 0.603831 0.364626 0.578165
O O12 0.152908 0.500000 0.821340
O O13 0.198520 0.716499 0.788315
O O14 0.076707 0.215798 0.392689
O O15 0.041856 0.264757 0.200444
O O16 0.035990 0.000000 0.249508
O O17 0.650548 0.500000 0.509322
O O18 0.684665 0.761792 0.597710
O O19 0.434855 0.000000 0.851762
O O20 0.500000 0.205512 0.000000
O O21 0.705677 0.000000 0.694908
#
# Coordination Sequence:
#
# PCOD8095310 Si02
#       8
#     8   8   8   8   8   8   8   8
#     4  10  21  39  62  81 104 145 191 228 268 325
#     4  10  20  34  55  82 109 142 188 232 270 319
#     4   9  16  29  49  71 101 140 185 230 268 313
#     4  10  20  32  48  75 113 148 180 223 274 323
#     4  10  20  36  59  85 112 143 184 226 270 328
#     4   9  18  32  53  80 107 141 183 227 270 318
#     4  11  23  38  58  87 118 140 169 219 283 340
#     4   9  20  38  56  78 110 149 190 227 267 321
#
# _framework density 19.163837999999998
#
# number of rings (size 3 to 8) (size 9 to 14) (size 15 to 20)
#    0.000    2.250    1.250    1.500    0.000    5.750 
#    0.000    3.125    0.000    0.000    0.000    0.000 
#    0.000    0.000    0.000    0.000    0.000    0.000 
#
# Total GULP energy -396581.780398 kJ/mol
# GULP energy per Si atom -12393.180637 kJ/mol
# Density = 1.912022 g / cm^3
# Si number density = 19.163838 Si / 1000 Ang^3
#
#
#
# Elastic Constant Matrix: (Units=GPa)
#
#
# Indices 1 2 3 4 5 6 
#
# 1 86.0124 44.0958 22.4054 0.0000 5.9070 0.0000
# 2 44.0958 66.6074 32.7905 0.0000 -1.9859 0.0000
# 3 22.4054 32.7905 75.8239 0.0000 6.2295 0.0000
# 4 0.0000 0.0000 0.0000 34.6742 0.0000 -2.3784
# 5 5.9070 -1.9859 6.2295 0.0000 29.9690 0.0000
# 6 0.0000 0.0000 0.0000 -2.3784 0.0000 29.4689
#
#
#
# Elastic Compliance Matrix: (Units=1/GPa)
#
#
# Indices 1 2 3 4 5 6 
#
# 1 0.018163 -0.012318 0.000327 0.000000 -0.004464 0.000000
# 2 -0.012318 0.027703 -0.008842 0.000000 0.006102 0.000000
# 3 0.000327 -0.008842 0.017264 0.000000 -0.004239 0.000000
# 4 0.000000 0.000000 0.000000 0.029000 0.000000 0.002341
# 5 -0.004464 0.006102 -0.004239 0.000000 0.035533 0.000000
# 6 0.000000 0.000000 0.000000 0.002341 0.000000 0.034123
#
#
# Mechanical properties :
#
#
# Convention : Reuss Voigt Hill
#
# Bulk Modulus (GPa) = 46.59077 47.44746 47.01911
# Shear Modulus (GPa) = 23.74093 27.43256 25.58675
#
# Velocity S-wave (km/s) = 3.52353 3.78759 3.65795
# Velocity P-wave (km/s) = 6.39674 6.62875 6.51378
#
# Compressibility (1/GPa) = 0.02146348
#
# Stress axis : x y z
#
# Youngs Moduli (GPa) = 55.05742 36.09716 57.92493
#
# Poissons Ratio (x) = 0.44466 -0.01894
# Poissons Ratio (y) = 0.67821 0.51215
# Poissons Ratio (z) = -0.01800 0.31916
#
# Static dielectric constant tensor:
#      x y z
#    x 5.286530 0.000000 2.338170 
#    y 0.000000 3.574710 0.000000 
#    z 2.338170 0.000000 6.459220 
# 
# 
# High freq. dielectric constant tensor:
#      x y z
#    x 1.736530 0.000000 -0.001030 
#    y 0.000000 1.735710 0.000000 
#    z -0.001030 0.000000 1.743550 
# 
# From -- ./inp_files/249156.got.cif
#   From: 2010.06.25/outbox.cif.g09.slc.cpg/sg12_125_cif.got.tgz:249156.got - 2010.06.28 00:19:55.
