data_PCOD8095366
_publ_section_title
;
Structure prediction by ZEFSAII (Michael W. Deem and Ramdas Pophale) SiO2 
 PCOD8095366
Probable space group: C 2/M
;
_chemical_formula_sum "Si O2"
_cell_formula_units_Z 48
_cell_length_a 23.196899
_cell_length_b 9.331130
_cell_length_c 17.139582
_cell_angle_alpha 90.000000
_cell_angle_beta 46.527931
_cell_angle_gamma 90.000000
_cell_volume 2692.324573
_symmetry_space_group_name_H-M "C 2/M"
_symmetry_group_IT_number 12
_symmetry_cell_setting 'monoclinic'
loop_
_space_group_symop_operation_xyz
x,y,z
-x,y,-z
-x,-y,-z
x,-y,z
1/2+x,1/2+y,z
1/2-x,1/2+y,-z
1/2-x,1/2-y,-z
1/2+x,1/2-y,z
loop_
_atom_site_type_symbol
_atom_site_label
_atom_site_fract_x
_atom_site_fract_y
_atom_site_fract_z
Si Si1 0.223782 0.167183 0.906368
Si Si2 0.958390 0.335675 0.331835
Si Si3 0.570162 0.334969 0.488464
Si Si4 0.697829 0.835422 0.609855
Si Si5 0.869015 0.666684 0.880964
Si Si6 0.254043 0.334764 0.725248
O O1 0.310143 0.195085 0.863506
O O2 0.219624 0.236397 0.825246
O O3 0.204599 0.000000 0.917559
O O4 0.156265 0.240199 0.021497
O O5 0.965587 0.500000 0.351413
O O6 0.925577 0.248472 0.435042
O O7 0.895684 0.316609 0.320038
O O8 0.043912 0.278845 0.224618
O O9 0.500000 0.272355 0.500000
O O10 0.554151 0.500000 0.523743
O O11 0.651560 0.313624 0.366305
O O12 0.750000 0.750000 0.500000
O O13 0.714032 0.780683 0.682250
O O14 0.725092 0.000000 0.577798
O O15 0.868922 0.500000 0.905240
O O16 0.232384 0.500000 0.762612
#
# Coordination Sequence:
#
# PCOD8095366 Si02
#       6
#     8   8   8   8   8   8
#     4  10  20  34  55  80 103 134 175 215 260 312
#     4  10  20  34  54  78 103 135 176 217 259 308
#     4  10  20  32  49  76 108 139 170 209 261 315
#     4  10  20  35  54  76 103 140 180 214 257 309
#     4   9  19  36  55  77 106 136 169 214 265 313
#     4  10  20  34  51  74 106 140 173 211 259 311
#
# _framework density 17.82846
#
# number of rings (size 3 to 8) (size 9 to 14) (size 15 to 20)
#    0.000    2.167    1.667    1.500    0.000    3.000 
#    0.000    0.833    0.000    5.000    0.000    0.000 
#    0.000    0.000    0.000    0.000    0.000    0.000 
#
# Total GULP energy -297688.706072 kJ/mol
# GULP energy per Si atom -12403.696086 kJ/mol
# Density = 1.778788 g / cm^3
# Si number density = 17.828460 Si / 1000 Ang^3
#
#
#
# Elastic Constant Matrix: (Units=GPa)
#
#
# Indices 1 2 3 4 5 6 
#
# 1 75.9742 23.0139 24.6295 -0.0010 17.8528 0.0011
# 2 23.0139 65.4191 45.8681 -0.0024 17.5185 0.0025
# 3 24.6295 45.8681 87.7716 -0.0006 19.0603 0.0008
# 4 -0.0010 -0.0024 -0.0006 29.2792 0.0007 8.0355
# 5 17.8528 17.5185 19.0603 0.0007 34.4276 -0.0007
# 6 0.0011 0.0025 0.0008 8.0355 -0.0007 24.0896
#
#
#
# Elastic Compliance Matrix: (Units=1/GPa)
#
#
# Indices 1 2 3 4 5 6 
#
# 1 0.015961 -0.002833 -0.001721 0.000001 -0.005882 -0.000001
# 2 -0.002833 0.025779 -0.011534 0.000003 -0.005263 -0.000003
# 3 -0.001721 -0.011534 0.018681 -0.000001 -0.003581 0.000001
# 4 0.000001 0.000003 -0.000001 0.037596 -0.000002 -0.012541
# 5 -0.005882 -0.005263 -0.003581 -0.000002 0.036757 0.000003
# 6 -0.000001 -0.000003 0.000001 -0.012541 0.000003 0.045695
#
#
# Mechanical properties :
#
#
# Convention : Reuss Voigt Hill
#
# Bulk Modulus (GPa) = 35.40403 46.24308 40.82355
# Shear Modulus (GPa) = 22.51653 26.60284 24.55969
#
# Velocity S-wave (km/s) = 3.55766 3.86703 3.71557
# Velocity P-wave (km/s) = 6.06442 6.77737 6.43078
#
# Compressibility (1/GPa) = 0.02824537
#
# Stress axis : x y z
#
# Youngs Moduli (GPa) = 62.65410 38.79143 53.52998
#
# Poissons Ratio (x) = 0.10990 0.09211
# Poissons Ratio (y) = 0.17751 0.61740
# Poissons Ratio (z) = 0.10781 0.44741
#
# Static dielectric constant tensor:
#      x y z
#    x 3.463330 0.000000 -0.062550 
#    y 0.000000 3.277930 0.000000 
#    z -0.062550 0.000000 3.166080 
# 
# 
# High freq. dielectric constant tensor:
#      x y z
#    x 1.693440 0.000000 -0.000280 
#    y 0.000000 1.687590 0.000000 
#    z -0.000280 0.000000 1.683000 
# 
# From -- ./inp_files/280789.got.cif
#   From: 2010.06.25/outbox.cif.g09.slc.cpg/sg12_141_cif.got.tgz:280789.got - 2010.06.28 00:19:55.
