data_PCOD8095382
_publ_section_title
;
Structure prediction by ZEFSAII (Michael W. Deem and Ramdas Pophale) SiO2 
 PCOD8095382
Probable space group: C 2/M
;
_chemical_formula_sum "Si O2"
_cell_formula_units_Z 64
_cell_length_a 22.863210
_cell_length_b 9.387063
_cell_length_c 27.130252
_cell_angle_alpha 90.000000
_cell_angle_beta 37.810358
_cell_angle_gamma 90.000000
_cell_volume 3569.575595
_symmetry_space_group_name_H-M "C 2/M"
_symmetry_group_IT_number 12
_symmetry_cell_setting 'monoclinic'
loop_
_space_group_symop_operation_xyz
x,y,z
-x,y,-z
-x,-y,-z
x,-y,z
1/2+x,1/2+y,z
1/2-x,1/2+y,-z
1/2-x,1/2-y,-z
1/2+x,1/2-y,z
loop_
_atom_site_type_symbol
_atom_site_label
_atom_site_fract_x
_atom_site_fract_y
_atom_site_fract_z
Si Si1 0.656677 0.664942 0.761928
Si Si2 0.652814 0.331413 0.382243
Si Si3 0.005637 0.164761 0.781272
Si Si4 0.474040 0.665352 0.692722
Si Si5 0.713784 0.162163 0.170560
Si Si6 0.533447 0.332762 0.550172
Si Si7 0.819731 0.662505 0.919945
Si Si8 0.407163 0.667538 0.089135
O O1 0.685684 0.500000 0.744469
O O2 0.751786 0.755991 0.698698
O O3 0.598731 0.701038 0.750925
O O4 0.592774 0.703723 0.852551
O O5 0.670670 0.500000 0.368332
O O6 0.621913 0.277260 0.458009
O O7 0.568852 0.279574 0.401694
O O8 0.026411 0.198319 0.709687
O O9 0.922786 0.266321 0.855387
O O10 0.974988 0.000000 0.808931
O O11 0.447660 0.500000 0.706138
O O12 0.375588 0.747849 0.751638
O O13 0.543851 0.710736 0.600949
O O14 0.723395 0.170407 0.105649
O O15 0.810108 0.228617 0.129524
O O16 0.698076 0.000000 0.198740
O O17 0.533680 0.500000 0.542476
O O18 0.827934 0.500000 0.932812
O O19 0.750000 0.750000 0.000000
O O20 0.408833 0.500000 0.078478
O O21 0.500000 0.735539 0.000000
#
# Coordination Sequence:
#
# PCOD8095382 Si02
#       8
#     8   8   8   8   8   8   8   8
#     4  10  20  33  50  71  99 129 161 198 241 290
#     4   9  17  31  51  74  98 127 163 198 239 287
#     4   9  19  33  49  70  96 129 162 196 238 288
#     4   9  16  30  51  71  94 125 159 195 238 282
#     4   9  18  31  48  71  94 118 156 199 238 283
#     4   8  15  29  51  75  97 126 163 199 236 287
#     4  10  20  32  50  72  94 121 158 203 244 284
#     4   9  18  31  49  69  90 124 161 192 233 288
#
# _framework density 17.929302
#
# number of rings (size 3 to 8) (size 9 to 14) (size 15 to 20)
#    0.000    2.875    0.000    1.875    1.750    1.000 
#    0.000    2.500    0.000    0.750    0.000    0.000 
#    0.000    0.000    0.000    0.000    0.000    0.000 
#
# Total GULP energy -396629.379456 kJ/mol
# GULP energy per Si atom -12394.668108 kJ/mol
# Density = 1.788849 g / cm^3
# Si number density = 17.929302 Si / 1000 Ang^3
#
#
#
# Elastic Constant Matrix: (Units=GPa)
#
#
# Indices 1 2 3 4 5 6 
#
# 1 82.4241 18.5190 41.8646 -0.0013 2.9602 0.0032
# 2 18.5190 45.7304 29.4474 -0.0038 4.3668 0.0072
# 3 41.8646 29.4474 102.6062 0.0030 17.5695 -0.0007
# 4 -0.0013 -0.0038 0.0030 25.0135 0.0005 -3.8211
# 5 2.9602 4.3668 17.5695 0.0005 26.3371 -0.0030
# 6 0.0032 0.0072 -0.0007 -3.8211 -0.0030 17.8535
#
#
#
# Elastic Compliance Matrix: (Units=1/GPa)
#
#
# Indices 1 2 3 4 5 6 
#
# 1 0.015750 -0.002698 -0.006125 0.000001 0.002763 -0.000001
# 2 -0.002698 0.027301 -0.006786 0.000003 0.000304 -0.000010
# 3 -0.006125 -0.006786 0.015673 -0.000003 -0.008642 0.000002
# 4 0.000001 0.000003 -0.000003 0.041330 0.000001 0.008846
# 5 0.002763 0.000304 -0.008642 0.000001 0.043373 0.000007
# 6 -0.000001 -0.000010 0.000002 0.008846 0.000007 0.057905
#
#
# Mechanical properties :
#
#
# Convention : Reuss Voigt Hill
#
# Bulk Modulus (GPa) = 36.35748 45.60252 40.98000
# Shear Modulus (GPa) = 20.68519 23.23610 21.96065
#
# Velocity S-wave (km/s) = 3.40031 3.60388 3.50358
# Velocity P-wave (km/s) = 5.97816 6.54272 6.26680
#
# Compressibility (1/GPa) = 0.02750466
#
# Stress axis : x y z
#
# Youngs Moduli (GPa) = 63.49041 36.62889 63.80576
#
# Poissons Ratio (x) = 0.09882 0.39083
# Poissons Ratio (y) = 0.17129 0.43302
# Poissons Ratio (z) = 0.38889 0.24858
#
# Static dielectric constant tensor:
#      x y z
#    x 3.537000 0.000010 0.202490 
#    y 0.000010 3.133190 -0.000050 
#    z 0.202490 -0.000050 3.531860 
# 
# 
# High freq. dielectric constant tensor:
#      x y z
#    x 1.696220 0.000000 0.017390 
#    y 0.000000 1.666730 0.000000 
#    z 0.017390 0.000000 1.690970 
# 
# From -- ./inp_files/382310.got.cif
#   From: 2010.06.25/outbox.cif.g09.slc.cpg/sg12_192_cif.got.tgz:382310.got - 2010.06.28 00:19:55.
