data_PCOD8095167
_publ_section_title
;
Structure prediction by ZEFSAII (Michael W. Deem and Ramdas Pophale) SiO2 
 PCOD8095167
Probable space group: C 2/M
;
_chemical_formula_sum "Si O2"
_cell_formula_units_Z 64
_cell_length_a 30.283617
_cell_length_b 13.887127
_cell_length_c 9.209110
_cell_angle_alpha 90.000000
_cell_angle_beta 91.752200
_cell_angle_gamma 90.000000
_cell_volume 3871.102731
_symmetry_space_group_name_H-M "C 2/M"
_symmetry_group_IT_number 12
_symmetry_cell_setting 'monoclinic'
loop_
_space_group_symop_operation_xyz
x,y,z
-x,y,-z
-x,-y,-z
x,-y,z
1/2+x,1/2+y,z
1/2-x,1/2+y,-z
1/2-x,1/2-y,-z
1/2+x,1/2-y,z
loop_
_atom_site_type_symbol
_atom_site_label
_atom_site_fract_x
_atom_site_fract_y
_atom_site_fract_z
Si Si1 0.040972 0.892586 0.584005
Si Si2 0.360594 0.614580 0.373397
Si Si3 0.802514 0.258899 0.523593
Si Si4 0.375057 0.268786 0.106485
Si Si5 0.659979 0.108689 0.717137
Si Si6 0.759150 0.606941 0.055775
Si Si7 0.542225 0.391932 0.915804
Si Si8 0.194670 0.744502 0.143869
O O1 0.090287 0.847576 0.572385
O O2 0.027451 0.894931 0.749090
O O3 0.000000 0.837007 0.500000
O O4 0.043864 0.000000 0.518186
O O5 0.357708 0.500000 0.374600
O O6 0.323980 0.657584 0.476860
O O7 0.351575 0.650650 0.206988
O O8 0.750000 0.250000 0.500000
O O9 0.823663 0.345251 0.432308
O O10 0.816102 0.279508 0.690836
O O11 0.378401 0.172412 0.208485
O O12 0.421449 0.309612 0.055495
O O13 0.349138 0.244644 0.957170
O O14 0.700758 0.108764 0.829484
O O15 0.642686 0.000000 0.687057
O O16 0.746827 0.500000 0.005360
O O17 0.717125 0.650994 0.134235
O O18 0.770560 0.665448 0.910951
O O19 0.558452 0.500000 0.964404
O O20 0.500000 0.358176 0.000000
#
# Coordination Sequence:
#
# PCOD8095167 Si02
#       8
#     8   8   8   8   8   8   8   8
#     4   8  14  27  46  67  94 126 158 189 224 280
#     4   9  19  33  48  69  98 134 167 195 240 293
#     4  11  21  33  46  66  98 125 158 210 249 282
#     4   9  18  33  50  69  97 127 160 201 236 286
#     4   9  18  34  52  66  88 125 164 199 241 286
#     4   9  18  32  48  65  87 120 159 196 236 283
#     4   9  17  29  47  73 103 131 157 188 234 291
#     4  10  20  32  46  69  94 118 160 203 241 283
#
# _framework density 16.532755999999999
#
# number of rings (size 3 to 8) (size 9 to 14) (size 15 to 20)
#    0.000    2.750    1.250    1.125    1.750    3.500 
#    0.000    1.250    0.000    0.375    0.000    0.000 
#    0.000   41.500    0.000    0.000    0.000    0.000 
#
# Total GULP energy -396546.191079 kJ/mol
# GULP energy per Si atom -12392.068471 kJ/mol
# Density = 1.649513 g / cm^3
# Si number density = 16.532756 Si / 1000 Ang^3
#
#
#
# Elastic Constant Matrix: (Units=GPa)
#
#
# Indices 1 2 3 4 5 6 
#
# 1 84.4650 40.2301 41.9337 0.0000 -13.4931 0.0000
# 2 40.2301 115.0473 39.3302 0.0000 -12.1508 0.0000
# 3 41.9337 39.3302 96.9275 0.0000 -8.0512 0.0000
# 4 0.0000 0.0000 0.0000 17.8900 0.0000 -2.9868
# 5 -13.4931 -12.1508 -8.0512 0.0000 27.8492 0.0000
# 6 0.0000 0.0000 0.0000 -2.9868 0.0000 22.9676
#
#
#
# Elastic Compliance Matrix: (Units=1/GPa)
#
#
# Indices 1 2 3 4 5 6 
#
# 1 0.017093 -0.003544 -0.005530 0.000000 0.005137 0.000000
# 2 -0.003544 0.011132 -0.002790 0.000000 0.002333 0.000000
# 3 -0.005530 -0.002790 0.013851 0.000000 0.000108 0.000000
# 4 0.000000 0.000000 0.000000 0.057138 0.000000 0.007431
# 5 0.005137 0.002333 0.000108 0.000000 0.039445 0.000000
# 6 0.000000 0.000000 0.000000 0.007431 0.000000 0.044506
#
#
# Mechanical properties :
#
#
# Convention : Reuss Voigt Hill
#
# Bulk Modulus (GPa) = 54.50477 59.93640 57.22059
# Shear Modulus (GPa) = 23.47322 25.40442 24.43882
#
# Velocity S-wave (km/s) = 3.77211 3.92422 3.84892
# Velocity P-wave (km/s) = 7.21187 7.54085 7.37820
#
# Compressibility (1/GPa) = 0.01834702
#
# Stress axis : x y z
#
# Youngs Moduli (GPa) = 58.50185 89.83506 72.19954
#
# Poissons Ratio (x) = 0.31839 0.39929
# Poissons Ratio (y) = 0.20734 0.20142
# Poissons Ratio (z) = 0.32354 0.25061
#
# Static dielectric constant tensor:
#      x y z
#    x 3.059890 0.000000 -0.001000 
#    y 0.000000 3.246640 0.000000 
#    z -0.001000 0.000000 3.106600 
# 
# 
# High freq. dielectric constant tensor:
#      x y z
#    x 1.619160 0.000000 -0.001160 
#    y 0.000000 1.619270 0.000000 
#    z -0.001160 0.000000 1.636670 
# 
# From -- ./inp_files/111195.got.cif
#   From: 2010.06.25/outbox.cif.g09.slc.cpg/sg12_56_cif.got.tgz:111195.got - 2010.06.28 00:19:55.
