data_PCOD8095568
_publ_section_title
;
Structure prediction by ZEFSAII (Michael W. Deem and Ramdas Pophale) SiO2 
 PCOD8095568
Probable space group: C 2/M
;
_chemical_formula_sum "Si O2"
_cell_formula_units_Z 56
_cell_length_a 12.447757
_cell_length_b 23.316223
_cell_length_c 12.449027
_cell_angle_alpha 90.000000
_cell_angle_beta 126.620245
_cell_angle_gamma 90.000000
_cell_volume 2899.930040
_symmetry_space_group_name_H-M "C 2/M"
_symmetry_group_IT_number 12
_symmetry_cell_setting 'monoclinic'
loop_
_space_group_symop_operation_xyz
x,y,z
-x,y,-z
-x,-y,-z
x,-y,z
1/2+x,1/2+y,z
1/2-x,1/2+y,-z
1/2-x,1/2-y,-z
1/2+x,1/2-y,z
loop_
_atom_site_type_symbol
_atom_site_label
_atom_site_fract_x
_atom_site_fract_y
_atom_site_fract_z
Si Si1 0.105255 0.064409 0.718481
Si Si2 0.844195 0.438221 0.435919
Si Si3 0.184500 0.093733 0.533872
Si Si4 0.283065 0.792126 0.672949
Si Si5 0.730292 0.673753 0.882598
Si Si6 0.149014 0.679339 0.634605
Si Si7 0.089346 0.713449 0.830982
O O1 0.181394 0.065260 0.649483
O O2 0.170115 0.109474 0.840892
O O3 0.950311 0.080500 0.611454
O O4 0.118134 0.000000 0.773513
O O5 0.784866 0.500000 0.361762
O O6 0.811798 0.431561 0.544296
O O7 0.778416 0.382419 0.340451
O O8 0.000000 0.438032 0.500000
O O9 0.195630 0.162478 0.553406
O O10 0.278194 0.806381 0.795182
O O11 0.225515 0.729006 0.614770
O O12 0.433474 0.795843 0.722727
O O13 0.621139 0.718796 0.864759
O O14 0.857683 0.675537 0.037750
O O15 0.160559 0.690420 0.767160
O O16 0.000000 0.677625 0.500000
#
# Coordination Sequence:
#
# PCOD8095568 Si02
#       7
#     8   8   8   8   8   8   8
#     4  10  20  36  58  85 114 144 182 226 277 334
#     4  10  20  34  49  72 110 150 181 213 264 327
#     4  10  20  33  56  87 114 145 177 230 284 332
#     4  10  20  32  58  82 111 140 180 232 283 327
#     4   9  21  36  56  80 107 147 190 222 273 329
#     4  10  22  33  51  84 111 142 184 226 276 328
#     4  10  20  38  54  78 114 145 182 231 275 327
#
# _framework density 19.310811000000001
#
# number of rings (size 3 to 8) (size 9 to 14) (size 15 to 20)
#    0.000    2.143    0.000    3.857    8.000    1.143 
#    0.000    0.714    0.000    8.571    0.000    2.000 
#    0.000    0.000    0.000    0.000    0.000    0.000 
#
# Total GULP energy -347050.227777 kJ/mol
# GULP energy per Si atom -12394.650992 kJ/mol
# Density = 1.926686 g / cm^3
# Si number density = 19.310811 Si / 1000 Ang^3
#
#
#
# Elastic Constant Matrix: (Units=GPa)
#
#
# Indices 1 2 3 4 5 6 
#
# 1 88.3124 36.6600 15.5081 0.0000 -3.2069 0.0000
# 2 36.6600 211.0066 51.6981 0.0000 3.4550 0.0000
# 3 15.5081 51.6981 56.2389 0.0000 1.0910 0.0000
# 4 0.0000 0.0000 0.0000 20.6875 0.0000 -3.7639
# 5 -3.2069 3.4550 1.0910 0.0000 15.5613 0.0000
# 6 0.0000 0.0000 0.0000 -3.7639 0.0000 9.3485
#
#
#
# Elastic Compliance Matrix: (Units=1/GPa)
#
#
# Indices 1 2 3 4 5 6 
#
# 1 0.012498 -0.001759 -0.001889 0.000000 0.003099 0.000000
# 2 -0.001759 0.006379 -0.005352 0.000000 -0.001404 0.000000
# 3 -0.001889 -0.005352 0.023238 0.000000 -0.000830 0.000000
# 4 0.000000 0.000000 0.000000 0.052159 0.000000 0.021001
# 5 0.003099 -0.001404 -0.000830 0.000000 0.065270 0.000000
# 6 0.000000 0.000000 0.000000 0.021001 0.000000 0.115425
#
#
# Mechanical properties :
#
#
# Convention : Reuss Voigt Hill
#
# Bulk Modulus (GPa) = 41.46859 62.58780 52.02820
# Shear Modulus (GPa) = 16.61086 25.89890 21.25488
#
# Velocity S-wave (km/s) = 2.93607 3.66616 3.32124
# Velocity P-wave (km/s) = 5.74586 7.09944 6.45821
#
# Compressibility (1/GPa) = 0.02411464
#
# Stress axis : x y z
#
# Youngs Moduli (GPa) = 80.01265 156.76438 43.03314
#
# Poissons Ratio (x) = 0.27579 0.08130
# Poissons Ratio (y) = 0.14076 0.23030
# Poissons Ratio (z) = 0.15117 0.83894
#
# Static dielectric constant tensor:
#      x y z
#    x 3.579400 0.000000 -0.139310 
#    y 0.000000 4.101260 0.000000 
#    z -0.139310 0.000000 3.175250 
# 
# 
# High freq. dielectric constant tensor:
#      x y z
#    x 1.756200 0.000000 -0.012770 
#    y 0.000000 1.766600 0.000000 
#    z -0.012770 0.000000 1.709310 
# 
# From -- ./inp_files/135495.got.cif
#   From: 2010.06.25/outbox.cif.g09.slc.cpg/sg12_68_cif.got.tgz:135495.got - 2010.06.28 00:19:55.
