data_PCOD8095733
_publ_section_title
;
Structure prediction by ZEFSAII (Michael W. Deem and Ramdas Pophale) SiO2 
 PCOD8095733
Probable space group: C 2/M
;
_chemical_formula_sum "Si O2"
_cell_formula_units_Z 56
_cell_length_a 28.335375
_cell_length_b 9.076653
_cell_length_c 18.102717
_cell_angle_alpha 90.000000
_cell_angle_beta 138.350484
_cell_angle_gamma 90.000000
_cell_volume 3094.144884
_symmetry_space_group_name_H-M "C 2/M"
_symmetry_group_IT_number 12
_symmetry_cell_setting 'monoclinic'
loop_
_space_group_symop_operation_xyz
x,y,z
-x,y,-z
-x,-y,-z
x,-y,z
1/2+x,1/2+y,z
1/2-x,1/2+y,-z
1/2-x,1/2-y,-z
1/2+x,1/2-y,z
loop_
_atom_site_type_symbol
_atom_site_label
_atom_site_fract_x
_atom_site_fract_y
_atom_site_fract_z
Si Si1 0.711131 0.834718 0.624730
Si Si2 0.807729 0.671337 0.017843
Si Si3 0.295874 0.831545 0.833080
Si Si4 0.953508 0.827368 0.174120
Si Si5 0.189178 0.832724 0.386476
Si Si6 0.940676 0.171445 0.988600
Si Si7 0.909123 0.674741 0.631848
O O1 0.724462 0.733061 0.711373
O O2 0.787034 0.831109 0.670698
O O3 0.645105 0.779171 0.497330
O O4 0.694158 0.000000 0.631335
O O5 0.815323 0.500000 0.048284
O O6 0.784001 0.690401 0.905774
O O7 0.750000 0.750000 0.000000
O O8 0.881471 0.753793 0.117821
O O9 0.303236 0.000000 0.819034
O O10 0.367058 0.753503 0.887751
O O11 0.966535 0.798227 0.102388
O O12 0.014673 0.747520 0.293621
O O13 0.951928 0.000000 0.190583
O O14 0.250000 0.750000 0.500000
O O15 0.117373 0.743596 0.320733
O O16 0.180519 0.000000 0.404851
O O17 0.925984 0.000000 0.958126
O O18 0.000000 0.228767 0.000000
O O19 0.914711 0.500000 0.646194
#
# Coordination Sequence:
#
# PCOD8095733 Si02
#       7
#     8   8   8   8   8   8   8
#     4   9  19  33  49  70 103 145 183 216 258 312
#     4  10  21  39  61  84 107 132 168 217 270 325
#     4  10  21  34  52  80 107 133 172 220 265 310
#     4  10  20  34  54  80 107 140 178 217 265 317
#     4   9  17  29  44  65  95 137 185 223 254 296
#     4   9  19  34  50  70 102 143 179 214 258 311
#     4  10  20  33  49  73 106 144 182 223 262 305
#
# _framework density 18.098700000000001
#
# number of rings (size 3 to 8) (size 9 to 14) (size 15 to 20)
#    0.000    2.429    0.000    3.000    2.000    6.000 
#    0.000    0.000    0.000    0.857    0.000    6.000 
#    0.000    0.000    0.000    0.000    0.000    0.000 
#
# Total GULP energy -347079.457528 kJ/mol
# GULP energy per Si atom -12395.694912 kJ/mol
# Density = 1.805751 g / cm^3
# Si number density = 18.098700 Si / 1000 Ang^3
#
#
#
# Elastic Constant Matrix: (Units=GPa)
#
#
# Indices 1 2 3 4 5 6 
#
# 1 95.9421 52.1904 44.8021 0.0000 19.2850 0.0000
# 2 52.1904 122.4935 67.4736 0.0000 11.2050 0.0000
# 3 44.8021 67.4736 118.1050 0.0000 15.1810 0.0000
# 4 0.0000 0.0000 0.0000 32.5114 0.0000 4.5238
# 5 19.2850 11.2050 15.1810 0.0000 18.4619 0.0000
# 6 0.0000 0.0000 0.0000 4.5238 0.0000 29.5853
#
#
#
# Elastic Compliance Matrix: (Units=1/GPa)
#
#
# Indices 1 2 3 4 5 6 
#
# 1 0.016483 -0.004837 -0.001849 0.000000 -0.012762 0.000000
# 2 -0.004837 0.013387 -0.006059 0.000000 0.001910 0.000000
# 3 -0.001849 -0.006059 0.013316 0.000000 -0.005341 0.000000
# 4 0.000000 0.000000 0.000000 0.031427 0.000000 -0.004805
# 5 -0.012762 0.001910 -0.005341 0.000000 0.070729 0.000000
# 6 0.000000 0.000000 0.000000 -0.004805 0.000000 0.034535
#
#
# Mechanical properties :
#
#
# Convention : Reuss Voigt Hill
#
# Bulk Modulus (GPa) = 56.50626 73.94143 65.22385
# Shear Modulus (GPa) = 23.66681 27.58335 25.62508
#
# Velocity S-wave (km/s) = 3.62007 3.90815 3.76686
# Velocity P-wave (km/s) = 6.98299 7.82995 7.41856
#
# Compressibility (1/GPa) = 0.01769715
#
# Stress axis : x y z
#
# Youngs Moduli (GPa) = 60.66975 74.69782 75.09566
#
# Poissons Ratio (x) = 0.36131 0.13884
# Poissons Ratio (y) = 0.29346 0.45499
# Poissons Ratio (z) = 0.11217 0.45258
#
# Static dielectric constant tensor:
#      x y z
#    x 3.230150 0.000000 0.074890 
#    y 0.000000 3.527760 0.000000 
#    z 0.074890 0.000000 3.286290 
# 
# 
# High freq. dielectric constant tensor:
#      x y z
#    x 1.667640 0.000000 0.007650 
#    y 0.000000 1.714020 0.000000 
#    z 0.007650 0.000000 1.698880 
# 
# From -- ./inp_files/292373.got.cif
#   From: 2010.06.25/outbox.cif.g09.slc.cpg/sg12_147_cif.got.tgz:292373.got - 2010.06.28 00:19:55.
