data_PCOD8095538
_publ_section_title
;
Structure prediction by ZEFSAII (Michael W. Deem and Ramdas Pophale) SiO2 
 PCOD8095538
Probable space group: C 2/M
;
_chemical_formula_sum "Si O2"
_cell_formula_units_Z 52
_cell_length_a 27.726167
_cell_length_b 8.908145
_cell_length_c 19.644799
_cell_angle_alpha 90.000000
_cell_angle_beta 147.301707
_cell_angle_gamma 90.000000
_cell_volume 2621.147986
_symmetry_space_group_name_H-M "C 2/M"
_symmetry_group_IT_number 12
_symmetry_cell_setting 'monoclinic'
loop_
_space_group_symop_operation_xyz
x,y,z
-x,y,-z
-x,-y,-z
x,-y,z
1/2+x,1/2+y,z
1/2-x,1/2+y,-z
1/2-x,1/2-y,-z
1/2+x,1/2-y,z
loop_
_atom_site_type_symbol
_atom_site_label
_atom_site_fract_x
_atom_site_fract_y
_atom_site_fract_z
Si Si1 0.888747 0.827991 0.179495
Si Si2 0.261874 0.320043 0.399468
Si Si3 0.813536 0.665862 0.828083
Si Si4 0.000000 0.748820 0.000000
Si Si5 0.776449 0.674733 0.931021
Si Si6 0.556060 0.177515 0.334162
Si Si7 0.088635 0.831605 0.240992
O O1 0.828619 0.809861 0.175896
O O2 0.976821 0.725449 0.291240
O O3 0.917842 0.000000 0.203609
O O4 0.832510 0.776683 0.047895
O O5 0.260681 0.500000 0.402026
O O6 0.243055 0.259555 0.300192
O O7 0.354054 0.253725 0.533532
O O8 0.182155 0.256575 0.350778
O O9 0.775670 0.500000 0.793130
O O10 0.918131 0.652633 0.932284
O O11 0.794979 0.746003 0.878168
O O12 0.962646 0.844570 0.892078
O O13 0.807272 0.500000 0.973855
O O14 0.531063 0.241867 0.229306
O O15 0.566495 0.000000 0.344740
O O16 0.107206 0.000000 0.288685
#
# Coordination Sequence:
#
# PCOD8095538 Si02
#       7
#     8   8   8   4   8   8   8
#     4  10  20  34  55  82 110 142 181 225 270 320
#     4  10  21  38  57  79 108 143 183 223 267 320
#     4   9  18  33  55  81 110 144 180 221 267 318
#     4  10  20  32  54  86 117 144 175 214 263 320
#     4   9  18  35  57  82 112 144 179 220 270 322
#     4  12  24  38  56  78 106 143 185 227 271 319
#     4  11  22  37  56  81 113 145 178 218 267 321
#
# _framework density 19.838636999999999
#
# number of rings (size 3 to 8) (size 9 to 14) (size 15 to 20)
#    0.000    1.846    0.000    4.615    0.000    3.692 
#    0.000    4.615    0.000    4.615    0.000    0.000 
#    0.000    0.000    0.000    0.000    0.000    0.000 
#
# Total GULP energy -322273.759541 kJ/mol
# GULP energy per Si atom -12395.144598 kJ/mol
# Density = 1.979348 g / cm^3
# Si number density = 19.838637 Si / 1000 Ang^3
#
#
#
# Elastic Constant Matrix: (Units=GPa)
#
#
# Indices 1 2 3 4 5 6 
#
# 1 111.0327 21.3297 28.1222 0.0000 3.2015 0.0000
# 2 21.3297 100.2424 19.8080 0.0000 9.0452 0.0000
# 3 28.1222 19.8080 82.2660 0.0000 10.6730 0.0000
# 4 0.0000 0.0000 0.0000 26.3473 0.0000 6.2410
# 5 3.2015 9.0452 10.6730 0.0000 25.4382 0.0000
# 6 0.0000 0.0000 0.0000 6.2410 0.0000 23.4229
#
#
#
# Elastic Compliance Matrix: (Units=1/GPa)
#
#
# Indices 1 2 3 4 5 6 
#
# 1 0.010090 -0.001580 -0.003148 0.000000 0.000613 0.000000
# 2 -0.001580 0.010916 -0.001703 0.000000 -0.002968 0.000000
# 3 -0.003148 -0.001703 0.014290 0.000000 -0.004994 0.000000
# 4 0.000000 0.000000 0.000000 0.040511 0.000000 -0.010794
# 5 0.000613 -0.002968 -0.004994 0.000000 0.042384 0.000000
# 6 0.000000 0.000000 0.000000 -0.010794 0.000000 0.045569
#
#
# Mechanical properties :
#
#
# Convention : Reuss Voigt Hill
#
# Bulk Modulus (GPa) = 44.57734 48.00675 46.29205
# Shear Modulus (GPa) = 27.15895 29.99378 28.57636
#
# Velocity S-wave (km/s) = 3.70400 3.89252 3.79943
# Velocity P-wave (km/s) = 6.38840 6.66734 6.52936
#
# Compressibility (1/GPa) = 0.02243292
#
# Stress axis : x y z
#
# Youngs Moduli (GPa) = 99.11215 91.60515 69.97986
#
# Poissons Ratio (x) = 0.14475 0.22031
# Poissons Ratio (y) = 0.15661 0.11919
# Poissons Ratio (z) = 0.31202 0.15602
#
# Static dielectric constant tensor:
#      x y z
#    x 4.031570 0.000000 -0.004390 
#    y 0.000000 3.462940 0.000000 
#    z -0.004390 0.000000 3.545590 
# 
# 
# High freq. dielectric constant tensor:
#      x y z
#    x 1.779890 0.000000 0.003020 
#    y 0.000000 1.765170 0.000000 
#    z 0.003020 0.000000 1.764040 
# 
# From -- ./inp_files/329326.got.cif
#   From: 2010.06.25/outbox.cif.g09.slc.cpg/sg12_165_cif.got.tgz:329326.got - 2010.06.28 00:19:55.
