data_PCOD8095657
_publ_section_title
;
Structure prediction by ZEFSAII (Michael W. Deem and Ramdas Pophale) SiO2 
 PCOD8095657
Probable space group: C 2/M
;
_chemical_formula_sum "Si O2"
_cell_formula_units_Z 64
_cell_length_a 9.497919
_cell_length_b 16.274810
_cell_length_c 21.430751
_cell_angle_alpha 90.000000
_cell_angle_beta 91.466792
_cell_angle_gamma 90.000000
_cell_volume 3311.612017
_symmetry_space_group_name_H-M "C 2/M"
_symmetry_group_IT_number 12
_symmetry_cell_setting 'monoclinic'
loop_
_space_group_symop_operation_xyz
x,y,z
-x,y,-z
-x,-y,-z
x,-y,z
1/2+x,1/2+y,z
1/2-x,1/2+y,-z
1/2-x,1/2-y,-z
1/2+x,1/2-y,z
loop_
_atom_site_type_symbol
_atom_site_label
_atom_site_fract_x
_atom_site_fract_y
_atom_site_fract_z
Si Si1 0.757023 0.175752 0.589101
Si Si2 0.913996 0.589580 0.062173
Si Si3 0.525297 0.407103 0.639175
Si Si4 0.234476 0.402371 0.267853
Si Si5 0.492424 0.907146 0.636928
Si Si6 0.844321 0.098503 0.011699
Si Si7 0.679616 0.098577 0.129878
Si Si8 0.747085 0.135936 0.450483
O O1 0.623351 0.153376 0.629818
O O2 0.755451 0.124467 0.524785
O O3 0.754934 0.270418 0.572246
O O4 0.894440 0.153915 0.630783
O O5 0.875895 0.500000 0.089423
O O6 0.021580 0.634069 0.111895
O O7 0.765202 0.633936 0.042559
O O8 0.000000 0.577704 0.000000
O O9 0.472334 0.500000 0.651407
O O10 0.621223 0.372942 0.697452
O O11 0.617302 0.408173 0.577068
O O12 0.234299 0.500000 0.268021
O O13 0.226450 0.366714 0.197646
O O14 0.098906 0.372782 0.305803
O O15 0.395535 0.907215 0.574027
O O16 0.546136 0.000000 0.649417
O O17 0.794079 0.127692 0.079793
O O18 0.843432 0.000000 0.008197
O O19 0.000000 0.134226 0.000000
O O20 0.671319 0.000000 0.129714
#
# Coordination Sequence:
#
# PCOD8095657 Si02
#       8
#     8   8   8   8   8   8   8   8
#     4  11  21  33  50  72  94 117 151 196 239 280
#     4   7  10  16  27  44  65  94 135 177 216 261
#     4  10  20  33  49  69  94 122 155 193 233 284
#     4   8  16  30  43  57  81 118 158 189 227 281
#     4  10  20  33  49  69  93 120 155 195 229 273
#     4   8  12  17  27  48  75 100 135 185 230 263
#     4   8  12  21  36  48  68 107 148 183 219 266
#     4  10  21  35  50  69  94 122 151 185 237 298
#
# _framework density 19.325935999999999
#
# number of rings (size 3 to 8) (size 9 to 14) (size 15 to 20)
#    0.000    3.000    0.000    4.500    0.000    5.000 
#    0.000    1.250    0.000    6.000    0.000    0.000 
#    0.000    0.000    0.000    0.000    0.000  260.000 
#
# Total GULP energy -396503.538714 kJ/mol
# GULP energy per Si atom -12390.735585 kJ/mol
# Density = 1.928195 g / cm^3
# Si number density = 19.325936 Si / 1000 Ang^3
#
#
#
# Elastic Constant Matrix: (Units=GPa)
#
#
# Indices 1 2 3 4 5 6 
#
# 1 159.1468 13.2745 65.9617 0.0000 10.0151 0.0000
# 2 13.2745 26.1692 8.1732 0.0000 0.5257 0.0000
# 3 65.9617 8.1732 130.8332 0.0000 14.9145 0.0000
# 4 0.0000 0.0000 0.0000 7.7937 0.0000 -1.6797
# 5 10.0151 0.5257 14.9145 0.0000 20.2561 0.0000
# 6 0.0000 0.0000 0.0000 -1.6797 0.0000 31.8225
#
#
#
# Elastic Compliance Matrix: (Units=1/GPa)
#
#
# Indices 1 2 3 4 5 6 
#
# 1 0.008180 -0.002937 -0.003808 0.000000 -0.001164 0.000000
# 2 -0.002937 0.040041 -0.001166 0.000000 0.001271 0.000000
# 3 -0.003808 -0.001166 0.010281 0.000000 -0.005657 0.000000
# 4 0.000000 0.000000 0.000000 0.129786 0.000000 0.006850
# 5 -0.001164 0.001271 -0.005657 0.000000 0.054076 0.000000
# 6 0.000000 0.000000 0.000000 0.006850 0.000000 0.031786
#
#
# Mechanical properties :
#
#
# Convention : Reuss Voigt Hill
#
# Bulk Modulus (GPa) = 23.42944 54.55197 38.99071
# Shear Modulus (GPa) = 16.43673 27.22378 21.83026
#
# Velocity S-wave (km/s) = 2.91950 3.75729 3.36457
# Velocity P-wave (km/s) = 4.84915 6.86379 5.94247
#
# Compressibility (1/GPa) = 0.04268134
#
# Stress axis : x y z
#
# Youngs Moduli (GPa) = 122.24956 24.97437 97.26873
#
# Poissons Ratio (x) = 0.07334 0.37039
# Poissons Ratio (y) = 0.35901 0.11339
# Poissons Ratio (z) = 0.46551 0.02911
#
# Static dielectric constant tensor:
#      x y z
#    x 3.785770 0.000000 0.255170 
#    y 0.000000 2.999730 0.000000 
#    z 0.255170 0.000000 3.695180 
# 
# 
# High freq. dielectric constant tensor:
#      x y z
#    x 1.757040 0.000000 0.014490 
#    y 0.000000 1.703280 0.000000 
#    z 0.014490 0.000000 1.730000 
# 
# From -- ./inp_files/333190.got.cif
#   From: 2010.06.25/outbox.cif.g09.slc.cpg/sg12_167_cif.got.tgz:333190.got - 2010.06.28 00:19:55.
