data_PCOD8095782
_publ_section_title
;
Structure prediction by ZEFSAII (Michael W. Deem and Ramdas Pophale) SiO2 
 PCOD8095782
Probable space group: C 2/M
;
_chemical_formula_sum "Si O2"
_cell_formula_units_Z 56
_cell_length_a 24.068357
_cell_length_b 9.100516
_cell_length_c 18.627856
_cell_angle_alpha 90.000000
_cell_angle_beta 49.615483
_cell_angle_gamma 90.000000
_cell_volume 3107.899322
_symmetry_space_group_name_H-M "C 2/M"
_symmetry_group_IT_number 12
_symmetry_cell_setting 'monoclinic'
loop_
_space_group_symop_operation_xyz
x,y,z
-x,y,-z
-x,-y,-z
x,-y,z
1/2+x,1/2+y,z
1/2-x,1/2+y,-z
1/2-x,1/2-y,-z
1/2+x,1/2-y,z
loop_
_atom_site_type_symbol
_atom_site_label
_atom_site_fract_x
_atom_site_fract_y
_atom_site_fract_z
Si Si1 0.292058 0.330057 0.401968
Si Si2 0.549561 0.829775 0.891401
Si Si3 0.216541 0.669770 0.737989
Si Si4 0.589121 0.173354 0.189275
Si Si5 0.812279 0.832885 0.989351
Si Si6 0.287523 0.833690 0.801019
Si Si7 0.540156 0.330426 0.751452
O O1 0.269761 0.500000 0.418976
O O2 0.250000 0.250000 0.500000
O O3 0.269605 0.259168 0.345752
O O4 0.377733 0.309223 0.343921
O O5 0.635137 0.804335 0.837188
O O6 0.527830 0.734232 0.841033
O O7 0.534423 0.000000 0.885961
O O8 0.500000 0.778034 0.000000
O O9 0.230999 0.500000 0.709672
O O10 0.277703 0.725291 0.742625
O O11 0.614425 0.244630 0.091620
O O12 0.643410 0.218520 0.208602
O O13 0.508805 0.242538 0.266517
O O14 0.585868 0.000000 0.183516
O O15 0.818821 0.000000 0.956537
O O16 0.750000 0.750000 0.000000
O O17 0.789414 0.828284 0.091643
O O18 0.301600 0.000000 0.762550
O O19 0.517058 0.500000 0.772608
#
# Coordination Sequence:
#
# PCOD8095782 Si02
#       7
#     8   8   8   8   8   8   8
#     4  10  21  39  62  84 107 133 168 217 271 326
#     4   9  19  34  49  71 104 142 179 218 260 309
#     4  10  20  33  53  80 107 139 178 217 264 317
#     4  10  20  33  50  72 104 146 185 223 264 312
#     4   9  17  29  44  66  97 139 186 225 259 300
#     4   9  19  33  48  71 105 143 181 221 263 306
#     4  10  21  35  53  80 107 136 174 219 268 318
#
# _framework density 18.018601
#
# number of rings (size 3 to 8) (size 9 to 14) (size 15 to 20)
#    0.000    2.429    0.000    3.000    2.000    6.000 
#    0.000    0.000    0.000    0.857    0.000    6.000 
#    0.000    0.000    0.000    0.000    0.000    0.000 
#
# Total GULP energy -347084.691884 kJ/mol
# GULP energy per Si atom -12395.881853 kJ/mol
# Density = 1.797759 g / cm^3
# Si number density = 18.018601 Si / 1000 Ang^3
#
#
#
# Elastic Constant Matrix: (Units=GPa)
#
#
# Indices 1 2 3 4 5 6 
#
# 1 113.7570 69.8449 42.6361 -0.0010 2.2653 0.0022
# 2 69.8449 133.2997 60.7404 -0.0040 4.6141 0.0097
# 3 42.6361 60.7404 99.6441 -0.0002 6.0719 0.0006
# 4 -0.0010 -0.0040 -0.0002 30.2126 0.0001 2.0032
# 5 2.2653 4.6141 6.0719 0.0001 13.1975 -0.0009
# 6 0.0022 0.0097 0.0006 2.0032 -0.0009 33.8878
#
#
#
# Elastic Compliance Matrix: (Units=1/GPa)
#
#
# Indices 1 2 3 4 5 6 
#
# 1 0.013246 -0.006041 -0.002032 0.000000 0.000774 0.000001
# 2 -0.006041 0.013149 -0.005364 0.000002 -0.001093 -0.000003
# 3 -0.002032 -0.005364 0.014444 -0.000001 -0.004421 0.000001
# 4 0.000000 0.000002 -0.000001 0.033229 -0.000001 -0.001964
# 5 0.000774 -0.001093 -0.004421 -0.000001 0.078056 0.000002
# 6 0.000001 -0.000003 0.000001 -0.001964 0.000002 0.029625
#
#
# Mechanical properties :
#
#
# Convention : Reuss Voigt Hill
#
# Bulk Modulus (GPa) = 71.60849 77.01597 74.31223
# Shear Modulus (GPa) = 23.44334 27.02485 25.23410
#
# Velocity S-wave (km/s) = 3.61094 3.87697 3.74631
# Velocity P-wave (km/s) = 7.56392 7.92947 7.74885
#
# Compressibility (1/GPa) = 0.01396483
#
# Stress axis : x y z
#
# Youngs Moduli (GPa) = 75.49296 76.04942 69.23062
#
# Poissons Ratio (x) = 0.45944 0.14070
# Poissons Ratio (y) = 0.45608 0.37135
# Poissons Ratio (z) = 0.15343 0.40792
#
# Static dielectric constant tensor:
#      x y z
#    x 3.288450 -0.000010 -0.141070 
#    y -0.000010 3.498960 0.000000 
#    z -0.141070 0.000000 3.233940 
# 
# 
# High freq. dielectric constant tensor:
#      x y z
#    x 1.694120 0.000000 -0.006540 
#    y 0.000000 1.712840 0.000000 
#    z -0.006540 0.000000 1.664170 
# 
# From -- ./inp_files/288170.got.cif
#   From: 2010.06.25/outbox.cif.g09.slc.cpg/sg12_145_cif.got.tgz:288170.got - 2010.06.28 00:19:55.
