data_PCOD8095954
_publ_section_title
;
Structure prediction by ZEFSAII (Michael W. Deem and Ramdas Pophale) SiO2 
 PCOD8095954
Probable space group: C 2/M
;
_chemical_formula_sum "Si O2"
_cell_formula_units_Z 40
_cell_length_a 19.948760
_cell_length_b 21.463002
_cell_length_c 5.024348
_cell_angle_alpha 90.000000
_cell_angle_beta 100.833015
_cell_angle_gamma 90.000000
_cell_volume 2112.889469
_symmetry_space_group_name_H-M "C 2/M"
_symmetry_group_IT_number 12
_symmetry_cell_setting 'monoclinic'
loop_
_space_group_symop_operation_xyz
x,y,z
-x,y,-z
-x,-y,-z
x,-y,z
1/2+x,1/2+y,z
1/2-x,1/2+y,-z
1/2-x,1/2-y,-z
1/2+x,1/2-y,z
loop_
_atom_site_type_symbol
_atom_site_label
_atom_site_fract_x
_atom_site_fract_y
_atom_site_fract_z
Si Si1 0.542981 0.899412 0.788019
Si Si2 0.226511 0.645869 0.500569
Si Si3 0.043182 0.253504 0.789874
Si Si4 0.693251 0.069948 0.964058
Si Si5 0.311211 0.264212 0.253215
O O1 0.500000 0.915902 0.500000
O O2 0.555677 0.826463 0.837406
O O3 0.615573 0.932709 0.806886
O O4 0.500000 0.927321 0.000000
O O5 0.240119 0.604623 0.776215
O O6 0.295154 0.676418 0.429769
O O7 0.177335 0.703499 0.549006
O O8 0.192035 0.604584 0.246595
O O9 0.117812 0.221247 0.840738
O O10 0.000000 0.236999 0.500000
O O11 0.000000 0.225178 0.000000
O O12 0.721815 0.000000 0.020440
O O13 0.250000 0.250000 0.000000
#
# Coordination Sequence:
#
# PCOD8095954 Si02
#       5
#     8   8   8   8   8
#     4  10  20  33  51  73 108 155 202 238 276 328
#     4  11  23  37  59  84 109 151 201 235 308 338
#     4  10  22  33  54  86 120 150 187 238 294 341
#     4  12  24  39  55  79 117 154 205 252 283 333
#     4  11  22  38  66  84 118 154 198 243 294 375
#
# _framework density 18.931422999999999
#
# number of rings (size 3 to 8) (size 9 to 14) (size 15 to 20)
#    0.000    1.200    4.000    1.800   11.200    0.800 
#    0.000    0.000    0.000    0.000    0.000    0.000 
#    0.000   16.000    0.000    0.000    0.000    0.000 
#
# Total GULP energy -247968.362074 kJ/mol
# GULP energy per Si atom -12398.418104 kJ/mol
# Density = 1.888833 g / cm^3
# Si number density = 18.931423 Si / 1000 Ang^3
#
#
#
# Elastic Constant Matrix: (Units=GPa)
#
#
# Indices 1 2 3 4 5 6 
#
# 1 133.6684 29.6908 44.9438 0.0000 -21.5923 0.0000
# 2 29.6908 83.6860 36.5341 0.0000 -6.4573 0.0000
# 3 44.9438 36.5341 114.3897 0.0000 -24.2246 0.0000
# 4 0.0000 0.0000 0.0000 22.1529 0.0000 -4.1336
# 5 -21.5923 -6.4573 -24.2246 0.0000 31.4285 0.0000
# 6 0.0000 0.0000 0.0000 -4.1336 0.0000 11.6903
#
#
#
# Elastic Compliance Matrix: (Units=1/GPa)
#
#
# Indices 1 2 3 4 5 6 
#
# 1 0.009351 -0.002069 -0.002083 0.000000 0.004394 0.000000
# 2 -0.002069 0.014355 -0.004121 0.000000 -0.001649 0.000000
# 3 -0.002083 -0.004121 0.012422 0.000000 0.007297 0.000000
# 4 0.000000 0.000000 0.000000 0.048330 0.000000 0.017089
# 5 0.004394 -0.001649 0.007297 0.000000 0.040123 0.000000
# 6 0.000000 0.000000 0.000000 0.017089 0.000000 0.091584
#
#
# Mechanical properties :
#
#
# Convention : Reuss Voigt Hill
#
# Bulk Modulus (GPa) = 51.06636 61.56460 56.31548
# Shear Modulus (GPa) = 20.89976 27.75935 24.32956
#
# Velocity S-wave (km/s) = 3.32621 3.83340 3.58878
# Velocity P-wave (km/s) = 6.46410 7.22383 6.85449
#
# Compressibility (1/GPa) = 0.01958236
#
# Stress axis : x y z
#
# Youngs Moduli (GPa) = 106.94219 69.65989 80.50390
#
# Poissons Ratio (x) = 0.14415 0.16765
# Poissons Ratio (y) = 0.22130 0.33175
# Poissons Ratio (z) = 0.22271 0.28707
#
# Static dielectric constant tensor:
#      x y z
#    x 3.424540 0.000000 -0.332600 
#    y 0.000000 3.302390 0.000000 
#    z -0.332600 0.000000 3.678830 
# 
# 
# High freq. dielectric constant tensor:
#      x y z
#    x 1.715210 0.000000 -0.024350 
#    y 0.000000 1.698260 0.000000 
#    z -0.024350 0.000000 1.755370 
# 
# From -- ./inp_files/15740.got.cif
#   From: 2010.06.25/outbox.cif.g09.slc.cpg/sg12_8_cif.got.tgz:15740.got - 2010.06.28 00:19:55.
