data_PCOD8095495
_publ_section_title
;
Structure prediction by ZEFSAII (Michael W. Deem and Ramdas Pophale) SiO2 
 PCOD8095495
Probable space group: C 2/M
;
_chemical_formula_sum "Si O2"
_cell_formula_units_Z 64
_cell_length_a 19.905898
_cell_length_b 9.215765
_cell_length_c 23.349210
_cell_angle_alpha 90.000000
_cell_angle_beta 51.294260
_cell_angle_gamma 90.000000
_cell_volume 3342.602080
_symmetry_space_group_name_H-M "C 2/M"
_symmetry_group_IT_number 12
_symmetry_cell_setting 'monoclinic'
loop_
_space_group_symop_operation_xyz
x,y,z
-x,y,-z
-x,-y,-z
x,-y,z
1/2+x,1/2+y,z
1/2-x,1/2+y,-z
1/2-x,1/2-y,-z
1/2+x,1/2-y,z
loop_
_atom_site_type_symbol
_atom_site_label
_atom_site_fract_x
_atom_site_fract_y
_atom_site_fract_z
Si Si1 0.873426 0.832899 0.902953
Si Si2 0.411863 0.666682 0.075824
Si Si3 0.973390 0.828707 0.255166
Si Si4 0.183861 0.666048 0.960255
Si Si5 0.331317 0.329465 0.658322
Si Si6 0.909929 0.663202 0.516223
Si Si7 0.491548 0.670574 0.374106
Si Si8 0.661351 0.332761 0.765078
O O1 0.784204 0.814255 0.917739
O O2 0.945882 0.765502 0.823055
O O3 0.892329 0.000000 0.908681
O O4 0.874073 0.744316 0.961195
O O5 0.397284 0.500000 0.066844
O O6 0.334251 0.760452 0.091016
O O7 0.407930 0.688283 0.146568
O O8 0.500000 0.723734 0.000000
O O9 0.975875 0.768274 0.318471
O O10 0.885372 0.786384 0.269269
O O11 0.984720 0.000000 0.252035
O O12 0.155870 0.500000 0.973822
O O13 0.322292 0.500000 0.652615
O O14 0.342986 0.251745 0.590781
O O15 0.410622 0.295243 0.658670
O O16 0.244182 0.267165 0.732392
O O17 0.874974 0.500000 0.524206
O O18 0.922049 0.745655 0.449807
O O19 0.000000 0.658072 0.500000
O O20 0.472641 0.500000 0.389580
O O21 0.691571 0.500000 0.746234
#
# Coordination Sequence:
#
# PCOD8095495 Si02
#       8
#     8   8   8   8   8   8   8   8
#     4   9  18  34  55  75 104 142 179 219 271 330
#     4  10  21  37  56  75 102 145 190 225 268 330
#     4   9  18  35  57  77 102 142 186 222 262 322
#     4  10  20  32  52  80 106 133 176 231 279 321
#     4  10  20  34  56  83 113 143 175 220 272 325
#     4   9  17  32  55  82 113 143 176 219 265 315
#     4   9  18  33  57  84 108 139 181 221 265 321
#     4  10  21  36  55  79 107 142 184 227 270 318
#
# _framework density 19.14676
#
# number of rings (size 3 to 8) (size 9 to 14) (size 15 to 20)
#    0.000    2.500    0.000    1.875    1.750    5.250 
#    0.000    3.750    0.000    0.000    0.000    0.000 
#    0.000    0.000    0.000    0.000    0.000    0.000 
#
# Total GULP energy -396806.870705 kJ/mol
# GULP energy per Si atom -12400.214710 kJ/mol
# Density = 1.910318 g / cm^3
# Si number density = 19.146760 Si / 1000 Ang^3
#
#
#
# Elastic Constant Matrix: (Units=GPa)
#
#
# Indices 1 2 3 4 5 6 
#
# 1 79.7445 38.1991 42.0686 0.0000 19.4035 0.0000
# 2 38.1991 78.7999 38.0547 0.0002 4.4118 -0.0005
# 3 42.0686 38.0547 101.0335 0.0000 9.4202 0.0000
# 4 0.0000 0.0002 0.0000 28.2249 0.0000 -0.3227
# 5 19.4035 4.4118 9.4202 0.0000 29.8364 0.0001
# 6 0.0000 -0.0005 0.0000 -0.3227 0.0001 24.6050
#
#
#
# Elastic Compliance Matrix: (Units=1/GPa)
#
#
# Indices 1 2 3 4 5 6 
#
# 1 0.021499 -0.007304 -0.005149 0.000000 -0.011275 0.000000
# 2 -0.007304 0.017999 -0.004052 0.000000 0.003368 0.000000
# 3 -0.005149 -0.004052 0.013600 0.000000 -0.000346 0.000000
# 4 0.000000 0.000000 0.000000 0.035435 0.000000 0.000465
# 5 -0.011275 0.003368 -0.000346 0.000000 0.040460 0.000000
# 6 0.000000 0.000000 0.000000 0.000465 0.000000 0.040648
#
#
# Mechanical properties :
#
#
# Convention : Reuss Voigt Hill
#
# Bulk Modulus (GPa) = 49.78212 55.13584 52.45898
# Shear Modulus (GPa) = 23.88359 25.95031 24.91695
#
# Velocity S-wave (km/s) = 3.53568 3.68548 3.61136
# Velocity P-wave (km/s) = 6.53642 6.85342 6.69679
#
# Compressibility (1/GPa) = 0.02008753
#
# Stress axis : x y z
#
# Youngs Moduli (GPa) = 46.51433 55.55742 73.52685
#
# Poissons Ratio (x) = 0.40577 0.37862
# Poissons Ratio (y) = 0.33973 0.29796
# Poissons Ratio (z) = 0.23952 0.22514
#
# Static dielectric constant tensor:
#      x y z
#    x 3.381000 0.000000 0.139110 
#    y 0.000000 3.410230 0.000000 
#    z 0.139110 0.000000 3.577290 
# 
# 
# High freq. dielectric constant tensor:
#      x y z
#    x 1.733160 0.000000 0.006600 
#    y 0.000000 1.729410 0.000000 
#    z 0.006600 0.000000 1.746850 
# 
# From -- ./inp_files/346063.got.cif
#   From: 2010.06.25/outbox.cif.g09.slc.cpg/sg12_174_cif.got.tgz:346063.got - 2010.06.28 00:19:55.
