data_PCOD8095556
_publ_section_title
;
Structure prediction by ZEFSAII (Michael W. Deem and Ramdas Pophale) SiO2 
 PCOD8095556
Probable space group: C 2/M
;
_chemical_formula_sum "Si O2"
_cell_formula_units_Z 48
_cell_length_a 11.117284
_cell_length_b 23.950766
_cell_length_c 10.925759
_cell_angle_alpha 90.000000
_cell_angle_beta 127.181269
_cell_angle_gamma 90.000000
_cell_volume 2317.819158
_symmetry_space_group_name_H-M "C 2/M"
_symmetry_group_IT_number 12
_symmetry_cell_setting 'monoclinic'
loop_
_space_group_symop_operation_xyz
x,y,z
-x,y,-z
-x,-y,-z
x,-y,z
1/2+x,1/2+y,z
1/2-x,1/2+y,-z
1/2-x,1/2-y,-z
1/2+x,1/2-y,z
loop_
_atom_site_type_symbol
_atom_site_label
_atom_site_fract_x
_atom_site_fract_y
_atom_site_fract_z
Si Si1 0.323870 0.937492 0.623281
Si Si2 0.844608 0.710544 0.966686
Si Si3 0.430408 0.438549 0.184462
Si Si4 0.865922 0.851053 0.341380
Si Si5 0.242886 0.563152 0.693699
Si Si6 0.139606 0.599977 0.871844
O O1 0.227051 0.890254 0.626639
O O2 0.327990 0.922992 0.481916
O O3 0.487903 0.936105 0.786744
O O4 0.256873 0.000000 0.601140
O O5 0.736110 0.695329 0.786685
O O6 0.750000 0.750000 0.000000
O O7 0.890066 0.657532 0.076023
O O8 0.000000 0.735489 0.000000
O O9 0.433561 0.500000 0.248083
O O10 0.446438 0.390914 0.294038
O O11 0.576075 0.431490 0.188635
O O12 0.276452 0.433939 0.014747
O O13 0.000000 0.820651 0.500000
O O14 0.194980 0.500000 0.702199
O O15 0.177780 0.607787 0.751234
#
# Coordination Sequence:
#
# PCOD8095556 Si02
#       6
#     8   8   8   8   8   8
#     4  11  21  35  61  94 139 177 208 250 307 378
#     4  11  26  50  73  94 122 163 218 289 344 388
#     4  10  20  32  55  89 130 176 216 253 299 370
#     4  11  22  41  64  94 131 165 212 260 320 391
#     4  10  20  34  55  91 135 178 211 246 302 379
#     4  11  22  38  61  89 127 165 220 262 318 377
#
# _framework density 20.709123999999999
#
# number of rings (size 3 to 8) (size 9 to 14) (size 15 to 20)
#    0.000    1.333    3.333    3.000    0.000    6.000 
#    0.000    5.000    0.000    0.000    0.000    0.000 
#    0.000    0.000    0.000    0.000    0.000    0.000 
#
# Total GULP energy -297446.272965 kJ/mol
# GULP energy per Si atom -12393.594707 kJ/mol
# Density = 2.066199 g / cm^3
# Si number density = 20.709124 Si / 1000 Ang^3
#
#
#
# Elastic Constant Matrix: (Units=GPa)
#
#
# Indices 1 2 3 4 5 6 
#
# 1 100.6738 29.5329 43.4805 0.0000 2.1892 0.0000
# 2 29.5329 47.5840 31.7196 0.0000 0.2504 0.0000
# 3 43.4805 31.7196 145.9435 0.0000 13.6186 0.0000
# 4 0.0000 0.0000 0.0000 17.7047 0.0000 -4.4560
# 5 2.1892 0.2504 13.6186 0.0000 38.8594 0.0000
# 6 0.0000 0.0000 0.0000 -4.4560 0.0000 37.7126
#
#
#
# Elastic Compliance Matrix: (Units=1/GPa)
#
#
# Indices 1 2 3 4 5 6 
#
# 1 0.012853 -0.006332 -0.002470 0.000000 0.000182 0.000000
# 2 -0.006332 0.027814 -0.004316 0.000000 0.001690 0.000000
# 3 -0.002470 -0.004316 0.008798 0.000000 -0.002916 0.000000
# 4 0.000000 0.000000 0.000000 0.058213 0.000000 0.006878
# 5 0.000182 0.001690 -0.002916 0.000000 0.026735 0.000000
# 6 0.000000 0.000000 0.000000 0.006878 0.000000 0.027329
#
#
# Mechanical properties :
#
#
# Convention : Reuss Voigt Hill
#
# Bulk Modulus (GPa) = 43.05054 55.96306 49.50680
# Shear Modulus (GPa) = 25.54643 31.48654 28.51648
#
# Velocity S-wave (km/s) = 3.51605 3.90348 3.71482
# Velocity P-wave (km/s) = 6.10875 6.88464 6.50827
#
# Compressibility (1/GPa) = 0.02322851
#
# Stress axis : x y z
#
# Youngs Moduli (GPa) = 77.80032 35.95359 113.65961
#
# Poissons Ratio (x) = 0.22765 0.28077
# Poissons Ratio (y) = 0.49261 0.49060
# Poissons Ratio (z) = 0.19219 0.15519
#
# Static dielectric constant tensor:
#      x y z
#    x 3.964920 0.000000 0.074560 
#    y 0.000000 3.347180 0.000000 
#    z 0.074560 0.000000 4.208690 
# 
# 
# High freq. dielectric constant tensor:
#      x y z
#    x 1.823710 0.000000 0.008030 
#    y 0.000000 1.762080 0.000000 
#    z 0.008030 0.000000 1.831520 
# 
# From -- ./inp_files/133739.got.cif
#   From: 2010.06.25/outbox.cif.g09.slc.cpg/sg12_67_cif.got.tgz:133739.got - 2010.06.28 00:19:55.
