data_PCOD8095639
_publ_section_title
;
Structure prediction by ZEFSAII (Michael W. Deem and Ramdas Pophale) SiO2 
 PCOD8095639
Probable space group: C 2/M
;
_chemical_formula_sum "Si O2"
_cell_formula_units_Z 64
_cell_length_a 25.436512
_cell_length_b 14.860628
_cell_length_c 9.593273
_cell_angle_alpha 90.000000
_cell_angle_beta 100.853274
_cell_angle_gamma 90.000000
_cell_volume 3561.416827
_symmetry_space_group_name_H-M "C 2/M"
_symmetry_group_IT_number 12
_symmetry_cell_setting 'monoclinic'
loop_
_space_group_symop_operation_xyz
x,y,z
-x,y,-z
-x,-y,-z
x,-y,z
1/2+x,1/2+y,z
1/2-x,1/2+y,-z
1/2-x,1/2-y,-z
1/2+x,1/2-y,z
loop_
_atom_site_type_symbol
_atom_site_label
_atom_site_fract_x
_atom_site_fract_y
_atom_site_fract_z
Si Si1 0.825999 0.397624 0.098131
Si Si2 0.549169 0.396831 0.712828
Si Si3 0.350787 0.710575 0.746813
Si Si4 0.772811 0.666399 0.599294
Si Si5 0.873629 0.215425 0.068212
Si Si6 0.427549 0.602622 0.590702
Si Si7 0.254412 0.097434 0.312651
Si Si8 0.776056 0.104017 0.145669
O O1 0.849083 0.500000 0.099424
O O2 0.871650 0.322720 0.096399
O O3 0.803974 0.375422 0.240387
O O4 0.779566 0.383409 0.961667
O O5 0.557677 0.500000 0.765743
O O6 0.574597 0.328134 0.834943
O O7 0.576764 0.382534 0.576787
O O8 0.486668 0.373894 0.673488
O O9 0.332363 0.811284 0.690314
O O10 0.385168 0.666983 0.641936
O O11 0.293800 0.663944 0.740013
O O12 0.382504 0.705705 0.906957
O O13 0.750000 0.750000 0.500000
O O14 0.775652 0.589689 0.482719
O O15 0.731875 0.636221 0.699479
O O16 0.820509 0.164988 0.094007
O O17 0.413214 0.500000 0.621355
O O18 0.233346 0.000000 0.254378
O O19 0.794964 0.000000 0.153135
#
# Coordination Sequence:
#
# PCOD8095639 Si02
#       8
#     8   8   8   8   8   8   8   8
#     4  10  21  36  53  75 109 147 176 215 266 310
#     4   9  21  38  57  80 106 138 174 215 266 323
#     4  11  21  32  51  76 105 141 178 218 263 306
#     4  10  21  33  46  73 105 142 181 219 254 301
#     4  12  21  34  54  80 106 141 184 221 257 317
#     4   9  20  39  55  76 109 138 172 217 265 320
#     4  10  20  33  48  73 106 140 176 215 258 304
#     4  11  21  34  52  76 112 150 179 213 261 316
#
# _framework density 17.970376999999999
#
# number of rings (size 3 to 8) (size 9 to 14) (size 15 to 20)
#    0.000    1.750    2.500    3.750    5.250    2.000 
#    0.000    1.250    0.000    0.000    0.000    5.250 
#    0.000    0.000    0.000    0.000    0.000    0.000 
#
# Total GULP energy -396649.683306 kJ/mol
# GULP energy per Si atom -12395.302603 kJ/mol
# Density = 1.792948 g / cm^3
# Si number density = 17.970377 Si / 1000 Ang^3
#
#
#
# Elastic Constant Matrix: (Units=GPa)
#
#
# Indices 1 2 3 4 5 6 
#
# 1 27.7131 17.8613 7.7307 0.0000 3.9843 0.0000
# 2 17.8613 78.0628 12.5866 0.0000 4.7115 0.0000
# 3 7.7307 12.5866 91.8032 0.0000 2.7464 0.0000
# 4 0.0000 0.0000 0.0000 27.4899 0.0000 1.7693
# 5 3.9843 4.7115 2.7464 0.0000 28.0049 0.0000
# 6 0.0000 0.0000 0.0000 1.7693 0.0000 23.9679
#
#
#
# Elastic Compliance Matrix: (Units=1/GPa)
#
#
# Indices 1 2 3 4 5 6 
#
# 1 0.043325 -0.009287 -0.002244 0.000000 -0.004382 0.000000
# 2 -0.009287 0.015207 -0.001270 0.000000 -0.001113 0.000000
# 3 -0.002244 -0.001270 0.011273 0.000000 -0.000573 0.000000
# 4 0.000000 0.000000 0.000000 0.036551 0.000000 -0.002698
# 5 -0.004382 -0.001113 -0.000573 0.000000 0.036575 0.000000
# 6 0.000000 0.000000 0.000000 -0.002698 0.000000 0.041922
#
#
# Mechanical properties :
#
#
# Convention : Reuss Voigt Hill
#
# Bulk Modulus (GPa) = 22.62224 30.43738 26.52981
# Shear Modulus (GPa) = 22.20363 26.51924 24.36144
#
# Velocity S-wave (km/s) = 3.51888 3.84568 3.68590
# Velocity P-wave (km/s) = 5.39685 6.05750 5.73669
#
# Compressibility (1/GPa) = 0.04420428
#
# Stress axis : x y z
#
# Youngs Moduli (GPa) = 23.08113 65.75931 88.70725
#
# Poissons Ratio (x) = 0.61070 0.19907
# Poissons Ratio (y) = 0.21435 0.11262
# Poissons Ratio (z) = 0.05180 0.08349
#
# Static dielectric constant tensor:
#      x y z
#    x 2.949420 0.000000 0.051620 
#    y 0.000000 3.877460 0.000000 
#    z 0.051620 0.000000 4.163490 
# 
# 
# High freq. dielectric constant tensor:
#      x y z
#    x 1.651230 0.000000 -0.008910 
#    y 0.000000 1.694350 0.000000 
#    z -0.008910 0.000000 1.716070 
# 
# From -- ./inp_files/104629.got.cif
#   From: 2010.06.25/outbox.cif.g09.slc.cpg/sg12_53_cif.got.tgz:104629.got - 2010.06.28 00:19:55.
