data_PCOD8095567
_publ_section_title
;
Structure prediction by ZEFSAII (Michael W. Deem and Ramdas Pophale) SiO2 
 PCOD8095567
Probable space group: C 2/M
;
_chemical_formula_sum "Si O2"
_cell_formula_units_Z 40
_cell_length_a 32.701466
_cell_length_b 9.232609
_cell_length_c 27.549823
_cell_angle_alpha 90.000000
_cell_angle_beta 16.801859
_cell_angle_gamma 90.000000
_cell_volume 2404.378140
_symmetry_space_group_name_H-M "C 2/M"
_symmetry_group_IT_number 12
_symmetry_cell_setting 'monoclinic'
loop_
_space_group_symop_operation_xyz
x,y,z
-x,y,-z
-x,-y,-z
x,-y,z
1/2+x,1/2+y,z
1/2-x,1/2+y,-z
1/2-x,1/2-y,-z
1/2+x,1/2-y,z
loop_
_atom_site_type_symbol
_atom_site_label
_atom_site_fract_x
_atom_site_fract_y
_atom_site_fract_z
Si Si1 0.353519 0.500000 0.694465
Si Si2 0.383391 0.161074 0.260845
Si Si3 0.951610 0.828512 0.846504
Si Si4 0.429290 0.328933 0.391217
Si Si5 0.949439 0.500000 0.002589
Si Si6 0.671401 0.661051 0.184382
O O1 0.500000 0.500000 0.500000
O O2 0.347540 0.643321 0.735752
O O3 0.221200 0.500000 0.807629
O O4 0.448144 0.270824 0.225314
O O5 0.231108 0.226012 0.418141
O O6 0.485953 0.143330 0.097316
O O7 0.365683 0.000000 0.305107
O O8 0.011102 0.771323 0.727691
O O9 0.948284 0.000000 0.853143
O O10 0.794432 0.770844 0.031991
O O11 0.428233 0.500000 0.393067
O O12 0.528891 0.274238 0.322019
O O13 0.000000 0.500000 0.000000
O O14 0.706695 0.500000 0.122515
#
# Coordination Sequence:
#
# PCOD8095567 Si02
#       6
#     4   8   8   8   4   8
#     4  10  20  32  58  82 100 126 174 228 277 292
#     4   9  18  35  50  75 106 131 174 223 261 299
#     4  11  19  31  49  75 105 146 177 195 261 317
#     4   9  18  29  51  75 103 142 171 217 251 309
#     4  10  20  32  58  82 100 126 174 228 277 292
#     4   9  18  35  50  75 106 131 174 223 261 299
#
# _framework density 16.636317999999999
#
# number of rings (size 3 to 8) (size 9 to 14) (size 15 to 20)
#    1.200    1.200    2.000    1.800    2.800    0.000 
#    0.000    3.000    0.000    1.200    0.000    0.000 
#    0.000    0.000    0.000    0.000    0.000    0.000 
#
# Total GULP energy -247806.585448 kJ/mol
# GULP energy per Si atom -12390.329272 kJ/mol
# Density = 1.659845 g / cm^3
# Si number density = 16.636318 Si / 1000 Ang^3
#
#
#
# Elastic Constant Matrix: (Units=GPa)
#
#
# Indices 1 2 3 4 5 6 
#
# 1 122.7380 18.8716 66.3037 0.0046 -20.2904 -0.0006
# 2 18.8716 40.0120 23.3881 0.0478 -5.8345 0.0105
# 3 66.3037 23.3881 154.6532 0.0295 -20.9554 0.0090
# 4 0.0046 0.0478 0.0295 19.8369 0.0059 0.2333
# 5 -20.2904 -5.8345 -20.9554 0.0059 36.9258 -0.0035
# 6 -0.0006 0.0105 0.0090 0.2333 -0.0035 20.0400
#
#
#
# Elastic Compliance Matrix: (Units=1/GPa)
#
#
# Indices 1 2 3 4 5 6 
#
# 1 0.011259 -0.002471 -0.003974 0.000008 0.003541 0.000004
# 2 -0.002471 0.028116 -0.003006 -0.000063 0.001379 -0.000012
# 3 -0.003974 -0.003006 0.008952 -0.000006 0.002422 -0.000002
# 4 0.000008 -0.000063 -0.000006 0.050418 -0.000017 -0.000587
# 5 0.003541 0.001379 0.002422 -0.000017 0.030620 0.000004
# 6 0.000004 -0.000012 -0.000002 -0.000587 0.000004 0.049907
#
#
# Mechanical properties :
#
#
# Convention : Reuss Voigt Hill
#
# Bulk Modulus (GPa) = 33.98272 59.39223 46.68747
# Shear Modulus (GPa) = 24.04041 29.28318 26.66180
#
# Velocity S-wave (km/s) = 3.80551 4.20002 4.00762
# Velocity P-wave (km/s) = 6.30717 7.70052 7.03841
#
# Compressibility (1/GPa) = 0.02942672
#
# Stress axis : x y z
#
# Youngs Moduli (GPa) = 88.81441 35.56683 111.70201
#
# Poissons Ratio (x) = 0.08790 0.44386
# Poissons Ratio (y) = 0.21950 0.33573
# Poissons Ratio (z) = 0.35291 0.10690
#
# Static dielectric constant tensor:
#      x y z
#    x 3.304780 -0.000050 -0.456670 
#    y -0.000050 2.703750 0.000080 
#    z -0.456670 0.000080 3.666040 
# 
# 
# High freq. dielectric constant tensor:
#      x y z
#    x 1.637270 0.000000 -0.021160 
#    y 0.000000 1.592340 0.000000 
#    z -0.021160 0.000000 1.653680 
# 
# From -- ./inp_files/370645.got.cif
#   From: 2010.06.25/outbox.cif.g09.slc.cpg/sg12_186_cif.got.tgz:370645.got - 2010.06.28 00:19:55.
