data_PCOD8095743
_publ_section_title
;
Structure prediction by ZEFSAII (Michael W. Deem and Ramdas Pophale) SiO2 
 PCOD8095743
Probable space group: C 2/M
;
_chemical_formula_sum "Si O2"
_cell_formula_units_Z 48
_cell_length_a 28.567354
_cell_length_b 10.283878
_cell_length_c 14.042620
_cell_angle_alpha 90.000000
_cell_angle_beta 140.148742
_cell_angle_gamma 90.000000
_cell_volume 2643.597833
_symmetry_space_group_name_H-M "C 2/M"
_symmetry_group_IT_number 12
_symmetry_cell_setting 'monoclinic'
loop_
_space_group_symop_operation_xyz
x,y,z
-x,y,-z
-x,-y,-z
x,-y,z
1/2+x,1/2+y,z
1/2-x,1/2+y,-z
1/2-x,1/2-y,-z
1/2+x,1/2-y,z
loop_
_atom_site_type_symbol
_atom_site_label
_atom_site_fract_x
_atom_site_fract_y
_atom_site_fract_z
Si Si1 0.667523 0.355089 0.567133
Si Si2 0.018778 0.151678 0.427292
Si Si3 0.970913 0.640941 0.849458
Si Si4 0.204848 0.144642 0.216798
Si Si5 0.332295 0.290081 0.638638
Si Si6 0.063285 0.850377 0.884341
O O1 0.688116 0.500000 0.637781
O O2 0.595668 0.295068 0.505955
O O3 0.732967 0.254189 0.688717
O O4 0.649188 0.374342 0.426222
O O5 0.000000 0.217630 0.500000
O O6 0.950922 0.177838 0.249734
O O7 0.030892 0.000000 0.460986
O O8 0.984469 0.500000 0.821058
O O9 0.884042 0.663948 0.718276
O O10 0.009064 0.758177 0.855933
O O11 0.000000 0.635851 0.000000
O O12 0.160566 0.138346 0.248241
O O13 0.238019 0.000000 0.251121
O O14 0.147129 0.179085 0.042945
O O15 0.250000 0.250000 0.500000
O O16 0.043530 0.000000 0.878377
#
# Coordination Sequence:
#
# PCOD8095743 Si02
#       6
#     8   8   8   8   8   8
#     4  10  20  34  55  79 107 143 183 223 264 319
#     4   9  18  35  59  83 104 134 182 233 277 322
#     4  11  22  35  53  80 112 146 181 222 268 317
#     4  10  21  34  52  78 112 147 177 217 265 321
#     4  10  20  33  49  76 110 145 178 209 258 316
#     4  10  20  36  56  79 107 143 183 224 270 322
#
# _framework density 18.157074000000001
#
# number of rings (size 3 to 8) (size 9 to 14) (size 15 to 20)
#    0.000    2.000    3.333    0.500    0.000    7.000 
#    0.000    0.833    0.000    2.000    0.000    0.000 
#    0.000    0.000    0.000    0.000    0.000    0.000 
#
# Total GULP energy -297340.365228 kJ/mol
# GULP energy per Si atom -12389.181885 kJ/mol
# Density = 1.811575 g / cm^3
# Si number density = 18.157074 Si / 1000 Ang^3
#
#
#
# Elastic Constant Matrix: (Units=GPa)
#
#
# Indices 1 2 3 4 5 6 
#
# 1 101.8158 32.3026 58.6329 0.0000 -3.8068 0.0000
# 2 32.3026 93.5203 55.0263 0.0000 8.6069 0.0000
# 3 58.6329 55.0263 134.7786 0.0000 4.2199 0.0000
# 4 0.0000 0.0000 0.0000 27.5328 0.0000 10.4680
# 5 -3.8068 8.6069 4.2199 0.0000 26.3251 0.0000
# 6 0.0000 0.0000 0.0000 10.4680 0.0000 20.1217
#
#
#
# Elastic Compliance Matrix: (Units=1/GPa)
#
#
# Indices 1 2 3 4 5 6 
#
# 1 0.013570 -0.001930 -0.005223 0.000000 0.003430 0.000000
# 2 -0.001930 0.014716 -0.005034 0.000000 -0.004283 0.000000
# 3 -0.005223 -0.005034 0.011778 0.000000 -0.000997 0.000000
# 4 0.000000 0.000000 0.000000 0.045276 0.000000 -0.023554
# 5 0.003430 -0.004283 -0.000997 0.000000 0.040043 0.000000
# 6 0.000000 0.000000 0.000000 -0.023554 0.000000 0.061951
#
#
# Mechanical properties :
#
#
# Convention : Reuss Voigt Hill
#
# Bulk Modulus (GPa) = 63.73528 69.11537 66.42532
# Shear Modulus (GPa) = 23.04806 27.07277 25.06042
#
# Velocity S-wave (km/s) = 3.56669 3.86558 3.71914
# Velocity P-wave (km/s) = 7.22081 7.62046 7.42333
#
# Compressibility (1/GPa) = 0.01568990
#
# Stress axis : x y z
#
# Youngs Moduli (GPa) = 73.69271 67.95399 84.90174
#
# Poissons Ratio (x) = 0.13114 0.44343
# Poissons Ratio (y) = 0.14221 0.42743
# Poissons Ratio (z) = 0.38489 0.34211
#
# Static dielectric constant tensor:
#      x y z
#    x 3.549240 0.000000 -0.173470 
#    y 0.000000 3.431290 0.000000 
#    z -0.173470 0.000000 3.587620 
# 
# 
# High freq. dielectric constant tensor:
#      x y z
#    x 1.675800 0.000000 0.007650 
#    y 0.000000 1.689490 0.000000 
#    z 0.007650 0.000000 1.714040 
# 
# From -- ./inp_files/174868.got.cif
#   From: 2010.06.25/outbox.cif.g09.slc.cpg/sg12_88_cif.got.tgz:174868.got - 2010.06.28 00:19:55.
