data_PCOD8095628
_publ_section_title
;
Structure prediction by ZEFSAII (Michael W. Deem and Ramdas Pophale) SiO2 
 PCOD8095628
Probable space group: C 2/M
;
_chemical_formula_sum "Si O2"
_cell_formula_units_Z 64
_cell_length_a 23.153336
_cell_length_b 9.181622
_cell_length_c 17.284372
_cell_angle_alpha 90.000000
_cell_angle_beta 85.254882
_cell_angle_gamma 90.000000
_cell_volume 3661.807509
_symmetry_space_group_name_H-M "C 2/M"
_symmetry_group_IT_number 12
_symmetry_cell_setting 'monoclinic'
loop_
_space_group_symop_operation_xyz
x,y,z
-x,y,-z
-x,-y,-z
x,-y,z
1/2+x,1/2+y,z
1/2-x,1/2+y,-z
1/2-x,1/2-y,-z
1/2+x,1/2-y,z
loop_
_atom_site_type_symbol
_atom_site_label
_atom_site_fract_x
_atom_site_fract_y
_atom_site_fract_z
Si Si1 0.431249 0.171584 0.223355
Si Si2 0.793565 0.835806 0.737173
Si Si3 0.318808 0.671420 0.286555
Si Si4 0.806992 0.171100 0.464996
Si Si5 0.495539 0.332363 0.913723
Si Si6 0.099697 0.836395 0.188033
Si Si7 0.531906 0.832036 0.319669
Si Si8 0.614096 0.332849 0.407804
O O1 0.369127 0.245898 0.235888
O O2 0.463703 0.238478 0.146075
O O3 0.466123 0.203181 0.299888
O O4 0.424516 0.000000 0.210259
O O5 0.741793 0.721064 0.743833
O O6 0.830416 0.817955 0.813559
O O7 0.836544 0.801367 0.661334
O O8 0.768715 0.000000 0.732247
O O9 0.326100 0.500000 0.273980
O O10 0.321026 0.716452 0.376101
O O11 0.750000 0.250000 0.500000
O O12 0.861305 0.220139 0.512128
O O13 0.795572 0.000000 0.474719
O O14 0.516428 0.500000 0.908224
O O15 0.427731 0.319267 0.894517
O O16 0.500000 0.270528 0.000000
O O17 0.071792 0.713610 0.243945
O O18 0.084439 0.000000 0.221709
O O19 0.553782 0.749296 0.394383
O O20 0.540710 0.000000 0.335769
O O21 0.597070 0.500000 0.413007
#
# Coordination Sequence:
#
# PCOD8095628 Si02
#       8
#     8   8   8   8   8   8   8   8
#     4  10  21  36  52  72 102 136 167 201 246 300
#     4   9  16  28  47  69  97 132 165 200 244 294
#     4  11  22  33  49  72  98 131 171 212 251 294
#     4  10  20  33  48  70  98 129 168 212 257 301
#     4   9  17  32  57  85 108 130 159 198 242 290
#     4   8  15  28  47  73 103 131 158 193 241 293
#     4   9  17  29  47  70  93 123 165 208 246 287
#     4   9  17  30  48  69  95 127 163 206 258 304
#
# _framework density 17.477706999999999
#
# number of rings (size 3 to 8) (size 9 to 14) (size 15 to 20)
#    0.000    2.625    1.250    1.875    0.000    4.750 
#    0.000    0.625    0.000    4.500    0.000    0.000 
#    0.000    0.000    0.000    0.000    0.000    0.000 
#
# Total GULP energy -396566.481514 kJ/mol
# GULP energy per Si atom -12392.702547 kJ/mol
# Density = 1.743793 g / cm^3
# Si number density = 17.477707 Si / 1000 Ang^3
#
#
#
# Elastic Constant Matrix: (Units=GPa)
#
#
# Indices 1 2 3 4 5 6 
#
# 1 95.5131 43.3814 51.2469 0.0000 17.2329 0.0000
# 2 43.3814 64.3076 31.6243 0.0000 1.3527 0.0000
# 3 51.2469 31.6243 84.3153 0.0000 19.3989 0.0000
# 4 0.0000 0.0000 0.0000 17.4689 0.0000 4.3819
# 5 17.2329 1.3527 19.3989 0.0000 27.0397 0.0000
# 6 0.0000 0.0000 0.0000 4.3819 0.0000 28.9409
#
#
#
# Elastic Compliance Matrix: (Units=1/GPa)
#
#
# Indices 1 2 3 4 5 6 
#
# 1 0.019925 -0.010018 -0.006643 0.000000 -0.007432 0.000000
# 2 -0.010018 0.024686 -0.005216 0.000000 0.008892 0.000000
# 3 -0.006643 -0.005216 0.020145 0.000000 -0.009958 0.000000
# 4 0.000000 0.000000 0.000000 0.059504 0.000000 -0.009010
# 5 -0.007432 0.008892 -0.009958 0.000000 0.048418 0.000000
# 6 0.000000 0.000000 0.000000 -0.009010 0.000000 0.035917
#
#
# Mechanical properties :
#
#
# Convention : Reuss Voigt Hill
#
# Bulk Modulus (GPa) = 47.61347 55.18234 51.39790
# Shear Modulus (GPa) = 19.27881 22.54881 20.91381
#
# Velocity S-wave (km/s) = 3.32483 3.59576 3.46294
# Velocity P-wave (km/s) = 6.48389 6.99148 6.74246
#
# Compressibility (1/GPa) = 0.02100246
#
# Stress axis : x y z
#
# Youngs Moduli (GPa) = 50.18802 40.50817 49.63911
#
# Poissons Ratio (x) = 0.40581 0.32976
# Poissons Ratio (y) = 0.50279 0.25892
# Poissons Ratio (z) = 0.33341 0.21129
#
# Static dielectric constant tensor:
#      x y z
#    x 3.418830 0.000000 0.457340 
#    y 0.000000 3.243390 0.000000 
#    z 0.457340 0.000000 3.143090 
# 
# 
# High freq. dielectric constant tensor:
#      x y z
#    x 1.675030 0.000000 0.033520 
#    y 0.000000 1.678620 0.000000 
#    z 0.033520 0.000000 1.637560 
# 
# From -- ./inp_files/287505.got.cif
#   From: 2010.06.25/outbox.cif.g09.slc.cpg/sg12_144_cif.got.tgz:287505.got - 2010.06.28 00:19:55.
