data_PCOD8095662
_publ_section_title
;
Structure prediction by ZEFSAII (Michael W. Deem and Ramdas Pophale) SiO2 
 PCOD8095662
Probable space group: C 2/M
;
_chemical_formula_sum "Si O2"
_cell_formula_units_Z 56
_cell_length_a 20.736512
_cell_length_b 9.223479
_cell_length_c 17.756129
_cell_angle_alpha 90.000000
_cell_angle_beta 78.229149
_cell_angle_gamma 90.000000
_cell_volume 3324.671355
_symmetry_space_group_name_H-M "C 2/M"
_symmetry_group_IT_number 12
_symmetry_cell_setting 'monoclinic'
loop_
_space_group_symop_operation_xyz
x,y,z
-x,y,-z
-x,-y,-z
x,-y,z
1/2+x,1/2+y,z
1/2-x,1/2+y,-z
1/2-x,1/2-y,-z
1/2+x,1/2-y,z
loop_
_atom_site_type_symbol
_atom_site_label
_atom_site_fract_x
_atom_site_fract_y
_atom_site_fract_z
Si Si1 0.067309 0.828248 0.450215
Si Si2 0.906065 0.336299 0.154297
Si Si3 0.182268 0.170437 0.529457
Si Si4 0.543515 0.332367 0.288870
Si Si5 0.561694 0.836210 0.140158
Si Si6 0.608279 0.666586 0.697897
Si Si7 0.077957 0.164118 0.992892
O O1 0.129717 0.768288 0.481449
O O2 0.075054 0.785306 0.360859
O O3 0.000000 0.760571 0.500000
O O4 0.063580 0.000000 0.460636
O O5 0.879855 0.500000 0.151878
O O6 0.872260 0.264035 0.235097
O O7 0.886605 0.246204 0.084602
O O8 0.984054 0.333920 0.145718
O O9 0.250000 0.250000 0.500000
O O10 0.157219 0.207322 0.619004
O O11 0.192572 0.000000 0.516425
O O12 0.557175 0.500000 0.267081
O O13 0.578311 0.237589 0.216019
O O14 0.465659 0.302476 0.312369
O O15 0.588893 0.000000 0.133481
O O16 0.596994 0.746828 0.065235
O O17 0.615497 0.500000 0.720740
O O18 0.104644 0.000000 0.990658
O O19 0.000000 0.164499 0.000000
#
# Coordination Sequence:
#
# PCOD8095662 Si02
#       7
#     8   8   8   8   8   8   8
#     4   9  15  28  50  71  88 115 159 202 233 271
#     4   9  16  24  36  55  81 113 146 182 226 273
#     4  10  20  33  49  69  94 123 155 195 241 283
#     4   9  15  25  44  65  83 109 152 196 228 264
#     4   9  16  24  34  53  85 117 143 177 227 277
#     4   9  16  27  43  62  84 113 151 191 228 270
#     4   9  15  23  35  52  77 112 152 185 216 261
#
# _framework density 16.843769000000002
#
# number of rings (size 3 to 8) (size 9 to 14) (size 15 to 20)
#    0.000    2.857    1.429    1.286    0.000    5.714 
#    0.000    0.714    0.000    0.857    0.000    0.000 
#    0.000    1.143    0.000    3.429    0.000    5.714 
#
# Total GULP energy -347149.238454 kJ/mol
# GULP energy per Si atom -12398.187088 kJ/mol
# Density = 1.680543 g / cm^3
# Si number density = 16.843769 Si / 1000 Ang^3
#
#
#
# Elastic Constant Matrix: (Units=GPa)
#
#
# Indices 1 2 3 4 5 6 
#
# 1 54.4077 28.0516 49.8776 0.0000 3.4003 0.0000
# 2 28.0516 109.0496 82.3281 0.0000 1.9992 0.0000
# 3 49.8776 82.3281 159.1336 0.0000 6.6646 0.0000
# 4 0.0000 0.0000 0.0000 24.9594 0.0000 -3.9061
# 5 3.4003 1.9992 6.6646 0.0000 11.3583 0.0000
# 6 0.0000 0.0000 0.0000 -3.9061 0.0000 13.4647
#
#
#
# Elastic Compliance Matrix: (Units=1/GPa)
#
#
# Indices 1 2 3 4 5 6 
#
# 1 0.025953 -0.000947 -0.007511 0.000000 -0.003196 0.000000
# 2 -0.000947 0.015125 -0.007616 0.000000 0.002090 0.000000
# 3 -0.007511 -0.007616 0.012741 0.000000 -0.003887 0.000000
# 4 0.000000 0.000000 0.000000 0.041971 0.000000 0.012175
# 5 -0.003196 0.002090 -0.003887 0.000000 0.090911 0.000000
# 6 0.000000 0.000000 0.000000 0.012175 0.000000 0.077800
#
#
# Mechanical properties :
#
#
# Convention : Reuss Voigt Hill
#
# Bulk Modulus (GPa) = 46.14254 71.45615 58.79934
# Shear Modulus (GPa) = 16.45432 20.77872 18.61652
#
# Velocity S-wave (km/s) = 3.12890 3.51610 3.32813
# Velocity P-wave (km/s) = 6.36453 7.68107 7.05359
#
# Compressibility (1/GPa) = 0.02167197
#
# Stress axis : x y z
#
# Youngs Moduli (GPa) = 38.53101 66.11605 78.48815
#
# Poissons Ratio (x) = 0.06263 0.58949
# Poissons Ratio (y) = 0.03650 0.59773
# Poissons Ratio (z) = 0.28939 0.50351
#
# Static dielectric constant tensor:
#      x y z
#    x 2.585560 0.000000 0.121900 
#    y 0.000000 3.135950 0.000000 
#    z 0.121900 0.000000 3.374420 
# 
# 
# High freq. dielectric constant tensor:
#      x y z
#    x 1.574300 0.000000 0.008690 
#    y 0.000000 1.641840 0.000000 
#    z 0.008690 0.000000 1.668960 
# 
# From -- ./inp_files/280224.got.cif
#   From: 2010.06.25/outbox.cif.g09.slc.cpg/sg12_141_cif.got.tgz:280224.got - 2010.06.28 00:19:55.
