data_PCOD8095367
_publ_section_title
;
Structure prediction by ZEFSAII (Michael W. Deem and Ramdas Pophale) SiO2 
 PCOD8095367
Probable space group: C 2/M
;
_chemical_formula_sum "Si O2"
_cell_formula_units_Z 56
_cell_length_a 33.160086
_cell_length_b 9.145906
_cell_length_c 12.265989
_cell_angle_alpha 90.000000
_cell_angle_beta 124.575510
_cell_angle_gamma 90.000000
_cell_volume 3062.984103
_symmetry_space_group_name_H-M "C 2/M"
_symmetry_group_IT_number 12
_symmetry_cell_setting 'monoclinic'
loop_
_space_group_symop_operation_xyz
x,y,z
-x,y,-z
-x,-y,-z
x,-y,z
1/2+x,1/2+y,z
1/2-x,1/2+y,-z
1/2-x,1/2-y,-z
1/2+x,1/2-y,z
loop_
_atom_site_type_symbol
_atom_site_label
_atom_site_fract_x
_atom_site_fract_y
_atom_site_fract_z
Si Si1 0.870866 0.827535 0.963468
Si Si2 0.505360 0.834072 0.337395
Si Si3 0.200501 0.670889 0.294682
Si Si4 0.187872 0.829926 0.493447
Si Si5 0.963021 0.666551 0.034726
Si Si6 0.395567 0.668081 0.469087
Si Si7 0.087021 0.167554 0.743888
O O1 0.822033 0.748127 0.846441
O O2 0.864840 0.000000 0.940422
O O3 0.916121 0.771687 0.959959
O O4 0.879660 0.780461 0.103146
O O5 0.491148 0.821188 0.190499
O O6 0.557677 0.761421 0.428996
O O7 0.463564 0.756656 0.345537
O O8 0.508785 0.000000 0.382840
O O9 0.188617 0.500000 0.273478
O O10 0.176850 0.737681 0.368016
O O11 0.258133 0.703749 0.378876
O O12 0.150496 0.779335 0.530209
O O13 0.182009 0.000000 0.454827
O O14 0.946006 0.500000 0.985528
O O15 0.000000 0.723719 0.000000
O O16 0.407902 0.500000 0.512961
O O17 0.382484 0.689223 0.320871
O O18 0.071774 0.000000 0.739359
#
# Coordination Sequence:
#
# PCOD8095367 Si02
#       7
#     8   8   8   8   8   8   8
#     4  10  20  34  54  77 102 136 177 212 254 308
#     4  10  20  32  49  76 108 140 174 212 256 304
#     4  10  20  36  57  78 106 137 168 212 269 317
#     4   9  20  37  56  80 104 133 174 217 258 312
#     4   9  19  34  49  71 105 139 172 211 256 306
#     4  10  20  35  55  76 103 137 177 217 257 304
#     4   9  19  36  54  74 103 142 178 212 253 304
#
# _framework density 18.282824000000002
#
# number of rings (size 3 to 8) (size 9 to 14) (size 15 to 20)
#    0.000    2.429    0.000    1.714    2.000    4.857 
#    0.000    0.714    0.000    0.000    0.000    0.000 
#    0.000    0.000    0.000    0.000    0.000    0.000 
#
# Total GULP energy -347253.442374 kJ/mol
# GULP energy per Si atom -12401.908656 kJ/mol
# Density = 1.824121 g / cm^3
# Si number density = 18.282824 Si / 1000 Ang^3
#
#
#
# Elastic Constant Matrix: (Units=GPa)
#
#
# Indices 1 2 3 4 5 6 
#
# 1 110.6121 45.5461 57.7976 0.0000 -10.5366 0.0000
# 2 45.5461 84.5650 49.2093 0.0000 5.7543 0.0000
# 3 57.7976 49.2093 81.3940 0.0000 12.2881 0.0000
# 4 0.0000 0.0000 0.0000 32.3379 0.0000 5.1552
# 5 -10.5366 5.7543 12.2881 0.0000 24.5831 0.0000
# 6 0.0000 0.0000 0.0000 5.1552 0.0000 25.4825
#
#
#
# Elastic Compliance Matrix: (Units=1/GPa)
#
#
# Indices 1 2 3 4 5 6 
#
# 1 0.019341 -0.003248 -0.014209 0.000000 0.016153 0.000000
# 2 -0.003248 0.018830 -0.008872 0.000000 -0.001365 0.000000
# 3 -0.014209 -0.008872 0.030659 0.000000 -0.019339 0.000000
# 4 0.000000 0.000000 0.000000 0.031954 0.000000 -0.006464
# 5 0.016153 -0.001365 -0.019339 0.000000 0.057588 0.000000
# 6 0.000000 0.000000 0.000000 -0.006464 0.000000 0.040550
#
#
# Mechanical properties :
#
#
# Convention : Reuss Voigt Hill
#
# Bulk Modulus (GPa) = 61.83286 64.63079 63.23182
# Shear Modulus (GPa) = 19.45738 24.74857 22.10298
#
# Velocity S-wave (km/s) = 3.26581 3.68319 3.48076
# Velocity P-wave (km/s) = 6.93645 7.31541 7.12845
#
# Compressibility (1/GPa) = 0.01617263
#
# Stress axis : x y z
#
# Youngs Moduli (GPa) = 51.70293 53.10679 32.61644
#
# Poissons Ratio (x) = 0.17247 0.46346
# Poissons Ratio (y) = 0.16791 0.28937
# Poissons Ratio (z) = 0.73466 0.47117
#
# Static dielectric constant tensor:
#      x y z
#    x 3.332510 0.000000 -0.105140 
#    y 0.000000 3.445560 0.000000 
#    z -0.105140 0.000000 3.477040 
# 
# 
# High freq. dielectric constant tensor:
#      x y z
#    x 1.695310 0.000000 -0.005510 
#    y 0.000000 1.712450 0.000000 
#    z -0.005510 0.000000 1.714720 
# 
# From -- ./inp_files/186798.got.cif
#   From: 2010.06.25/outbox.cif.g09.slc.cpg/sg12_94_cif.got.tgz:186798.got - 2010.06.28 00:19:55.
