data_PCOD8095105
_publ_section_title
;
Structure prediction by ZEFSAII (Michael W. Deem and Ramdas Pophale) SiO2 
 PCOD8095105
Probable space group: C 2/M
;
_chemical_formula_sum "Si O2"
_cell_formula_units_Z 48
_cell_length_a 31.205672
_cell_length_b 7.719038
_cell_length_c 12.287705
_cell_angle_alpha 90.000000
_cell_angle_beta 73.972637
_cell_angle_gamma 90.000000
_cell_volume 2844.786018
_symmetry_space_group_name_H-M "C 2/M"
_symmetry_group_IT_number 12
_symmetry_cell_setting 'monoclinic'
loop_
_space_group_symop_operation_xyz
x,y,z
-x,y,-z
-x,-y,-z
x,-y,z
1/2+x,1/2+y,z
1/2-x,1/2+y,-z
1/2-x,1/2-y,-z
1/2+x,1/2-y,z
loop_
_atom_site_type_symbol
_atom_site_label
_atom_site_fract_x
_atom_site_fract_y
_atom_site_fract_z
Si Si1 0.532707 0.000000 0.318901
Si Si2 0.319070 0.700296 0.940888
Si Si3 0.562651 0.000000 0.545527
Si Si4 0.275453 0.297364 0.590712
Si Si5 0.624401 0.301833 0.457775
Si Si6 0.405684 0.697899 0.767892
Si Si7 0.242537 0.705212 0.839757
O O1 0.545209 0.000000 0.435704
O O2 0.479202 0.000000 0.342463
O O3 0.552082 0.825282 0.250377
O O4 0.320859 0.500000 0.911727
O O5 0.368703 0.769074 0.879723
O O6 0.282038 0.785597 0.887082
O O7 0.305075 0.735799 0.076091
O O8 0.591050 0.825110 0.546159
O O9 0.278047 0.500000 0.604977
O O10 0.250000 0.250000 0.500000
O O11 0.326100 0.229568 0.551801
O O12 0.248659 0.219408 0.713399
O O13 0.617219 0.500000 0.503478
O O14 0.616732 0.290137 0.334589
O O15 0.421243 0.500000 0.780861
O O16 0.244220 0.500000 0.838291
#
# Coordination Sequence:
#
# PCOD8095105 Si02
#       7
#     4   8   4   8   8   8   8
#     4   9  18  28  42  70  91 117 159 197 230 282
#     4   9  16  27  42  64  89 119 156 188 225 281
#     4   9  18  30  44  66  91 117 163 197 228 288
#     4  10  20  32  45  64  91 124 164 199 231 272
#     4   9  17  31  46  61  89 126 155 192 236 276
#     4   9  16  28  45  63  93 125 151 187 233 283
#     4   9  17  29  42  61  89 119 156 194 228 270
#
# _framework density 16.872973999999999
#
# number of rings (size 3 to 8) (size 9 to 14) (size 15 to 20)
#    0.000    2.833    1.667    0.000    2.333    1.333 
#    0.000    3.333    0.000    0.000    0.000    0.000 
#    0.000    2.667    0.000    7.333    0.000    0.333 
#
# Total GULP energy -297428.593449 kJ/mol
# GULP energy per Si atom -12392.858060 kJ/mol
# Density = 1.683457 g / cm^3
# Si number density = 16.872974 Si / 1000 Ang^3
#
#
#
# Elastic Constant Matrix: (Units=GPa)
#
#
# Indices 1 2 3 4 5 6 
#
# 1 84.4041 39.4038 59.8395 0.0000 -34.3267 0.0000
# 2 39.4038 72.4111 31.0181 0.0000 -24.4271 0.0000
# 3 59.8395 31.0181 102.1596 0.0000 -28.6423 0.0000
# 4 0.0000 0.0000 0.0000 19.9868 0.0000 -6.7317
# 5 -34.3267 -24.4271 -28.6423 0.0000 34.2877 0.0000
# 6 0.0000 0.0000 0.0000 -6.7317 0.0000 21.2160
#
#
#
# Elastic Compliance Matrix: (Units=1/GPa)
#
#
# Indices 1 2 3 4 5 6 
#
# 1 0.028186 -0.005641 -0.010463 0.000000 0.015459 0.000000
# 2 -0.005641 0.019796 -0.000438 0.000000 0.008090 0.000000
# 3 -0.010463 -0.000438 0.017010 0.000000 0.003422 0.000000
# 4 0.000000 0.000000 0.000000 0.056020 0.000000 0.017775
# 5 0.015459 0.008090 0.003422 0.000000 0.053264 0.000000
# 6 0.000000 0.000000 0.000000 0.017775 0.000000 0.052774
#
#
# Mechanical properties :
#
#
# Convention : Reuss Voigt Hill
#
# Bulk Modulus (GPa) = 31.34030 57.72195 44.53113
# Shear Modulus (GPa) = 18.46579 23.67898 21.07238
#
# Velocity S-wave (km/s) = 3.31176 3.75022 3.53779
# Velocity P-wave (km/s) = 5.76526 7.28259 6.56789
#
# Compressibility (1/GPa) = 0.03190780
#
# Stress axis : x y z
#
# Youngs Moduli (GPa) = 35.47805 50.51398 58.78986
#
# Poissons Ratio (x) = 0.28496 0.61512
# Poissons Ratio (y) = 0.20014 0.02577
# Poissons Ratio (z) = 0.37121 0.02214
#
# Static dielectric constant tensor:
#      x y z
#    x 2.971340 0.000000 -0.436760 
#    y 0.000000 3.223200 0.000000 
#    z -0.436760 0.000000 3.092330 
# 
# 
# High freq. dielectric constant tensor:
#      x y z
#    x 1.609100 0.000000 -0.037690 
#    y 0.000000 1.654820 0.000000 
#    z -0.037690 0.000000 1.625530 
# 
# From -- ./inp_files/173093.got.cif
#   From: 2010.06.25/outbox.cif.g09.slc.cpg/sg12_87_cif.got.tgz:173093.got - 2010.06.28 00:19:55.
