data_PCOD8095949
_publ_section_title
;
Structure prediction by ZEFSAII (Michael W. Deem and Ramdas Pophale) SiO2 
 PCOD8095949
Probable space group: C 2/M
;
_chemical_formula_sum "Si O2"
_cell_formula_units_Z 48
_cell_length_a 5.146988
_cell_length_b 24.250082
_cell_length_c 22.771020
_cell_angle_alpha 90.000000
_cell_angle_beta 83.304619
_cell_angle_gamma 90.000000
_cell_volume 2822.778754
_symmetry_space_group_name_H-M "C 2/M"
_symmetry_group_IT_number 12
_symmetry_cell_setting 'monoclinic'
loop_
_space_group_symop_operation_xyz
x,y,z
-x,y,-z
-x,-y,-z
x,-y,z
1/2+x,1/2+y,z
1/2-x,1/2+y,-z
1/2-x,1/2-y,-z
1/2+x,1/2-y,z
loop_
_atom_site_type_symbol
_atom_site_label
_atom_site_fract_x
_atom_site_fract_y
_atom_site_fract_z
Si Si1 0.029589 0.065797 0.433255
Si Si2 0.065760 0.565630 0.364668
Si Si3 0.189999 0.105709 0.167342
Si Si4 0.772591 0.887201 0.963142
Si Si5 0.364397 0.286030 0.890264
Si Si6 0.343449 0.064548 0.769250
O O1 0.794838 0.089081 0.399860
O O2 0.000000 0.088794 0.500000
O O3 0.295563 0.088521 0.397812
O O4 0.029357 0.000000 0.434076
O O5 0.071703 0.500000 0.365159
O O6 0.103166 0.587106 0.297536
O O7 0.205383 0.081487 0.100275
O O8 0.142098 0.171896 0.165185
O O9 0.466406 0.096072 0.191387
O O10 0.958333 0.075851 0.208057
O O11 0.798298 0.821110 0.950952
O O12 0.500000 0.901884 0.000000
O O13 0.000000 0.908303 0.000000
O O14 0.655869 0.262343 0.887427
O O15 0.402406 0.000000 0.772020
#
# Coordination Sequence:
#
# PCOD8095949 Si02
#       6
#     8   8   8   8   8   8
#     4   9  15  24  37  58  88 116 145 186 232 272
#     4   9  17  26  41  62  82 114 159 197 223 257
#     4  10  22  34  50  72  94 122 154 197 244 282
#     4  10  20  33  51  72  98 118 145 188 234 297
#     4  10  20  33  51  76  99 120 146 178 233 302
#     4  11  20  35  52  67  90 125 173 212 229 255
#
# _framework density 17.004522000000001
#
# number of rings (size 3 to 8) (size 9 to 14) (size 15 to 20)
#    1.000    1.167    0.000    5.000    0.000    6.667 
#    0.000    0.000    0.000   10.000    0.000    0.000 
#    0.000    0.000    0.000    0.000    0.000  210.000 
#
# Total GULP energy -297516.048642 kJ/mol
# GULP energy per Si atom -12396.502027 kJ/mol
# Density = 1.696582 g / cm^3
# Si number density = 17.004522 Si / 1000 Ang^3
#
#
#
# Elastic Constant Matrix: (Units=GPa)
#
#
# Indices 1 2 3 4 5 6 
#
# 1 120.7231 6.4543 52.1590 0.0000 0.6191 0.0000
# 2 6.4543 6.5743 12.6554 0.0000 -2.5385 0.0000
# 3 52.1590 12.6554 133.0239 0.0000 -4.1105 0.0000
# 4 0.0000 0.0000 0.0000 -1.5404 0.0000 0.5492
# 5 0.6191 -2.5385 -4.1105 0.0000 36.7963 0.0000
# 6 0.0000 0.0000 0.0000 0.5492 0.0000 9.7864
#
#
#
# Elastic Compliance Matrix: (Units=1/GPa)
#
#
# Indices 1 2 3 4 5 6 
#
# 1 0.010037 -0.003106 -0.003664 0.000000 -0.000792 0.000000
# 2 -0.003106 0.191635 -0.016661 0.000000 0.011412 0.000000
# 3 -0.003664 -0.016661 0.010542 0.000000 0.000090 0.000000
# 4 0.000000 0.000000 0.000000 -0.636467 0.000000 0.035717
# 5 -0.000792 0.011412 0.000090 0.000000 0.027987 0.000000
# 6 0.000000 0.000000 0.000000 0.035717 0.000000 0.100178
#
#
# Mechanical properties :
#
#
# Convention : Reuss Voigt Hill
#
# Bulk Modulus (GPa) = 6.04772 44.76208 25.40490
# Shear Modulus (GPa) = -25.75880 21.61197 -2.07341
#
# Velocity S-wave (km/s) = -3.89629 3.56891 -1.10543
# Velocity P-wave (km/s) = 4.08377 6.58511 3.65284
#
# Compressibility (1/GPa) = 0.16535157
#
# Stress axis : x y z
#
# Youngs Moduli (GPa) = 99.63361 5.21826 94.85739
#
# Poissons Ratio (x) = 0.01621 0.34760
# Poissons Ratio (y) = 0.30942 1.58042
# Poissons Ratio (z) = 0.36511 0.08694
#
# Static dielectric constant tensor:
#      x y z
#    x 3.270690 0.000000 0.037300 
#    y 0.000000 2.623780 0.000000 
#    z 0.037300 0.000000 3.266260 
# 
# 
# High freq. dielectric constant tensor:
#      x y z
#    x 1.678000 0.000000 0.001490 
#    y 0.000000 1.587640 0.000000 
#    z 0.001490 0.000000 1.660000 
# 
# From -- ./inp_files/298185.got.cif
#   From: 2010.06.25/outbox.cif.g09.slc.cpg/sg12_150_cif.got.tgz:298185.got - 2010.06.28 00:19:55.
