data_PCOD8095629
_publ_section_title
;
Structure prediction by ZEFSAII (Michael W. Deem and Ramdas Pophale) SiO2 
 PCOD8095629
Probable space group: C 2/M
;
_chemical_formula_sum "Si O2"
_cell_formula_units_Z 64
_cell_length_a 19.510619
_cell_length_b 9.805480
_cell_length_c 26.655145
_cell_angle_alpha 90.000000
_cell_angle_beta 133.969214
_cell_angle_gamma 90.000000
_cell_volume 3670.120063
_symmetry_space_group_name_H-M "C 2/M"
_symmetry_group_IT_number 12
_symmetry_cell_setting 'monoclinic'
loop_
_space_group_symop_operation_xyz
x,y,z
-x,y,-z
-x,-y,-z
x,-y,z
1/2+x,1/2+y,z
1/2-x,1/2+y,-z
1/2-x,1/2-y,-z
1/2+x,1/2-y,z
loop_
_atom_site_type_symbol
_atom_site_label
_atom_site_fract_x
_atom_site_fract_y
_atom_site_fract_z
Si Si1 0.888047 0.650252 0.576900
Si Si2 0.702026 0.156161 0.016313
Si Si3 0.174570 0.157668 0.823480
Si Si4 0.192028 0.151873 0.537007
Si Si5 0.006139 0.660559 0.270786
Si Si6 0.303816 0.837763 0.686518
Si Si7 0.004343 0.661349 0.057753
Si Si8 0.196855 0.337995 0.202240
O O1 0.912167 0.500000 0.568172
O O2 0.887752 0.754143 0.529881
O O3 0.786087 0.646134 0.551369
O O4 0.966716 0.694231 0.657762
O O5 0.746331 0.178041 0.093690
O O6 0.714129 0.000000 0.005453
O O7 0.750000 0.250000 0.000000
O O8 0.591466 0.198741 0.961291
O O9 0.085506 0.252583 0.791018
O O10 0.220539 0.206658 0.794166
O O11 0.141882 0.000000 0.803953
O O12 0.221743 0.214270 0.606450
O O13 0.148483 0.000000 0.520065
O O14 0.984956 0.500000 0.252985
O O15 0.091267 0.710063 0.277565
O O16 0.280967 0.781821 0.730591
O O17 0.302815 0.000000 0.683025
O O18 0.015914 0.500000 0.058691
O O19 0.095016 0.722849 0.133174
O O20 0.000000 0.725822 0.000000
O O21 0.189714 0.500000 0.200068
#
# Coordination Sequence:
#
# PCOD8095629 Si02
#       8
#     8   8   8   8   8   8   8   8
#     4   8  14  25  41  64  93 123 152 184 225 276
#     4  10  21  34  50  74  99 123 155 196 238 280
#     4  10  20  33  48  70  99 125 153 195 240 279
#     4   8  13  23  41  66  93 115 146 194 237 270
#     4   9  18  31  48  71  98 126 158 192 229 282
#     4   8  15  27  45  71  95 119 157 200 235 272
#     4   9  15  28  49  71  92 119 160 199 228 270
#     4   9  16  28  48  70  93 122 157 198 237 273
#
# _framework density 17.438120000000001
#
# number of rings (size 3 to 8) (size 9 to 14) (size 15 to 20)
#    0.000    3.125    1.250    1.500    1.750    1.000 
#    0.000    1.875    0.000    3.375    0.000    5.250 
#    0.000    0.000    0.000    0.000    0.000    0.000 
#
# Total GULP energy -396619.272425 kJ/mol
# GULP energy per Si atom -12394.352263 kJ/mol
# Density = 1.739843 g / cm^3
# Si number density = 17.438120 Si / 1000 Ang^3
#
#
#
# Elastic Constant Matrix: (Units=GPa)
#
#
# Indices 1 2 3 4 5 6 
#
# 1 62.5597 22.2853 17.7332 0.0000 -19.3403 0.0000
# 2 22.2853 41.3470 19.6370 0.0000 -4.9892 0.0000
# 3 17.7332 19.6370 56.6143 0.0000 -21.8476 0.0000
# 4 0.0000 0.0000 0.0000 25.5157 0.0000 2.8555
# 5 -19.3403 -4.9892 -21.8476 0.0000 27.6500 0.0000
# 6 0.0000 0.0000 0.0000 2.8555 0.0000 17.8869
#
#
#
# Elastic Compliance Matrix: (Units=1/GPa)
#
#
# Indices 1 2 3 4 5 6 
#
# 1 0.025257 -0.013164 0.003677 0.000000 0.018197 0.000000
# 2 -0.013164 0.036112 -0.013583 0.000000 -0.013424 0.000000
# 3 0.003677 -0.013583 0.030600 0.000000 0.024300 0.000000
# 4 0.000000 0.000000 0.000000 0.039904 0.000000 -0.006370
# 5 0.018197 -0.013424 0.024300 0.000000 0.065673 0.000000
# 6 0.000000 0.000000 0.000000 -0.006370 0.000000 0.056924
#
#
# Mechanical properties :
#
#
# Convention : Reuss Voigt Hill
#
# Bulk Modulus (GPa) = 21.81979 31.09244 26.45612
# Shear Modulus (GPa) = 15.82849 20.93487 18.38168
#
# Velocity S-wave (km/s) = 3.01607 3.46862 3.25023
# Velocity P-wave (km/s) = 4.96676 5.82328 5.41199
#
# Compressibility (1/GPa) = 0.04582995
#
# Stress axis : x y z
#
# Youngs Moduli (GPa) = 39.59254 27.69191 32.67944
#
# Poissons Ratio (x) = 0.36453 -0.12016
# Poissons Ratio (y) = 0.52119 0.44387
# Poissons Ratio (z) = -0.14557 0.37613
#
# Static dielectric constant tensor:
#      x y z
#    x 3.049850 0.000000 -0.148350 
#    y 0.000000 2.996160 0.000000 
#    z -0.148350 0.000000 3.576640 
# 
# 
# High freq. dielectric constant tensor:
#      x y z
#    x 1.649000 0.000000 -0.006300 
#    y 0.000000 1.627800 0.000000 
#    z -0.006300 0.000000 1.686230 
# 
# From -- ./inp_files/346128.got.cif
#   From: 2010.06.25/outbox.cif.g09.slc.cpg/sg12_174_cif.got.tgz:346128.got - 2010.06.28 00:19:55.
