data_PCOD8095349
_publ_section_title
;
Structure prediction by ZEFSAII (Michael W. Deem and Ramdas Pophale) SiO2 
 PCOD8095349
Probable space group: C 2/M
;
_chemical_formula_sum "Si O2"
_cell_formula_units_Z 56
_cell_length_a 21.513795
_cell_length_b 8.910693
_cell_length_c 20.132840
_cell_angle_alpha 90.000000
_cell_angle_beta 52.022224
_cell_angle_gamma 90.000000
_cell_volume 3042.266480
_symmetry_space_group_name_H-M "C 2/M"
_symmetry_group_IT_number 12
_symmetry_cell_setting 'monoclinic'
loop_
_space_group_symop_operation_xyz
x,y,z
-x,y,-z
-x,-y,-z
x,-y,z
1/2+x,1/2+y,z
1/2-x,1/2+y,-z
1/2-x,1/2-y,-z
1/2+x,1/2-y,z
loop_
_atom_site_type_symbol
_atom_site_label
_atom_site_fract_x
_atom_site_fract_y
_atom_site_fract_z
Si Si1 0.985219 0.322755 0.584073
Si Si2 0.723746 0.671062 0.610326
Si Si3 0.734390 0.820589 0.938164
Si Si4 0.331230 0.170567 0.760494
Si Si5 0.865696 0.172410 0.464216
Si Si6 0.587441 0.174500 0.948764
Si Si7 0.176319 0.166612 0.783490
O O1 0.976999 0.500000 0.584418
O O2 0.908305 0.259683 0.673498
O O3 0.000000 0.255780 0.500000
O O4 0.058252 0.275502 0.580802
O O5 0.754719 0.500000 0.588486
O O6 0.799750 0.778463 0.560790
O O7 0.666781 0.706072 0.587167
O O8 0.671413 0.703166 0.709176
O O9 0.803417 0.767236 0.842571
O O10 0.647921 0.765248 0.966670
O O11 0.737303 0.000000 0.941218
O O12 0.750000 0.750000 0.000000
O O13 0.266697 0.174147 0.745472
O O14 0.346324 0.000000 0.775388
O O15 0.887912 0.000000 0.461508
O O16 0.626091 0.206579 0.852496
O O17 0.577391 0.000000 0.967404
O O18 0.500000 0.249238 0.000000
O O19 0.142251 0.000000 0.821559
#
# Coordination Sequence:
#
# PCOD8095349 Si02
#       7
#     8   8   8   8   8   8   8
#     4  10  20  35  54  75 103 141 179 216 261 312
#     4   9  18  34  52  71 101 138 173 210 257 309
#     4  10  20  36  58  80 107 142 178 220 270 323
#     4   9  18  33  54  78 103 135 178 217 255 311
#     4  10  20  32  49  74 105 136 172 217 257 302
#     4   9  19  36  55  78 108 136 168 215 266 317
#     4   9  17  32  55  77  98 130 172 213 252 303
#
# _framework density 18.407328
#
# number of rings (size 3 to 8) (size 9 to 14) (size 15 to 20)
#    0.000    2.571    0.000    1.714    0.000    5.143 
#    2.571    2.857    0.000    0.000    0.000    0.000 
#    0.000    0.000    0.000    0.000    0.000    0.000 
#
# Total GULP energy -347033.048603 kJ/mol
# GULP energy per Si atom -12394.037450 kJ/mol
# Density = 1.836543 g / cm^3
# Si number density = 18.407328 Si / 1000 Ang^3
#
#
#
# Elastic Constant Matrix: (Units=GPa)
#
#
# Indices 1 2 3 4 5 6 
#
# 1 92.6653 27.6544 72.8361 0.0001 -6.9525 -0.0001
# 2 27.6544 23.2570 27.9573 0.0002 4.5195 -0.0002
# 3 72.8361 27.9573 124.2407 0.0000 -1.2319 0.0000
# 4 0.0001 0.0002 0.0000 29.5379 0.0000 0.0173
# 5 -6.9525 4.5195 -1.2319 0.0000 27.6999 0.0000
# 6 -0.0001 -0.0002 0.0000 0.0173 0.0000 26.6852
#
#
#
# Elastic Compliance Matrix: (Units=1/GPa)
#
#
# Indices 1 2 3 4 5 6 
#
# 1 0.025563 -0.019556 -0.010495 0.000000 0.009140 0.000000
# 2 -0.019556 0.076939 -0.006024 0.000000 -0.017730 0.000001
# 3 -0.010495 -0.006024 0.015547 0.000000 -0.000960 0.000000
# 4 0.000000 0.000000 0.000000 0.033855 0.000000 -0.000022
# 5 0.009140 -0.017730 -0.000960 0.000000 0.041245 0.000000
# 6 0.000000 0.000001 0.000000 -0.000022 0.000000 0.037474
#
#
# Mechanical properties :
#
#
# Convention : Reuss Voigt Hill
#
# Bulk Modulus (GPa) = 21.78721 55.22873 38.50797
# Shear Modulus (GPa) = 15.71967 24.23228 19.97598
#
# Velocity S-wave (km/s) = 2.92548 3.63222 3.29784
# Velocity P-wave (km/s) = 4.82422 6.90359 5.95536
#
# Compressibility (1/GPa) = 0.04589850
#
# Stress axis : x y z
#
# Youngs Moduli (GPa) = 39.11968 12.99736 64.31907
#
# Poissons Ratio (x) = 0.25418 0.67501
# Poissons Ratio (y) = 0.76504 0.38746
# Poissons Ratio (z) = 0.41055 0.07830
#
# Static dielectric constant tensor:
#      x y z
#    x 3.481240 0.000000 -0.030620 
#    y 0.000000 3.304860 0.000000 
#    z -0.030620 0.000000 3.437840 
# 
# 
# High freq. dielectric constant tensor:
#      x y z
#    x 1.712350 0.000000 0.002000 
#    y 0.000000 1.702830 0.000000 
#    z 0.002000 0.000000 1.711610 
# 
# From -- ./inp_files/287916.got.cif
#   From: 2010.06.25/outbox.cif.g09.slc.cpg/sg12_144_cif.got.tgz:287916.got - 2010.06.28 00:19:55.
