data_PCOD8095100
_publ_section_title
;
Structure prediction by ZEFSAII (Michael W. Deem and Ramdas Pophale) SiO2 
 PCOD8095100
Probable space group: C 2/M
;
_chemical_formula_sum "Si O2"
_cell_formula_units_Z 64
_cell_length_a 32.830948
_cell_length_b 8.900929
_cell_length_c 13.797823
_cell_angle_alpha 90.000000
_cell_angle_beta 95.184008
_cell_angle_gamma 90.000000
_cell_volume 4015.589158
_symmetry_space_group_name_H-M "C 2/M"
_symmetry_group_IT_number 12
_symmetry_cell_setting 'monoclinic'
loop_
_space_group_symop_operation_xyz
x,y,z
-x,y,-z
-x,-y,-z
x,-y,z
1/2+x,1/2+y,z
1/2-x,1/2+y,-z
1/2-x,1/2-y,-z
1/2+x,1/2-y,z
loop_
_atom_site_type_symbol
_atom_site_label
_atom_site_fract_x
_atom_site_fract_y
_atom_site_fract_z
Si Si1 0.512658 0.178009 0.773415
Si Si2 0.953566 0.334790 0.022836
Si Si3 0.036122 0.176302 0.579470
Si Si4 0.884420 0.328073 0.480995
Si Si5 0.365516 0.831231 0.702379
Si Si6 0.694310 0.671019 0.569486
Si Si7 0.068090 0.174973 0.166120
Si Si8 0.281430 0.827940 0.615676
O O1 0.544734 0.224249 0.865716
O O2 0.531157 0.238089 0.678790
O O3 0.467737 0.243822 0.782457
O O4 0.507665 0.000000 0.767961
O O5 0.932956 0.500000 0.012597
O O6 0.929529 0.222863 0.946461
O O7 0.000000 0.347651 0.000000
O O8 0.078446 0.222482 0.540301
O O9 0.000000 0.225563 0.500000
O O10 0.035415 0.000000 0.599489
O O11 0.894427 0.500000 0.457255
O O12 0.876625 0.303821 0.592698
O O13 0.843941 0.277576 0.411918
O O14 0.388886 0.714074 0.775100
O O15 0.316470 0.805831 0.705366
O O16 0.378065 0.000000 0.735796
O O17 0.678813 0.500000 0.571659
O O18 0.710223 0.705887 0.465172
O O19 0.734882 0.695532 0.646426
O O20 0.059785 0.000000 0.170127
O O21 0.285750 0.000000 0.575740
#
# Coordination Sequence:
#
# PCOD8095100 Si02
#       8
#     8   8   8   8   8   8   8   8
#     4  10  20  34  50  64  82 113 149 182 217 258
#     4   8  16  31  48  64  82 108 142 176 214 261
#     4  11  23  35  47  65  88 114 147 186 222 252
#     4  10  20  32  45  61  84 118 154 182 214 257
#     4   9  17  29  43  60  87 120 150 178 211 257
#     4   9  15  25  42  61  82 108 142 183 219 252
#     4  11  20  28  43  67  91 114 142 178 220 260
#     4   8  15  26  40  59  82 112 145 175 214 260
#
# _framework density 15.937885
#
# number of rings (size 3 to 8) (size 9 to 14) (size 15 to 20)
#    0.000    2.500    0.000    4.875    0.000    8.750 
#    0.000    0.000    0.000    0.000    0.000    0.000 
#    0.000    1.000    0.000    3.000    0.000    4.250 
#
# Total GULP energy -396581.395696 kJ/mol
# GULP energy per Si atom -12393.168615 kJ/mol
# Density = 1.590161 g / cm^3
# Si number density = 15.937885 Si / 1000 Ang^3
#
#
#
# Elastic Constant Matrix: (Units=GPa)
#
#
# Indices 1 2 3 4 5 6 
#
# 1 97.2656 29.6888 33.7500 0.0000 17.5340 0.0000
# 2 29.6888 68.9466 33.8877 0.0000 10.0503 0.0000
# 3 33.7500 33.8877 70.2595 0.0000 11.7423 0.0000
# 4 0.0000 0.0000 0.0000 19.4722 0.0000 0.8633
# 5 17.5340 10.0503 11.7423 0.0000 15.4069 0.0000
# 6 0.0000 0.0000 0.0000 0.8633 0.0000 24.3700
#
#
#
# Elastic Compliance Matrix: (Units=1/GPa)
#
#
# Indices 1 2 3 4 5 6 
#
# 1 0.014544 -0.002709 -0.003677 0.000000 -0.011982 0.000000
# 2 -0.002709 0.020047 -0.007675 0.000000 -0.004145 0.000000
# 3 -0.003677 -0.007675 0.020817 0.000000 -0.006674 0.000000
# 4 0.000000 0.000000 0.000000 0.051436 0.000000 -0.001822
# 5 -0.011982 -0.004145 -0.006674 0.000000 0.086332 0.000000
# 6 0.000000 0.000000 0.000000 -0.001822 0.000000 0.041099
#
#
# Mechanical properties :
#
#
# Convention : Reuss Voigt Hill
#
# Bulk Modulus (GPa) = 36.64997 47.90275 42.27636
# Shear Modulus (GPa) = 18.41674 21.12616 19.77145
#
# Velocity S-wave (km/s) = 3.40300 3.64473 3.52594
# Velocity P-wave (km/s) = 6.20371 6.91616 6.56960
#
# Compressibility (1/GPa) = 0.02728515
#
# Stress axis : x y z
#
# Youngs Moduli (GPa) = 68.75723 49.88288 48.03835
#
# Poissons Ratio (x) = 0.13511 0.17665
# Poissons Ratio (y) = 0.18624 0.36871
# Poissons Ratio (z) = 0.25285 0.38286
#
# Static dielectric constant tensor:
#      x y z
#    x 3.160480 0.000000 0.283360 
#    y 0.000000 3.094120 0.000000 
#    z 0.283360 0.000000 2.976190 
# 
# 
# High freq. dielectric constant tensor:
#      x y z
#    x 1.603580 0.000000 0.026420 
#    y 0.000000 1.623850 0.000000 
#    z 0.026420 0.000000 1.569610 
# 
# From -- ./inp_files/248403.got.cif
#   From: 2010.06.25/outbox.cif.g09.slc.cpg/sg12_125_cif.got.tgz:248403.got - 2010.06.28 00:19:55.
