data_PCOD8095648
_publ_section_title
;
Structure prediction by ZEFSAII (Michael W. Deem and Ramdas Pophale) SiO2 
 PCOD8095648
Probable space group: C 2/M
;
_chemical_formula_sum "Si O2"
_cell_formula_units_Z 56
_cell_length_a 25.176282
_cell_length_b 17.484022
_cell_length_c 19.115786
_cell_angle_alpha 90.000000
_cell_angle_beta 157.960409
_cell_angle_gamma 90.000000
_cell_volume 3157.494029
_symmetry_space_group_name_H-M "C 2/M"
_symmetry_group_IT_number 12
_symmetry_cell_setting 'monoclinic'
loop_
_space_group_symop_operation_xyz
x,y,z
-x,y,-z
-x,-y,-z
x,-y,z
1/2+x,1/2+y,z
1/2-x,1/2+y,-z
1/2-x,1/2-y,-z
1/2+x,1/2-y,z
loop_
_atom_site_type_symbol
_atom_site_label
_atom_site_fract_x
_atom_site_fract_y
_atom_site_fract_z
Si Si1 0.097428 0.591284 0.405008
Si Si2 0.650200 0.817389 0.148141
Si Si3 0.456270 0.914445 0.097704
Si Si4 0.907240 0.412763 0.447866
Si Si5 0.262449 0.414450 0.401047
Si Si6 0.391004 0.590188 0.700898
Si Si7 0.893179 0.144818 0.931404
O O1 0.106158 0.500000 0.415294
O O2 0.060328 0.624802 0.436472
O O3 0.252222 0.621652 0.571641
O O4 0.976938 0.616948 0.202344
O O5 0.768755 0.853275 0.344971
O O6 0.673891 0.728381 0.163054
O O7 0.500000 0.832115 0.000000
O O8 0.653397 0.860959 0.077668
O O9 0.610096 0.914685 0.250884
O O10 0.393096 0.000000 0.020324
O O11 0.956941 0.500000 0.512573
O O12 0.740098 0.411270 0.228178
O O13 0.000000 0.371577 0.500000
O O14 0.293369 0.500000 0.409610
O O15 0.377286 0.392546 0.601011
O O16 0.413731 0.500000 0.741721
O O17 0.523504 0.637842 0.893395
O O18 0.000000 0.120354 0.000000
#
# Coordination Sequence:
#
# PCOD8095648 Si02
#       7
#     8   8   8   8   8   8   8
#     4   8  14  26  44  67  87 113 156 193 231 271
#     4   9  17  27  38  67  98 126 157 185 235 282
#     4   8  13  24  43  64  91 123 155 195 230 269
#     4  10  20  33  49  67  90 124 163 197 225 267
#     4   8  14  26  43  64  94 127 159 194 230 271
#     4   9  16  27  45  67  92 124 157 191 232 278
#     4  11  20  30  44  71 102 127 149 186 238 289
#
# _framework density 17.735583999999999
#
# number of rings (size 3 to 8) (size 9 to 14) (size 15 to 20)
#    0.000    3.000    1.429    2.571    0.000    2.286 
#    2.571    2.857    0.000    0.857    0.000    0.000 
#    0.000    1.143    0.000    0.000    0.000    0.000 
#
# Total GULP energy -346956.581781 kJ/mol
# GULP energy per Si atom -12391.306492 kJ/mol
# Density = 1.769522 g / cm^3
# Si number density = 17.735584 Si / 1000 Ang^3
#
#
#
# Elastic Constant Matrix: (Units=GPa)
#
#
# Indices 1 2 3 4 5 6 
#
# 1 85.4633 26.1132 50.9944 0.0030 -27.8977 0.0003
# 2 26.1132 46.1817 21.0086 0.0013 -15.2337 0.0003
# 3 50.9944 21.0086 65.9147 0.0014 -30.5914 0.0000
# 4 0.0030 0.0013 0.0014 13.0389 0.0017 -5.6759
# 5 -27.8977 -15.2337 -30.5914 0.0017 36.2074 0.0002
# 6 0.0003 0.0003 0.0000 -5.6759 0.0002 11.9209
#
#
#
# Elastic Compliance Matrix: (Units=1/GPa)
#
#
# Indices 1 2 3 4 5 6 
#
# 1 0.023167 -0.005352 -0.014769 -0.000005 0.003120 -0.000003
# 2 -0.005352 0.027470 -0.001916 -0.000003 0.005815 -0.000002
# 3 -0.014769 -0.001916 0.035455 -0.000003 0.017770 -0.000001
# 4 -0.000005 -0.000003 -0.000003 0.096745 -0.000012 0.046064
# 5 0.003120 0.005815 0.017770 -0.000012 0.047483 -0.000007
# 6 -0.000003 -0.000002 -0.000001 0.046064 -0.000007 0.105819
#
#
# Mechanical properties :
#
#
# Convention : Reuss Voigt Hill
#
# Bulk Modulus (GPa) = 23.79963 43.75468 33.77716
# Shear Modulus (GPa) = 12.68327 18.86300 15.77313
#
# Velocity S-wave (km/s) = 2.67709 3.26478 2.98543
# Velocity P-wave (km/s) = 4.79625 6.23986 5.56506
#
# Compressibility (1/GPa) = 0.04201746
#
# Stress axis : x y z
#
# Youngs Moduli (GPa) = 43.16424 36.40396 28.20455
#
# Poissons Ratio (x) = 0.19483 0.41657
# Poissons Ratio (y) = 0.23101 0.05404
# Poissons Ratio (z) = 0.63751 0.06975
#
# Static dielectric constant tensor:
#      x y z
#    x 3.414880 0.000000 -0.564150 
#    y 0.000000 3.090640 0.000000 
#    z -0.564150 0.000000 3.148540 
# 
# 
# High freq. dielectric constant tensor:
#      x y z
#    x 1.655810 0.000000 -0.053270 
#    y 0.000000 1.659850 0.000000 
#    z -0.053270 0.000000 1.659510 
# 
# From -- ./inp_files/157336.got.cif
#   From: 2010.06.25/outbox.cif.g09.slc.cpg/sg12_79_cif.got.tgz:157336.got - 2010.06.28 00:19:55.
