data_PCOD8095230
_publ_section_title
;
Structure prediction by ZEFSAII (Michael W. Deem and Ramdas Pophale) SiO2 
 PCOD8095230
Probable space group: C 2/M
;
_chemical_formula_sum "Si O2"
_cell_formula_units_Z 64
_cell_length_a 22.167148
_cell_length_b 9.291621
_cell_length_c 23.022268
_cell_angle_alpha 90.000000
_cell_angle_beta 55.000735
_cell_angle_gamma 90.000000
_cell_volume 3884.345332
_symmetry_space_group_name_H-M "C 2/M"
_symmetry_group_IT_number 12
_symmetry_cell_setting 'monoclinic'
loop_
_space_group_symop_operation_xyz
x,y,z
-x,y,-z
-x,-y,-z
x,-y,z
1/2+x,1/2+y,z
1/2-x,1/2+y,-z
1/2-x,1/2-y,-z
1/2+x,1/2-y,z
loop_
_atom_site_type_symbol
_atom_site_label
_atom_site_fract_x
_atom_site_fract_y
_atom_site_fract_z
Si Si1 0.987330 0.666230 0.260592
Si Si2 0.289121 0.335516 0.846963
Si Si3 0.299209 0.329773 0.019740
Si Si4 0.156601 0.333301 0.597057
Si Si5 0.580829 0.832643 0.434799
Si Si6 0.109410 0.666764 0.286031
Si Si7 0.176779 0.832312 0.470841
Si Si8 0.081819 0.840553 0.130400
O O1 0.991320 0.500000 0.244722
O O2 0.039036 0.708778 0.286075
O O3 0.014086 0.739607 0.185997
O O4 0.904359 0.714039 0.322093
O O5 0.266157 0.500000 0.846761
O O6 0.217551 0.245442 0.908907
O O7 0.319938 0.261757 0.771378
O O8 0.351864 0.325329 0.860741
O O9 0.279998 0.500000 0.032250
O O10 0.250000 0.250000 0.000000
O O11 0.384472 0.306374 0.952348
O O12 0.145890 0.500000 0.585182
O O13 0.144130 0.239755 0.546537
O O14 0.235849 0.305037 0.581529
O O15 0.500000 0.785746 0.500000
O O16 0.587984 0.796430 0.363309
O O17 0.641571 0.739316 0.434020
O O18 0.595019 0.000000 0.440305
O O19 0.130228 0.500000 0.266450
O O20 0.157404 0.000000 0.483197
O O21 0.049092 0.000000 0.149466
#
# Coordination Sequence:
#
# PCOD8095230 Si02
#       8
#     8   8   8   8   8   8   8   8
#     4   9  16  27  44  62  82 112 147 178 210 254
#     4   9  16  25  37  54  79 111 143 176 212 250
#     4   9  15  23  35  52  77 109 143 176 210 250
#     4   9  18  33  49  65  88 116 146 180 220 265
#     4  10  20  34  50  66  88 118 149 181 219 264
#     4   9  17  28  43  62  83 112 147 179 213 255
#     4  10  20  32  48  69  89 112 145 185 224 260
#     4   8  15  24  34  54  83 110 137 173 213 249
#
# _framework density 16.476393000000002
#
# number of rings (size 3 to 8) (size 9 to 14) (size 15 to 20)
#    0.000    2.875    0.000    2.625    0.000    7.250 
#    0.000    2.500    0.000    0.000    0.000    0.000 
#    0.000    1.000    0.000   11.250    0.000    7.625 
#
# Total GULP energy -396655.490052 kJ/mol
# GULP energy per Si atom -12395.484064 kJ/mol
# Density = 1.643889 g / cm^3
# Si number density = 16.476393 Si / 1000 Ang^3
#
#
#
# Elastic Constant Matrix: (Units=GPa)
#
#
# Indices 1 2 3 4 5 6 
#
# 1 37.0220 28.4764 32.6213 0.0001 -5.2274 0.0016
# 2 28.4764 89.8810 71.9815 0.0002 -9.0621 0.0029
# 3 32.6213 71.9815 160.1140 0.0000 -18.2869 0.0003
# 4 0.0001 0.0002 0.0000 32.2618 -0.0001 -0.7918
# 5 -5.2274 -9.0621 -18.2869 -0.0001 16.4844 -0.0001
# 6 0.0016 0.0029 0.0003 -0.7918 -0.0001 18.5572
#
#
#
# Elastic Compliance Matrix: (Units=1/GPa)
#
#
# Indices 1 2 3 4 5 6 
#
# 1 0.037116 -0.008863 -0.003195 0.000000 0.003354 -0.000002
# 2 -0.008863 0.019516 -0.006943 0.000000 0.000216 -0.000002
# 3 -0.003195 -0.006943 0.010840 0.000000 0.007195 0.000001
# 4 0.000000 0.000000 0.000000 0.031029 0.000000 0.001324
# 5 0.003354 0.000216 0.007195 0.000000 0.069827 0.000000
# 6 -0.000002 -0.000002 0.000001 0.001324 0.000000 0.053944
#
#
# Mechanical properties :
#
#
# Convention : Reuss Voigt Hill
#
# Bulk Modulus (GPa) = 33.93212 61.46393 47.69803
# Shear Modulus (GPa) = 18.51183 23.72320 21.11751
#
# Velocity S-wave (km/s) = 3.35556 3.79863 3.58394
# Velocity P-wave (km/s) = 5.97094 7.52493 6.79252
#
# Compressibility (1/GPa) = 0.02947060
#
# Stress axis : x y z
#
# Youngs Moduli (GPa) = 26.94222 51.23940 92.25388
#
# Poissons Ratio (x) = 0.45413 0.29471
# Poissons Ratio (y) = 0.23879 0.64056
# Poissons Ratio (z) = 0.08607 0.35578
#
# Static dielectric constant tensor:
#      x y z
#    x 2.636310 0.000000 -0.173800 
#    y 0.000000 3.193990 0.000000 
#    z -0.173800 0.000000 3.549500 
# 
# 
# High freq. dielectric constant tensor:
#      x y z
#    x 1.568350 0.000000 -0.014240 
#    y 0.000000 1.641910 0.000000 
#    z -0.014240 0.000000 1.650410 
# 
# From -- ./inp_files/348540.got.cif
#   From: 2010.06.25/outbox.cif.g09.slc.cpg/sg12_175_cif.got.tgz:348540.got - 2010.06.28 00:19:55.
