data_PCOD8095388
_publ_section_title
;
Structure prediction by ZEFSAII (Michael W. Deem and Ramdas Pophale) SiO2 
 PCOD8095388
Probable space group: C 2/M
;
_chemical_formula_sum "Si O2"
_cell_formula_units_Z 64
_cell_length_a 24.741832
_cell_length_b 8.890012
_cell_length_c 19.268809
_cell_angle_alpha 90.000000
_cell_angle_beta 64.722420
_cell_angle_gamma 90.000000
_cell_volume 3832.458399
_symmetry_space_group_name_H-M "C 2/M"
_symmetry_group_IT_number 12
_symmetry_cell_setting 'monoclinic'
loop_
_space_group_symop_operation_xyz
x,y,z
-x,y,-z
-x,-y,-z
x,-y,z
1/2+x,1/2+y,z
1/2-x,1/2+y,-z
1/2-x,1/2-y,-z
1/2+x,1/2-y,z
loop_
_atom_site_type_symbol
_atom_site_label
_atom_site_fract_x
_atom_site_fract_y
_atom_site_fract_z
Si Si1 0.385952 0.824280 0.584127
Si Si2 0.751800 0.676381 0.165059
Si Si3 0.807365 0.676021 0.000749
Si Si4 0.081599 0.822398 0.573531
Si Si5 0.738929 0.326747 0.325314
Si Si6 0.302840 0.174549 0.428624
Si Si7 0.636067 0.176223 0.164138
Si Si8 0.961794 0.324422 0.677808
O O1 0.419743 0.738842 0.503969
O O2 0.317370 0.775046 0.624682
O O3 0.419030 0.783633 0.637038
O O4 0.388628 0.000000 0.566325
O O5 0.741730 0.500000 0.165929
O O6 0.807382 0.724101 0.082667
O O7 0.766612 0.723780 0.235901
O O8 0.689730 0.748658 0.176417
O O9 0.798475 0.500000 0.000659
O O10 0.750000 0.750000 0.000000
O O11 0.863019 0.721085 0.919427
O O12 0.135312 0.753710 0.588240
O O13 0.020568 0.776314 0.644563
O O14 0.088719 0.000000 0.568154
O O15 0.717319 0.500000 0.335922
O O16 0.790720 0.303735 0.353455
O O17 0.250000 0.250000 0.500000
O O18 0.306497 0.000000 0.447353
O O19 0.572886 0.222122 0.232502
O O20 0.645540 0.000000 0.169574
O O21 0.979447 0.500000 0.667017
#
# Coordination Sequence:
#
# PCOD8095388 Si02
#       8
#     8   8   8   8   8   8   8   8
#     4  11  21  34  53  73  98 131 164 201 243 291
#     4   9  16  27  44  70 101 129 158 195 237 284
#     4   8  14  24  41  65  96 130 159 189 229 280
#     4  12  25  38  52  71  95 128 167 210 251 292
#     4  10  20  32  50  74 100 129 163 200 244 291
#     4  11  22  37  55  73  95 127 165 208 251 293
#     4   9  16  28  45  68  98 132 164 192 231 285
#     4  10  21  35  50  72 100 132 167 202 242 290
#
# _framework density 16.699465
#
# number of rings (size 3 to 8) (size 9 to 14) (size 15 to 20)
#    0.000    2.000    2.500    2.250    0.000    3.500 
#    0.000    0.000    0.000    0.000    0.000    0.875 
#    0.000    7.000    0.000    0.000    0.000    0.000 
#
# Total GULP energy -396546.364609 kJ/mol
# GULP energy per Si atom -12392.073894 kJ/mol
# Density = 1.666146 g / cm^3
# Si number density = 16.699465 Si / 1000 Ang^3
#
#
#
# Elastic Constant Matrix: (Units=GPa)
#
#
# Indices 1 2 3 4 5 6 
#
# 1 53.5590 26.1245 34.2657 0.0000 -4.5095 0.0000
# 2 26.1245 63.0157 35.8622 -0.0001 -2.1455 -0.0017
# 3 34.2657 35.8622 156.7503 0.0001 1.8512 -0.0001
# 4 0.0000 -0.0001 0.0001 19.3701 0.0001 -3.4840
# 5 -4.5095 -2.1455 1.8512 0.0001 16.9381 0.0001
# 6 0.0000 -0.0017 -0.0001 -3.4840 0.0001 22.6758
#
#
#
# Elastic Compliance Matrix: (Units=1/GPa)
#
#
# Indices 1 2 3 4 5 6 
#
# 1 0.025649 -0.008266 -0.003789 0.000000 0.006196 -0.000001
# 2 -0.008266 0.021039 -0.003016 0.000000 0.000794 0.000002
# 3 -0.003789 -0.003016 0.007924 0.000000 -0.002257 0.000000
# 4 0.000000 0.000000 0.000000 0.053093 0.000000 0.008158
# 5 0.006196 0.000794 -0.002257 0.000000 0.061035 0.000000
# 6 -0.000001 0.000002 0.000000 0.008158 0.000000 0.045353
#
#
# Mechanical properties :
#
#
# Convention : Reuss Voigt Hill
#
# Bulk Modulus (GPa) = 40.86494 51.75884 46.31189
# Shear Modulus (GPa) = 19.81043 23.60165 21.70604
#
# Velocity S-wave (km/s) = 3.44799 3.76349 3.60919
# Velocity P-wave (km/s) = 6.35417 7.06730 6.72020
#
# Compressibility (1/GPa) = 0.02447085
#
# Stress axis : x y z
#
# Youngs Moduli (GPa) = 38.98857 47.53010 126.19159
#
# Poissons Ratio (x) = 0.39288 0.47812
# Poissons Ratio (y) = 0.32228 0.38058
# Poissons Ratio (z) = 0.14772 0.14335
#
# Static dielectric constant tensor:
#      x y z
#    x 2.822230 0.000000 0.171540 
#    y 0.000000 3.214320 0.000000 
#    z 0.171540 0.000000 3.923350 
# 
# 
# High freq. dielectric constant tensor:
#      x y z
#    x 1.599460 0.000000 0.006970 
#    y 0.000000 1.648400 0.000000 
#    z 0.006970 0.000000 1.662550 
# 
# From -- ./inp_files/323695.got.cif
#   From: 2010.06.25/outbox.cif.g09.slc.cpg/sg12_162_cif.got.tgz:323695.got - 2010.06.28 00:19:55.
