data_PCOD8095675
_publ_section_title
;
Structure prediction by ZEFSAII (Michael W. Deem and Ramdas Pophale) SiO2 
 PCOD8095675
Probable space group: C 2/M
;
_chemical_formula_sum "Si O2"
_cell_formula_units_Z 48
_cell_length_a 31.393324
_cell_length_b 9.046824
_cell_length_c 10.150794
_cell_angle_alpha 90.000000
_cell_angle_beta 108.661420
_cell_angle_gamma 90.000000
_cell_volume 2731.358664
_symmetry_space_group_name_H-M "C 2/M"
_symmetry_group_IT_number 12
_symmetry_cell_setting 'monoclinic'
loop_
_space_group_symop_operation_xyz
x,y,z
-x,y,-z
-x,-y,-z
x,-y,z
1/2+x,1/2+y,z
1/2-x,1/2+y,-z
1/2-x,1/2-y,-z
1/2+x,1/2-y,z
loop_
_atom_site_type_symbol
_atom_site_label
_atom_site_fract_x
_atom_site_fract_y
_atom_site_fract_z
Si Si1 0.699688 0.173571 0.813735
Si Si2 0.464920 0.173189 0.567509
Si Si3 0.802129 0.172813 0.923094
Si Si4 0.461838 0.826625 0.861077
Si Si5 0.131306 0.174976 0.242012
Si Si6 0.135686 0.324362 0.517280
O O1 0.751151 0.220102 0.838113
O O2 0.670256 0.230499 0.662132
O O3 0.694055 0.000000 0.825104
O O4 0.681107 0.247122 0.928228
O O5 0.500000 0.249328 0.500000
O O6 0.479106 0.211574 0.731116
O O7 0.414262 0.229297 0.490200
O O8 0.465862 0.000000 0.544483
O O9 0.833378 0.222773 0.834303
O O10 0.805473 0.000000 0.952923
O O11 0.416983 0.736777 0.849289
O O12 0.450857 0.000000 0.863577
O O13 0.500000 0.775370 0.000000
O O14 0.149084 0.246970 0.394242
O O15 0.128421 0.000000 0.256392
O O16 0.137230 0.500000 0.496798
#
# Coordination Sequence:
#
# PCOD8095675 Si02
#       6
#     8   8   8   8   8   8
#     4   9  18  33  52  72  95 126 166 209 247 286
#     4   8  14  26  44  66  91 116 145 188 239 282
#     4   9  19  34  49  70 100 130 162 201 245 293
#     4   9  18  32  50  71  94 122 160 203 240 279
#     4  10  20  33  49  70 100 134 162 194 242 297
#     4   9  18  32  50  72  96 124 163 206 243 285
#
# _framework density 17.573671000000001
#
# number of rings (size 3 to 8) (size 9 to 14) (size 15 to 20)
#    0.000    3.000    0.000    1.500    0.000    4.333 
#    0.000    3.333    0.000    8.000    0.000    0.000 
#    0.000    0.000    0.000    0.000    0.000    0.000 
#
# Total GULP energy -297572.886547 kJ/mol
# GULP energy per Si atom -12398.870273 kJ/mol
# Density = 1.753367 g / cm^3
# Si number density = 17.573671 Si / 1000 Ang^3
#
#
#
# Elastic Constant Matrix: (Units=GPa)
#
#
# Indices 1 2 3 4 5 6 
#
# 1 112.7270 36.3061 98.0979 0.0000 -18.5711 0.0000
# 2 36.3061 36.0411 44.6289 0.0000 -4.4289 0.0000
# 3 98.0979 44.6289 174.0034 0.0000 6.1404 0.0000
# 4 0.0000 0.0000 0.0000 26.0728 0.0000 -2.3924
# 5 -18.5711 -4.4289 6.1404 0.0000 36.1014 0.0000
# 6 0.0000 0.0000 0.0000 -2.3924 0.0000 23.2868
#
#
#
# Elastic Compliance Matrix: (Units=1/GPa)
#
#
# Indices 1 2 3 4 5 6 
#
# 1 0.024076 -0.007613 -0.012097 0.000000 0.013509 0.000000
# 2 -0.007613 0.044798 -0.007298 0.000000 0.002821 0.000000
# 3 -0.012097 -0.007298 0.014779 0.000000 -0.009632 0.000000
# 4 0.000000 0.000000 0.000000 0.038719 0.000000 0.003978
# 5 0.013509 0.002821 -0.009632 0.000000 0.036633 0.000000
# 6 0.000000 0.000000 0.000000 0.003978 0.000000 0.043352
#
#
# Mechanical properties :
#
#
# Convention : Reuss Voigt Hill
#
# Bulk Modulus (GPa) = 33.74169 75.64859 54.69514
# Shear Modulus (GPa) = 18.77929 26.67476 22.72703
#
# Velocity S-wave (km/s) = 3.27250 3.90023 3.60007
# Velocity P-wave (km/s) = 5.78972 7.96382 6.96215
#
# Compressibility (1/GPa) = 0.02963692
#
# Stress axis : x y z
#
# Youngs Moduli (GPa) = 41.53560 22.32241 67.66499
#
# Poissons Ratio (x) = 0.16994 0.81856
# Poissons Ratio (y) = 0.31621 0.49379
# Poissons Ratio (z) = 0.50247 0.16290
#
# Static dielectric constant tensor:
#      x y z
#    x 3.448960 0.000000 -0.023780 
#    y 0.000000 3.021990 0.000000 
#    z -0.023780 0.000000 3.399300 
# 
# 
# High freq. dielectric constant tensor:
#      x y z
#    x 1.680300 0.000000 -0.001010 
#    y 0.000000 1.656750 0.000000 
#    z -0.001010 0.000000 1.685750 
# 
# From -- ./inp_files/102059.got.cif
#   From: 2010.06.25/outbox.cif.g09.slc.cpg/sg12_52_cif.got.tgz:102059.got - 2010.06.28 00:19:55.
