data_PCOD8095770
_publ_section_title
;
Structure prediction by ZEFSAII (Michael W. Deem and Ramdas Pophale) SiO2 
 PCOD8095770
Probable space group: C 2/M
;
_chemical_formula_sum "Si O2"
_cell_formula_units_Z 56
_cell_length_a 14.275535
_cell_length_b 9.579251
_cell_length_c 29.720874
_cell_angle_alpha 90.000000
_cell_angle_beta 52.625959
_cell_angle_gamma 90.000000
_cell_volume 3229.855696
_symmetry_space_group_name_H-M "C 2/M"
_symmetry_group_IT_number 12
_symmetry_cell_setting 'monoclinic'
loop_
_space_group_symop_operation_xyz
x,y,z
-x,y,-z
-x,-y,-z
x,-y,z
1/2+x,1/2+y,z
1/2-x,1/2+y,-z
1/2-x,1/2-y,-z
1/2+x,1/2-y,z
loop_
_atom_site_type_symbol
_atom_site_label
_atom_site_fract_x
_atom_site_fract_y
_atom_site_fract_z
Si Si1 0.955511 0.334434 0.232762
Si Si2 0.783830 0.335350 0.360518
Si Si3 0.666907 0.843861 0.554043
Si Si4 0.820887 0.659943 0.944184
Si Si5 0.941413 0.342042 0.563195
Si Si6 0.408715 0.163418 0.146966
Si Si7 0.218469 0.663420 0.147286
O O1 0.960927 0.500000 0.230130
O O2 0.874336 0.277951 0.296796
O O3 0.900731 0.284839 0.201183
O O4 0.089639 0.282461 0.201091
O O5 0.763315 0.500000 0.361054
O O6 0.835551 0.293687 0.393866
O O7 0.660670 0.258412 0.390302
O O8 0.750000 0.750000 0.500000
O O9 0.534025 0.837135 0.576263
O O10 0.718064 0.000000 0.535570
O O11 0.797835 0.500000 0.962935
O O12 0.772584 0.692325 0.908475
O O13 0.959240 0.693824 0.908504
O O14 0.750000 0.750000 0.000000
O O15 0.894563 0.500000 0.568826
O O16 0.000000 0.285545 0.500000
O O17 0.318030 0.250327 0.143715
O O18 0.377971 0.000000 0.151687
O O19 0.235981 0.500000 0.152840
#
# Coordination Sequence:
#
# PCOD8095770 Si02
#       7
#     8   8   8   8   8   8   8
#     4   8  17  35  53  71 100 132 164 208 256 299
#     4  10  20  34  54  76  96 127 171 208 242 300
#     4  10  20  33  50  71  96 127 160 195 242 297
#     4   9  19  34  51  75 108 142 173 208 251 297
#     4  10  20  34  50  71 102 131 155 198 256 300
#     4   9  18  34  54  74 101 136 170 208 256 300
#     4   9  18  34  55  76 101 136 173 210 252 297
#
# _framework density 17.338236999999999
#
# number of rings (size 3 to 8) (size 9 to 14) (size 15 to 20)
#    0.000    2.714    1.429    1.714    0.000    3.714 
#    0.000    7.857    0.000    0.000    0.000    0.000 
#    0.000    0.000    0.000    0.000    0.000    0.000 
#
# Total GULP energy -347151.387575 kJ/mol
# GULP energy per Si atom -12398.263842 kJ/mol
# Density = 1.729877 g / cm^3
# Si number density = 17.338237 Si / 1000 Ang^3
#
#
#
# Elastic Constant Matrix: (Units=GPa)
#
#
# Indices 1 2 3 4 5 6 
#
# 1 135.0098 57.4192 68.8021 0.0000 0.9011 0.0000
# 2 57.4192 60.5223 63.6127 0.0000 -1.4539 0.0000
# 3 68.8021 63.6127 162.4626 0.0000 -0.2215 0.0000
# 4 0.0000 0.0000 0.0000 25.7590 0.0000 -3.6288
# 5 0.9011 -1.4539 -0.2215 0.0000 18.0607 0.0000
# 6 0.0000 0.0000 0.0000 -3.6288 0.0000 34.3054
#
#
#
# Elastic Compliance Matrix: (Units=1/GPa)
#
#
# Indices 1 2 3 4 5 6 
#
# 1 0.012574 -0.010819 -0.001091 0.000000 -0.001512 0.000000
# 2 -0.010819 0.037469 -0.010085 0.000000 0.003432 0.000000
# 3 -0.001091 -0.010085 0.010565 0.000000 -0.000628 0.000000
# 4 0.000000 0.000000 0.000000 0.039409 0.000000 0.004169
# 5 -0.001512 0.003432 -0.000628 0.000000 0.055713 0.000000
# 6 0.000000 0.000000 0.000000 0.004169 0.000000 0.029591
#
#
# Mechanical properties :
#
#
# Convention : Reuss Voigt Hill
#
# Bulk Modulus (GPa) = 60.17170 81.96253 71.06712
# Shear Modulus (GPa) = 21.29015 26.83575 24.06295
#
# Velocity S-wave (km/s) = 3.50799 3.93845 3.72943
# Velocity P-wave (km/s) = 7.15457 8.24968 7.72156
#
# Compressibility (1/GPa) = 0.01661911
#
# Stress axis : x y z
#
# Youngs Moduli (GPa) = 79.52736 26.68842 94.65157
#
# Poissons Ratio (x) = 0.28875 0.10325
# Poissons Ratio (y) = 0.86043 0.95453
# Poissons Ratio (z) = 0.08676 0.26914
#
# Static dielectric constant tensor:
#      x y z
#    x 3.244830 0.000000 0.060270 
#    y 0.000000 3.079130 0.000000 
#    z 0.060270 0.000000 3.355850 
# 
# 
# High freq. dielectric constant tensor:
#      x y z
#    x 1.676200 0.000000 0.004320 
#    y 0.000000 1.653020 0.000000 
#    z 0.004320 0.000000 1.671150 
# 
# From -- ./inp_files/334923.got.cif
#   From: 2010.06.25/outbox.cif.g09.slc.cpg/sg12_168_cif.got.tgz:334923.got - 2010.06.28 00:19:55.
