data_PCOD8095990
_publ_section_title
;
Structure prediction by ZEFSAII (Michael W. Deem and Ramdas Pophale) SiO2 
 PCOD8095990
Probable space group: C 2/M
;
_chemical_formula_sum "Si O2"
_cell_formula_units_Z 48
_cell_length_a 18.272521
_cell_length_b 9.079893
_cell_length_c 15.927769
_cell_angle_alpha 90.000000
_cell_angle_beta 92.912563
_cell_angle_gamma 90.000000
_cell_volume 2639.202913
_symmetry_space_group_name_H-M "C 2/M"
_symmetry_group_IT_number 12
_symmetry_cell_setting 'monoclinic'
loop_
_space_group_symop_operation_xyz
x,y,z
-x,y,-z
-x,-y,-z
x,-y,z
1/2+x,1/2+y,z
1/2-x,1/2+y,-z
1/2-x,1/2-y,-z
1/2+x,1/2-y,z
loop_
_atom_site_type_symbol
_atom_site_label
_atom_site_fract_x
_atom_site_fract_y
_atom_site_fract_z
Si Si1 0.653623 0.667258 0.823726
Si Si2 0.828011 0.327094 0.498380
Si Si3 0.913416 0.328956 0.333503
Si Si4 0.791207 0.669434 0.928465
Si Si5 0.457259 0.666789 0.584421
Si Si6 0.082300 0.171099 0.998475
O O1 0.635829 0.500000 0.794634
O O2 0.628792 0.780369 0.751980
O O3 0.741637 0.686272 0.841802
O O4 0.611832 0.705113 0.907344
O O5 0.819900 0.500000 0.515924
O O6 0.750000 0.250000 0.500000
O O7 0.860712 0.294867 0.408632
O O8 0.881718 0.257381 0.571651
O O9 0.932679 0.500000 0.329731
O O10 0.990417 0.242393 0.343606
O O11 0.800276 0.500000 0.953475
O O12 0.871252 0.743749 0.926696
O O13 0.750000 0.750000 0.000000
O O14 0.500000 0.669960 0.500000
O O15 0.439284 0.500000 0.611275
O O16 0.087612 0.000000 0.020639
O O17 0.000000 0.230031 0.000000
#
# Coordination Sequence:
#
# PCOD8095990 Si02
#       6
#     8   8   8   8   8   8
#     4   9  18  32  50  72  98 130 166 203 244 290
#     4  10  20  34  52  75 101 129 165 205 245 291
#     4  10  20  33  51  75 101 130 164 202 243 290
#     4   9  17  30  49  72  97 128 166 203 241 290
#     4   9  17  31  52  74  97 129 165 200 242 292
#     4   9  18  33  52  74 100 130 164 203 246 290
#
# _framework density 18.187308999999999
#
# number of rings (size 3 to 8) (size 9 to 14) (size 15 to 20)
#    0.000    2.667    0.000    3.000    0.000    7.667 
#    0.000    1.667    0.000    6.000    0.000    0.000 
#    0.000    0.000    0.000    0.000    0.000    0.000 
#
# Total GULP energy -297535.218441 kJ/mol
# GULP energy per Si atom -12397.300768 kJ/mol
# Density = 1.814591 g / cm^3
# Si number density = 18.187309 Si / 1000 Ang^3
#
#
#
# Elastic Constant Matrix: (Units=GPa)
#
#
# Indices 1 2 3 4 5 6 
#
# 1 158.4248 75.6417 39.3266 0.0000 28.7087 0.0000
# 2 75.6417 117.4994 38.3565 0.0000 19.1976 0.0000
# 3 39.3266 38.3565 53.6640 0.0000 22.3091 0.0000
# 4 0.0000 0.0000 0.0000 28.4152 0.0000 9.1817
# 5 28.7087 19.1976 22.3091 0.0000 25.1055 0.0000
# 6 0.0000 0.0000 0.0000 9.1817 0.0000 38.9031
#
#
#
# Elastic Compliance Matrix: (Units=1/GPa)
#
#
# Indices 1 2 3 4 5 6 
#
# 1 0.010276 -0.005171 -0.000941 0.000000 -0.006961 0.000000
# 2 -0.005171 0.013786 -0.006565 0.000000 0.001205 0.000000
# 3 -0.000941 -0.006565 0.034067 0.000000 -0.024176 0.000000
# 4 0.000000 0.000000 0.000000 0.038098 0.000000 -0.008992
# 5 -0.006961 0.001205 -0.024176 0.000000 0.068353 0.000000
# 6 0.000000 0.000000 0.000000 -0.008992 0.000000 0.027827
#
#
# Mechanical properties :
#
#
# Convention : Reuss Voigt Hill
#
# Bulk Modulus (GPa) = 30.51127 70.69309 50.60218
# Shear Modulus (GPa) = 21.86412 30.23565 26.04989
#
# Velocity S-wave (km/s) = 3.47098 4.08175 3.78869
# Velocity P-wave (km/s) = 5.73378 7.82100 6.85727
#
# Compressibility (1/GPa) = 0.03277478
#
# Stress axis : x y z
#
# Youngs Moduli (GPa) = 97.31440 72.53923 29.35405
#
# Poissons Ratio (x) = 0.37509 0.02762
# Poissons Ratio (y) = 0.50320 0.19271
# Poissons Ratio (z) = 0.09158 0.47622
#
# Static dielectric constant tensor:
#      x y z
#    x 3.517730 0.000000 0.277910 
#    y 0.000000 3.534350 0.000000 
#    z 0.277910 0.000000 3.055310 
# 
# 
# High freq. dielectric constant tensor:
#      x y z
#    x 1.711270 0.000000 0.028290 
#    y 0.000000 1.716460 0.000000 
#    z 0.028290 0.000000 1.667300 
# 
# From -- ./inp_files/221623.got.cif
#   From: 2010.06.25/outbox.cif.g09.slc.cpg/sg12_111_cif.got.tgz:221623.got - 2010.06.28 00:19:55.
