data_PCOD8095263
_publ_section_title
;
Structure prediction by ZEFSAII (Michael W. Deem and Ramdas Pophale) SiO2 
 PCOD8095263
Probable space group: C 2/M
;
_chemical_formula_sum "Si O2"
_cell_formula_units_Z 64
_cell_length_a 24.258653
_cell_length_b 9.135192
_cell_length_c 16.686414
_cell_angle_alpha 90.000000
_cell_angle_beta 93.587202
_cell_angle_gamma 90.000000
_cell_volume 3690.588644
_symmetry_space_group_name_H-M "C 2/M"
_symmetry_group_IT_number 12
_symmetry_cell_setting 'monoclinic'
loop_
_space_group_symop_operation_xyz
x,y,z
-x,y,-z
-x,-y,-z
x,-y,z
1/2+x,1/2+y,z
1/2-x,1/2+y,-z
1/2-x,1/2-y,-z
1/2+x,1/2-y,z
loop_
_atom_site_type_symbol
_atom_site_label
_atom_site_fract_x
_atom_site_fract_y
_atom_site_fract_z
Si Si1 0.178383 0.330731 0.436925
Si Si2 0.196700 0.333709 0.167920
Si Si3 0.605943 0.167730 0.290052
Si Si4 0.285909 0.828831 0.391263
Si Si5 0.475555 0.673851 0.825472
Si Si6 0.096415 0.669844 0.051879
Si Si7 0.913433 0.672360 0.134181
Si Si8 0.805222 0.327216 0.216746
O O1 0.194367 0.500000 0.427948
O O2 0.121117 0.298168 0.384463
O O3 0.226780 0.240497 0.400776
O O4 0.172594 0.290511 0.530941
O O5 0.217368 0.500000 0.167365
O O6 0.161388 0.303069 0.244446
O O7 0.158465 0.297248 0.087593
O O8 0.250311 0.232930 0.169727
O O9 0.557606 0.274517 0.256557
O O10 0.586324 0.000000 0.276397
O O11 0.310657 0.771466 0.309424
O O12 0.275658 0.000000 0.384389
O O13 0.476807 0.500000 0.828733
O O14 0.447696 0.734558 0.903689
O O15 0.536789 0.737063 0.823147
O O16 0.081495 0.500000 0.065949
O O17 0.092664 0.712727 0.959339
O O18 0.923622 0.500000 0.147607
O O19 0.858659 0.728077 0.174018
O O20 0.801207 0.500000 0.211441
#
# Coordination Sequence:
#
# PCOD8095263 Si02
#       8
#     8   8   8   8   8   8   8   8
#     4   9  16  28  48  73 100 132 165 194 234 290
#     4   9  17  30  48  71  98 129 164 199 239 289
#     4   9  17  31  51  73  99 132 166 197 239 296
#     4   9  17  28  45  73 106 131 158 200 241 278
#     4  11  22  34  52  77  99 119 157 214 261 287
#     4   9  19  36  55  72  94 129 166 201 243 295
#     4  10  21  37  53  68  94 135 173 198 237 297
#     4  10  20  32  48  72 103 135 164 199 240 286
#
# _framework density 17.341407
#
# number of rings (size 3 to 8) (size 9 to 14) (size 15 to 20)
#    0.000    2.500    1.250    2.250    0.000    5.500 
#    0.000    0.000    0.000    0.750    0.000    5.250 
#    0.000    0.000    0.000    0.000    0.000    0.000 
#
# Total GULP energy -396726.969730 kJ/mol
# GULP energy per Si atom -12397.717804 kJ/mol
# Density = 1.730194 g / cm^3
# Si number density = 17.341407 Si / 1000 Ang^3
#
#
#
# Elastic Constant Matrix: (Units=GPa)
#
#
# Indices 1 2 3 4 5 6 
#
# 1 109.7866 40.2221 40.3115 0.0000 10.8620 0.0000
# 2 40.2221 49.0667 20.8499 0.0000 5.2951 0.0000
# 3 40.3115 20.8499 65.3068 0.0000 21.7879 0.0000
# 4 0.0000 0.0000 0.0000 16.8675 0.0000 4.2944
# 5 10.8620 5.2951 21.7879 0.0000 19.7621 0.0000
# 6 0.0000 0.0000 0.0000 4.2944 0.0000 29.0081
#
#
#
# Elastic Compliance Matrix: (Units=1/GPa)
#
#
# Indices 1 2 3 4 5 6 
#
# 1 0.014908 -0.009544 -0.006762 0.000000 0.001818 0.000000
# 2 -0.009544 0.029812 -0.004290 0.000000 0.001987 0.000000
# 3 -0.006762 -0.004290 0.030422 0.000000 -0.028675 0.000000
# 4 0.000000 0.000000 0.000000 0.061608 0.000000 -0.009120
# 5 0.001818 0.001987 -0.028675 0.000000 0.080685 0.000000
# 6 0.000000 0.000000 0.000000 -0.009120 0.000000 0.035823
#
#
# Mechanical properties :
#
#
# Convention : Reuss Voigt Hill
#
# Bulk Modulus (GPa) = 29.45345 47.43633 38.44489
# Shear Modulus (GPa) = 16.35235 21.31264 18.83249
#
# Velocity S-wave (km/s) = 3.07411 3.50952 3.29900
# Velocity P-wave (km/s) = 5.44256 6.62088 6.06043
#
# Compressibility (1/GPa) = 0.03395188
#
# Stress axis : x y z
#
# Youngs Moduli (GPa) = 67.07818 33.54328 32.87044
#
# Poissons Ratio (x) = 0.32013 0.22226
# Poissons Ratio (y) = 0.64017 0.14101
# Poissons Ratio (z) = 0.45357 0.14390
#
# Static dielectric constant tensor:
#      x y z
#    x 3.094830 0.000000 0.171320 
#    y 0.000000 3.122090 0.000000 
#    z 0.171320 0.000000 3.549350 
# 
# 
# High freq. dielectric constant tensor:
#      x y z
#    x 1.647750 0.000000 0.023050 
#    y 0.000000 1.661090 0.000000 
#    z 0.023050 0.000000 1.673430 
# 
# From -- ./inp_files/287694.got.cif
#   From: 2010.06.25/outbox.cif.g09.slc.cpg/sg12_144_cif.got.tgz:287694.got - 2010.06.28 00:19:55.
