data_PCOD8095594
_publ_section_title
;
Structure prediction by ZEFSAII (Michael W. Deem and Ramdas Pophale) SiO2 
 PCOD8095594
Probable space group: C 2/M
;
_chemical_formula_sum "Si O2"
_cell_formula_units_Z 64
_cell_length_a 19.005527
_cell_length_b 9.365282
_cell_length_c 20.863304
_cell_angle_alpha 90.000000
_cell_angle_beta 87.550817
_cell_angle_gamma 90.000000
_cell_volume 3710.111480
_symmetry_space_group_name_H-M "C 2/M"
_symmetry_group_IT_number 12
_symmetry_cell_setting 'monoclinic'
loop_
_space_group_symop_operation_xyz
x,y,z
-x,y,-z
-x,-y,-z
x,-y,z
1/2+x,1/2+y,z
1/2-x,1/2+y,-z
1/2-x,1/2-y,-z
1/2+x,1/2-y,z
loop_
_atom_site_type_symbol
_atom_site_label
_atom_site_fract_x
_atom_site_fract_y
_atom_site_fract_z
Si Si1 0.479303 0.165148 0.846826
Si Si2 0.595685 0.835235 0.367209
Si Si3 0.636191 0.164459 0.042855
Si Si4 0.880415 0.333555 0.098632
Si Si5 0.177747 0.665453 0.496388
Si Si6 0.539101 0.168267 0.558795
Si Si7 0.773802 0.835759 0.867508
Si Si8 0.115468 0.832023 0.242089
O O1 0.433303 0.184703 0.912310
O O2 0.555945 0.229131 0.861540
O O3 0.451297 0.259362 0.789311
O O4 0.480780 0.000000 0.824515
O O5 0.640432 0.806549 0.429587
O O6 0.511443 0.796948 0.378587
O O7 0.627105 0.733788 0.311551
O O8 0.603230 0.000000 0.346111
O O9 0.700795 0.246410 0.072637
O O10 0.658991 0.000000 0.036687
O O11 0.622353 0.231211 0.973071
O O12 0.896539 0.500000 0.089907
O O13 0.808510 0.303121 0.139886
O O14 0.196830 0.500000 0.504066
O O15 0.250000 0.750000 0.500000
O O16 0.121646 0.717409 0.554527
O O17 0.500000 0.240251 0.500000
O O18 0.541548 0.000000 0.547310
O O19 0.814451 0.794661 0.801001
O O20 0.786864 0.000000 0.884568
O O21 0.102215 0.000000 0.248142
#
# Coordination Sequence:
#
# PCOD8095594 Si02
#       8
#     8   8   8   8   8   8   8   8
#     4   9  17  30  48  67  88 116 151 191 231 273
#     4   9  17  32  54  72  88 121 164 193 216 259
#     4   9  16  27  46  70  90 111 146 191 235 278
#     4   9  16  28  47  68  88 113 149 191 233 278
#     4   9  17  30  50  77 105 126 147 182 227 270
#     4   7  12  26  48  71  92 117 152 187 214 250
#     4   9  18  31  45  63  91 124 153 184 227 280
#     4  10  20  33  47  65  91 122 156 192 229 269
#
# _framework density 17.250153999999998
#
# number of rings (size 3 to 8) (size 9 to 14) (size 15 to 20)
#    0.000    3.125    0.000    2.625    0.000    2.500 
#    0.000    3.125    0.000   11.250    0.000    0.000 
#    0.000    0.000    0.000    0.000    0.000    0.000 
#
# Total GULP energy -396509.585925 kJ/mol
# GULP energy per Si atom -12390.924560 kJ/mol
# Density = 1.721089 g / cm^3
# Si number density = 17.250154 Si / 1000 Ang^3
#
#
#
# Elastic Constant Matrix: (Units=GPa)
#
#
# Indices 1 2 3 4 5 6 
#
# 1 121.9408 36.7884 36.3481 0.0000 -0.8457 0.0000
# 2 36.7884 52.5704 34.7684 0.0000 -0.1507 0.0000
# 3 36.3481 34.7684 73.1111 0.0000 -4.2371 0.0000
# 4 0.0000 0.0000 0.0000 19.8363 0.0000 1.2965
# 5 -0.8457 -0.1507 -4.2371 0.0000 15.5435 0.0000
# 6 0.0000 0.0000 0.0000 1.2965 0.0000 24.1191
#
#
#
# Elastic Compliance Matrix: (Units=1/GPa)
#
#
# Indices 1 2 3 4 5 6 
#
# 1 0.010717 -0.005791 -0.002584 0.000000 -0.000178 0.000000
# 2 -0.005791 0.031055 -0.012081 0.000000 -0.003307 0.000000
# 3 -0.002584 -0.012081 0.021025 0.000000 0.005474 0.000000
# 4 0.000000 0.000000 0.000000 0.050590 0.000000 -0.002719
# 5 -0.000178 -0.003307 0.005474 0.000000 0.065786 0.000000
# 6 0.000000 0.000000 0.000000 -0.002719 0.000000 0.041607
#
#
# Mechanical properties :
#
#
# Convention : Reuss Voigt Hill
#
# Bulk Modulus (GPa) = 45.69479 51.49247 48.59363
# Shear Modulus (GPa) = 18.58818 21.21427 19.90122
#
# Velocity S-wave (km/s) = 3.28619 3.51066 3.40028
# Velocity P-wave (km/s) = 6.39889 6.80795 6.60659
#
# Compressibility (1/GPa) = 0.02188433
#
# Stress axis : x y z
#
# Youngs Moduli (GPa) = 93.31067 32.20085 47.56204
#
# Poissons Ratio (x) = 0.18647 0.12292
# Poissons Ratio (y) = 0.54035 0.57460
# Poissons Ratio (z) = 0.24116 0.38902
#
# Static dielectric constant tensor:
#      x y z
#    x 3.407790 0.000000 -0.152600 
#    y 0.000000 2.975830 0.000000 
#    z -0.152600 0.000000 3.091780 
# 
# 
# High freq. dielectric constant tensor:
#      x y z
#    x 1.671850 0.000000 -0.013150 
#    y 0.000000 1.636720 0.000000 
#    z -0.013150 0.000000 1.649280 
# 
# From -- ./inp_files/319148.got.cif
#   From: 2010.06.25/outbox.cif.g09.slc.cpg/sg12_160_cif.got.tgz:319148.got - 2010.06.28 00:19:55.
