data_PCOD8095425
_publ_section_title
;
Structure prediction by ZEFSAII (Michael W. Deem and Ramdas Pophale) SiO2 
 PCOD8095425
Probable space group: C 2/M
;
_chemical_formula_sum "Si O2"
_cell_formula_units_Z 48
_cell_length_a 22.389017
_cell_length_b 13.626815
_cell_length_c 13.579200
_cell_angle_alpha 90.000000
_cell_angle_beta 38.761197
_cell_angle_gamma 90.000000
_cell_volume 2593.764463
_symmetry_space_group_name_H-M "C 2/M"
_symmetry_group_IT_number 12
_symmetry_cell_setting 'monoclinic'
loop_
_space_group_symop_operation_xyz
x,y,z
-x,y,-z
-x,-y,-z
x,-y,z
1/2+x,1/2+y,z
1/2-x,1/2+y,-z
1/2-x,1/2-y,-z
1/2+x,1/2-y,z
loop_
_atom_site_type_symbol
_atom_site_label
_atom_site_fract_x
_atom_site_fract_y
_atom_site_fract_z
Si Si1 0.058412 0.115429 0.626665
Si Si2 0.347434 0.386895 0.835456
Si Si3 0.220583 0.193923 0.280852
Si Si4 0.715912 0.391079 0.873627
Si Si5 0.980213 0.810618 0.910139
Si Si6 0.421000 0.891998 0.017845
O O1 0.137517 0.171279 0.463121
O O2 0.955030 0.149423 0.719776
O O3 0.067149 0.151099 0.729907
O O4 0.075779 0.000000 0.595368
O O5 0.353414 0.500000 0.799713
O O6 0.304411 0.332530 0.798162
O O7 0.275830 0.369089 0.019652
O O8 0.232655 0.311968 0.262153
O O9 0.315924 0.137168 0.194575
O O10 0.755347 0.500000 0.798073
O O11 0.603136 0.389497 0.997127
O O12 0.951083 0.699953 0.909781
O O13 0.000000 0.805410 0.000000
O O14 0.414657 0.000000 0.973160
O O15 0.500000 0.901453 0.000000
#
# Coordination Sequence:
#
# PCOD8095425 Si02
#       6
#     8   8   8   8   8   8
#     4  10  20  32  50  79 105 124 161 214 253 288
#     4   9  17  31  52  76 101 129 162 202 248 295
#     4  11  19  31  53  76 101 133 165 202 254 297
#     4   9  19  33  49  73 102 131 167 207 242 291
#     4   9  18  34  54  72  95 132 170 204 249 296
#     4   9  18  33  51  72 100 131 165 203 239 289
#
# _framework density 18.505921000000001
#
# number of rings (size 3 to 8) (size 9 to 14) (size 15 to 20)
#    0.000    2.500    0.000    4.000    0.000    2.667 
#    0.000    8.333    0.000    6.000    0.000    0.000 
#    0.000    0.000    0.000    0.000    0.000    0.000 
#
# Total GULP energy -297323.594608 kJ/mol
# GULP energy per Si atom -12388.483109 kJ/mol
# Density = 1.846380 g / cm^3
# Si number density = 18.505921 Si / 1000 Ang^3
#
#
#
# Elastic Constant Matrix: (Units=GPa)
#
#
# Indices 1 2 3 4 5 6 
#
# 1 64.4740 34.0486 24.0725 0.0000 1.6293 0.0000
# 2 34.0486 114.9676 64.7184 0.0000 10.2332 0.0000
# 3 24.0725 64.7184 83.2282 0.0000 1.1727 0.0000
# 4 0.0000 0.0000 0.0000 25.2224 0.0000 0.9884
# 5 1.6293 10.2332 1.1727 0.0000 23.1135 0.0000
# 6 0.0000 0.0000 0.0000 0.9884 0.0000 20.6764
#
#
#
# Elastic Compliance Matrix: (Units=1/GPa)
#
#
# Indices 1 2 3 4 5 6 
#
# 1 0.018575 -0.004518 -0.001870 0.000000 0.000786 0.000000
# 2 -0.004518 0.017525 -0.012224 0.000000 -0.006820 0.000000
# 3 -0.001870 -0.012224 0.021999 0.000000 0.004428 0.000000
# 4 0.000000 0.000000 0.000000 0.039722 0.000000 -0.001899
# 5 0.000786 -0.006820 0.004428 0.000000 0.046004 0.000000
# 6 0.000000 0.000000 0.000000 -0.001899 0.000000 0.048455
#
#
# Mechanical properties :
#
#
# Convention : Reuss Voigt Hill
#
# Bulk Modulus (GPa) = 47.90813 56.48321 52.19567
# Shear Modulus (GPa) = 21.14501 23.12449 22.13475
#
# Velocity S-wave (km/s) = 3.38392 3.53876 3.46221
# Velocity P-wave (km/s) = 6.41966 6.87642 6.65196
#
# Compressibility (1/GPa) = 0.02087328
#
# Stress axis : x y z
#
# Youngs Moduli (GPa) = 53.83704 57.06247 45.45606
#
# Poissons Ratio (x) = 0.25782 0.08501
# Poissons Ratio (y) = 0.24325 0.55567
# Poissons Ratio (z) = 0.10068 0.69755
#
# Static dielectric constant tensor:
#      x y z
#    x 3.391890 0.000000 -0.048170 
#    y 0.000000 3.853040 0.000000 
#    z -0.048170 0.000000 3.200660 
# 
# 
# High freq. dielectric constant tensor:
#      x y z
#    x 1.705860 0.000000 -0.006020 
#    y 0.000000 1.733350 0.000000 
#    z -0.006020 0.000000 1.687810 
# 
# From -- ./inp_files/240610.got.cif
#   From: 2010.06.25/outbox.cif.g09.slc.cpg/sg12_121_cif.got.tgz:240610.got - 2010.06.28 00:19:55.
