data_PCOD8095181
_publ_section_title
;
Structure prediction by ZEFSAII (Michael W. Deem and Ramdas Pophale) SiO2 
 PCOD8095181
Probable space group: C 2/M
;
_chemical_formula_sum "Si O2"
_cell_formula_units_Z 56
_cell_length_a 18.869728
_cell_length_b 9.398580
_cell_length_c 17.798781
_cell_angle_alpha 90.000000
_cell_angle_beta 86.682290
_cell_angle_gamma 90.000000
_cell_volume 3151.299230
_symmetry_space_group_name_H-M "C 2/M"
_symmetry_group_IT_number 12
_symmetry_cell_setting 'monoclinic'
loop_
_space_group_symop_operation_xyz
x,y,z
-x,y,-z
-x,-y,-z
x,-y,z
1/2+x,1/2+y,z
1/2-x,1/2+y,-z
1/2-x,1/2-y,-z
1/2+x,1/2-y,z
loop_
_atom_site_type_symbol
_atom_site_label
_atom_site_fract_x
_atom_site_fract_y
_atom_site_fract_z
Si Si1 0.153095 0.164299 0.053389
Si Si2 0.096725 0.843085 0.621847
Si Si3 0.048404 0.168956 0.188155
Si Si4 0.070939 0.158646 0.349378
Si Si5 0.111551 0.832312 0.789291
Si Si6 0.186736 0.664584 0.909330
Si Si7 0.084431 0.659474 0.486144
O O1 0.095063 0.223273 0.115657
O O2 0.229492 0.182757 0.086216
O O3 0.138780 0.000000 0.032765
O O4 0.145122 0.258878 0.979656
O O5 0.126904 0.796433 0.701104
O O6 0.121119 0.733850 0.555878
O O7 0.012384 0.850031 0.631018
O O8 0.125503 0.000000 0.599024
O O9 0.082212 0.224047 0.264945
O O10 0.967462 0.220113 0.182905
O O11 0.049094 0.000000 0.193697
O O12 0.107783 0.259576 0.408685
O O13 0.103736 0.000000 0.354712
O O14 0.167358 0.741293 0.833088
O O15 0.121078 0.000000 0.804625
O O16 0.164175 0.500000 0.908660
O O17 0.114015 0.500000 0.479485
O O18 0.000000 0.660663 0.500000
#
# Coordination Sequence:
#
# PCOD8095181 Si02
#       7
#     8   8   8   8   8   8   8
#     4   9  18  34  52  66  85 116 153 186 215 259
#     4   8  14  24  38  57  81 111 145 178 212 250
#     4   8  15  29  49  69  86 113 154 190 218 254
#     4   8  13  23  39  58  81 108 142 182 216 249
#     4   9  17  30  48  68  90 116 148 186 224 262
#     4  10  20  32  47  68  92 117 145 180 224 269
#     4   9  15  21  32  54  85 118 145 169 207 258
#
# _framework density 17.770447000000001
#
# number of rings (size 3 to 8) (size 9 to 14) (size 15 to 20)
#    0.000    3.286    0.000    2.571    0.000    3.429 
#    0.000    6.429    0.000    0.000    0.000    1.000 
#    0.000    0.000    0.000    0.000    0.000    0.000 
#
# Total GULP energy -347072.413746 kJ/mol
# GULP energy per Si atom -12395.443348 kJ/mol
# Density = 1.773000 g / cm^3
# Si number density = 17.770447 Si / 1000 Ang^3
#
#
#
# Elastic Constant Matrix: (Units=GPa)
#
#
# Indices 1 2 3 4 5 6 
#
# 1 13.1083 11.0017 9.7434 0.0000 6.2361 0.0000
# 2 11.0017 95.5151 58.7577 0.0000 16.7095 0.0000
# 3 9.7434 58.7577 107.1525 0.0000 26.5095 0.0000
# 4 0.0000 0.0000 0.0000 27.6010 0.0000 7.0251
# 5 6.2361 16.7095 26.5095 0.0000 12.8705 0.0000
# 6 0.0000 0.0000 0.0000 7.0251 0.0000 12.9909
#
#
#
# Elastic Compliance Matrix: (Units=1/GPa)
#
#
# Indices 1 2 3 4 5 6 
#
# 1 0.104141 -0.007229 0.009494 0.000000 -0.060628 0.000000
# 2 -0.007229 0.016490 -0.008065 0.000000 -0.001295 0.000000
# 3 0.009494 -0.008065 0.023325 0.000000 -0.042172 0.000000
# 4 0.000000 0.000000 0.000000 0.042013 0.000000 -0.022720
# 5 -0.060628 -0.001295 -0.042172 0.000000 0.195617 0.000000
# 6 0.000000 0.000000 0.000000 -0.022720 0.000000 0.089263
#
#
# Mechanical properties :
#
#
# Convention : Reuss Voigt Hill
#
# Bulk Modulus (GPa) = 7.55540 41.64239 24.59890
# Shear Modulus (GPa) = 9.49547 19.77736 14.63641
#
# Velocity S-wave (km/s) = 2.31409 3.33969 2.87302
# Velocity P-wave (km/s) = 3.37652 6.19320 4.98782
#
# Compressibility (1/GPa) = 0.13235568
#
# Stress axis : x y z
#
# Youngs Moduli (GPa) = 9.60240 60.64339 42.87269
#
# Poissons Ratio (x) = 0.43841 -0.40703
# Poissons Ratio (y) = 0.06942 0.34575
# Poissons Ratio (z) = -0.09116 0.48906
#
# Static dielectric constant tensor:
#      x y z
#    x 2.833810 0.000000 -0.072930 
#    y 0.000000 3.296260 0.000000 
#    z -0.072930 0.000000 3.578770 
# 
# 
# High freq. dielectric constant tensor:
#      x y z
#    x 1.629580 0.000000 0.002540 
#    y 0.000000 1.673270 0.000000 
#    z 0.002540 0.000000 1.703100 
# 
# From -- ./inp_files/280449.got.cif
#   From: 2010.06.25/outbox.cif.g09.slc.cpg/sg12_141_cif.got.tgz:280449.got - 2010.06.28 00:19:55.
