data_PCOD8095148
_publ_section_title
;
Structure prediction by ZEFSAII (Michael W. Deem and Ramdas Pophale) SiO2 
 PCOD8095148
Probable space group: C 2/M
;
_chemical_formula_sum "Si O2"
_cell_formula_units_Z 64
_cell_length_a 24.607718
_cell_length_b 9.182381
_cell_length_c 33.442788
_cell_angle_alpha 90.000000
_cell_angle_beta 152.785789
_cell_angle_gamma 90.000000
_cell_volume 3455.794501
_symmetry_space_group_name_H-M "C 2/M"
_symmetry_group_IT_number 12
_symmetry_cell_setting 'monoclinic'
loop_
_space_group_symop_operation_xyz
x,y,z
-x,y,-z
-x,-y,-z
x,-y,z
1/2+x,1/2+y,z
1/2-x,1/2+y,-z
1/2-x,1/2-y,-z
1/2+x,1/2-y,z
loop_
_atom_site_type_symbol
_atom_site_label
_atom_site_fract_x
_atom_site_fract_y
_atom_site_fract_z
Si Si1 0.757042 0.669880 0.545291
Si Si2 0.869984 0.835598 0.731098
Si Si3 0.970787 0.835865 0.714340
Si Si4 0.644460 0.167282 0.201348
Si Si5 0.342475 0.332650 0.230495
Si Si6 0.612364 0.669094 0.101212
Si Si7 0.131190 0.328743 0.529141
Si Si8 0.580600 0.665648 0.632610
O O1 0.735925 0.500000 0.526969
O O2 0.750000 0.750000 0.500000
O O3 0.652983 0.739001 0.503070
O O4 0.885185 0.704783 0.646839
O O5 0.908593 0.731018 0.792251
O O6 0.737051 0.789203 0.628959
O O7 0.972933 0.824845 0.764193
O O8 0.862488 0.000000 0.742345
O O9 0.092414 0.809890 0.769738
O O10 0.922430 0.000000 0.672031
O O11 0.587596 0.251581 0.126913
O O12 0.785432 0.188643 0.294192
O O13 0.606709 0.000000 0.173396
O O14 0.301444 0.500000 0.208866
O O15 0.226798 0.232639 0.153384
O O16 0.424242 0.292926 0.322796
O O17 0.634658 0.500000 0.124216
O O18 0.500000 0.696917 0.000000
O O19 0.127625 0.500000 0.519250
O O20 0.997164 0.268715 0.448735
O O21 0.538659 0.500000 0.598738
#
# Coordination Sequence:
#
# PCOD8095148 Si02
#       8
#     8   8   8   8   8   8   8   8
#     4  11  20  29  43  63  91 130 174 220 264 303
#     4   9  19  34  50  71 103 141 179 216 254 298
#     4   9  18  33  51  73 102 136 172 210 254 303
#     4  10  21  36  55  77 102 135 173 212 255 305
#     4   9  18  33  54  79 107 137 169 208 256 308
#     4  10  21  37  59  86 111 132 157 198 254 311
#     4  10  20  32  46  67  96 134 178 220 262 304
#     4   9  18  31  47  71 101 134 173 219 266 305
#
# _framework density 18.51962
#
# number of rings (size 3 to 8) (size 9 to 14) (size 15 to 20)
#    0.000    2.375    0.000    4.500    0.000    8.000 
#    0.000    2.500    0.000    0.750    0.000    0.000 
#    0.000    0.000    0.000    0.000    0.000    0.000 
#
# Total GULP energy -396514.959683 kJ/mol
# GULP energy per Si atom -12391.092490 kJ/mol
# Density = 1.847747 g / cm^3
# Si number density = 18.519620 Si / 1000 Ang^3
#
#
#
# Elastic Constant Matrix: (Units=GPa)
#
#
# Indices 1 2 3 4 5 6 
#
# 1 91.1332 35.9620 28.6733 0.0004 -17.6981 -0.0021
# 2 35.9620 104.8468 46.1224 0.0004 -12.3257 -0.0060
# 3 28.6733 46.1224 64.9571 -0.0013 -6.6560 -0.0013
# 4 0.0004 0.0004 -0.0013 26.2673 -0.0002 0.5392
# 5 -17.6981 -12.3257 -6.6560 -0.0002 18.3776 0.0003
# 6 -0.0021 -0.0060 -0.0013 0.5392 0.0003 29.0171
#
#
#
# Elastic Compliance Matrix: (Units=1/GPa)
#
#
# Indices 1 2 3 4 5 6 
#
# 1 0.015404 -0.002073 -0.004102 0.000000 0.011958 0.000000
# 2 -0.002073 0.014807 -0.009124 -0.000001 0.004630 0.000002
# 3 -0.004102 -0.009124 0.023525 0.000001 -0.001550 -0.000001
# 4 0.000000 -0.000001 0.000001 0.038085 0.000000 -0.000708
# 5 0.011958 0.004630 -0.001550 0.000000 0.068474 0.000001
# 6 0.000000 0.000002 -0.000001 -0.000708 0.000001 0.034476
#
#
# Mechanical properties :
#
#
# Convention : Reuss Voigt Hill
#
# Bulk Modulus (GPa) = 43.22017 53.60583 48.41300
# Shear Modulus (GPa) = 21.45172 24.74435 23.09804
#
# Velocity S-wave (km/s) = 3.40711 3.65926 3.53543
# Velocity P-wave (km/s) = 6.23426 6.84557 6.54705
#
# Compressibility (1/GPa) = 0.02313734
#
# Stress axis : x y z
#
# Youngs Moduli (GPa) = 64.91798 67.53701 42.50756
#
# Poissons Ratio (x) = 0.14001 0.17438
# Poissons Ratio (y) = 0.13458 0.38784
# Poissons Ratio (z) = 0.26631 0.61620
#
# Static dielectric constant tensor:
#      x y z
#    x 3.462240 0.000000 -0.032790 
#    y 0.000000 3.596200 0.000000 
#    z -0.032790 0.000000 3.015810 
# 
# 
# High freq. dielectric constant tensor:
#      x y z
#    x 1.721210 0.000000 -0.007390 
#    y 0.000000 1.725750 0.000000 
#    z -0.007390 0.000000 1.677480 
# 
# From -- ./inp_files/382489.got.cif
#   From: 2010.06.25/outbox.cif.g09.slc.cpg/sg12_192_cif.got.tgz:382489.got - 2010.06.28 00:19:55.
