data_PCOD8095883
_publ_section_title
;
Structure prediction by ZEFSAII (Michael W. Deem and Ramdas Pophale) SiO2 
 PCOD8095883
Probable space group: C 2/M
;
_chemical_formula_sum "Si O2"
_cell_formula_units_Z 64
_cell_length_a 31.848931
_cell_length_b 14.619165
_cell_length_c 8.822162
_cell_angle_alpha 90.000000
_cell_angle_beta 122.247092
_cell_angle_gamma 90.000000
_cell_volume 3474.057327
_symmetry_space_group_name_H-M "C 2/M"
_symmetry_group_IT_number 12
_symmetry_cell_setting 'monoclinic'
loop_
_space_group_symop_operation_xyz
x,y,z
-x,y,-z
-x,-y,-z
x,-y,z
1/2+x,1/2+y,z
1/2-x,1/2+y,-z
1/2-x,1/2-y,-z
1/2+x,1/2-y,z
loop_
_atom_site_type_symbol
_atom_site_label
_atom_site_fract_x
_atom_site_fract_y
_atom_site_fract_z
Si Si1 0.709000 0.897076 0.133301
Si Si2 0.453764 0.104363 0.115300
Si Si3 0.649874 0.211651 0.603311
Si Si4 0.259055 0.894446 0.126570
Si Si5 0.621881 0.769136 0.892836
Si Si6 0.665203 0.393357 0.120035
Si Si7 0.933045 0.395907 0.729328
Si Si8 0.785405 0.174548 0.493918
O O1 0.746042 0.895824 0.346225
O O2 0.688555 0.000000 0.071250
O O3 0.740640 0.865144 0.047830
O O4 0.662349 0.830559 0.060405
O O5 0.429828 0.176639 0.186312
O O6 0.512217 0.123211 0.228331
O O7 0.443194 0.000000 0.147541
O O8 0.431083 0.120451 0.905156
O O9 0.689542 0.130715 0.694881
O O10 0.632300 0.245816 0.734855
O O11 0.603362 0.174980 0.420286
O O12 0.676896 0.291382 0.562619
O O13 0.211238 0.849637 0.113024
O O14 0.251062 0.000000 0.137584
O O15 0.619611 0.670383 0.974428
O O16 0.652453 0.500000 0.065344
O O17 0.679393 0.379310 0.322010
O O18 0.917296 0.500000 0.661669
O O19 0.750000 0.250000 0.500000
#
# Coordination Sequence:
#
# PCOD8095883 Si02
#       8
#     8   8   8   8   8   8   8   8
#     4  10  20  33  50  74 106 142 178 218 265 319
#     4   9  19  36  57  82 115 147 179 217 265 322
#     4  11  21  33  52  77 108 145 180 220 267 321
#     4   9  18  32  48  71 105 141 176 214 260 314
#     4  11  21  35  54  79 107 143 184 222 270 325
#     4  11  22  36  53  75 103 141 183 227 271 318
#     4   9  19  35  55  83 115 147 179 217 265 323
#     4  12  21  34  50  74 104 141 183 225 268 312
#
# _framework density 18.422264999999999
#
# number of rings (size 3 to 8) (size 9 to 14) (size 15 to 20)
#    0.000    1.750    2.500    3.375    0.000    4.000 
#    0.000    1.875    0.000    0.000    0.000    9.625 
#    0.000    0.000    0.000    0.000    0.000    0.000 
#
# Total GULP energy -396713.058581 kJ/mol
# GULP energy per Si atom -12397.283081 kJ/mol
# Density = 1.838034 g / cm^3
# Si number density = 18.422265 Si / 1000 Ang^3
#
#
#
# Elastic Constant Matrix: (Units=GPa)
#
#
# Indices 1 2 3 4 5 6 
#
# 1 74.8521 35.8528 8.4875 0.0000 -9.9725 0.0000
# 2 35.8528 71.2721 24.0005 0.0000 0.3284 0.0000
# 3 8.4875 24.0005 54.8718 0.0000 2.5323 0.0000
# 4 0.0000 0.0000 0.0000 27.4338 0.0000 -1.3243
# 5 -9.9725 0.3284 2.5323 0.0000 22.9596 0.0000
# 6 0.0000 0.0000 0.0000 -1.3243 0.0000 25.3344
#
#
#
# Elastic Compliance Matrix: (Units=1/GPa)
#
#
# Indices 1 2 3 4 5 6 
#
# 1 0.019156 -0.010023 0.001036 0.000000 0.008349 0.000000
# 2 -0.010023 0.021706 -0.007768 0.000000 -0.003807 0.000000
# 3 0.001036 -0.007768 0.021546 0.000000 -0.001815 0.000000
# 4 0.000000 0.000000 0.000000 0.036544 0.000000 0.001910
# 5 0.008349 -0.003807 -0.001815 0.000000 0.047436 0.000000
# 6 0.000000 0.000000 0.000000 0.001910 0.000000 0.039572
#
#
# Mechanical properties :
#
#
# Convention : Reuss Voigt Hill
#
# Bulk Modulus (GPa) = 34.60647 37.51973 36.06310
# Shear Modulus (GPa) = 21.82431 23.98922 22.90677
#
# Velocity S-wave (km/s) = 3.44564 3.61250 3.53005
# Velocity P-wave (km/s) = 5.88692 6.14906 6.01942
#
# Compressibility (1/GPa) = 0.02889633
#
# Stress axis : x y z
#
# Youngs Moduli (GPa) = 52.20405 46.06966 46.41328
#
# Poissons Ratio (x) = 0.46177 -0.04808
# Poissons Ratio (y) = 0.52326 0.36054
# Poissons Ratio (z) = -0.05408 0.35787
#
# Static dielectric constant tensor:
#      x y z
#    x 3.378820 0.000000 -0.159820 
#    y 0.000000 3.203010 0.000000 
#    z -0.159820 0.000000 3.385960 
# 
# 
# High freq. dielectric constant tensor:
#      x y z
#    x 1.702450 0.000000 -0.016550 
#    y 0.000000 1.702450 0.000000 
#    z -0.016550 0.000000 1.710920 
# 
# From -- ./inp_files/111663.got.cif
#   From: 2010.06.25/outbox.cif.g09.slc.cpg/sg12_56_cif.got.tgz:111663.got - 2010.06.28 00:19:55.
