data_PCOD8095637
_publ_section_title
;
Structure prediction by ZEFSAII (Michael W. Deem and Ramdas Pophale) SiO2 
 PCOD8095637
Probable space group: C 2/M
;
_chemical_formula_sum "Si O2"
_cell_formula_units_Z 48
_cell_length_a 31.211996
_cell_length_b 9.400355
_cell_length_c 9.472584
_cell_angle_alpha 90.000000
_cell_angle_beta 76.546231
_cell_angle_gamma 90.000000
_cell_volume 2703.023108
_symmetry_space_group_name_H-M "C 2/M"
_symmetry_group_IT_number 12
_symmetry_cell_setting 'monoclinic'
loop_
_space_group_symop_operation_xyz
x,y,z
-x,y,-z
-x,-y,-z
x,-y,z
1/2+x,1/2+y,z
1/2-x,1/2+y,-z
1/2-x,1/2-y,-z
1/2+x,1/2-y,z
loop_
_atom_site_type_symbol
_atom_site_label
_atom_site_fract_x
_atom_site_fract_y
_atom_site_fract_z
Si Si1 0.936716 0.836143 0.327135
Si Si2 0.861718 0.835072 0.164967
Si Si3 0.487926 0.166532 0.852707
Si Si4 0.612892 0.168027 0.119474
Si Si5 0.630849 0.664923 0.382315
Si Si6 0.294379 0.336039 0.455170
O O1 0.904116 0.793869 0.225310
O O2 0.913320 0.805652 0.494111
O O3 0.980817 0.743267 0.284576
O O4 0.950200 0.000000 0.304862
O O5 0.817815 0.803987 0.288195
O O6 0.863964 0.000000 0.118172
O O7 0.859881 0.735602 0.029872
O O8 0.438172 0.209216 0.856234
O O9 0.496258 0.000000 0.831969
O O10 0.500000 0.220487 0.000000
O O11 0.631810 0.232919 0.247936
O O12 0.620426 0.000000 0.113154
O O13 0.632512 0.500000 0.334660
O O14 0.673182 0.705883 0.442594
O O15 0.281947 0.500000 0.475588
O O16 0.250000 0.250000 0.500000
#
# Coordination Sequence:
#
# PCOD8095637 Si02
#       6
#     8   8   8   8   8   8
#     4   9  18  33  54  76  98 137 187 220 252 307
#     4   9  18  34  55  78 105 137 173 215 261 308
#     4  10  20  33  48  72 109 143 176 222 265 300
#     4  11  22  34  51  78 108 142 180 216 260 310
#     4   9  20  38  55  76 109 140 170 216 267 309
#     4   9  19  37  61  85 106 132 169 212 262 318
#
# _framework density 17.757894
#
# number of rings (size 3 to 8) (size 9 to 14) (size 15 to 20)
#    0.000    2.500    1.667    2.500    0.000    4.333 
#    0.000    7.500    0.000    0.000    0.000    0.000 
#    0.000    0.000    0.000    0.000    0.000    0.000 
#
# Total GULP energy -297644.604795 kJ/mol
# GULP energy per Si atom -12401.858533 kJ/mol
# Density = 1.771748 g / cm^3
# Si number density = 17.757894 Si / 1000 Ang^3
#
#
#
# Elastic Constant Matrix: (Units=GPa)
#
#
# Indices 1 2 3 4 5 6 
#
# 1 99.6607 54.6945 47.7293 0.0000 -10.6657 0.0000
# 2 54.6945 76.5796 63.3442 0.0000 -4.6377 0.0000
# 3 47.7293 63.3442 119.1269 0.0000 1.2079 0.0000
# 4 0.0000 0.0000 0.0000 29.0597 0.0000 -5.1289
# 5 -10.6657 -4.6377 1.2079 0.0000 20.1982 0.0000
# 6 0.0000 0.0000 0.0000 -5.1289 0.0000 35.3374
#
#
#
# Elastic Compliance Matrix: (Units=1/GPa)
#
#
# Indices 1 2 3 4 5 6 
#
# 1 0.017363 -0.011041 -0.001154 0.000000 0.006703 0.000000
# 2 -0.011041 0.031107 -0.012138 0.000000 0.002038 0.000000
# 3 -0.001154 -0.012138 0.015355 0.000000 -0.004315 0.000000
# 4 0.000000 0.000000 0.000000 0.035317 0.000000 0.005126
# 5 0.006703 0.002038 -0.004315 0.000000 0.053775 0.000000
# 6 0.000000 0.000000 0.000000 0.005126 0.000000 0.029043
#
#
# Mechanical properties :
#
#
# Convention : Reuss Voigt Hill
#
# Bulk Modulus (GPa) = 65.96322 69.65592 67.80957
# Shear Modulus (GPa) = 21.21536 25.55900 23.38718
#
# Velocity S-wave (km/s) = 3.46019 3.79793 3.63299
# Velocity P-wave (km/s) = 7.29318 7.65133 7.47440
#
# Compressibility (1/GPa) = 0.01515996
#
# Stress axis : x y z
#
# Youngs Moduli (GPa) = 57.59296 32.14661 65.12629
#
# Poissons Ratio (x) = 0.35492 0.07515
# Poissons Ratio (y) = 0.63587 0.79051
# Poissons Ratio (z) = 0.06646 0.39020
#
# Static dielectric constant tensor:
#      x y z
#    x 3.115590 0.000000 -0.053360 
#    y 0.000000 3.164810 0.000000 
#    z -0.053360 0.000000 3.238870 
# 
# 
# High freq. dielectric constant tensor:
#      x y z
#    x 1.674260 0.000000 -0.006810 
#    y 0.000000 1.685040 0.000000 
#    z -0.006810 0.000000 1.687540 
# 
# From -- ./inp_files/108759.got.cif
#   From: 2010.06.25/outbox.cif.g09.slc.cpg/sg12_55_cif.got.tgz:108759.got - 2010.06.28 00:19:55.
