data_PCOD8095241
_publ_section_title
;
Structure prediction by ZEFSAII (Michael W. Deem and Ramdas Pophale) SiO2 
 PCOD8095241
Probable space group: C 2/M
;
_chemical_formula_sum "Si O2"
_cell_formula_units_Z 64
_cell_length_a 26.495082
_cell_length_b 13.117661
_cell_length_c 19.494511
_cell_angle_alpha 90.000000
_cell_angle_beta 147.475199
_cell_angle_gamma 90.000000
_cell_volume 3642.885178
_symmetry_space_group_name_H-M "C 2/M"
_symmetry_group_IT_number 12
_symmetry_cell_setting 'monoclinic'
loop_
_space_group_symop_operation_xyz
x,y,z
-x,y,-z
-x,-y,-z
x,-y,z
1/2+x,1/2+y,z
1/2-x,1/2+y,-z
1/2-x,1/2-y,-z
1/2+x,1/2-y,z
loop_
_atom_site_type_symbol
_atom_site_label
_atom_site_fract_x
_atom_site_fract_y
_atom_site_fract_z
Si Si1 0.043260 0.619539 0.122572
Si Si2 0.567199 0.381498 0.364814
Si Si3 0.982048 0.756501 0.379324
Si Si4 0.754834 0.118380 0.345800
Si Si5 0.552602 0.749504 0.871089
Si Si6 0.370966 0.117835 0.159426
Si Si7 0.721630 0.382551 0.100530
Si Si8 0.655726 0.250604 0.665073
O O1 0.031982 0.500000 0.123601
O O2 0.151736 0.653824 0.250048
O O3 0.988988 0.677592 0.119492
O O4 0.000000 0.650220 0.000000
O O5 0.554175 0.500000 0.330121
O O6 0.502595 0.355011 0.356116
O O7 0.674553 0.356411 0.510163
O O8 0.534194 0.308757 0.265040
O O9 0.950924 0.656764 0.302367
O O10 0.900863 0.800719 0.336084
O O11 0.074595 0.710726 0.521504
O O12 0.780265 0.169839 0.302416
O O13 0.757338 0.000000 0.331443
O O14 0.620124 0.816534 0.899457
O O15 0.619218 0.666720 0.982440
O O16 0.271005 0.134082 0.082786
O O17 0.388741 0.000000 0.162387
O O18 0.708034 0.500000 0.100972
O O19 0.780837 0.339781 0.232524
#
# Coordination Sequence:
#
# PCOD8095241 Si02
#       8
#     8   8   8   8   8   8   8   8
#     4  10  21  36  54  75  95 119 157 203 248 290
#     4   9  18  32  50  73 102 132 161 195 235 282
#     4   8  16  28  48  76 101 129 163 197 235 284
#     4   9  18  33  52  74  99 127 161 201 242 281
#     4  11  20  33  52  71  96 129 163 197 238 286
#     4   9  18  32  49  72  99 126 159 200 242 283
#     4  10  20  32  48  71 100 131 161 194 236 289
#     4   9  16  30  49  72 102 132 163 197 237 281
#
# _framework density 17.568491999999999
#
# number of rings (size 3 to 8) (size 9 to 14) (size 15 to 20)
#    0.000    2.625    0.000    1.875    0.000    1.500 
#    0.000    5.625    0.000    7.500    0.000    0.000 
#    0.000    0.000    0.000    0.000    0.000    0.000 
#
# Total GULP energy -396608.117157 kJ/mol
# GULP energy per Si atom -12394.003661 kJ/mol
# Density = 1.752851 g / cm^3
# Si number density = 17.568492 Si / 1000 Ang^3
#
#
#
# Elastic Constant Matrix: (Units=GPa)
#
#
# Indices 1 2 3 4 5 6 
#
# 1 83.7967 41.5964 47.1741 0.0000 -0.6420 0.0000
# 2 41.5964 78.1707 43.4544 0.0000 0.8528 0.0000
# 3 47.1741 43.4544 98.8618 0.0000 5.2334 0.0000
# 4 0.0000 0.0000 0.0000 25.4457 0.0000 0.7739
# 5 -0.6420 0.8528 5.2334 0.0000 24.6694 0.0000
# 6 0.0000 0.0000 0.0000 0.7739 0.0000 29.2189
#
#
#
# Elastic Compliance Matrix: (Units=1/GPa)
#
#
# Indices 1 2 3 4 5 6 
#
# 1 0.018644 -0.006535 -0.006131 0.000000 0.002012 0.000000
# 2 -0.006535 0.019244 -0.005356 0.000000 0.000301 0.000000
# 3 -0.006131 -0.005356 0.015568 0.000000 -0.003277 0.000000
# 4 0.000000 0.000000 0.000000 0.039331 0.000000 -0.001042
# 5 0.002012 0.000301 -0.003277 0.000000 0.041273 0.000000
# 6 0.000000 0.000000 0.000000 -0.001042 0.000000 0.034252
#
#
# Mechanical properties :
#
#
# Convention : Reuss Voigt Hill
#
# Bulk Modulus (GPa) = 57.42863 58.36433 57.89648
# Shear Modulus (GPa) = 23.79124 24.44041 24.11583
#
# Velocity S-wave (km/s) = 3.68394 3.73386 3.70898
# Velocity P-wave (km/s) = 7.13124 7.20292 7.16717
#
# Compressibility (1/GPa) = 0.01741292
#
# Stress axis : x y z
#
# Youngs Moduli (GPa) = 53.63573 51.96364 64.23313
#
# Poissons Ratio (x) = 0.33959 0.39378
# Poissons Ratio (y) = 0.35051 0.34405
# Poissons Ratio (z) = 0.32882 0.27833
#
# Static dielectric constant tensor:
#      x y z
#    x 3.186920 0.000000 0.031210 
#    y 0.000000 3.094840 0.000000 
#    z 0.031210 0.000000 3.468330 
# 
# 
# High freq. dielectric constant tensor:
#      x y z
#    x 1.666660 0.000000 -0.000740 
#    y 0.000000 1.666420 0.000000 
#    z -0.000740 0.000000 1.691220 
# 
# From -- ./inp_files/327841.got.cif
#   From: 2010.06.25/outbox.cif.g09.slc.cpg/sg12_164_cif.got.tgz:327841.got - 2010.06.28 00:19:55.
