data_PCOD8095215
_publ_section_title
;
Structure prediction by ZEFSAII (Michael W. Deem and Ramdas Pophale) SiO2 
 PCOD8095215
Probable space group: C 2/M
;
_chemical_formula_sum "Si O2"
_cell_formula_units_Z 64
_cell_length_a 28.305480
_cell_length_b 9.062706
_cell_length_c 27.741595
_cell_angle_alpha 90.000000
_cell_angle_beta 150.268093
_cell_angle_gamma 90.000000
_cell_volume 3529.319773
_symmetry_space_group_name_H-M "C 2/M"
_symmetry_group_IT_number 12
_symmetry_cell_setting 'monoclinic'
loop_
_space_group_symop_operation_xyz
x,y,z
-x,y,-z
-x,-y,-z
x,-y,z
1/2+x,1/2+y,z
1/2-x,1/2+y,-z
1/2-x,1/2-y,-z
1/2+x,1/2-y,z
loop_
_atom_site_type_symbol
_atom_site_label
_atom_site_fract_x
_atom_site_fract_y
_atom_site_fract_z
Si Si1 0.105686 0.174559 0.608199
Si Si2 0.119777 0.829489 0.911458
Si Si3 0.656800 0.831873 0.400396
Si Si4 0.246353 0.173480 0.648423
Si Si5 0.898900 0.673179 0.299543
Si Si6 0.891386 0.665200 0.538354
Si Si7 0.321656 0.826283 0.129439
Si Si8 0.414173 0.671950 0.755629
O O1 0.182663 0.226916 0.636805
O O2 0.143237 0.244344 0.691310
O O3 0.000000 0.231678 0.500000
O O4 0.104649 0.000000 0.612728
O O5 0.113737 0.741837 0.855716
O O6 0.027152 0.799719 0.863012
O O7 0.126362 0.000000 0.902890
O O8 0.211573 0.780687 0.023674
O O9 0.750000 0.750000 0.500000
O O10 0.588458 0.831394 0.386612
O O11 0.608026 0.739101 0.315825
O O12 0.677034 0.000000 0.401043
O O13 0.192537 0.223294 0.551746
O O14 0.351225 0.248692 0.741445
O O15 0.260481 0.000000 0.660887
O O16 0.879451 0.500000 0.287262
O O17 0.851275 0.734883 0.208288
O O18 0.010595 0.711810 0.399663
O O19 0.860546 0.500000 0.495308
O O20 0.338260 0.000000 0.142263
O O21 0.388896 0.500000 0.733552
#
# Coordination Sequence:
#
# PCOD8095215 Si02
#       8
#     8   8   8   8   8   8   8   8
#     4  10  21  37  53  74 103 136 175 221 268 314
#     4   9  19  35  56  81 110 143 175 213 263 313
#     4  11  21  32  47  70 102 139 175 210 250 301
#     4  11  22  35  52  71  97 137 178 215 259 309
#     4  10  20  33  54  80 104 135 171 216 266 312
#     4  10  20  32  47  71 103 135 169 208 253 307
#     4   9  18  35  57  83 111 137 174 219 262 313
#     4  11  22  35  51  74 105 141 178 216 260 312
#
# _framework density 18.133806
#
# number of rings (size 3 to 8) (size 9 to 14) (size 15 to 20)
#    0.000    1.875    2.500    1.875    0.000    4.250 
#    0.000    0.000    0.000    0.750    0.000    5.250 
#    0.000    0.000    0.000    0.000    0.000    0.000 
#
# Total GULP energy -396759.410273 kJ/mol
# GULP energy per Si atom -12398.731571 kJ/mol
# Density = 1.809253 g / cm^3
# Si number density = 18.133806 Si / 1000 Ang^3
#
#
#
# Elastic Constant Matrix: (Units=GPa)
#
#
# Indices 1 2 3 4 5 6 
#
# 1 119.1513 38.3663 43.8867 0.0000 11.1343 0.0000
# 2 38.3663 61.7305 29.0063 0.0000 8.7805 0.0001
# 3 43.8867 29.0063 66.7726 0.0000 5.3131 0.0000
# 4 0.0000 0.0000 0.0000 21.6926 0.0000 -0.7851
# 5 11.1343 8.7805 5.3131 0.0000 30.4122 0.0000
# 6 0.0000 0.0001 0.0000 -0.7851 0.0000 31.0570
#
#
#
# Elastic Compliance Matrix: (Units=1/GPa)
#
#
# Indices 1 2 3 4 5 6 
#
# 1 0.012220 -0.004519 -0.005899 0.000000 -0.002139 0.000000
# 2 -0.004519 0.022621 -0.006560 0.000000 -0.003731 0.000000
# 3 -0.005899 -0.006560 0.021681 0.000000 0.000266 0.000000
# 4 0.000000 0.000000 0.000000 0.046141 0.000000 0.001166
# 5 -0.002139 -0.003731 0.000266 0.000000 0.034695 0.000000
# 6 0.000000 0.000000 0.000000 0.001166 0.000000 0.032228
#
#
# Mechanical properties :
#
#
# Convention : Reuss Voigt Hill
#
# Bulk Modulus (GPa) = 44.31018 52.24146 48.27582
# Shear Modulus (GPa) = 23.68942 25.72536 24.70739
#
# Velocity S-wave (km/s) = 3.61829 3.77057 3.69522
# Velocity P-wave (km/s) = 6.47644 6.91576 6.69970
#
# Compressibility (1/GPa) = 0.02256818
#
# Stress axis : x y z
#
# Youngs Moduli (GPa) = 81.83098 44.20651 46.12245
#
# Poissons Ratio (x) = 0.19978 0.27205
# Poissons Ratio (y) = 0.36981 0.30254
# Poissons Ratio (z) = 0.48268 0.28998
#
# Static dielectric constant tensor:
#      x y z
#    x 3.533970 0.000000 0.147650 
#    y 0.000000 3.308680 0.000000 
#    z 0.147650 0.000000 3.210610 
# 
# 
# High freq. dielectric constant tensor:
#      x y z
#    x 1.702450 0.000000 0.013870 
#    y 0.000000 1.703120 0.000000 
#    z 0.013870 0.000000 1.680100 
# 
# From -- ./inp_files/384627.got.cif
#   From: 2010.06.25/outbox.cif.g09.slc.cpg/sg12_193_cif.got.tgz:384627.got - 2010.06.28 00:19:55.
