data_PCOD8095641
_publ_section_title
;
Structure prediction by ZEFSAII (Michael W. Deem and Ramdas Pophale) SiO2 
 PCOD8095641
Probable space group: C 2/M
;
_chemical_formula_sum "Si O2"
_cell_formula_units_Z 56
_cell_length_a 8.796963
_cell_length_b 25.091466
_cell_length_c 22.327499
_cell_angle_alpha 90.000000
_cell_angle_beta 39.181614
_cell_angle_gamma 90.000000
_cell_volume 3113.616798
_symmetry_space_group_name_H-M "C 2/M"
_symmetry_group_IT_number 12
_symmetry_cell_setting 'monoclinic'
loop_
_space_group_symop_operation_xyz
x,y,z
-x,y,-z
-x,-y,-z
x,-y,z
1/2+x,1/2+y,z
1/2-x,1/2+y,-z
1/2-x,1/2-y,-z
1/2+x,1/2-y,z
loop_
_atom_site_type_symbol
_atom_site_label
_atom_site_fract_x
_atom_site_fract_y
_atom_site_fract_z
Si Si1 0.726721 0.714203 0.589328
Si Si2 0.976300 0.365864 0.203895
Si Si3 0.246310 0.559723 0.045330
Si Si4 0.736445 0.649004 0.060658
Si Si5 0.383293 0.285766 0.097247
Si Si6 0.127107 0.177143 0.404646
Si Si7 0.140058 0.180374 0.210773
O O1 0.713545 0.775878 0.614215
O O2 0.575979 0.706021 0.574191
O O3 0.607942 0.677847 0.677041
O O4 0.000000 0.694117 0.500000
O O5 0.793519 0.364557 0.316725
O O6 0.865351 0.334134 0.182738
O O7 0.041183 0.424091 0.157121
O O8 0.231611 0.340230 0.141194
O O9 0.187292 0.500000 0.041489
O O10 0.500000 0.562542 0.000000
O O11 0.252981 0.597185 0.984477
O O12 0.607630 0.700471 0.071627
O O13 0.605863 0.639733 0.165141
O O14 0.000000 0.668453 0.000000
O O15 0.198728 0.240870 0.174637
O O16 0.500000 0.268845 0.000000
O O17 0.000000 0.146834 0.500000
#
# Coordination Sequence:
#
# PCOD8095641 Si02
#       7
#     8   8   8   8   8   8   8
#     4  10  20  33  48  73 109 152 183 214 253 309
#     4  11  20  38  52  79 106 142 186 216 270 323
#     4  11  23  43  60  76 105 142 180 232 282 324
#     4  12  22  36  53  81 109 142 187 220 260 326
#     4  12  21  33  51  75 113 155 174 216 255 315
#     4  10  20  33  53  75 108 143 185 221 261 315
#     4  11  23  32  51  80 115 147 180 217 259 314
#
# _framework density 17.985513999999998
#
# number of rings (size 3 to 8) (size 9 to 14) (size 15 to 20)
#    0.000    1.000    5.714    3.000    2.000    3.143 
#    0.000    0.000    0.000    0.429    0.000    0.000 
#    0.000    3.429    0.000    0.000    0.000    0.000 
#
# Total GULP energy -346938.434588 kJ/mol
# GULP energy per Si atom -12390.658378 kJ/mol
# Density = 1.794458 g / cm^3
# Si number density = 17.985514 Si / 1000 Ang^3
#
#
#
# Elastic Constant Matrix: (Units=GPa)
#
#
# Indices 1 2 3 4 5 6 
#
# 1 92.3697 24.4591 51.1349 0.0000 11.0957 0.0000
# 2 24.4591 64.5527 51.0188 0.0000 6.3627 0.0000
# 3 51.1349 51.0188 124.3644 -0.0001 17.9841 -0.0001
# 4 0.0000 0.0000 -0.0001 10.2673 0.0000 2.3521
# 5 11.0957 6.3627 17.9841 0.0000 36.2832 0.0001
# 6 0.0000 0.0000 -0.0001 2.3521 0.0001 16.3975
#
#
#
# Elastic Compliance Matrix: (Units=1/GPa)
#
#
# Indices 1 2 3 4 5 6 
#
# 1 0.014156 -0.001167 -0.005112 0.000000 -0.001591 0.000000
# 2 -0.001167 0.023036 -0.009089 0.000000 0.000822 0.000000
# 3 -0.005112 -0.009089 0.014451 0.000000 -0.004005 0.000000
# 4 0.000000 0.000000 0.000000 0.100706 0.000000 -0.014446
# 5 -0.001591 0.000822 -0.004005 0.000000 0.029889 0.000000
# 6 0.000000 0.000000 0.000000 -0.014446 0.000000 0.063057
#
#
# Mechanical properties :
#
#
# Convention : Reuss Voigt Hill
#
# Bulk Modulus (GPa) = 47.83167 59.39026 53.61097
# Shear Modulus (GPa) = 17.66788 22.90119 20.28454
#
# Velocity S-wave (km/s) = 3.13763 3.57222 3.36196
# Velocity P-wave (km/s) = 6.30703 7.07865 6.70395
#
# Compressibility (1/GPa) = 0.02090665
#
# Stress axis : x y z
#
# Youngs Moduli (GPa) = 70.64174 43.41036 69.20076
#
# Poissons Ratio (x) = 0.05065 0.35374
# Poissons Ratio (y) = 0.08243 0.62899
# Poissons Ratio (z) = 0.36111 0.39457
#
# Static dielectric constant tensor:
#      x y z
#    x 3.629210 0.000000 0.142790 
#    y 0.000000 2.968890 0.000000 
#    z 0.142790 0.000000 3.725290 
# 
# 
# High freq. dielectric constant tensor:
#      x y z
#    x 1.717540 0.000000 0.005910 
#    y 0.000000 1.632200 0.000000 
#    z 0.005910 0.000000 1.709120 
# 
# From -- ./inp_files/333962.got.cif
#   From: 2010.06.25/outbox.cif.g09.slc.cpg/sg12_167_cif.got.tgz:333962.got - 2010.06.28 00:19:55.
