data_PCOD8095223
_publ_section_title
;
Structure prediction by ZEFSAII (Michael W. Deem and Ramdas Pophale) SiO2 
 PCOD8095223
Probable space group: C 2/M
;
_chemical_formula_sum "Si O2"
_cell_formula_units_Z 56
_cell_length_a 29.640231
_cell_length_b 9.356417
_cell_length_c 16.446744
_cell_angle_alpha 90.000000
_cell_angle_beta 133.297010
_cell_angle_gamma 90.000000
_cell_volume 3319.618963
_symmetry_space_group_name_H-M "C 2/M"
_symmetry_group_IT_number 12
_symmetry_cell_setting 'monoclinic'
loop_
_space_group_symop_operation_xyz
x,y,z
-x,y,-z
-x,-y,-z
x,-y,z
1/2+x,1/2+y,z
1/2-x,1/2+y,-z
1/2-x,1/2-y,-z
1/2+x,1/2-y,z
loop_
_atom_site_type_symbol
_atom_site_label
_atom_site_fract_x
_atom_site_fract_y
_atom_site_fract_z
Si Si1 0.189446 0.334013 0.104459
Si Si2 0.013911 0.330978 0.304558
Si Si3 0.555682 0.333889 0.508950
Si Si4 0.025717 0.165830 0.159442
Si Si5 0.403206 0.335196 0.912201
Si Si6 0.629471 0.167826 0.862624
Si Si7 0.828243 0.834957 0.238871
O O1 0.175102 0.500000 0.097217
O O2 0.157580 0.254276 0.140445
O O3 0.262251 0.300556 0.197607
O O4 0.160545 0.278154 0.984216
O O5 0.023791 0.500000 0.315341
O O6 0.942289 0.287916 0.226431
O O7 0.052600 0.263550 0.425714
O O8 0.040264 0.265008 0.254107
O O9 0.500000 0.292576 0.500000
O O10 0.552069 0.500000 0.479486
O O11 0.619901 0.294444 0.631525
O O12 0.079805 0.193181 0.160662
O O13 0.024271 0.000000 0.183801
O O14 0.960217 0.211754 0.039826
O O15 0.388064 0.500000 0.907725
O O16 0.664844 0.243855 0.833546
O O17 0.638391 0.000000 0.862118
O O18 0.833576 0.000000 0.219802
#
# Coordination Sequence:
#
# PCOD8095223 Si02
#       7
#     8   8   8   8   8   8   8
#     4  10  20  34  50  74 107 137 166 206 253 303
#     4  11  21  32  51  78 105 133 165 206 257 303
#     4  10  20  35  53  72  96 134 178 215 250 290
#     4   9  18  33  52  76 104 133 167 206 246 298
#     4   9  18  32  52  77 103 133 168 203 247 301
#     4  10  20  32  47  73 107 136 164 202 253 304
#     4  10  21  35  52  72  98 137 180 211 244 295
#
# _framework density 16.869406000000001
#
# number of rings (size 3 to 8) (size 9 to 14) (size 15 to 20)
#    0.000    2.143    2.857    1.714    0.000    3.143 
#    0.000    1.429    0.000    0.857    0.000    0.000 
#    0.000    0.000    0.000    0.000    0.000    0.000 
#
# Total GULP energy -347301.349851 kJ/mol
# GULP energy per Si atom -12403.619638 kJ/mol
# Density = 1.683101 g / cm^3
# Si number density = 16.869406 Si / 1000 Ang^3
#
#
#
# Elastic Constant Matrix: (Units=GPa)
#
#
# Indices 1 2 3 4 5 6 
#
# 1 114.9022 54.7380 52.8320 0.0000 -2.8822 0.0000
# 2 54.7380 60.7545 38.7681 0.0000 -8.9732 0.0000
# 3 52.8320 38.7681 84.8961 0.0000 -0.7088 0.0000
# 4 0.0000 0.0000 0.0000 22.0119 0.0000 -4.8927
# 5 -2.8822 -8.9732 -0.7088 0.0000 28.1385 0.0000
# 6 0.0000 0.0000 0.0000 -4.8927 0.0000 33.7683
#
#
#
# Elastic Compliance Matrix: (Units=1/GPa)
#
#
# Indices 1 2 3 4 5 6 
#
# 1 0.016740 -0.012376 -0.004786 0.000000 -0.002353 0.000000
# 2 -0.012376 0.033908 -0.007704 0.000000 0.009351 0.000000
# 3 -0.004786 -0.007704 0.018255 0.000000 -0.002487 0.000000
# 4 0.000000 0.000000 0.000000 0.046942 0.000000 0.006801
# 5 -0.002353 0.009351 -0.002487 0.000000 0.038217 0.000000
# 6 0.000000 0.000000 0.000000 0.006801 0.000000 0.030599
#
#
# Mechanical properties :
#
#
# Convention : Reuss Voigt Hill
#
# Bulk Modulus (GPa) = 52.16342 61.46988 56.81665
# Shear Modulus (GPa) = 20.76562 24.39804 22.58183
#
# Velocity S-wave (km/s) = 3.51231 3.80714 3.66269
# Velocity P-wave (km/s) = 6.88749 7.47285 7.18613
#
# Compressibility (1/GPa) = 0.01917052
#
# Stress axis : x y z
#
# Youngs Moduli (GPa) = 59.73552 29.49200 54.78065
#
# Poissons Ratio (x) = 0.36500 0.26217
# Poissons Ratio (y) = 0.73930 0.42203
# Poissons Ratio (z) = 0.28588 0.22721
#
# Static dielectric constant tensor:
#      x y z
#    x 3.098790 0.000000 0.021340 
#    y 0.000000 3.074210 0.000000 
#    z 0.021340 0.000000 3.080720 
# 
# 
# High freq. dielectric constant tensor:
#      x y z
#    x 1.646820 0.000000 -0.005270 
#    y 0.000000 1.649820 0.000000 
#    z -0.005270 0.000000 1.636750 
# 
# From -- ./inp_files/237784.got.cif
#   From: 2010.06.25/outbox.cif.g09.slc.cpg/sg12_119_cif.got.tgz:237784.got - 2010.06.28 00:19:55.
