data_PCOD8095144
_publ_section_title
;
Structure prediction by ZEFSAII (Michael W. Deem and Ramdas Pophale) SiO2 
 PCOD8095144
Probable space group: C 2/M
;
_chemical_formula_sum "Si O2"
_cell_formula_units_Z 64
_cell_length_a 31.310963
_cell_length_b 9.000957
_cell_length_c 16.044581
_cell_angle_alpha 90.000000
_cell_angle_beta 126.586216
_cell_angle_gamma 90.000000
_cell_volume 3630.846462
_symmetry_space_group_name_H-M "C 2/M"
_symmetry_group_IT_number 12
_symmetry_cell_setting 'monoclinic'
loop_
_space_group_symop_operation_xyz
x,y,z
-x,y,-z
-x,-y,-z
x,-y,z
1/2+x,1/2+y,z
1/2-x,1/2+y,-z
1/2-x,1/2-y,-z
1/2+x,1/2-y,z
loop_
_atom_site_type_symbol
_atom_site_label
_atom_site_fract_x
_atom_site_fract_y
_atom_site_fract_z
Si Si1 0.645120 0.672816 0.185833
Si Si2 0.770371 0.325093 0.940289
Si Si3 0.896678 0.674948 0.699348
Si Si4 0.638492 0.176004 0.520945
Si Si5 0.113678 0.325079 0.986172
Si Si6 0.511247 0.824471 0.771778
Si Si7 0.238493 0.326075 0.739445
Si Si8 0.974100 0.677401 0.553256
O O1 0.632377 0.500000 0.167590
O O2 0.628316 0.735860 0.254551
O O3 0.707360 0.706431 0.246683
O O4 0.611609 0.750559 0.074152
O O5 0.761314 0.500000 0.935390
O O6 0.736525 0.261335 0.824051
O O7 0.750000 0.250000 0.000000
O O8 0.832407 0.284394 0.000158
O O9 0.890175 0.500000 0.707490
O O10 0.865190 0.726636 0.579587
O O11 0.958773 0.718747 0.763054
O O12 0.691321 0.238222 0.626579
O O13 0.586809 0.233026 0.511352
O O14 0.639245 0.000000 0.523359
O O15 0.108597 0.500000 0.994098
O O16 0.064085 0.258841 0.876273
O O17 0.506557 0.763624 0.671675
O O18 0.516128 0.000000 0.773228
O O19 0.231415 0.500000 0.750875
O O20 0.975735 0.500000 0.553209
O O21 0.000000 0.745513 0.500000
#
# Coordination Sequence:
#
# PCOD8095144 Si02
#       8
#     8   8   8   8   8   8   8   8
#     4  10  20  32  46  67  95 124 156 194 234 276
#     4  10  20  33  50  72  97 125 157 193 232 275
#     4   9  17  31  50  70  94 122 153 192 236 281
#     4   8  15  28  46  68  93 122 154 188 230 277
#     4   9  18  33  51  69  91 122 159 194 230 275
#     4   8  15  28  46  69  93 118 153 194 232 272
#     4   9  18  33  50  68  94 126 158 193 231 273
#     4   8  13  22  40  68  97 118 142 185 235 276
#
# _framework density 17.626743000000001
#
# number of rings (size 3 to 8) (size 9 to 14) (size 15 to 20)
#    0.000    3.125    0.000    2.250    0.000    3.000 
#    0.000    7.500    0.000    0.000    0.000    0.000 
#    0.000    5.000    0.000    0.000    0.000    0.000 
#
# Total GULP energy -396700.016072 kJ/mol
# GULP energy per Si atom -12396.875502 kJ/mol
# Density = 1.758662 g / cm^3
# Si number density = 17.626743 Si / 1000 Ang^3
#
#
#
# Elastic Constant Matrix: (Units=GPa)
#
#
# Indices 1 2 3 4 5 6 
#
# 1 114.1722 33.5894 97.0892 0.0000 -16.9459 0.0000
# 2 33.5894 34.4508 37.6216 0.0000 -5.7893 0.0000
# 3 97.0892 37.6216 174.3493 0.0000 6.5007 0.0000
# 4 0.0000 0.0000 0.0000 19.7924 0.0000 -3.5122
# 5 -16.9459 -5.7893 6.5007 0.0000 36.4630 0.0000
# 6 0.0000 0.0000 0.0000 -3.5122 0.0000 21.4061
#
#
#
# Elastic Compliance Matrix: (Units=1/GPa)
#
#
# Indices 1 2 3 4 5 6 
#
# 1 0.021983 -0.007552 -0.011021 0.000000 0.010982 0.000000
# 2 -0.007552 0.042747 -0.005175 0.000000 0.004200 0.000000
# 3 -0.011021 -0.005175 0.013300 0.000000 -0.008315 0.000000
# 4 0.000000 0.000000 0.000000 0.052040 0.000000 0.008538
# 5 0.010982 0.004200 -0.008315 0.000000 0.034678 0.000000
# 6 0.000000 0.000000 0.000000 0.008538 0.000000 0.048117
#
#
# Mechanical properties :
#
#
# Convention : Reuss Voigt Hill
#
# Bulk Modulus (GPa) = 32.75169 73.28584 53.01877
# Shear Modulus (GPa) = 18.48162 25.84378 22.16270
#
# Velocity S-wave (km/s) = 3.24157 3.83321 3.54974
# Velocity P-wave (km/s) = 5.71239 7.82676 6.85162
#
# Compressibility (1/GPa) = 0.03053277
#
# Stress axis : x y z
#
# Youngs Moduli (GPa) = 45.49023 23.39324 75.18906
#
# Poissons Ratio (x) = 0.17666 0.82869
# Poissons Ratio (y) = 0.34354 0.38913
# Poissons Ratio (z) = 0.50136 0.12107
#
# Static dielectric constant tensor:
#      x y z
#    x 3.364800 0.000000 0.133990 
#    y 0.000000 2.902240 0.000000 
#    z 0.133990 0.000000 3.726990 
# 
# 
# High freq. dielectric constant tensor:
#      x y z
#    x 1.682920 0.000000 -0.001150 
#    y 0.000000 1.642310 0.000000 
#    z -0.001150 0.000000 1.691740 
# 
# From -- ./inp_files/249198.got.cif
#   From: 2010.06.25/outbox.cif.g09.slc.cpg/sg12_125_cif.got.tgz:249198.got - 2010.06.28 00:19:55.
