data_PCOD8095766
_publ_section_title
;
Structure prediction by ZEFSAII (Michael W. Deem and Ramdas Pophale) SiO2 
 PCOD8095766
Probable space group: C 2/M
;
_chemical_formula_sum "Si O2"
_cell_formula_units_Z 64
_cell_length_a 18.497925
_cell_length_b 9.426522
_cell_length_c 22.482409
_cell_angle_alpha 90.000000
_cell_angle_beta 65.708019
_cell_angle_gamma 90.000000
_cell_volume 3573.183904
_symmetry_space_group_name_H-M "C 2/M"
_symmetry_group_IT_number 12
_symmetry_cell_setting 'monoclinic'
loop_
_space_group_symop_operation_xyz
x,y,z
-x,y,-z
-x,-y,-z
x,-y,z
1/2+x,1/2+y,z
1/2-x,1/2+y,-z
1/2-x,1/2-y,-z
1/2+x,1/2-y,z
loop_
_atom_site_type_symbol
_atom_site_label
_atom_site_fract_x
_atom_site_fract_y
_atom_site_fract_z
Si Si1 0.519558 0.832378 0.811762
Si Si2 0.135718 0.664483 0.062771
Si Si3 0.168681 0.832378 0.811760
Si Si4 0.675788 0.167919 0.309061
Si Si5 0.801509 0.835517 0.062773
Si Si6 0.784414 0.334993 0.573921
Si Si7 0.858335 0.665008 0.426077
Si Si8 0.484850 0.832080 0.690940
O O1 0.443194 0.791008 0.876165
O O2 0.593662 0.749999 0.812676
O O3 0.504385 0.776484 0.750160
O O4 0.536428 0.000000 0.807486
O O5 0.135356 0.500000 0.046249
O O6 0.210207 0.702566 0.079585
O O7 0.139398 0.750000 0.999999
O O8 0.245455 0.776480 0.750157
O O9 0.180645 0.791007 0.876162
O O10 0.156089 0.000000 0.807483
O O11 0.675767 0.214300 0.378074
O O12 0.597807 0.234789 0.304386
O O13 0.672276 0.000000 0.304247
O O14 0.818393 0.000000 0.046251
O O15 0.761654 0.500000 0.583334
O O16 0.846207 0.301631 0.499999
O O17 0.703510 0.249997 0.592984
O O18 0.844993 0.500000 0.416663
O O19 0.946157 0.714310 0.378071
O O20 0.476527 0.000000 0.695747
#
# Coordination Sequence:
#
# PCOD8095766 Si02
#       8
#     8   8   8   8   8   8   8   8
#     4  10  20  33  50  71  95 124 157 193 233 278
#     4   9  18  33  52  72  94 122 156 192 231 276
#     4  10  20  33  50  71  95 124 157 193 233 278
#     4   9  17  30  49  71  94 122 158 198 235 272
#     4   9  18  33  52  72  94 122 156 192 231 276
#     4   9  17  29  47  71  97 125 156 191 232 277
#     4   9  17  29  47  71  97 125 156 191 232 277
#     4   9  17  30  49  71  94 122 158 198 235 272
#
# _framework density 17.911196
#
# number of rings (size 3 to 8) (size 9 to 14) (size 15 to 20)
#    0.000    2.750    0.000    1.500    0.000    5.000 
#    0.000    5.000    0.000    4.500    0.000    3.500 
#    0.000    0.000    0.000    0.000    0.000    0.000 
#
# Total GULP energy -396809.004518 kJ/mol
# GULP energy per Si atom -12400.281391 kJ/mol
# Density = 1.787043 g / cm^3
# Si number density = 17.911196 Si / 1000 Ang^3
#
#
#
# Elastic Constant Matrix: (Units=GPa)
#
#
# Indices 1 2 3 4 5 6 
#
# 1 154.5546 44.3636 101.5896 0.0000 0.5344 0.0000
# 2 44.3636 31.1518 42.3347 -0.0001 -0.0808 0.0000
# 3 101.5896 42.3347 157.2183 0.0000 -0.4387 0.0000
# 4 0.0000 -0.0001 0.0000 20.9286 0.0000 -0.2685
# 5 0.5344 -0.0808 -0.4387 0.0000 33.2785 0.0000
# 6 0.0000 0.0000 0.0000 -0.2685 0.0000 27.7481
#
#
#
# Elastic Compliance Matrix: (Units=1/GPa)
#
#
# Indices 1 2 3 4 5 6 
#
# 1 0.013469 -0.011597 -0.005581 0.000000 -0.000318 0.000000
# 2 -0.011597 0.060613 -0.008827 0.000000 0.000217 0.000000
# 3 -0.005581 -0.008827 0.012345 0.000000 0.000231 0.000000
# 4 0.000000 0.000000 0.000000 0.047787 0.000000 0.000462
# 5 -0.000318 0.000217 0.000231 0.000000 0.030058 0.000000
# 6 0.000000 0.000000 0.000000 0.000462 0.000000 0.036043
#
#
# Mechanical properties :
#
#
# Convention : Reuss Voigt Hill
#
# Bulk Modulus (GPa) = 29.05679 79.94449 54.50064
# Shear Modulus (GPa) = 18.95396 26.70016 22.82706
#
# Velocity S-wave (km/s) = 3.25656 3.86514 3.57383
# Velocity P-wave (km/s) = 5.51345 8.04051 6.89376
#
# Compressibility (1/GPa) = 0.03441537
#
# Stress axis : x y z
#
# Youngs Moduli (GPa) = 74.24652 16.49813 81.00760
#
# Poissons Ratio (x) = 0.19133 0.45212
# Poissons Ratio (y) = 0.86104 0.71507
# Poissons Ratio (z) = 0.41438 0.14563
#
# Static dielectric constant tensor:
#      x y z
#    x 3.410870 0.000000 0.004920 
#    y 0.000000 3.030470 0.000000 
#    z 0.004920 0.000000 3.536180 
# 
# 
# High freq. dielectric constant tensor:
#      x y z
#    x 1.695040 0.000000 0.000600 
#    y 0.000000 1.658780 0.000000 
#    z 0.000600 0.000000 1.710290 
# 
# From -- ./inp_files/315335.got.cif
#   From: 2010.06.25/outbox.cif.g09.slc.cpg/sg12_158_cif.got.tgz:315335.got - 2010.06.28 00:19:55.
