data_PCOD8095471
_publ_section_title
;
Structure prediction by ZEFSAII (Michael W. Deem and Ramdas Pophale) SiO2 
 PCOD8095471
Probable space group: C 2/M
;
_chemical_formula_sum "Si O2"
_cell_formula_units_Z 48
_cell_length_a 22.074054
_cell_length_b 23.992669
_cell_length_c 11.117064
_cell_angle_alpha 90.000000
_cell_angle_beta 25.853450
_cell_angle_gamma 90.000000
_cell_volume 2567.484164
_symmetry_space_group_name_H-M "C 2/M"
_symmetry_group_IT_number 12
_symmetry_cell_setting 'monoclinic'
loop_
_space_group_symop_operation_xyz
x,y,z
-x,y,-z
-x,-y,-z
x,-y,z
1/2+x,1/2+y,z
1/2-x,1/2+y,-z
1/2-x,1/2-y,-z
1/2+x,1/2-y,z
loop_
_atom_site_type_symbol
_atom_site_label
_atom_site_fract_x
_atom_site_fract_y
_atom_site_fract_z
Si Si1 0.306323 0.565234 0.741709
Si Si2 0.356780 0.253979 0.202128
Si Si3 0.638132 0.204989 0.215277
Si Si4 0.381653 0.434794 0.875949
Si Si5 0.214656 0.351984 0.314621
Si Si6 0.916037 0.648588 0.935705
O O1 0.277726 0.500000 0.781068
O O2 0.455487 0.581095 0.418565
O O3 0.309202 0.582334 0.878149
O O4 0.184345 0.594591 0.880498
O O5 0.250000 0.250000 0.500000
O O6 0.300487 0.298498 0.206844
O O7 0.500000 0.277261 0.000000
O O8 0.380983 0.192454 0.103421
O O9 0.500000 0.238545 0.500000
O O10 0.664033 0.159778 0.270998
O O11 0.622773 0.175481 0.118507
O O12 0.750000 0.250000 0.000000
O O13 0.361923 0.500000 0.931938
O O14 0.314889 0.404930 0.113078
O O15 0.082224 0.366152 0.638059
#
# Coordination Sequence:
#
# PCOD8095471 Si02
#       6
#     8   8   8   8   8   8
#     4   9  19  35  57  89 124 155 187 230 291 355
#     4  12  26  43  58  83 116 158 205 245 290 340
#     4  10  20  32  51  84 115 145 182 231 295 348
#     4   9  19  35  57  89 124 155 188 229 289 358
#     4  11  22  37  58  85 119 152 192 241 292 351
#     4  11  22  37  58  85 119 152 193 240 291 352
#
# _framework density 18.695345
#
# number of rings (size 3 to 8) (size 9 to 14) (size 15 to 20)
#    0.000    1.667    5.000    1.000    2.333    2.000 
#    0.000    1.667    0.000    2.000    0.000    0.000 
#    0.000    0.000    0.000    0.000    0.000    0.000 
#
# Total GULP energy -297361.781903 kJ/mol
# GULP energy per Si atom -12390.074246 kJ/mol
# Density = 1.865279 g / cm^3
# Si number density = 18.695345 Si / 1000 Ang^3
#
#
#
# Elastic Constant Matrix: (Units=GPa)
#
#
# Indices 1 2 3 4 5 6 
#
# 1 55.5092 21.2853 39.4732 0.0011 2.4036 -0.0013
# 2 21.2853 82.7477 68.6752 0.0008 1.3435 -0.0017
# 3 39.4732 68.6752 149.4305 0.0034 -1.8194 -0.0021
# 4 0.0011 0.0008 0.0034 38.4075 -0.0027 -2.5793
# 5 2.4036 1.3435 -1.8194 -0.0027 32.6537 0.0021
# 6 -0.0013 -0.0017 -0.0021 -2.5793 0.0021 16.5678
#
#
#
# Elastic Compliance Matrix: (Units=1/GPa)
#
#
# Indices 1 2 3 4 5 6 
#
# 1 0.022393 -0.001295 -0.005343 0.000000 -0.001893 0.000001
# 2 -0.001295 0.019667 -0.008711 0.000000 -0.001199 0.000001
# 3 -0.005343 -0.008711 0.012124 -0.000001 0.001427 0.000000
# 4 0.000000 0.000000 -0.000001 0.026312 0.000002 0.004096
# 5 -0.001893 -0.001199 0.001427 0.000002 0.030893 -0.000004
# 6 0.000001 0.000001 0.000000 0.004096 -0.000004 0.060996
#
#
# Mechanical properties :
#
#
# Convention : Reuss Voigt Hill
#
# Bulk Modulus (GPa) = 42.57849 60.72831 51.65340
# Shear Modulus (GPa) = 23.70655 28.07604 25.89130
#
# Velocity S-wave (km/s) = 3.56483 3.87947 3.72547
# Velocity P-wave (km/s) = 6.30621 7.25401 6.79665
#
# Compressibility (1/GPa) = 0.02348604
#
# Stress axis : x y z
#
# Youngs Moduli (GPa) = 44.65641 50.84609 82.47851
#
# Poissons Ratio (x) = 0.06584 0.44070
# Poissons Ratio (y) = 0.05783 0.71848
# Poissons Ratio (z) = 0.23861 0.44293
#
# Static dielectric constant tensor:
#      x y z
#    x 3.035780 -0.000020 0.105290 
#    y -0.000020 3.203900 -0.000010 
#    z 0.105290 -0.000010 3.840290 
# 
# 
# High freq. dielectric constant tensor:
#      x y z
#    x 1.704150 0.000000 -0.005760 
#    y 0.000000 1.711790 0.000000 
#    z -0.005760 0.000000 1.746490 
# 
# From -- ./inp_files/122553.got.cif
#   From: 2010.06.25/outbox.cif.g09.slc.cpg/sg12_62_cif.got.tgz:122553.got - 2010.06.28 00:19:55.
