data_PCOD8095895
_publ_section_title
;
Structure prediction by ZEFSAII (Michael W. Deem and Ramdas Pophale) SiO2 
 PCOD8095895
Probable space group: C 2/M
;
_chemical_formula_sum "Si O2"
_cell_formula_units_Z 56
_cell_length_a 28.567763
_cell_length_b 9.418097
_cell_length_c 11.262546
_cell_angle_alpha 90.000000
_cell_angle_beta 104.149019
_cell_angle_gamma 90.000000
_cell_volume 2938.305186
_symmetry_space_group_name_H-M "C 2/M"
_symmetry_group_IT_number 12
_symmetry_cell_setting 'monoclinic'
loop_
_space_group_symop_operation_xyz
x,y,z
-x,y,-z
-x,-y,-z
x,-y,z
1/2+x,1/2+y,z
1/2-x,1/2+y,-z
1/2-x,1/2-y,-z
1/2+x,1/2-y,z
loop_
_atom_site_type_symbol
_atom_site_label
_atom_site_fract_x
_atom_site_fract_y
_atom_site_fract_z
Si Si1 0.837617 0.335392 0.060254
Si Si2 0.893409 0.164441 0.422653
Si Si3 0.437588 0.833605 0.244663
Si Si4 0.204874 0.836858 0.762258
Si Si5 0.487869 0.336016 0.858885
Si Si6 0.386539 0.662713 0.687188
Si Si7 0.687922 0.165307 0.217828
O O1 0.824647 0.500000 0.064325
O O2 0.892466 0.303029 0.130894
O O3 0.800656 0.252991 0.121555
O O4 0.830333 0.281813 0.921956
O O5 0.928814 0.261637 0.366781
O O6 0.837646 0.197082 0.356709
O O7 0.902085 0.206924 0.564156
O O8 0.906130 0.000000 0.405999
O O9 0.484108 0.763747 0.214690
O O10 0.446681 0.000000 0.269124
O O11 0.255522 0.798822 0.731497
O O12 0.204497 0.000000 0.802242
O O13 0.502295 0.500000 0.845115
O O14 0.431167 0.311187 0.803090
O O15 0.500000 0.289377 0.000000
O O16 0.369874 0.500000 0.677518
O O17 0.340808 0.753597 0.698209
O O18 0.677191 0.000000 0.227419
#
# Coordination Sequence:
#
# PCOD8095895 Si02
#       7
#     8   8   8   8   8   8   8
#     4   9  18  32  50  76 107 134 164 206 254 302
#     4   9  19  37  55  73 102 136 171 209 248 295
#     4  10  20  34  55  80 104 133 168 207 254 302
#     4   9  18  32  52  76 101 134 172 207 247 298
#     4  10  21  37  56  78 103 132 168 208 252 303
#     4  10  22  37  53  74 100 134 174 211 249 299
#     4  10  20  33  50  75 106 136 167 208 256 298
#
# _framework density 19.058606000000001
#
# number of rings (size 3 to 8) (size 9 to 14) (size 15 to 20)
#    0.000    2.429    0.000    1.714    0.000    4.286 
#    0.000    2.857    0.000    0.000    0.000    0.000 
#    0.000    0.000    0.000    0.000    0.000    0.000 
#
# Total GULP energy -347311.871902 kJ/mol
# GULP energy per Si atom -12403.995425 kJ/mol
# Density = 1.901523 g / cm^3
# Si number density = 19.058606 Si / 1000 Ang^3
#
#
#
# Elastic Constant Matrix: (Units=GPa)
#
#
# Indices 1 2 3 4 5 6 
#
# 1 97.6075 52.6091 25.7996 0.0000 -20.4563 0.0000
# 2 52.6091 72.4088 31.2363 0.0000 -17.2637 0.0000
# 3 25.7996 31.2363 81.8188 0.0000 -13.6556 0.0000
# 4 0.0000 0.0000 0.0000 25.8148 0.0000 -8.2657
# 5 -20.4563 -17.2637 -13.6556 0.0000 23.1806 0.0000
# 6 0.0000 0.0000 0.0000 -8.2657 0.0000 37.6268
#
#
#
# Elastic Compliance Matrix: (Units=1/GPa)
#
#
# Indices 1 2 3 4 5 6 
#
# 1 0.017827 -0.011138 -0.000142 0.000000 0.007353 0.000000
# 2 -0.011138 0.025638 -0.005245 0.000000 0.006175 0.000000
# 3 -0.000142 -0.005245 0.015079 0.000000 0.004852 0.000000
# 4 0.000000 0.000000 0.000000 0.041668 0.000000 0.009154
# 5 0.007353 0.006175 0.004852 0.000000 0.057085 0.000000
# 6 0.000000 0.000000 0.000000 0.009154 0.000000 0.028588
#
#
# Mechanical properties :
#
#
# Convention : Reuss Voigt Hill
#
# Bulk Modulus (GPa) = 39.22523 52.34721 45.78622
# Shear Modulus (GPa) = 21.98457 26.80379 24.39418
#
# Velocity S-wave (km/s) = 3.40004 3.75425 3.58153
# Velocity P-wave (km/s) = 6.00331 6.80578 6.41710
#
# Compressibility (1/GPa) = 0.02549380
#
# Stress axis : x y z
#
# Youngs Moduli (GPa) = 56.09520 39.00516 66.31724
#
# Poissons Ratio (x) = 0.43443 0.00941
# Poissons Ratio (y) = 0.62478 0.34784
# Poissons Ratio (z) = 0.00796 0.20459
#
# Static dielectric constant tensor:
#      x y z
#    x 3.372580 0.000000 0.084020 
#    y 0.000000 3.417320 0.000000 
#    z 0.084020 0.000000 3.516970 
# 
# 
# High freq. dielectric constant tensor:
#      x y z
#    x 1.740150 0.000000 0.003290 
#    y 0.000000 1.735540 0.000000 
#    z 0.003290 0.000000 1.740390 
# 
# From -- ./inp_files/181040.got.cif
#   From: 2010.06.25/outbox.cif.g09.slc.cpg/sg12_91_cif.got.tgz:181040.got - 2010.06.28 00:19:55.
