data_PCOD8095489
_publ_section_title
;
Structure prediction by ZEFSAII (Michael W. Deem and Ramdas Pophale) SiO2 
 PCOD8095489
Probable space group: C 2/M
;
_chemical_formula_sum "Si O2"
_cell_formula_units_Z 56
_cell_length_a 27.947413
_cell_length_b 9.049105
_cell_length_c 19.064552
_cell_angle_alpha 90.000000
_cell_angle_beta 36.385527
_cell_angle_gamma 90.000000
_cell_volume 2860.133939
_symmetry_space_group_name_H-M "C 2/M"
_symmetry_group_IT_number 12
_symmetry_cell_setting 'monoclinic'
loop_
_space_group_symop_operation_xyz
x,y,z
-x,y,-z
-x,-y,-z
x,-y,z
1/2+x,1/2+y,z
1/2-x,1/2+y,-z
1/2-x,1/2-y,-z
1/2+x,1/2-y,z
loop_
_atom_site_type_symbol
_atom_site_label
_atom_site_fract_x
_atom_site_fract_y
_atom_site_fract_z
Si Si1 0.380231 0.672174 0.029735
Si Si2 0.240086 0.673887 0.293810
Si Si3 0.539048 0.172297 0.804929
Si Si4 0.017840 0.669239 0.282432
Si Si5 0.935150 0.674222 0.522168
Si Si6 0.172083 0.830397 0.065265
Si Si7 0.793998 0.825752 0.382974
O O1 0.400891 0.500000 0.017415
O O2 0.317856 0.737537 0.160899
O O3 0.462845 0.764394 0.937811
O O4 0.338476 0.698627 0.004474
O O5 0.240908 0.500000 0.280281
O O6 0.155913 0.738255 0.361158
O O7 0.243604 0.709761 0.372250
O O8 0.529211 0.199887 0.733799
O O9 0.617609 0.261173 0.735140
O O10 0.549138 0.000000 0.810716
O O11 0.046339 0.500000 0.253426
O O12 0.096140 0.769625 0.197455
O O13 0.959288 0.712827 0.414503
O O14 0.933029 0.500000 0.537201
O O15 0.000000 0.745270 0.500000
O O16 0.181524 0.000000 0.072471
O O17 0.250000 0.750000 0.000000
O O18 0.750000 0.750000 0.500000
O O19 0.799604 0.000000 0.390745
#
# Coordination Sequence:
#
# PCOD8095489 Si02
#       7
#     8   8   8   8   8   8   8
#     4   9  19  36  57  80 110 147 189 231 275 328
#     4   9  19  35  54  81 113 145 184 233 277 325
#     4  10  20  36  57  82 114 146 184 230 282 335
#     4   9  18  33  53  78 106 139 179 227 276 323
#     4   9  17  29  52  81 106 136 179 228 275 320
#     4  10  20  32  52  79 106 141 183 227 273 327
#     4  11  22  37  59  84 113 147 188 231 278 332
#
# _framework density 19.579502999999999
#
# number of rings (size 3 to 8) (size 9 to 14) (size 15 to 20)
#    0.000    2.429    0.000    2.143    2.000    4.000 
#    0.000    4.286    0.000    1.286    0.000    0.000 
#    0.000    0.000    0.000    0.000    0.000    0.000 
#
# Total GULP energy -347173.927460 kJ/mol
# GULP energy per Si atom -12399.068838 kJ/mol
# Density = 1.953494 g / cm^3
# Si number density = 19.579503 Si / 1000 Ang^3
#
#
#
# Elastic Constant Matrix: (Units=GPa)
#
#
# Indices 1 2 3 4 5 6 
#
# 1 91.5528 37.8860 60.6034 -0.0001 -23.7671 -0.0001
# 2 37.8860 69.9755 38.6508 -0.0106 -14.1723 0.0018
# 3 60.6034 38.6508 143.3454 -0.0065 -13.3710 0.0029
# 4 -0.0001 -0.0106 -0.0065 30.9619 -0.0012 -4.4125
# 5 -23.7671 -14.1723 -13.3710 -0.0012 31.7242 0.0026
# 6 -0.0001 0.0018 0.0029 -4.4125 0.0026 24.9879
#
#
#
# Elastic Compliance Matrix: (Units=1/GPa)
#
#
# Indices 1 2 3 4 5 6 
#
# 1 0.019610 -0.005356 -0.005932 -0.000003 0.009798 0.000000
# 2 -0.005356 0.019355 -0.002625 0.000006 0.003528 0.000000
# 3 -0.005932 -0.002625 0.010064 0.000001 -0.001376 -0.000001
# 4 -0.000003 0.000006 0.000001 0.033132 0.000002 0.005851
# 5 0.009798 0.003528 -0.001376 0.000002 0.039858 -0.000004
# 6 0.000000 0.000000 -0.000001 0.005851 -0.000004 0.041053
#
#
# Mechanical properties :
#
#
# Convention : Reuss Voigt Hill
#
# Bulk Modulus (GPa) = 47.16732 64.35046 55.75889
# Shear Modulus (GPa) = 25.25699 28.71703 26.98701
#
# Velocity S-wave (km/s) = 3.59551 3.83389 3.71661
# Velocity P-wave (km/s) = 6.43268 7.24816 6.85256
#
# Compressibility (1/GPa) = 0.02120112
#
# Stress axis : x y z
#
# Youngs Moduli (GPa) = 50.99566 51.66620 99.36544
#
# Poissons Ratio (x) = 0.27671 0.58948
# Poissons Ratio (y) = 0.27312 0.26088
# Poissons Ratio (z) = 0.30253 0.13565
#
# Static dielectric constant tensor:
#      x y z
#    x 3.585100 -0.000010 -0.033100 
#    y -0.000010 3.347850 0.000010 
#    z -0.033100 0.000010 3.784230 
# 
# 
# High freq. dielectric constant tensor:
#      x y z
#    x 1.766050 0.000000 -0.008170 
#    y 0.000000 1.731780 0.000000 
#    z -0.008170 0.000000 1.774680 
# 
# From -- ./inp_files/292439.got.cif
#   From: 2010.06.25/outbox.cif.g09.slc.cpg/sg12_147_cif.got.tgz:292439.got - 2010.06.28 00:19:55.
