data_PCOD8095385
_publ_section_title
;
Structure prediction by ZEFSAII (Michael W. Deem and Ramdas Pophale) SiO2 
 PCOD8095385
Probable space group: C 2/M
;
_chemical_formula_sum "Si O2"
_cell_formula_units_Z 56
_cell_length_a 26.726034
_cell_length_b 9.927553
_cell_length_c 11.435530
_cell_angle_alpha 90.000000
_cell_angle_beta 110.748376
_cell_angle_gamma 90.000000
_cell_volume 2837.344708
_symmetry_space_group_name_H-M "C 2/M"
_symmetry_group_IT_number 12
_symmetry_cell_setting 'monoclinic'
loop_
_space_group_symop_operation_xyz
x,y,z
-x,y,-z
-x,-y,-z
x,-y,z
1/2+x,1/2+y,z
1/2-x,1/2+y,-z
1/2-x,1/2-y,-z
1/2+x,1/2-y,z
loop_
_atom_site_type_symbol
_atom_site_label
_atom_site_fract_x
_atom_site_fract_y
_atom_site_fract_z
Si Si1 0.301232 0.844381 0.554024
Si Si2 0.042630 0.149358 0.324867
Si Si3 0.632682 0.347487 0.233271
Si Si4 0.034763 0.353995 0.644565
Si Si5 0.804054 0.847767 0.929931
Si Si6 0.211253 0.149912 0.822704
Si Si7 0.872616 0.246540 0.418060
O O1 0.250000 0.750000 0.500000
O O2 0.334528 0.774053 0.683425
O O3 0.336842 0.848080 0.465545
O O4 0.286560 0.000000 0.573566
O O5 0.070969 0.170185 0.221967
O O6 0.086641 0.166827 0.464130
O O7 0.991640 0.247394 0.288908
O O8 0.018913 0.000000 0.317467
O O9 0.651419 0.500000 0.288067
O O10 0.641112 0.332502 0.100212
O O11 0.033117 0.500000 0.704829
O O12 0.095428 0.323588 0.657663
O O13 0.000000 0.355131 0.500000
O O14 0.758825 0.753328 0.834757
O O15 0.782233 0.000000 0.901700
O O16 0.815587 0.810107 0.074337
O O17 0.167470 0.148085 0.683808
O O18 0.235663 0.000000 0.849619
#
# Coordination Sequence:
#
# PCOD8095385 Si02
#       7
#     8   8   8   8   8   8   8
#     4  11  22  33  47  70 100 131 163 200 243 292
#     4   9  18  31  49  74 100 125 156 198 246 292
#     4   9  18  33  51  70  96 130 164 198 242 295
#     4   9  18  32  49  70  97 127 159 195 240 295
#     4   9  19  35  52  71  99 134 168 204 246 290
#     4  10  20  33  51  75 100 129 169 210 244 285
#     4  10  20  32  50  73 100 131 163 199 243 294
#
# _framework density 19.736764000000001
#
# number of rings (size 3 to 8) (size 9 to 14) (size 15 to 20)
#    0.000    2.429    0.000    2.143    0.000   12.286 
#    0.000    0.000    0.000    0.857    0.000    5.000 
#    0.000    0.000    0.000    0.000    0.000    0.000 
#
# Total GULP energy -346920.951888 kJ/mol
# GULP energy per Si atom -12390.033996 kJ/mol
# Density = 1.969184 g / cm^3
# Si number density = 19.736764 Si / 1000 Ang^3
#
#
#
# Elastic Constant Matrix: (Units=GPa)
#
#
# Indices 1 2 3 4 5 6 
#
# 1 115.2554 48.7710 23.3567 0.0000 -34.4314 0.0000
# 2 48.7710 129.2879 8.2344 0.0000 -17.4187 0.0000
# 3 23.3567 8.2344 41.3466 0.0000 -18.0180 0.0000
# 4 0.0000 0.0000 0.0000 14.2271 0.0000 -3.8460
# 5 -34.4314 -17.4187 -18.0180 0.0000 27.5319 0.0000
# 6 0.0000 0.0000 0.0000 -3.8460 0.0000 27.1751
#
#
#
# Elastic Compliance Matrix: (Units=1/GPa)
#
#
# Indices 1 2 3 4 5 6 
#
# 1 0.015162 -0.003481 -0.000795 0.000000 0.016238 0.000000
# 2 -0.003481 0.009279 0.001091 0.000000 0.002231 0.000000
# 3 -0.000795 0.001091 0.033974 0.000000 0.021930 0.000000
# 4 0.000000 0.000000 0.000000 0.073084 0.000000 0.010343
# 5 0.016238 0.002231 0.021930 0.000000 0.072393 0.000000
# 6 0.000000 0.000000 0.000000 0.010343 0.000000 0.038262
#
#
# Mechanical properties :
#
#
# Convention : Reuss Voigt Hill
#
# Bulk Modulus (GPa) = 19.21457 49.62383 34.41920
# Shear Modulus (GPa) = 18.80598 27.48867 23.14733
#
# Velocity S-wave (km/s) = 3.09016 3.73603 3.42834
# Velocity P-wave (km/s) = 4.74222 6.61876 5.75746
#
# Compressibility (1/GPa) = 0.05204385
#
# Stress axis : x y z
#
# Youngs Moduli (GPa) = 65.95634 107.77133 29.43401
#
# Poissons Ratio (x) = 0.37515 0.02341
# Poissons Ratio (y) = 0.22959 -0.03210
# Poissons Ratio (z) = 0.05245 -0.11754
#
# Static dielectric constant tensor:
#      x y z
#    x 3.852820 0.000000 -0.358960 
#    y 0.000000 3.228720 0.000000 
#    z -0.358960 0.000000 3.263200 
# 
# 
# High freq. dielectric constant tensor:
#      x y z
#    x 1.770670 0.000000 -0.032410 
#    y 0.000000 1.775140 0.000000 
#    z -0.032410 0.000000 1.723500 
# 
# From -- ./inp_files/181146.got.cif
#   From: 2010.06.25/outbox.cif.g09.slc.cpg/sg12_91_cif.got.tgz:181146.got - 2010.06.28 00:19:55.
