data_PCOD8095557
_publ_section_title
;
Structure prediction by ZEFSAII (Michael W. Deem and Ramdas Pophale) SiO2 
 PCOD8095557
Probable space group: C 2/M
;
_chemical_formula_sum "Si O2"
_cell_formula_units_Z 36
_cell_length_a 17.873060
_cell_length_b 9.193356
_cell_length_c 11.625184
_cell_angle_alpha 90.000000
_cell_angle_beta 90.270312
_cell_angle_gamma 90.000000
_cell_volume 1910.152290
_symmetry_space_group_name_H-M "C 2/M"
_symmetry_group_IT_number 12
_symmetry_cell_setting 'monoclinic'
loop_
_space_group_symop_operation_xyz
x,y,z
-x,y,-z
-x,-y,-z
x,-y,z
1/2+x,1/2+y,z
1/2-x,1/2+y,-z
1/2-x,1/2-y,-z
1/2+x,1/2-y,z
loop_
_atom_site_type_symbol
_atom_site_label
_atom_site_fract_x
_atom_site_fract_y
_atom_site_fract_z
Si Si1 0.248328 0.172212 0.120850
Si Si2 0.008738 0.834276 0.368812
Si Si3 0.000000 0.253611 0.000000
Si Si4 0.606614 0.836898 0.198154
Si Si5 0.113166 0.158748 0.813537
O O1 0.176109 0.228449 0.186996
O O2 0.325201 0.214613 0.184812
O O3 0.244035 0.000000 0.106317
O O4 0.250000 0.250000 0.000000
O O5 0.928385 0.822100 0.307622
O O6 0.000000 0.785735 0.500000
O O7 0.064181 0.721684 0.309285
O O8 0.039334 0.000000 0.359339
O O9 0.053519 0.346118 0.084786
O O10 0.945710 0.159584 0.080921
O O11 0.635128 0.000000 0.222587
O O12 0.152265 0.000000 0.819571
#
# Coordination Sequence:
#
# PCOD8095557 Si02
#       5
#     8   8   4   8   8
#     4  12  24  37  55  82 119 155 189 230 283 342
#     4   9  20  40  63  86 114 149 191 238 285 334
#     4  10  20  32  56  82 118 146 186 230 286 338
#     4  11  22  36  57  85 117 150 190 235 283 337
#     4  10  20  35  58  85 115 150 189 231 283 339
#
# _framework density 18.846665000000002
#
# number of rings (size 3 to 8) (size 9 to 14) (size 15 to 20)
#    0.000    1.556    2.222    3.333    0.000    5.778 
#    0.000    1.111    0.000    0.000    0.000    0.000 
#    0.000    0.000    0.000    0.000    0.000    0.000 
#
# Total GULP energy -223153.645200 kJ/mol
# GULP energy per Si atom -12397.424733 kJ/mol
# Density = 1.880377 g / cm^3
# Si number density = 18.846665 Si / 1000 Ang^3
#
#
#
# Elastic Constant Matrix: (Units=GPa)
#
#
# Indices 1 2 3 4 5 6 
#
# 1 103.3428 56.7388 43.8383 0.0000 -4.2779 0.0000
# 2 56.7388 161.2497 47.7974 0.0000 -4.6852 0.0000
# 3 43.8383 47.7974 131.1043 0.0000 6.3758 0.0000
# 4 0.0000 0.0000 0.0000 20.2986 0.0000 -2.0395
# 5 -4.2779 -4.6852 6.3758 0.0000 16.4976 0.0000
# 6 0.0000 0.0000 0.0000 -2.0395 0.0000 31.4669
#
#
#
# Elastic Compliance Matrix: (Units=1/GPa)
#
#
# Indices 1 2 3 4 5 6 
#
# 1 0.013175 -0.003554 -0.003289 0.000000 0.003678 0.000000
# 2 -0.003554 0.008062 -0.001852 0.000000 0.002084 0.000000
# 3 -0.003289 -0.001852 0.009651 0.000000 -0.005108 0.000000
# 4 0.000000 0.000000 0.000000 0.049587 0.000000 0.003214
# 5 0.003678 0.002084 -0.005108 0.000000 0.064135 0.000000
# 6 0.000000 0.000000 0.000000 0.003214 0.000000 0.031988
#
#
# Mechanical properties :
#
#
# Convention : Reuss Voigt Hill
#
# Bulk Modulus (GPa) = 74.08468 76.93842 75.51155
# Shear Modulus (GPa) = 25.19063 30.14076 27.66569
#
# Velocity S-wave (km/s) = 3.65993 4.00342 3.83552
# Velocity P-wave (km/s) = 7.56668 7.89188 7.73099
#
# Compressibility (1/GPa) = 0.01349807
#
# Stress axis : x y z
#
# Youngs Moduli (GPa) = 75.90002 124.04332 103.61908
#
# Poissons Ratio (x) = 0.44089 0.34076
# Poissons Ratio (y) = 0.26977 0.19190
# Poissons Ratio (z) = 0.24960 0.22972
#
# Static dielectric constant tensor:
#      x y z
#    x 3.378910 0.000000 0.080650 
#    y 0.000000 3.476800 0.000000 
#    z 0.080650 0.000000 3.329390 
# 
# 
# High freq. dielectric constant tensor:
#      x y z
#    x 1.732240 0.000000 0.000010 
#    y 0.000000 1.736680 0.000000 
#    z 0.000010 0.000000 1.715620 
# 
# From -- ./inp_files/151280.got.cif
#   From: 2010.06.25/outbox.cif.g09.slc.cpg/sg12_76_cif.got.tgz:151280.got - 2010.06.28 00:19:55.
