data_PCOD8095103
_publ_section_title
;
Structure prediction by ZEFSAII (Michael W. Deem and Ramdas Pophale) SiO2 
 PCOD8095103
Probable space group: C 2/M
;
_chemical_formula_sum "Si O2"
_cell_formula_units_Z 64
_cell_length_a 24.300556
_cell_length_b 8.954081
_cell_length_c 17.711677
_cell_angle_alpha 90.000000
_cell_angle_beta 84.385169
_cell_angle_gamma 90.000000
_cell_volume 3835.378238
_symmetry_space_group_name_H-M "C 2/M"
_symmetry_group_IT_number 12
_symmetry_cell_setting 'monoclinic'
loop_
_space_group_symop_operation_xyz
x,y,z
-x,y,-z
-x,-y,-z
x,-y,z
1/2+x,1/2+y,z
1/2-x,1/2+y,-z
1/2-x,1/2-y,-z
1/2+x,1/2-y,z
loop_
_atom_site_type_symbol
_atom_site_label
_atom_site_fract_x
_atom_site_fract_y
_atom_site_fract_z
Si Si1 0.191726 0.174939 0.521515
Si Si2 0.164953 0.328723 0.216345
Si Si3 0.675388 0.334150 0.361161
Si Si4 0.306853 0.831672 0.332635
Si Si5 0.510845 0.835828 0.910363
Si Si6 0.096388 0.824655 0.098814
Si Si7 0.872041 0.676943 0.060698
Si Si8 0.794572 0.173032 0.183828
O O1 0.250000 0.250000 0.500000
O O2 0.155347 0.201434 0.449924
O O3 0.164103 0.250477 0.599268
O O4 0.200256 0.000000 0.535843
O O5 0.147906 0.500000 0.205902
O O6 0.151239 0.284538 0.304941
O O7 0.130254 0.221382 0.167662
O O8 0.229142 0.301257 0.190752
O O9 0.655638 0.500000 0.340096
O O10 0.741458 0.328587 0.352409
O O11 0.322461 0.745290 0.254067
O O12 0.329642 0.000000 0.323923
O O13 0.467882 0.720349 0.879109
O O14 0.574520 0.781922 0.894352
O O15 0.502583 0.000000 0.874374
O O16 0.500000 0.849062 0.000000
O O17 0.100169 0.000000 0.085281
O O18 0.122576 0.742062 0.023758
O O19 0.864995 0.500000 0.054042
O O20 0.818316 0.747567 0.106343
O O21 0.810111 0.000000 0.180605
#
# Coordination Sequence:
#
# PCOD8095103 Si02
#       8
#     8   8   8   8   8   8   8   8
#     4   9  15  23  37  57  81 110 145 183 220 260
#     4  10  20  32  45  62  89 123 154 185 222 265
#     4   8  15  26  39  57  82 112 146 183 220 258
#     4   9  16  26  40  58  83 115 148 182 220 262
#     4   8  16  32  51  69  88 110 139 179 227 271
#     4  11  21  32  49  69  89 115 148 187 226 265
#     4  10  20  34  51  68  89 117 147 183 226 269
#     4  10  20  32  46  65  90 121 155 188 222 263
#
# _framework density 16.686751000000001
#
# number of rings (size 3 to 8) (size 9 to 14) (size 15 to 20)
#    0.000    2.625    0.000    4.500    0.000    8.250 
#    0.000    0.000    0.000    0.000    0.000    0.000 
#    0.000    1.000    0.000   10.500    0.000    7.125 
#
# Total GULP energy -396621.118063 kJ/mol
# GULP energy per Si atom -12394.409939 kJ/mol
# Density = 1.664877 g / cm^3
# Si number density = 16.686751 Si / 1000 Ang^3
#
#
#
# Elastic Constant Matrix: (Units=GPa)
#
#
# Indices 1 2 3 4 5 6 
#
# 1 31.8627 27.5898 20.9474 0.0000 11.1647 0.0000
# 2 27.5898 113.3902 40.8075 0.0000 15.5337 0.0000
# 3 20.9474 40.8075 77.5345 0.0000 21.6179 0.0000
# 4 0.0000 0.0000 0.0000 32.5361 0.0000 3.6363
# 5 11.1647 15.5337 21.6179 0.0000 8.0262 0.0000
# 6 0.0000 0.0000 0.0000 3.6363 0.0000 17.9938
#
#
#
# Elastic Compliance Matrix: (Units=1/GPa)
#
#
# Indices 1 2 3 4 5 6 
#
# 1 0.085775 -0.005660 0.040229 0.000000 -0.216715 0.000000
# 2 -0.005660 0.012382 -0.002013 0.000000 -0.010670 0.000000
# 3 0.040229 -0.002013 0.070692 0.000000 -0.242468 0.000000
# 4 0.000000 0.000000 0.000000 0.031445 0.000000 -0.006355
# 5 -0.216715 -0.010670 -0.242468 0.000000 1.099767 0.000000
# 6 0.000000 0.000000 0.000000 -0.006355 0.000000 0.056859
#
#
# Mechanical properties :
#
#
# Convention : Reuss Voigt Hill
#
# Bulk Modulus (GPa) = 4.27420 44.60854 24.44137
# Shear Modulus (GPa) = 3.65018 20.60741 12.12879
#
# Velocity S-wave (km/s) = 1.48061 3.51801 2.69894
# Velocity P-wave (km/s) = 2.34306 6.57972 4.93876
#
# Compressibility (1/GPa) = 0.23396216
#
# Stress axis : x y z
#
# Youngs Moduli (GPa) = 11.65840 80.76001 14.14578
#
# Poissons Ratio (x) = 0.45708 -0.56907
# Poissons Ratio (y) = 0.06598 0.02848
# Poissons Ratio (z) = -0.46900 0.16257
#
# Static dielectric constant tensor:
#      x y z
#    x 2.913080 0.000000 0.049440 
#    y 0.000000 3.281240 0.000000 
#    z 0.049440 0.000000 3.269570 
# 
# 
# High freq. dielectric constant tensor:
#      x y z
#    x 1.585160 0.000000 0.011220 
#    y 0.000000 1.658320 0.000000 
#    z 0.011220 0.000000 1.640920 
# 
# From -- ./inp_files/287696.got.cif
#   From: 2010.06.25/outbox.cif.g09.slc.cpg/sg12_144_cif.got.tgz:287696.got - 2010.06.28 00:19:55.
