data_PCOD8095805
_publ_section_title
;
Structure prediction by ZEFSAII (Michael W. Deem and Ramdas Pophale) SiO2 
 PCOD8095805
Probable space group: C 2/M
;
_chemical_formula_sum "Si O2"
_cell_formula_units_Z 56
_cell_length_a 19.813623
_cell_length_b 9.176710
_cell_length_c 30.680154
_cell_angle_alpha 90.000000
_cell_angle_beta 35.462942
_cell_angle_gamma 90.000000
_cell_volume 3236.446297
_symmetry_space_group_name_H-M "C 2/M"
_symmetry_group_IT_number 12
_symmetry_cell_setting 'monoclinic'
loop_
_space_group_symop_operation_xyz
x,y,z
-x,y,-z
-x,-y,-z
x,-y,z
1/2+x,1/2+y,z
1/2-x,1/2+y,-z
1/2-x,1/2-y,-z
1/2+x,1/2-y,z
loop_
_atom_site_type_symbol
_atom_site_label
_atom_site_fract_x
_atom_site_fract_y
_atom_site_fract_z
Si Si1 0.484963 0.670251 0.150653
Si Si2 0.369900 0.331576 0.843784
Si Si3 0.668674 0.830407 0.008833
Si Si4 0.590550 0.326989 0.273008
Si Si5 0.783994 0.670791 0.717225
Si Si6 0.131175 0.832914 0.557110
Si Si7 0.533631 0.669666 0.434011
O O1 0.512356 0.500000 0.130351
O O2 0.543656 0.731869 0.164469
O O3 0.541969 0.754703 0.079047
O O4 0.349457 0.703672 0.223321
O O5 0.401090 0.500000 0.823038
O O6 0.393687 0.261659 0.783920
O O7 0.233176 0.309368 0.928203
O O8 0.657592 0.000000 0.026285
O O9 0.750000 0.750000 0.000000
O O10 0.612679 0.500000 0.264631
O O11 0.684504 0.248772 0.254163
O O12 0.460864 0.286809 0.357224
O O13 0.809451 0.500000 0.708052
O O14 0.856834 0.735709 0.638792
O O15 0.250000 0.750000 0.500000
O O16 0.076684 0.798168 0.538640
O O17 0.163257 0.000000 0.544996
O O18 0.500000 0.718959 0.500000
O O19 0.568806 0.500000 0.413098
#
# Coordination Sequence:
#
# PCOD8095805 Si02
#       7
#     8   8   8   8   8   8   8
#     4   9  18  32  49  71  99 128 161 200 240 286
#     4   8  15  30  51  71  91 121 162 201 234 278
#     4   9  16  28  48  72  97 125 159 201 246 287
#     4   9  18  34  52  68  93 129 162 193 236 288
#     4  10  20  33  50  73 100 128 158 197 243 285
#     4   9  18  31  49  71  94 123 155 191 235 280
#     4   9  19  36  54  71  95 128 163 197 236 285
#
# _framework density 17.302928999999999
#
# number of rings (size 3 to 8) (size 9 to 14) (size 15 to 20)
#    0.000    3.000    0.000    2.571    0.000    4.857 
#    0.000    5.714    0.000    4.286    0.000    0.000 
#    0.000    0.000    0.000    0.000    0.000    0.000 
#
# Total GULP energy -347049.764129 kJ/mol
# GULP energy per Si atom -12394.634433 kJ/mol
# Density = 1.726355 g / cm^3
# Si number density = 17.302929 Si / 1000 Ang^3
#
#
#
# Elastic Constant Matrix: (Units=GPa)
#
#
# Indices 1 2 3 4 5 6 
#
# 1 93.4565 40.3720 85.3345 -0.0005 7.9309 0.0068
# 2 40.3720 61.7917 55.8251 0.0018 -3.6697 0.0005
# 3 85.3345 55.8251 137.6093 -0.0008 10.2563 -0.0014
# 4 -0.0005 0.0018 -0.0008 31.5105 -0.0007 -6.2293
# 5 7.9309 -3.6697 10.2563 -0.0007 30.3049 -0.0006
# 6 0.0068 0.0005 -0.0014 -6.2293 -0.0006 22.1979
#
#
#
# Elastic Compliance Matrix: (Units=1/GPa)
#
#
# Indices 1 2 3 4 5 6 
#
# 1 0.025363 -0.004222 -0.013831 -0.000002 -0.002468 -0.000009
# 2 -0.004222 0.027679 -0.009175 -0.000002 0.007562 0.000000
# 3 -0.013831 -0.009175 0.019881 0.000002 -0.004220 0.000006
# 4 -0.000002 -0.000002 0.000002 0.033599 0.000000 0.009429
# 5 -0.002468 0.007562 -0.004220 0.000000 0.035987 0.000001
# 6 -0.000009 0.000000 0.000006 0.009429 0.000001 0.047695
#
#
# Mechanical properties :
#
#
# Convention : Reuss Voigt Hill
#
# Bulk Modulus (GPa) = 54.14951 72.88007 63.51479
# Shear Modulus (GPa) = 19.93498 24.22440 22.07969
#
# Velocity S-wave (km/s) = 3.39797 3.74574 3.57608
# Velocity P-wave (km/s) = 6.83797 7.80506 7.33746
#
# Compressibility (1/GPa) = 0.01846739
#
# Stress axis : x y z
#
# Youngs Moduli (GPa) = 39.42823 36.12795 50.30047
#
# Poissons Ratio (x) = 0.15251 0.69572
# Poissons Ratio (y) = 0.16645 0.46149
# Poissons Ratio (z) = 0.54535 0.33146
#
# Static dielectric constant tensor:
#      x y z
#    x 3.274660 -0.000030 0.197910 
#    y -0.000030 3.203640 -0.000020 
#    z 0.197910 -0.000020 3.797260 
# 
# 
# High freq. dielectric constant tensor:
#      x y z
#    x 1.648740 0.000000 0.002740 
#    y 0.000000 1.657630 0.000000 
#    z 0.002740 0.000000 1.679240 
# 
# From -- ./inp_files/377652.got.cif
#   From: 2010.06.25/outbox.cif.g09.slc.cpg/sg12_189_cif.got.tgz:377652.got - 2010.06.28 00:19:55.
