data_PCOD8095084
_publ_section_title
;
Structure prediction by ZEFSAII (Michael W. Deem and Ramdas Pophale) SiO2 
 PCOD8095084
Probable space group: C 2/M
;
_chemical_formula_sum "Si O2"
_cell_formula_units_Z 52
_cell_length_a 20.618263
_cell_length_b 18.355228
_cell_length_c 14.406498
_cell_angle_alpha 90.000000
_cell_angle_beta 149.169758
_cell_angle_gamma 90.000000
_cell_volume 2794.221999
_symmetry_space_group_name_H-M "C 2/M"
_symmetry_group_IT_number 12
_symmetry_cell_setting 'monoclinic'
loop_
_space_group_symop_operation_xyz
x,y,z
-x,y,-z
-x,-y,-z
x,-y,z
1/2+x,1/2+y,z
1/2-x,1/2+y,-z
1/2-x,1/2-y,-z
1/2+x,1/2-y,z
loop_
_atom_site_type_symbol
_atom_site_label
_atom_site_fract_x
_atom_site_fract_y
_atom_site_fract_z
Si Si1 0.075844 0.417842 0.871787
Si Si2 0.764837 0.352714 0.782301
Si Si3 0.000000 0.792887 0.500000
Si Si4 0.830505 0.352989 0.657591
Si Si5 0.159440 0.698175 0.828081
Si Si6 0.655497 0.690974 0.098857
Si Si7 0.371889 0.316607 0.727806
O O1 0.075114 0.500000 0.833037
O O2 0.097007 0.364825 0.811247
O O3 0.942935 0.401629 0.757076
O O4 0.188853 0.411181 0.085613
O O5 0.614023 0.342860 0.603781
O O6 0.799524 0.380560 0.722690
O O7 0.840498 0.278817 0.899745
O O8 0.954651 0.744304 0.357151
O O9 0.706222 0.364402 0.441324
O O10 0.866815 0.268652 0.699451
O O11 0.240830 0.660331 0.845533
O O12 0.250000 0.750000 0.000000
O O13 0.685715 0.666392 0.241099
O O14 0.518526 0.660948 0.901110
#
# Coordination Sequence:
#
# PCOD8095084 Si02
#       7
#     8   8   4   8   8   8   8
#     4  12  25  40  56  86 129 167 195 237 308 377
#     4  10  20  35  56  87 119 155 196 244 305 349
#     4  10  22  36  64  94 120 144 214 266 296 342
#     4  10  20  31  55  82 114 155 192 241 293 353
#     4  11  21  37  63  88 123 157 201 256 303 348
#     4   9  17  32  54  87 115 142 188 256 303 339
#     4   9  17  30  56  88 113 134 196 256 299 338
#
# _framework density 18.609831
#
# number of rings (size 3 to 8) (size 9 to 14) (size 15 to 20)
#    0.000    1.846    4.615    0.462   10.769    1.231 
#    0.000    0.769    0.000    2.769    0.000    2.154 
#    0.000    0.000    0.000    0.000    0.000    0.000 
#
# Total GULP energy -322394.648724 kJ/mol
# GULP energy per Si atom -12399.794182 kJ/mol
# Density = 1.856747 g / cm^3
# Si number density = 18.609831 Si / 1000 Ang^3
#
#
#
# Elastic Constant Matrix: (Units=GPa)
#
#
# Indices 1 2 3 4 5 6 
#
# 1 121.9179 32.0411 31.1217 0.0000 9.6197 0.0000
# 2 32.0411 55.9799 24.7593 0.0000 2.8584 0.0000
# 3 31.1217 24.7593 113.9285 0.0000 0.9534 0.0000
# 4 0.0000 0.0000 0.0000 13.5613 0.0000 -2.0740
# 5 9.6197 2.8584 0.9534 0.0000 34.0948 0.0000
# 6 0.0000 0.0000 0.0000 -2.0740 0.0000 15.0382
#
#
#
# Elastic Compliance Matrix: (Units=1/GPa)
#
#
# Indices 1 2 3 4 5 6 
#
# 1 0.010113 -0.004926 -0.001672 0.000000 -0.002393 0.000000
# 2 -0.004926 0.022244 -0.003485 0.000000 -0.000377 0.000000
# 3 -0.001672 -0.003485 0.009987 0.000000 0.000485 0.000000
# 4 0.000000 0.000000 0.000000 0.075328 0.000000 0.010389
# 5 -0.002393 -0.000377 0.000485 0.000000 0.030023 0.000000
# 6 0.000000 0.000000 0.000000 0.010389 0.000000 0.067930
#
#
# Mechanical properties :
#
#
# Convention : Reuss Voigt Hill
#
# Bulk Modulus (GPa) = 45.09148 51.96339 48.52743
# Shear Modulus (GPa) = 20.56046 26.13247 23.34647
#
# Velocity S-wave (km/s) = 3.32748 3.75137 3.54577
# Velocity P-wave (km/s) = 6.24863 6.83717 6.54951
#
# Compressibility (1/GPa) = 0.02217714
#
# Stress axis : x y z
#
# Youngs Moduli (GPa) = 98.88687 44.95579 100.12544
#
# Poissons Ratio (x) = 0.22147 0.16739
# Poissons Ratio (y) = 0.48717 0.34896
# Poissons Ratio (z) = 0.16532 0.15668
#
# Static dielectric constant tensor:
#      x y z
#    x 3.737670 0.000000 -0.118720 
#    y 0.000000 2.808810 0.000000 
#    z -0.118720 0.000000 3.622320 
# 
# 
# High freq. dielectric constant tensor:
#      x y z
#    x 1.739790 0.000000 -0.003130 
#    y 0.000000 1.651250 0.000000 
#    z -0.003130 0.000000 1.737700 
# 
# From -- ./inp_files/234475.got.cif
#   From: 2010.06.25/outbox.cif.g09.slc.cpg/sg12_118_cif.got.tgz:234475.got - 2010.06.28 00:19:55.
