data_PCOD8095393
_publ_section_title
;
Structure prediction by ZEFSAII (Michael W. Deem and Ramdas Pophale) SiO2 
 PCOD8095393
Probable space group: C 2/M
;
_chemical_formula_sum "Si O2"
_cell_formula_units_Z 56
_cell_length_a 28.931262
_cell_length_b 9.354456
_cell_length_c 16.631770
_cell_angle_alpha 90.000000
_cell_angle_beta 41.789346
_cell_angle_gamma 90.000000
_cell_volume 2999.544842
_symmetry_space_group_name_H-M "C 2/M"
_symmetry_group_IT_number 12
_symmetry_cell_setting 'monoclinic'
loop_
_space_group_symop_operation_xyz
x,y,z
-x,y,-z
-x,-y,-z
x,-y,z
1/2+x,1/2+y,z
1/2-x,1/2+y,-z
1/2-x,1/2-y,-z
1/2+x,1/2-y,z
loop_
_atom_site_type_symbol
_atom_site_label
_atom_site_fract_x
_atom_site_fract_y
_atom_site_fract_z
Si Si1 0.044711 0.669026 0.690991
Si Si2 0.050199 0.670113 0.503968
Si Si3 0.404203 0.167868 0.950518
Si Si4 0.179370 0.665919 0.605200
Si Si5 0.295048 0.161142 0.709871
Si Si6 0.322248 0.837240 0.211327
Si Si7 0.286591 0.336810 0.021511
O O1 0.051338 0.500000 0.682569
O O2 0.028069 0.723006 0.621987
O O3 0.118570 0.729249 0.626917
O O4 0.983279 0.715562 0.831258
O O5 0.047314 0.500000 0.502240
O O6 0.127898 0.726497 0.387313
O O7 0.000000 0.735700 0.500000
O O8 0.393519 0.000000 0.946035
O O9 0.383340 0.206646 0.069544
O O10 0.358049 0.258478 0.949115
O O11 0.194285 0.500000 0.567994
O O12 0.250000 0.750000 0.500000
O O13 0.151320 0.686722 0.732618
O O14 0.247588 0.247533 0.709827
O O15 0.265315 0.167840 0.837086
O O16 0.297565 0.000000 0.673124
O O17 0.301101 0.000000 0.222550
O O18 0.301711 0.500000 0.975631
O O19 0.250000 0.250000 0.000000
#
# Coordination Sequence:
#
# PCOD8095393 Si02
#       7
#     8   8   8   8   8   8   8
#     4   9  18  31  50  75 103 134 170 213 256 305
#     4   9  17  28  46  72  98 125 164 213 253 290
#     4   9  18  33  52  74 102 135 168 209 259 308
#     4  10  20  34  53  78 104 135 174 213 257 306
#     4   9  18  32  51  74  98 129 170 211 250 301
#     4   9  18  32  51  75 103 132 163 207 259 308
#     4  10  20  32  50  75 101 134 173 214 255 303
#
# _framework density 18.669498999999998
#
# number of rings (size 3 to 8) (size 9 to 14) (size 15 to 20)
#    0.000    2.714    0.000    1.286    2.000    2.857 
#    0.000    3.571    0.000    1.286    0.000    5.000 
#    0.000    0.000    0.000    0.000    0.000    0.000 
#
# Total GULP energy -347109.011932 kJ/mol
# GULP energy per Si atom -12396.750426 kJ/mol
# Density = 1.862701 g / cm^3
# Si number density = 18.669499 Si / 1000 Ang^3
#
#
#
# Elastic Constant Matrix: (Units=GPa)
#
#
# Indices 1 2 3 4 5 6 
#
# 1 135.8362 30.4853 65.9757 0.0004 -3.2619 0.0001
# 2 30.4853 46.8770 25.5503 -0.0034 -2.9888 -0.0009
# 3 65.9757 25.5503 121.3595 -0.0015 -21.2702 -0.0001
# 4 0.0004 -0.0034 -0.0015 18.7953 -0.0003 -4.1038
# 5 -3.2619 -2.9888 -21.2702 -0.0003 25.9152 0.0003
# 6 0.0001 -0.0009 -0.0001 -4.1038 0.0003 23.5385
#
#
#
# Elastic Compliance Matrix: (Units=1/GPa)
#
#
# Indices 1 2 3 4 5 6 
#
# 1 0.011031 -0.004274 -0.005770 -0.000002 -0.003841 0.000000
# 2 -0.004274 0.025812 -0.003134 0.000005 -0.000134 0.000002
# 3 -0.005770 -0.003134 0.013837 0.000001 0.010269 0.000000
# 4 -0.000002 0.000005 0.000001 0.055310 0.000002 0.009643
# 5 -0.003841 -0.000134 0.010269 0.000002 0.046517 0.000000
# 6 0.000000 0.000002 0.000000 0.009643 0.000000 0.044165
#
#
# Mechanical properties :
#
#
# Convention : Reuss Voigt Hill
#
# Bulk Modulus (GPa) = 41.11372 60.89947 51.00660
# Shear Modulus (GPa) = 21.63229 25.78723 23.70976
#
# Velocity S-wave (km/s) = 3.40766 3.72055 3.56753
# Velocity P-wave (km/s) = 6.12801 7.15173 6.65957
#
# Compressibility (1/GPa) = 0.02432278
#
# Stress axis : x y z
#
# Youngs Moduli (GPa) = 90.65011 38.74236 72.27176
#
# Poissons Ratio (x) = 0.16557 0.41704
# Poissons Ratio (y) = 0.38741 0.22652
# Poissons Ratio (z) = 0.52309 0.12143
#
# Static dielectric constant tensor:
#      x y z
#    x 3.620380 0.000010 0.020650 
#    y 0.000010 3.215470 0.000000 
#    z 0.020650 0.000000 3.849670 
# 
# 
# High freq. dielectric constant tensor:
#      x y z
#    x 1.728220 0.000000 0.005750 
#    y 0.000000 1.686090 0.000000 
#    z 0.005750 0.000000 1.733720 
# 
# From -- ./inp_files/292406.got.cif
#   From: 2010.06.25/outbox.cif.g09.slc.cpg/sg12_147_cif.got.tgz:292406.got - 2010.06.28 00:19:55.
