data_PCOD8095314
_publ_section_title
;
Structure prediction by ZEFSAII (Michael W. Deem and Ramdas Pophale) SiO2 
 PCOD8095314
Probable space group: C 2/M
;
_chemical_formula_sum "Si O2"
_cell_formula_units_Z 56
_cell_length_a 28.543249
_cell_length_b 9.664921
_cell_length_c 16.134916
_cell_angle_alpha 90.000000
_cell_angle_beta 39.814078
_cell_angle_gamma 90.000000
_cell_volume 2850.039480
_symmetry_space_group_name_H-M "C 2/M"
_symmetry_group_IT_number 12
_symmetry_cell_setting 'monoclinic'
loop_
_space_group_symop_operation_xyz
x,y,z
-x,y,-z
-x,-y,-z
x,-y,z
1/2+x,1/2+y,z
1/2-x,1/2+y,-z
1/2-x,1/2-y,-z
1/2+x,1/2-y,z
loop_
_atom_site_type_symbol
_atom_site_label
_atom_site_fract_x
_atom_site_fract_y
_atom_site_fract_z
Si Si1 0.047615 0.844255 0.693284
Si Si2 0.052823 0.843470 0.502551
Si Si3 0.425119 0.158364 0.914659
Si Si4 0.282273 0.661520 0.529815
Si Si5 0.325010 0.156838 0.719365
Si Si6 0.288995 0.841107 0.199762
Si Si7 0.320246 0.155853 0.910621
O O1 0.015142 0.833277 0.643846
O O2 0.132533 0.799415 0.575783
O O3 0.999316 0.747963 0.819309
O O4 0.040249 0.000000 0.737082
O O5 0.119134 0.736420 0.415700
O O6 0.000000 0.800347 0.500000
O O7 0.082559 0.000000 0.448294
O O8 0.378288 0.209609 0.898877
O O9 0.449410 0.000000 0.870199
O O10 0.376359 0.176783 0.064618
O O11 0.272678 0.500000 0.523094
O O12 0.250000 0.750000 0.500000
O O13 0.235154 0.701937 0.675218
O O14 0.248835 0.240322 0.816010
O O15 0.356187 0.158003 0.770442
O O16 0.314263 0.000000 0.702055
O O17 0.266079 0.000000 0.213083
O O18 0.295817 0.000000 0.967891
O O19 0.250000 0.250000 0.000000
#
# Coordination Sequence:
#
# PCOD8095314 Si02
#       7
#     8   8   8   8   8   8   8
#     4  10  21  38  59  86 119 153 192 242 293 349
#     4  10  20  35  55  78 111 160 202 233 285 349
#     4  10  21  36  57  84 117 159 198 239 289 340
#     4  10  22  42  67  91 114 146 193 245 299 357
#     4  11  21  31  50  82 115 149 196 250 289 326
#     4  10  20  39  62  82 113 154 194 235 285 355
#     4  10  20  32  48  76 115 159 203 241 282 334
#
# _framework density 19.648851000000001
#
# number of rings (size 3 to 8) (size 9 to 14) (size 15 to 20)
#    0.000    1.857    2.857    1.286    0.000    3.714 
#    0.000    0.714    0.000    4.286    0.000    0.000 
#    0.000    0.000    0.000    0.000    0.000    0.000 
#
# Total GULP energy -347103.744508 kJ/mol
# GULP energy per Si atom -12396.562304 kJ/mol
# Density = 1.960413 g / cm^3
# Si number density = 19.648851 Si / 1000 Ang^3
#
#
#
# Elastic Constant Matrix: (Units=GPa)
#
#
# Indices 1 2 3 4 5 6 
#
# 1 78.6559 32.9229 41.2383 -0.0004 5.1270 0.0000
# 2 32.9229 85.8075 58.9075 -0.0033 -6.7261 0.0015
# 3 41.2383 58.9075 135.2741 -0.0011 -1.9320 0.0005
# 4 -0.0004 -0.0033 -0.0011 35.5425 0.0004 -5.1464
# 5 5.1270 -6.7261 -1.9320 0.0004 20.7076 0.0001
# 6 0.0000 0.0015 0.0005 -5.1464 0.0001 29.9618
#
#
#
# Elastic Compliance Matrix: (Units=1/GPa)
#
#
# Indices 1 2 3 4 5 6 
#
# 1 0.016723 -0.004745 -0.003117 0.000000 -0.005972 0.000000
# 2 -0.004745 0.018446 -0.006492 0.000001 0.006560 -0.000001
# 3 -0.003117 -0.006492 0.011166 0.000000 -0.000295 0.000000
# 4 0.000000 0.000001 0.000000 0.028853 0.000000 0.004956
# 5 -0.005972 0.006560 -0.000295 0.000000 0.051874 -0.000001
# 6 0.000000 -0.000001 0.000000 0.004956 -0.000001 0.034227
#
#
# Mechanical properties :
#
#
# Convention : Reuss Voigt Hill
#
# Bulk Modulus (GPa) = 56.73392 62.87498 59.80445
# Shear Modulus (GPa) = 25.52685 28.35363 26.94024
#
# Velocity S-wave (km/s) = 3.60829 3.80283 3.70683
# Velocity P-wave (km/s) = 6.80413 7.16595 6.98738
#
# Compressibility (1/GPa) = 0.01762614
#
# Stress axis : x y z
#
# Youngs Moduli (GPa) = 59.79731 54.21299 89.55975
#
# Poissons Ratio (x) = 0.25722 0.27918
# Poissons Ratio (y) = 0.28371 0.58146
# Poissons Ratio (z) = 0.18640 0.35198
#
# Static dielectric constant tensor:
#      x y z
#    x 3.337550 0.000000 0.088790 
#    y 0.000000 3.592470 0.000000 
#    z 0.088790 0.000000 3.567870 
# 
# 
# High freq. dielectric constant tensor:
#      x y z
#    x 1.734100 0.000000 0.006910 
#    y 0.000000 1.765220 0.000000 
#    z 0.006910 0.000000 1.765650 
# 
# From -- ./inp_files/280999.got.cif
#   From: 2010.06.25/outbox.cif.g09.slc.cpg/sg12_141_cif.got.tgz:280999.got - 2010.06.28 00:19:55.
