data_PCOD8095010
_publ_section_title
;
Structure prediction by ZEFSAII (Michael W. Deem and Ramdas Pophale) SiO2 
 PCOD8095010
Probable space group: C 2/M
;
_chemical_formula_sum "Si O2"
_cell_formula_units_Z 56
_cell_length_a 28.761368
_cell_length_b 9.259636
_cell_length_c 13.975266
_cell_angle_alpha 90.000000
_cell_angle_beta 119.307106
_cell_angle_gamma 90.000000
_cell_volume 3245.520003
_symmetry_space_group_name_H-M "C 2/M"
_symmetry_group_IT_number 12
_symmetry_cell_setting 'monoclinic'
loop_
_space_group_symop_operation_xyz
x,y,z
-x,y,-z
-x,-y,-z
x,-y,z
1/2+x,1/2+y,z
1/2-x,1/2+y,-z
1/2-x,1/2-y,-z
1/2+x,1/2-y,z
loop_
_atom_site_type_symbol
_atom_site_label
_atom_site_fract_x
_atom_site_fract_y
_atom_site_fract_z
Si Si1 0.320869 0.669026 0.000222
Si Si2 0.965293 0.830877 0.835012
Si Si3 0.870412 0.831442 0.619101
Si Si4 0.923019 0.828655 0.991652
Si Si5 0.717796 0.835073 0.388988
Si Si6 0.701020 0.831580 0.832462
Si Si7 0.683551 0.664468 0.630997
O O1 0.327803 0.500000 0.030157
O O2 0.325249 0.754804 0.103446
O O3 0.367679 0.731705 0.979120
O O4 0.264345 0.698974 0.892579
O O5 0.932809 0.797596 0.704059
O O6 0.933428 0.767569 0.895174
O O7 0.968247 0.000000 0.856280
O O8 0.026405 0.775043 0.892009
O O9 0.838956 0.745746 0.671760
O O10 0.853395 0.781658 0.495358
O O11 0.856655 0.000000 0.617175
O O12 0.918139 0.000000 0.986749
O O13 0.750000 0.750000 0.500000
O O14 0.753089 0.826304 0.328550
O O15 0.709023 0.000000 0.411666
O O16 0.672745 0.767173 0.709766
O O17 0.688177 0.000000 0.824757
O O18 0.668193 0.500000 0.641594
#
# Coordination Sequence:
#
# PCOD8095010 Si02
#       7
#     8   8   8   8   8   8   8
#     4   9  18  32  49  69  93 119 150 192 237 276
#     4   8  14  25  45  73  99 120 151 190 227 276
#     4   9  17  28  45  68  96 126 153 188 231 275
#     4   8  14  26  46  72  96 120 151 191 235 272
#     4   9  17  28  41  61  90 124 157 187 223 268
#     4  10  20  31  47  70  91 119 157 192 230 279
#     4   9  18  30  42  62  93 125 153 186 228 269
#
# _framework density 17.254555
#
# number of rings (size 3 to 8) (size 9 to 14) (size 15 to 20)
#    0.000    3.143    0.000    2.571    2.000    3.429 
#    0.000    0.000    0.000    1.714    0.000    8.000 
#    0.000    0.000    0.000    0.000    0.000    0.000 
#
# Total GULP energy -346876.721438 kJ/mol
# GULP energy per Si atom -12388.454337 kJ/mol
# Density = 1.721528 g / cm^3
# Si number density = 17.254555 Si / 1000 Ang^3
#
#
#
# Elastic Constant Matrix: (Units=GPa)
#
#
# Indices 1 2 3 4 5 6 
#
# 1 81.4198 11.7603 31.3387 0.0000 1.4050 0.0000
# 2 11.7603 44.9629 23.8869 0.0000 -6.2985 0.0000
# 3 31.3387 23.8869 100.9137 0.0000 1.5800 0.0000
# 4 0.0000 0.0000 0.0000 16.1682 0.0000 -4.9800
# 5 1.4050 -6.2985 1.5800 0.0000 20.0520 0.0000
# 6 0.0000 0.0000 0.0000 -4.9800 0.0000 18.4161
#
#
#
# Elastic Compliance Matrix: (Units=1/GPa)
#
#
# Indices 1 2 3 4 5 6 
#
# 1 0.014072 -0.001763 -0.003933 0.000000 -0.001230 0.000000
# 2 -0.001763 0.027186 -0.006031 0.000000 0.009138 0.000000
# 3 -0.003933 -0.006031 0.012599 0.000000 -0.002611 0.000000
# 4 0.000000 0.000000 0.000000 0.067469 0.000000 0.018245
# 5 -0.001230 0.009138 -0.002611 0.000000 0.053032 0.000000
# 6 0.000000 0.000000 0.000000 0.018245 0.000000 0.059234
#
#
# Mechanical properties :
#
#
# Convention : Reuss Voigt Hill
#
# Bulk Modulus (GPa) = 32.89197 40.14091 36.51644
# Shear Modulus (GPa) = 18.71388 21.61463 20.16426
#
# Velocity S-wave (km/s) = 3.29686 3.54318 3.42224
# Velocity P-wave (km/s) = 5.79625 6.32876 6.06835
#
# Compressibility (1/GPa) = 0.03040256
#
# Stress axis : x y z
#
# Youngs Moduli (GPa) = 71.06355 36.78417 79.36924
#
# Poissons Ratio (x) = 0.06486 0.31219
# Poissons Ratio (y) = 0.12530 0.47864
# Poissons Ratio (z) = 0.27952 0.22183
#
# Static dielectric constant tensor:
#      x y z
#    x 3.177600 0.000000 0.070040 
#    y 0.000000 3.151420 0.000000 
#    z 0.070040 0.000000 3.108520 
# 
# 
# High freq. dielectric constant tensor:
#      x y z
#    x 1.641520 0.000000 0.007280 
#    y 0.000000 1.639010 0.000000 
#    z 0.007280 0.000000 1.660850 
# 
# From -- ./inp_files/248583.got.cif
#   From: 2010.06.25/outbox.cif.g09.slc.cpg/sg12_125_cif.got.tgz:248583.got - 2010.06.28 00:19:55.
