data_PCOD8095849
_publ_section_title
;
Structure prediction by ZEFSAII (Michael W. Deem and Ramdas Pophale) SiO2 
 PCOD8095849
Probable space group: C 2/M
;
_chemical_formula_sum "Si O2"
_cell_formula_units_Z 64
_cell_length_a 22.426101
_cell_length_b 9.105429
_cell_length_c 17.257961
_cell_angle_alpha 90.000000
_cell_angle_beta 101.025836
_cell_angle_gamma 90.000000
_cell_volume 3459.012518
_symmetry_space_group_name_H-M "C 2/M"
_symmetry_group_IT_number 12
_symmetry_cell_setting 'monoclinic'
loop_
_space_group_symop_operation_xyz
x,y,z
-x,y,-z
-x,-y,-z
x,-y,z
1/2+x,1/2+y,z
1/2-x,1/2+y,-z
1/2-x,1/2-y,-z
1/2+x,1/2-y,z
loop_
_atom_site_type_symbol
_atom_site_label
_atom_site_fract_x
_atom_site_fract_y
_atom_site_fract_z
Si Si1 0.442439 0.326099 0.263108
Si Si2 0.592609 0.826487 0.044720
Si Si3 0.977295 0.826202 0.575845
Si Si4 0.728484 0.826512 0.072188
Si Si5 0.517062 0.173968 0.881046
Si Si6 0.340433 0.329036 0.531911
Si Si7 0.769139 0.671910 0.385416
Si Si8 0.803203 0.172700 0.241143
O O1 0.447280 0.500000 0.256331
O O2 0.480150 0.264149 0.345522
O O3 0.471894 0.255605 0.195572
O O4 0.372938 0.276325 0.255709
O O5 0.660737 0.768915 0.075377
O O6 0.548843 0.773956 0.103451
O O7 0.590284 0.000000 0.042911
O O8 0.567767 0.772345 0.955305
O O9 0.907692 0.779967 0.574037
O O10 0.000000 0.759130 0.500000
O O11 0.983946 0.000000 0.575322
O O12 0.772272 0.780056 0.153008
O O13 0.729248 0.000000 0.058678
O O14 0.750000 0.750000 0.000000
O O15 0.519823 0.000000 0.868263
O O16 0.338058 0.500000 0.508555
O O17 0.295888 0.292871 0.591976
O O18 0.322463 0.239937 0.450822
O O19 0.780864 0.500000 0.380516
O O20 0.768567 0.744241 0.301064
O O21 0.796849 0.000000 0.254397
#
# Coordination Sequence:
#
# PCOD8095849 Si02
#       8
#     8   8   8   8   8   8   8   8
#     4  10  20  33  50  74 100 126 162 206 247 288
#     4   8  16  32  52  72  97 131 167 198 237 295
#     4   9  17  31  52  72  93 128 166 196 235 290
#     4  10  20  34  52  74 100 132 169 208 250 295
#     4   9  17  32  53  73  96 130 166 199 241 293
#     4   9  18  34  54  75 100 130 164 201 244 294
#     4  10  20  33  52  77 102 129 163 203 245 290
#     4  10  21  35  51  72 101 135 167 201 246 299
#
# _framework density 18.502389999999998
#
# number of rings (size 3 to 8) (size 9 to 14) (size 15 to 20)
#    0.000    2.625    0.000    2.625    0.000    4.500 
#    0.000    2.500    0.000    1.500    0.000    0.000 
#    0.000    0.000    0.000    0.000    0.000    0.000 
#
# Total GULP energy -396806.206009 kJ/mol
# GULP energy per Si atom -12400.193938 kJ/mol
# Density = 1.846028 g / cm^3
# Si number density = 18.502390 Si / 1000 Ang^3
#
#
#
# Elastic Constant Matrix: (Units=GPa)
#
#
# Indices 1 2 3 4 5 6 
#
# 1 156.2752 32.5966 88.7979 0.0000 13.3587 0.0000
# 2 32.5966 33.6044 43.7848 0.0000 -1.7933 0.0000
# 3 88.7979 43.7848 171.2117 0.0000 -0.6552 0.0000
# 4 0.0000 0.0000 0.0000 34.5205 0.0000 -7.3430
# 5 13.3587 -1.7933 -0.6552 0.0000 32.0486 0.0000
# 6 0.0000 0.0000 0.0000 -7.3430 0.0000 18.1733
#
#
#
# Elastic Compliance Matrix: (Units=1/GPa)
#
#
# Indices 1 2 3 4 5 6 
#
# 1 0.010066 -0.004772 -0.004018 0.000000 -0.004545 0.000000
# 2 -0.004772 0.047056 -0.009542 0.000000 0.004427 0.000000
# 3 -0.004018 -0.009542 0.010370 0.000000 0.001353 0.000000
# 4 0.000000 0.000000 0.000000 0.031692 0.000000 0.012805
# 5 -0.004545 0.004427 0.001353 0.000000 0.033372 0.000000
# 6 0.000000 0.000000 0.000000 0.012805 0.000000 0.060200
#
#
# Mechanical properties :
#
#
# Convention : Reuss Voigt Hill
#
# Bulk Modulus (GPa) = 32.43743 76.82774 54.63259
# Shear Modulus (GPa) = 20.85995 30.00930 25.43463
#
# Velocity S-wave (km/s) = 3.36135 4.03167 3.71167
# Velocity P-wave (km/s) = 5.71266 7.95523 6.92532
#
# Compressibility (1/GPa) = 0.03082858
#
# Stress axis : x y z
#
# Youngs Moduli (GPa) = 99.34849 21.25149 96.43351
#
# Poissons Ratio (x) = 0.10140 0.38743
# Poissons Ratio (y) = 0.47404 0.92018
# Poissons Ratio (z) = 0.39914 0.20278
#
# Static dielectric constant tensor:
#      x y z
#    x 3.869000 0.000000 0.085950 
#    y 0.000000 3.083520 0.000000 
#    z 0.085950 0.000000 3.431560 
# 
# 
# High freq. dielectric constant tensor:
#      x y z
#    x 1.731330 0.000000 -0.002670 
#    y 0.000000 1.685330 0.000000 
#    z -0.002670 0.000000 1.723160 
# 
# From -- ./inp_files/281425.got.cif
#   From: 2010.06.25/outbox.cif.g09.slc.cpg/sg12_141_cif.got.tgz:281425.got - 2010.06.28 00:19:55.
