data_PCOD8095424
_publ_section_title
;
Structure prediction by ZEFSAII (Michael W. Deem and Ramdas Pophale) SiO2 
 PCOD8095424
Probable space group: C 2/M
;
_chemical_formula_sum "Si O2"
_cell_formula_units_Z 56
_cell_length_a 20.531800
_cell_length_b 9.432687
_cell_length_c 17.613197
_cell_angle_alpha 90.000000
_cell_angle_beta 123.403548
_cell_angle_gamma 90.000000
_cell_volume 2847.673851
_symmetry_space_group_name_H-M "C 2/M"
_symmetry_group_IT_number 12
_symmetry_cell_setting 'monoclinic'
loop_
_space_group_symop_operation_xyz
x,y,z
-x,y,-z
-x,-y,-z
x,-y,z
1/2+x,1/2+y,z
1/2-x,1/2+y,-z
1/2-x,1/2-y,-z
1/2+x,1/2-y,z
loop_
_atom_site_type_symbol
_atom_site_label
_atom_site_fract_x
_atom_site_fract_y
_atom_site_fract_z
Si Si1 0.140134 0.155282 0.399065
Si Si2 0.115231 0.830995 0.759795
Si Si3 0.490797 0.168899 0.762936
Si Si4 0.286324 0.246182 0.401948
Si Si5 0.228394 0.340694 0.208375
Si Si6 0.558096 0.831105 0.100966
Si Si7 0.926797 0.654629 0.402750
O O1 0.076189 0.274482 0.337357
O O2 0.214668 0.161019 0.391707
O O3 0.169744 0.165799 0.504546
O O4 0.101553 0.000000 0.364085
O O5 0.204974 0.777371 0.805098
O O6 0.071491 0.783429 0.655231
O O7 0.074228 0.744773 0.801398
O O8 0.108404 0.000000 0.766635
O O9 0.470481 0.215951 0.834810
O O10 0.497193 0.000000 0.757344
O O11 0.252968 0.343967 0.312758
O O12 0.349107 0.142466 0.403983
O O13 0.217526 0.500000 0.174644
O O14 0.144607 0.264297 0.142968
O O15 0.561210 0.000000 0.098781
O O16 0.500000 0.769004 0.000000
O O17 0.936070 0.500000 0.368492
O O18 0.000000 0.690350 0.500000
#
# Coordination Sequence:
#
# PCOD8095424 Si02
#       7
#     8   8   8   8   8   8   8
#     4  11  22  33  51  80 116 154 193 232 278 332
#     4  10  21  35  55  80 112 148 183 227 280 337
#     4  11  22  37  58  83 114 148 187 237 283 332
#     4  10  20  32  50  78 113 152 189 231 274 321
#     4   9  17  34  56  81 111 146 186 230 277 328
#     4   9  18  35  61  87 108 139 187 236 282 337
#     4  10  20  34  51  73 106 148 193 232 270 318
#
# _framework density 19.665172999999999
#
# number of rings (size 3 to 8) (size 9 to 14) (size 15 to 20)
#    0.000    2.000    1.429    2.571    0.000    4.857 
#    0.000    0.714    0.000    1.714    0.000    0.000 
#    0.000    0.000    0.000    0.000    0.000    0.000 
#
# Total GULP energy -346937.398057 kJ/mol
# GULP energy per Si atom -12390.621359 kJ/mol
# Density = 1.962041 g / cm^3
# Si number density = 19.665173 Si / 1000 Ang^3
#
#
#
# Elastic Constant Matrix: (Units=GPa)
#
#
# Indices 1 2 3 4 5 6 
#
# 1 147.3350 35.8032 62.7543 0.0000 13.8124 0.0000
# 2 35.8032 82.0290 20.7328 0.0000 2.4499 0.0000
# 3 62.7543 20.7328 95.3978 0.0000 19.8128 0.0000
# 4 0.0000 0.0000 0.0000 19.8959 0.0000 3.5632
# 5 13.8124 2.4499 19.8128 0.0000 19.8268 0.0000
# 6 0.0000 0.0000 0.0000 3.5632 0.0000 28.5061
#
#
#
# Elastic Compliance Matrix: (Units=1/GPa)
#
#
# Indices 1 2 3 4 5 6 
#
# 1 0.010039 -0.002890 -0.005802 0.000000 -0.000839 0.000000
# 2 -0.002890 0.013768 -0.001458 0.000000 0.001770 0.000000
# 3 -0.005802 -0.001458 0.017337 0.000000 -0.013103 0.000000
# 4 0.000000 0.000000 0.000000 0.051412 0.000000 -0.006426
# 5 -0.000839 0.001770 -0.013103 0.000000 0.063896 0.000000
# 6 0.000000 0.000000 0.000000 -0.006426 0.000000 0.035884
#
#
# Mechanical properties :
#
#
# Convention : Reuss Voigt Hill
#
# Bulk Modulus (GPa) = 47.97608 62.59359 55.28483
# Shear Modulus (GPa) = 22.77014 27.34386 25.05700
#
# Velocity S-wave (km/s) = 3.40647 3.73295 3.57344
# Velocity P-wave (km/s) = 6.31835 7.10483 6.72310
#
# Compressibility (1/GPa) = 0.02084372
#
# Stress axis : x y z
#
# Youngs Moduli (GPa) = 99.60748 72.63129 57.67996
#
# Poissons Ratio (x) = 0.20994 0.33464
# Poissons Ratio (y) = 0.28791 0.08412
# Poissons Ratio (z) = 0.57788 0.10592
#
# Static dielectric constant tensor:
#      x y z
#    x 4.093520 0.000000 0.135150 
#    y 0.000000 3.273340 0.000000 
#    z 0.135150 0.000000 3.461440 
# 
# 
# High freq. dielectric constant tensor:
#      x y z
#    x 1.792890 0.000000 0.004970 
#    y 0.000000 1.739300 0.000000 
#    z 0.004970 0.000000 1.734230 
# 
# From -- ./inp_files/281633.got.cif
#   From: 2010.06.25/outbox.cif.g09.slc.cpg/sg12_141_cif.got.tgz:281633.got - 2010.06.28 00:19:55.
