data_PCOD8095055
_publ_section_title
;
Structure prediction by ZEFSAII (Michael W. Deem and Ramdas Pophale) SiO2 
 PCOD8095055
Probable space group: C 2/M
;
_chemical_formula_sum "Si O2"
_cell_formula_units_Z 48
_cell_length_a 21.125377
_cell_length_b 14.060802
_cell_length_c 13.141887
_cell_angle_alpha 90.000000
_cell_angle_beta 41.416559
_cell_angle_gamma 90.000000
_cell_volume 2582.384651
_symmetry_space_group_name_H-M "C 2/M"
_symmetry_group_IT_number 12
_symmetry_cell_setting 'monoclinic'
loop_
_space_group_symop_operation_xyz
x,y,z
-x,y,-z
-x,-y,-z
x,-y,z
1/2+x,1/2+y,z
1/2-x,1/2+y,-z
1/2-x,1/2-y,-z
1/2+x,1/2-y,z
loop_
_atom_site_type_symbol
_atom_site_label
_atom_site_fract_x
_atom_site_fract_y
_atom_site_fract_z
Si Si1 0.039592 0.731731 0.691751
Si Si2 0.761011 0.760092 0.606116
Si Si3 0.909940 0.612118 0.179428
Si Si4 0.258827 0.394846 0.214397
Si Si5 0.924773 0.608585 0.681022
Si Si6 0.527705 0.393484 0.079499
O O1 0.124406 0.768576 0.513569
O O2 0.073078 0.648176 0.726989
O O3 0.953495 0.685181 0.732061
O O4 0.012918 0.824321 0.787086
O O5 0.750000 0.750000 0.500000
O O6 0.692299 0.843131 0.734741
O O7 0.727641 0.663497 0.699013
O O8 0.897070 0.500000 0.194125
O O9 0.000000 0.642914 0.000000
O O10 0.226809 0.500000 0.287345
O O11 0.178168 0.355099 0.235138
O O12 0.359414 0.395638 0.036047
O O13 0.918562 0.500000 0.732156
O O14 0.000000 0.611345 0.500000
O O15 0.484837 0.500000 0.145443
O O16 0.500000 0.356388 0.000000
#
# Coordination Sequence:
#
# PCOD8095055 Si02
#       6
#     8   8   8   8   8   8
#     4  11  20  34  57  83 110 141 182 229 278 328
#     4  10  20  31  51  80 105 137 177 223 275 328
#     4  10  21  36  53  77 111 145 178 223 279 334
#     4  10  20  36  57  80 109 144 186 230 273 322
#     4  10  20  35  56  83 112 144 185 233 277 320
#     4  10  21  37  57  82 114 149 184 226 275 330
#
# _framework density 18.587468999999999
#
# number of rings (size 3 to 8) (size 9 to 14) (size 15 to 20)
#    0.000    1.833    1.667    4.000    0.000    4.000 
#    0.000    0.000    0.000    1.500    0.000    0.000 
#    0.000    0.000    0.000    0.000    0.000    0.000 
#
# Total GULP energy -297421.836239 kJ/mol
# GULP energy per Si atom -12392.576510 kJ/mol
# Density = 1.854516 g / cm^3
# Si number density = 18.587469 Si / 1000 Ang^3
#
#
#
# Elastic Constant Matrix: (Units=GPa)
#
#
# Indices 1 2 3 4 5 6 
#
# 1 89.4697 44.6725 22.3569 0.0000 -14.1115 0.0000
# 2 44.6725 111.2266 51.0276 0.0000 1.5765 0.0000
# 3 22.3569 51.0276 85.1131 0.0000 -14.3233 0.0000
# 4 0.0000 0.0000 0.0000 21.1328 0.0000 -0.2639
# 5 -14.1115 1.5765 -14.3233 0.0000 29.7998 0.0000
# 6 0.0000 0.0000 0.0000 -0.2639 0.0000 34.6273
#
#
#
# Elastic Compliance Matrix: (Units=1/GPa)
#
#
# Indices 1 2 3 4 5 6 
#
# 1 0.015711 -0.007176 0.001623 0.000000 0.008600 0.000000
# 2 -0.007176 0.016288 -0.009354 0.000000 -0.008756 0.000000
# 3 0.001623 -0.009354 0.018652 0.000000 0.010228 0.000000
# 4 0.000000 0.000000 0.000000 0.047324 0.000000 0.000361
# 5 0.008600 -0.008756 0.010228 0.000000 0.043009 0.000000
# 6 0.000000 0.000000 0.000000 0.000361 0.000000 0.028882
#
#
# Mechanical properties :
#
#
# Convention : Reuss Voigt Hill
#
# Bulk Modulus (GPa) = 47.99279 57.99149 52.99214
# Shear Modulus (GPa) = 24.19825 28.29548 26.24686
#
# Velocity S-wave (km/s) = 3.61204 3.90588 3.76183
# Velocity P-wave (km/s) = 6.57813 7.18388 6.88767
#
# Compressibility (1/GPa) = 0.02083646
#
# Stress axis : x y z
#
# Youngs Moduli (GPa) = 63.64947 61.39374 53.61391
#
# Poissons Ratio (x) = 0.44059 -0.08701
# Poissons Ratio (y) = 0.45678 0.50149
# Poissons Ratio (z) = -0.10329 0.57426
#
# Static dielectric constant tensor:
#      x y z
#    x 3.677790 0.000000 -0.460770 
#    y 0.000000 3.515820 0.000000 
#    z -0.460770 0.000000 3.628480 
# 
# 
# High freq. dielectric constant tensor:
#      x y z
#    x 1.709510 0.000000 -0.024460 
#    y 0.000000 1.719730 0.000000 
#    z -0.024460 0.000000 1.719860 
# 
# From -- ./inp_files/167545.got.cif
#   From: 2010.06.25/outbox.cif.g09.slc.cpg/sg12_84_cif.got.tgz:167545.got - 2010.06.28 00:19:55.
