data_PCOD8095545
_publ_section_title
;
Structure prediction by ZEFSAII (Michael W. Deem and Ramdas Pophale) SiO2 
 PCOD8095545
Probable space group: C 2/M
;
_chemical_formula_sum "Si O2"
_cell_formula_units_Z 48
_cell_length_a 24.130437
_cell_length_b 12.059030
_cell_length_c 15.379836
_cell_angle_alpha 90.000000
_cell_angle_beta 144.203011
_cell_angle_gamma 90.000000
_cell_volume 2617.713206
_symmetry_space_group_name_H-M "C 2/M"
_symmetry_group_IT_number 12
_symmetry_cell_setting 'monoclinic'
loop_
_space_group_symop_operation_xyz
x,y,z
-x,y,-z
-x,-y,-z
x,-y,z
1/2+x,1/2+y,z
1/2-x,1/2+y,-z
1/2-x,1/2-y,-z
1/2+x,1/2-y,z
loop_
_atom_site_type_symbol
_atom_site_label
_atom_site_fract_x
_atom_site_fract_y
_atom_site_fract_z
Si Si1 0.713300 0.278283 0.335667
Si Si2 0.907783 0.630199 0.329200
Si Si3 0.374148 0.869150 0.637777
Si Si4 0.292554 0.287381 0.873229
Si Si5 0.915437 0.628552 0.138115
Si Si6 0.387683 0.500000 0.771958
Si Si7 0.905086 0.000000 0.000247
O O1 0.672060 0.169277 0.330060
O O2 0.824849 0.299365 0.496512
O O3 0.691682 0.259694 0.207645
O O4 0.666255 0.387115 0.320238
O O5 0.890169 0.500000 0.320523
O O6 0.818159 0.695822 0.251893
O O7 0.921446 0.662477 0.246425
O O8 0.000000 0.668785 0.500000
O O9 0.485165 0.840156 0.780249
O O10 0.358656 0.000000 0.603538
O O11 0.329429 0.188497 0.980132
O O12 0.353585 0.394699 0.976855
O O13 0.892745 0.500000 0.100060
O O14 0.483586 0.500000 0.836927
O O15 0.398797 0.500000 0.889128
#
# Coordination Sequence:
#
# PCOD8095545 Si02
#       7
#     8   8   8   8   8   4   4
#     4  10  20  32  55  78 107 148 181 225 270 319
#     4  10  20  36  60  85 107 138 182 228 275 322
#     4  10  20  36  53  79 112 145 186 222 267 321
#     4  11  20  35  54  82 112 140 180 226 275 321
#     4  10  22  36  55  81 112 146 179 223 270 326
#     4   9  16  30  46  74 106 133 178 218 261 315
#     4   9  18  28  49  76 105 138 167 219 271 311
#
# _framework density 18.336615999999999
#
# number of rings (size 3 to 8) (size 9 to 14) (size 15 to 20)
#    0.000    2.000    1.667    2.500    0.000    4.000 
#    0.000    1.667    0.000    0.500    0.000    0.000 
#    0.000    0.000    0.000    0.000    0.000    0.000 
#
# Total GULP energy -297593.551990 kJ/mol
# GULP energy per Si atom -12399.731333 kJ/mol
# Density = 1.829488 g / cm^3
# Si number density = 18.336616 Si / 1000 Ang^3
#
#
#
# Elastic Constant Matrix: (Units=GPa)
#
#
# Indices 1 2 3 4 5 6 
#
# 1 83.1120 36.1980 54.8150 0.0000 4.0685 0.0000
# 2 36.1980 46.8650 39.1776 0.0000 -2.1860 0.0000
# 3 54.8150 39.1776 124.6344 0.0000 2.9624 0.0000
# 4 0.0000 0.0000 0.0000 34.0486 0.0000 1.7005
# 5 4.0685 -2.1860 2.9624 0.0000 37.8989 0.0000
# 6 0.0000 0.0000 0.0000 1.7005 0.0000 22.9701
#
#
#
# Elastic Compliance Matrix: (Units=1/GPa)
#
#
# Indices 1 2 3 4 5 6 
#
# 1 0.020808 -0.011647 -0.005431 0.000000 -0.002481 0.000000
# 2 -0.011647 0.035680 -0.006183 0.000000 0.003792 0.000000
# 3 -0.005431 -0.006183 0.012374 0.000000 -0.000741 0.000000
# 4 0.000000 0.000000 0.000000 0.029479 0.000000 -0.002182
# 5 -0.002481 0.003792 -0.000741 0.000000 0.026929 0.000000
# 6 0.000000 0.000000 0.000000 -0.002182 0.000000 0.043696
#
#
# Mechanical properties :
#
#
# Convention : Reuss Voigt Hill
#
# Bulk Modulus (GPa) = 44.76708 57.22139 50.99423
# Shear Modulus (GPa) = 22.42796 27.27826 24.85311
#
# Velocity S-wave (km/s) = 3.50111 3.86118 3.68554
# Velocity P-wave (km/s) = 6.38833 7.15207 6.78096
#
# Compressibility (1/GPa) = 0.02233784
#
# Stress axis : x y z
#
# Youngs Moduli (GPa) = 48.05736 28.02689 80.81784
#
# Poissons Ratio (x) = 0.32644 0.43896
# Poissons Ratio (y) = 0.55974 0.49971
# Poissons Ratio (z) = 0.26102 0.17330
#
# Static dielectric constant tensor:
#      x y z
#    x 3.292100 0.000000 0.148040 
#    y 0.000000 3.244290 0.000000 
#    z 0.148040 0.000000 3.424370 
# 
# 
# High freq. dielectric constant tensor:
#      x y z
#    x 1.703760 0.000000 0.011400 
#    y 0.000000 1.695800 0.000000 
#    z 0.011400 0.000000 1.718450 
# 
# From -- ./inp_files/232895.got.cif
#   From: 2010.06.25/outbox.cif.g09.slc.cpg/sg12_117_cif.got.tgz:232895.got - 2010.06.28 00:19:55.
