data_PCOD8095475
_publ_section_title
;
Structure prediction by ZEFSAII (Michael W. Deem and Ramdas Pophale) SiO2 
 PCOD8095475
Probable space group: C 2/M
;
_chemical_formula_sum "Si O2"
_cell_formula_units_Z 64
_cell_length_a 12.410100
_cell_length_b 13.180819
_cell_length_c 27.427847
_cell_angle_alpha 90.000000
_cell_angle_beta 47.387538
_cell_angle_gamma 90.000000
_cell_volume 3301.852092
_symmetry_space_group_name_H-M "C 2/M"
_symmetry_group_IT_number 12
_symmetry_cell_setting 'monoclinic'
loop_
_space_group_symop_operation_xyz
x,y,z
-x,y,-z
-x,-y,-z
x,-y,z
1/2+x,1/2+y,z
1/2-x,1/2+y,-z
1/2-x,1/2-y,-z
1/2+x,1/2-y,z
loop_
_atom_site_type_symbol
_atom_site_label
_atom_site_fract_x
_atom_site_fract_y
_atom_site_fract_z
Si Si1 0.136133 0.384368 0.109318
Si Si2 0.167439 0.213296 0.453542
Si Si3 0.853590 0.884307 0.437799
Si Si4 0.692494 0.616522 0.343770
Si Si5 0.875992 0.116749 0.960489
Si Si6 0.354542 0.615096 0.852898
Si Si7 0.683696 0.708757 0.864999
Si Si8 0.385084 0.253141 0.215202
O O1 0.097124 0.500000 0.112490
O O2 0.208581 0.368478 0.140253
O O3 0.985909 0.323205 0.152823
O O4 0.242123 0.341985 0.034298
O O5 0.191877 0.143437 0.493249
O O6 0.268241 0.313360 0.425660
O O7 0.213205 0.144822 0.393822
O O8 0.000000 0.249921 0.500000
O O9 0.026284 0.869251 0.377384
O O10 0.807569 0.000000 0.441823
O O11 0.743238 0.500000 0.320687
O O12 0.789237 0.693729 0.283286
O O13 0.833405 0.124953 0.917136
O O14 0.017612 0.182897 0.930422
O O15 0.909771 0.000000 0.964099
O O16 0.350122 0.500000 0.835584
O O17 0.222378 0.675680 0.868228
O O18 0.512400 0.663529 0.789349
O O19 0.711389 0.694229 0.798081
#
# Coordination Sequence:
#
# PCOD8095475 Si02
#       8
#     8   8   8   8   8   8   8   8
#     4  10  20  34  53  76 100 129 170 218 268 320
#     4   9  18  34  57  84 113 145 181 217 256 304
#     4   9  18  33  57  87 115 143 176 218 262 303
#     4  10  20  36  56  77 106 143 180 214 256 308
#     4   9  18  34  54  75  99 128 166 216 273 327
#     4   9  20  37  54  73 101 136 171 214 269 324
#     4  10  20  32  52  74  96 128 169 214 262 313
#     4  10  22  36  51  73 103 137 175 216 255 306
#
# _framework density 19.383061000000001
#
# number of rings (size 3 to 8) (size 9 to 14) (size 15 to 20)
#    0.000    2.500    0.000    1.500    0.000   11.750 
#    0.000    1.875    0.000   12.000    0.000    0.000 
#    0.000    0.000    0.000    0.000    0.000    0.000 
#
# Total GULP energy -396770.751610 kJ/mol
# GULP energy per Si atom -12399.085988 kJ/mol
# Density = 1.933894 g / cm^3
# Si number density = 19.383061 Si / 1000 Ang^3
#
#
#
# Elastic Constant Matrix: (Units=GPa)
#
#
# Indices 1 2 3 4 5 6 
#
# 1 60.3990 9.0344 12.7861 0.0000 -3.3577 0.0000
# 2 9.0344 90.2143 28.6938 0.0000 -13.6940 0.0000
# 3 12.7861 28.6938 87.9248 0.0001 0.2136 0.0000
# 4 0.0000 0.0000 0.0001 32.3597 0.0000 -1.7577
# 5 -3.3577 -13.6940 0.2136 0.0000 16.5137 0.0000
# 6 0.0000 0.0000 0.0000 -1.7577 0.0000 32.5063
#
#
#
# Elastic Compliance Matrix: (Units=1/GPa)
#
#
# Indices 1 2 3 4 5 6 
#
# 1 0.017306 -0.000508 -0.002358 0.000000 0.003128 0.000000
# 2 -0.000508 0.014429 -0.004664 0.000000 0.011922 0.000000
# 3 -0.002358 -0.004664 0.013249 0.000000 -0.004518 0.000000
# 4 0.000000 0.000000 0.000000 0.030994 0.000000 0.001676
# 5 0.003128 0.011922 -0.004518 0.000000 0.071136 0.000000
# 6 0.000000 0.000000 0.000000 0.001676 0.000000 0.030854
#
#
# Mechanical properties :
#
#
# Convention : Reuss Voigt Hill
#
# Bulk Modulus (GPa) = 33.41908 37.72964 35.57436
# Shear Modulus (GPa) = 24.63022 28.81086 26.72054
#
# Velocity S-wave (km/s) = 3.56857 3.85956 3.71691
# Velocity P-wave (km/s) = 5.85307 6.27448 6.06743
#
# Compressibility (1/GPa) = 0.02992303
#
# Stress axis : x y z
#
# Youngs Moduli (GPa) = 57.78442 69.30640 75.47578
#
# Poissons Ratio (x) = 0.03522 0.17800
# Poissons Ratio (y) = 0.02936 0.35200
# Poissons Ratio (z) = 0.13628 0.32323
#
# Static dielectric constant tensor:
#      x y z
#    x 3.569810 0.000000 -0.008720 
#    y 0.000000 3.726640 0.000000 
#    z -0.008720 0.000000 3.363060 
# 
# 
# High freq. dielectric constant tensor:
#      x y z
#    x 1.755780 0.000000 0.000870 
#    y 0.000000 1.761300 0.000000 
#    z 0.000870 0.000000 1.732580 
# 
# From -- ./inp_files/358432.got.cif
#   From: 2010.06.25/outbox.cif.g09.slc.cpg/sg12_180_cif.got.tgz:358432.got - 2010.06.28 00:19:55.
