data_PCOD8095463
_publ_section_title
;
Structure prediction by ZEFSAII (Michael W. Deem and Ramdas Pophale) SiO2 
 PCOD8095463
Probable space group: C 2/M
;
_chemical_formula_sum "Si O2"
_cell_formula_units_Z 56
_cell_length_a 23.072029
_cell_length_b 8.679064
_cell_length_c 18.998882
_cell_angle_alpha 90.000000
_cell_angle_beta 126.288541
_cell_angle_gamma 90.000000
_cell_volume 3066.527840
_symmetry_space_group_name_H-M "C 2/M"
_symmetry_group_IT_number 12
_symmetry_cell_setting 'monoclinic'
loop_
_space_group_symop_operation_xyz
x,y,z
-x,y,-z
-x,-y,-z
x,-y,z
1/2+x,1/2+y,z
1/2-x,1/2+y,-z
1/2-x,1/2-y,-z
1/2+x,1/2-y,z
loop_
_atom_site_type_symbol
_atom_site_label
_atom_site_fract_x
_atom_site_fract_y
_atom_site_fract_z
Si Si1 0.957912 0.682511 0.307137
Si Si2 0.046402 0.819788 0.101334
Si Si3 0.152785 0.175734 0.669047
Si Si4 0.193869 0.678247 0.165481
Si Si5 0.447856 0.181601 0.140085
Si Si6 0.696715 0.317719 0.018698
Si Si7 0.565884 0.829978 0.494238
O O1 0.959225 0.500000 0.311333
O O2 0.886391 0.733926 0.296372
O O3 0.956622 0.741063 0.226216
O O4 0.031688 0.742730 0.398002
O O5 0.129212 0.779470 0.148924
O O6 0.019930 0.721469 0.149220
O O7 0.038419 0.000000 0.111560
O O8 0.000000 0.771762 0.000000
O O9 0.238212 0.200969 0.734425
O O10 0.128482 0.226784 0.573239
O O11 0.131259 0.000000 0.664439
O O12 0.170494 0.500000 0.143480
O O13 0.217724 0.739108 0.106756
O O14 0.384747 0.277849 0.058753
O O15 0.431209 0.000000 0.125047
O O16 0.706325 0.500000 0.031592
O O17 0.750000 0.250000 0.000000
O O18 0.500000 0.842056 0.500000
O O19 0.598235 0.000000 0.503537
#
# Coordination Sequence:
#
# PCOD8095463 Si02
#       7
#     8   8   8   8   8   8   8
#     4   9  19  34  53  80 110 143 179 212 260 322
#     4  11  23  39  58  80 104 137 183 229 268 317
#     4  10  20  32  51  82 112 139 176 219 265 315
#     4  11  23  38  56  78 106 142 181 223 268 317
#     4  11  22  37  58  80 106 141 179 223 269 316
#     4  12  24  37  53  78 110 142 177 217 265 321
#     4   8  15  30  51  75 107 143 176 211 257 318
#
# _framework density 18.261696000000001
#
# number of rings (size 3 to 8) (size 9 to 14) (size 15 to 20)
#    0.000    1.714    1.429    4.714    0.000    8.857 
#    0.000    0.000    0.000    0.857    0.000    0.000 
#    0.000    0.000    0.000    0.000    0.000    0.000 
#
# Total GULP energy -347219.281268 kJ/mol
# GULP energy per Si atom -12400.688617 kJ/mol
# Density = 1.822013 g / cm^3
# Si number density = 18.261696 Si / 1000 Ang^3
#
#
#
# Elastic Constant Matrix: (Units=GPa)
#
#
# Indices 1 2 3 4 5 6 
#
# 1 67.9315 8.0455 16.0971 0.0000 8.7944 0.0000
# 2 8.0455 44.2280 31.3913 0.0000 5.8720 0.0000
# 3 16.0971 31.3913 95.4705 0.0000 15.2640 0.0000
# 4 0.0000 0.0000 0.0000 29.0448 0.0000 3.2530
# 5 8.7944 5.8720 15.2640 0.0000 20.5840 0.0000
# 6 0.0000 0.0000 0.0000 3.2530 0.0000 28.6754
#
#
#
# Elastic Compliance Matrix: (Units=1/GPa)
#
#
# Indices 1 2 3 4 5 6 
#
# 1 0.015897 -0.001155 -0.001438 0.000000 -0.005396 0.000000
# 2 -0.001155 0.029612 -0.009383 0.000000 -0.000996 0.000000
# 3 -0.001438 -0.009383 0.015061 0.000000 -0.007878 0.000000
# 4 0.000000 0.000000 0.000000 0.034873 0.000000 -0.003956
# 5 -0.005396 -0.000996 -0.007878 0.000000 0.057013 0.000000
# 6 0.000000 0.000000 0.000000 -0.003956 0.000000 0.035322
#
#
# Mechanical properties :
#
#
# Convention : Reuss Voigt Hill
#
# Bulk Modulus (GPa) = 27.30774 35.41084 31.35929
# Shear Modulus (GPa) = 22.32796 25.80059 24.06428
#
# Velocity S-wave (km/s) = 3.50046 3.76283 3.63402
# Velocity P-wave (km/s) = 5.59675 6.18962 5.90064
#
# Compressibility (1/GPa) = 0.03661966
#
# Stress axis : x y z
#
# Youngs Moduli (GPa) = 62.90579 33.77027 66.39470
#
# Poissons Ratio (x) = 0.03900 0.09547
# Poissons Ratio (y) = 0.07264 0.62295
# Poissons Ratio (z) = 0.09045 0.31685
#
# Static dielectric constant tensor:
#      x y z
#    x 3.195550 0.000000 -0.039320 
#    y 0.000000 3.403980 0.000000 
#    z -0.039320 0.000000 3.848110 
# 
# 
# High freq. dielectric constant tensor:
#      x y z
#    x 1.682120 0.000000 0.005070 
#    y 0.000000 1.714770 0.000000 
#    z 0.005070 0.000000 1.715210 
# 
# From -- ./inp_files/281606.got.cif
#   From: 2010.06.25/outbox.cif.g09.slc.cpg/sg12_141_cif.got.tgz:281606.got - 2010.06.28 00:19:55.
