data_PCOD8095231
_publ_section_title
;
Structure prediction by ZEFSAII (Michael W. Deem and Ramdas Pophale) SiO2 
 PCOD8095231
Probable space group: C 2/M
;
_chemical_formula_sum "Si O2"
_cell_formula_units_Z 56
_cell_length_a 21.842950
_cell_length_b 9.600393
_cell_length_c 25.170526
_cell_angle_alpha 90.000000
_cell_angle_beta 40.073627
_cell_angle_gamma 90.000000
_cell_volume 3398.007411
_symmetry_space_group_name_H-M "C 2/M"
_symmetry_group_IT_number 12
_symmetry_cell_setting 'monoclinic'
loop_
_space_group_symop_operation_xyz
x,y,z
-x,y,-z
-x,-y,-z
x,-y,z
1/2+x,1/2+y,z
1/2-x,1/2+y,-z
1/2-x,1/2-y,-z
1/2+x,1/2-y,z
loop_
_atom_site_type_symbol
_atom_site_label
_atom_site_fract_x
_atom_site_fract_y
_atom_site_fract_z
Si Si1 0.310351 0.659171 0.390027
Si Si2 0.476999 0.838723 0.576020
Si Si3 0.236188 0.339584 0.251970
Si Si4 0.403277 0.659821 0.220375
Si Si5 0.482457 0.843206 0.926207
Si Si6 0.345970 0.157063 0.105478
Si Si7 0.631853 0.337949 0.529790
O O1 0.272603 0.500000 0.408981
O O2 0.385355 0.694461 0.293960
O O3 0.364725 0.679885 0.409120
O O4 0.222121 0.763518 0.443047
O O5 0.500000 0.805377 0.500000
O O6 0.367838 0.800547 0.658614
O O7 0.537133 0.737938 0.573579
O O8 0.499249 0.000000 0.574747
O O9 0.244355 0.500000 0.230973
O O10 0.307794 0.300240 0.251875
O O11 0.260416 0.255003 0.182068
O O12 0.429790 0.500000 0.193915
O O13 0.494667 0.746319 0.139478
O O14 0.568929 0.834317 0.909448
O O15 0.469441 0.000000 0.913902
O O16 0.386549 0.794730 0.020868
O O17 0.306941 0.000000 0.127513
O O18 0.631275 0.500000 0.513446
#
# Coordination Sequence:
#
# PCOD8095231 Si02
#       7
#     8   8   8   8   8   8   8
#     4   9  18  33  49  65  90 120 147 180 225 269
#     4  10  20  34  49  64  89 123 151 180 223 268
#     4   9  17  27  42  64  86 114 151 181 209 255
#     4   9  16  27  44  65  88 115 146 178 214 258
#     4   8  14  24  38  59  87 116 143 172 213 261
#     4   8  14  25  39  56  85 120 144 170 214 261
#     4  10  20  32  48  69  89 114 151 189 221 258
#
# _framework density 16.480246999999999
#
# number of rings (size 3 to 8) (size 9 to 14) (size 15 to 20)
#    0.000    3.000    0.000    2.143    0.000    4.857 
#    0.000    5.714    0.000    0.000    0.000    1.000 
#    0.000    0.000    0.000    0.000    0.000    0.000 
#
# Total GULP energy -347118.289781 kJ/mol
# GULP energy per Si atom -12397.081778 kJ/mol
# Density = 1.644274 g / cm^3
# Si number density = 16.480247 Si / 1000 Ang^3
#
#
#
# Elastic Constant Matrix: (Units=GPa)
#
#
# Indices 1 2 3 4 5 6 
#
# 1 37.9859 32.7729 33.4589 0.0000 0.7373 0.0002
# 2 32.7729 87.0079 75.6410 0.0000 2.9616 0.0005
# 3 33.4589 75.6410 159.7904 0.0000 7.3063 0.0000
# 4 0.0000 0.0000 0.0000 33.5605 0.0000 -1.2967
# 5 0.7373 2.9616 7.3063 0.0000 17.3081 -0.0001
# 6 0.0002 0.0005 0.0000 -1.2967 -0.0001 21.8244
#
#
#
# Elastic Compliance Matrix: (Units=1/GPa)
#
#
# Indices 1 2 3 4 5 6 
#
# 1 0.039439 -0.013030 -0.002157 0.000000 0.001460 0.000000
# 2 -0.013030 0.023841 -0.008562 0.000000 0.000090 0.000000
# 3 -0.002157 -0.008562 0.010902 0.000000 -0.003045 0.000000
# 4 0.000000 0.000000 0.000000 0.029865 0.000000 0.001774
# 5 0.001460 0.000090 -0.003045 0.000000 0.058985 0.000000
# 6 0.000000 0.000000 0.000000 0.001774 0.000000 0.045926
#
#
# Mechanical properties :
#
#
# Convention : Reuss Voigt Hill
#
# Bulk Modulus (GPa) = 37.47394 63.16995 50.32194
# Shear Modulus (GPa) = 18.84311 24.06603 21.45457
#
# Velocity S-wave (km/s) = 3.38505 3.82553 3.61201
# Velocity P-wave (km/s) = 6.16978 7.61097 6.92795
#
# Compressibility (1/GPa) = 0.02668521
#
# Stress axis : x y z
#
# Youngs Moduli (GPa) = 25.35579 41.94447 91.72687
#
# Poissons Ratio (x) = 0.54652 0.19785
# Poissons Ratio (y) = 0.33038 0.78533
# Poissons Ratio (z) = 0.05469 0.35911
#
# Static dielectric constant tensor:
#      x y z
#    x 2.717240 0.000000 0.099430 
#    y 0.000000 3.220030 0.000000 
#    z 0.099430 0.000000 3.389240 
# 
# 
# High freq. dielectric constant tensor:
#      x y z
#    x 1.583720 0.000000 0.008350 
#    y 0.000000 1.637670 0.000000 
#    z 0.008350 0.000000 1.644750 
# 
# From -- ./inp_files/348492.got.cif
#   From: 2010.06.25/outbox.cif.g09.slc.cpg/sg12_175_cif.got.tgz:348492.got - 2010.06.28 00:19:55.
