data_PCOD8095640
_publ_section_title
;
Structure prediction by ZEFSAII (Michael W. Deem and Ramdas Pophale) SiO2 
 PCOD8095640
Probable space group: C 2/M
;
_chemical_formula_sum "Si O2"
_cell_formula_units_Z 56
_cell_length_a 33.070404
_cell_length_b 9.238500
_cell_length_c 12.174159
_cell_angle_alpha 90.000000
_cell_angle_beta 123.562887
_cell_angle_gamma 90.000000
_cell_volume 3099.350141
_symmetry_space_group_name_H-M "C 2/M"
_symmetry_group_IT_number 12
_symmetry_cell_setting 'monoclinic'
loop_
_space_group_symop_operation_xyz
x,y,z
-x,y,-z
-x,-y,-z
x,-y,z
1/2+x,1/2+y,z
1/2-x,1/2+y,-z
1/2-x,1/2-y,-z
1/2+x,1/2-y,z
loop_
_atom_site_type_symbol
_atom_site_label
_atom_site_fract_x
_atom_site_fract_y
_atom_site_fract_z
Si Si1 0.376663 0.671387 0.038224
Si Si2 0.747906 0.335808 0.670099
Si Si3 0.284177 0.833687 0.969243
Si Si4 0.047170 0.668431 0.713810
Si Si5 0.936666 0.667488 0.510169
Si Si6 0.339092 0.666497 0.747750
Si Si7 0.859051 0.168134 0.537751
O O1 0.373367 0.500000 0.052793
O O2 0.428004 0.731836 0.156811
O O3 0.335489 0.751919 0.046551
O O4 0.371078 0.713068 0.901097
O O5 0.749771 0.500000 0.630193
O O6 0.758815 0.324733 0.814385
O O7 0.788115 0.249268 0.662345
O O8 0.694495 0.270365 0.569788
O O9 0.292029 0.000000 0.018150
O O10 0.250000 0.750000 0.000000
O O11 0.057038 0.500000 0.753723
O O12 0.067668 0.709810 0.624384
O O13 0.990271 0.703187 0.634260
O O14 0.925051 0.500000 0.508092
O O15 0.898571 0.754727 0.523763
O O16 0.324541 0.500000 0.736131
O O17 0.369880 0.696210 0.683368
O O18 0.861605 0.000000 0.511672
#
# Coordination Sequence:
#
# PCOD8095640 Si02
#       7
#     8   8   8   8   8   8   8
#     4  10  20  34  54  77 102 138 178 211 257 314
#     4   9  19  33  50  74 104 138 176 216 254 299
#     4  10  20  33  48  73 108 140 174 216 259 305
#     4   9  19  38  58  77 104 134 169 216 266 315
#     4   9  20  37  56  79 104 132 170 215 265 318
#     4   9  19  35  52  75 107 141 175 212 254 306
#     4  10  20  34  53  78 108 137 172 218 261 301
#
# _framework density 18.068303
#
# number of rings (size 3 to 8) (size 9 to 14) (size 15 to 20)
#    0.000    2.571    0.000    2.143    2.000    3.429 
#    0.000    2.143    0.000    4.286    0.000    0.000 
#    0.000    0.000    0.000    0.000    0.000    0.000 
#
# Total GULP energy -347201.789941 kJ/mol
# GULP energy per Si atom -12400.063926 kJ/mol
# Density = 1.802718 g / cm^3
# Si number density = 18.068303 Si / 1000 Ang^3
#
#
#
# Elastic Constant Matrix: (Units=GPa)
#
#
# Indices 1 2 3 4 5 6 
#
# 1 111.9941 52.5750 50.8887 0.0000 -1.5588 0.0000
# 2 52.5750 78.2950 44.5555 0.0000 4.5439 0.0000
# 3 50.8887 44.5555 93.3541 0.0000 15.2573 0.0000
# 4 0.0000 0.0000 0.0000 26.7315 0.0000 3.8718
# 5 -1.5588 4.5439 15.2573 0.0000 19.0182 0.0000
# 6 0.0000 0.0000 0.0000 3.8718 0.0000 36.3390
#
#
#
# Elastic Compliance Matrix: (Units=1/GPa)
#
#
# Indices 1 2 3 4 5 6 
#
# 1 0.015198 -0.007159 -0.006158 0.000000 0.007897 0.000000
# 2 -0.007159 0.021048 -0.006014 0.000000 -0.000791 0.000000
# 3 -0.006158 -0.006014 0.019320 0.000000 -0.014567 0.000000
# 4 0.000000 0.000000 0.000000 0.037995 0.000000 -0.004048
# 5 0.007897 -0.000791 -0.014567 0.000000 0.065104 0.000000
# 6 0.000000 0.000000 0.000000 -0.004048 0.000000 0.027950
#
#
# Mechanical properties :
#
#
# Convention : Reuss Voigt Hill
#
# Bulk Modulus (GPa) = 59.16039 64.40906 61.78472
# Shear Modulus (GPa) = 21.65326 25.45933 23.55630
#
# Velocity S-wave (km/s) = 3.46556 3.75782 3.61465
# Velocity P-wave (km/s) = 6.98765 7.38601 7.18959
#
# Compressibility (1/GPa) = 0.01690320
#
# Stress axis : x y z
#
# Youngs Moduli (GPa) = 65.79763 47.51103 51.76015
#
# Poissons Ratio (x) = 0.34014 0.31876
# Poissons Ratio (y) = 0.47106 0.31127
# Poissons Ratio (z) = 0.40521 0.28571
#
# Static dielectric constant tensor:
#      x y z
#    x 3.187250 0.000000 -0.044050 
#    y 0.000000 3.345390 0.000000 
#    z -0.044050 0.000000 3.573220 
# 
# 
# High freq. dielectric constant tensor:
#      x y z
#    x 1.688570 0.000000 -0.002500 
#    y 0.000000 1.699760 0.000000 
#    z -0.002500 0.000000 1.706520 
# 
# From -- ./inp_files/187692.got.cif
#   From: 2010.06.25/outbox.cif.g09.slc.cpg/sg12_94_cif.got.tgz:187692.got - 2010.06.28 00:19:55.
