data_PCOD8095603
_publ_section_title
;
Structure prediction by ZEFSAII (Michael W. Deem and Ramdas Pophale) SiO2 
 PCOD8095603
Probable space group: C 2/M
;
_chemical_formula_sum "Si O2"
_cell_formula_units_Z 64
_cell_length_a 22.917604
_cell_length_b 9.317200
_cell_length_c 17.109466
_cell_angle_alpha 90.000000
_cell_angle_beta 94.855050
_cell_angle_gamma 90.000000
_cell_volume 3640.240136
_symmetry_space_group_name_H-M "C 2/M"
_symmetry_group_IT_number 12
_symmetry_cell_setting 'monoclinic'
loop_
_space_group_symop_operation_xyz
x,y,z
-x,y,-z
-x,-y,-z
x,-y,z
1/2+x,1/2+y,z
1/2-x,1/2+y,-z
1/2-x,1/2-y,-z
1/2+x,1/2-y,z
loop_
_atom_site_type_symbol
_atom_site_label
_atom_site_fract_x
_atom_site_fract_y
_atom_site_fract_z
Si Si1 0.680133 0.330713 0.283445
Si Si2 0.962292 0.334284 0.315810
Si Si3 0.292191 0.663119 0.259602
Si Si4 0.978114 0.666844 0.082016
Si Si5 0.616380 0.334648 0.595420
Si Si6 0.601646 0.665612 0.827248
Si Si7 0.431292 0.837401 0.770711
Si Si8 0.194630 0.166416 0.462490
O O1 0.680547 0.500000 0.273283
O O2 0.737169 0.267975 0.247520
O O3 0.622835 0.269923 0.234875
O O4 0.678992 0.282611 0.373730
O O5 0.942639 0.500000 0.310110
O O6 0.941361 0.263799 0.395515
O O7 0.929929 0.243961 0.246797
O O8 0.031626 0.320648 0.306024
O O9 0.270032 0.500000 0.267457
O O10 0.331612 0.706411 0.338768
O O11 0.328871 0.678626 0.182637
O O12 0.961160 0.500000 0.081165
O O13 0.028465 0.701371 0.150523
O O14 0.918937 0.756317 0.095351
O O15 0.000000 0.716822 0.000000
O O16 0.598204 0.500000 0.604784
O O17 0.638310 0.302686 0.510364
O O18 0.582285 0.500000 0.827699
O O19 0.408034 0.000000 0.775532
O O20 0.250000 0.250000 0.500000
O O21 0.211569 0.000000 0.466418
#
# Coordination Sequence:
#
# PCOD8095603 Si02
#       8
#     8   8   8   8   8   8   8   8
#     4  11  22  32  48  73  99 131 171 211 248 293
#     4   9  17  30  49  71  94 126 168 209 249 294
#     4   9  17  30  48  69  97 133 167 203 248 295
#     4   9  18  34  57  83 106 129 161 201 243 289
#     4   9  17  30  48  69  95 126 163 211 262 301
#     4   9  17  29  48  76 105 131 161 199 245 294
#     4   9  19  35  52  71 100 134 162 195 246 302
#     4  10  20  33  47  69  98 129 169 213 257 299
#
# _framework density 17.581257000000001
#
# number of rings (size 3 to 8) (size 9 to 14) (size 15 to 20)
#    0.000    2.625    1.250    2.625    0.000    6.250 
#    0.000    0.625    0.000    4.500    0.000    0.000 
#    0.000    0.000    0.000    0.000    0.000    0.000 
#
# Total GULP energy -396664.931634 kJ/mol
# GULP energy per Si atom -12395.779114 kJ/mol
# Density = 1.754124 g / cm^3
# Si number density = 17.581257 Si / 1000 Ang^3
#
#
#
# Elastic Constant Matrix: (Units=GPa)
#
#
# Indices 1 2 3 4 5 6 
#
# 1 92.7109 58.2365 42.0301 0.0000 -18.7919 0.0000
# 2 58.2365 92.5220 37.5439 0.0000 -16.1185 0.0000
# 3 42.0301 37.5439 72.3198 0.0000 -23.6525 0.0000
# 4 0.0000 0.0000 0.0000 23.2168 0.0000 -8.6234
# 5 -18.7919 -16.1185 -23.6525 0.0000 25.7616 0.0000
# 6 0.0000 0.0000 0.0000 -8.6234 0.0000 34.9289
#
#
#
# Elastic Compliance Matrix: (Units=1/GPa)
#
#
# Indices 1 2 3 4 5 6 
#
# 1 0.020172 -0.009872 -0.005439 0.000000 0.003544 0.000000
# 2 -0.009872 0.018679 -0.003562 0.000000 0.001215 0.000000
# 3 -0.005439 -0.003562 0.024026 0.000000 0.015862 0.000000
# 4 0.000000 0.000000 0.000000 0.047421 0.000000 0.011707
# 5 0.003544 0.001215 0.015862 0.000000 0.056726 0.000000
# 6 0.000000 0.000000 0.000000 0.011707 0.000000 0.031520
#
#
# Mechanical properties :
#
#
# Convention : Reuss Voigt Hill
#
# Bulk Modulus (GPa) = 39.79404 59.24153 49.51778
# Shear Modulus (GPa) = 20.43595 24.76429 22.60012
#
# Velocity S-wave (km/s) = 3.41306 3.75715 3.58923
# Velocity P-wave (km/s) = 6.18186 7.25194 6.73818
#
# Compressibility (1/GPa) = 0.02512939
#
# Stress axis : x y z
#
# Youngs Moduli (GPa) = 49.57480 53.53503 41.62226
#
# Poissons Ratio (x) = 0.52851 0.22639
# Poissons Ratio (y) = 0.48941 0.14827
# Poissons Ratio (z) = 0.26964 0.19070
#
# Static dielectric constant tensor:
#      x y z
#    x 3.334730 0.000000 -0.523500 
#    y 0.000000 3.383200 0.000000 
#    z -0.523500 0.000000 3.337590 
# 
# 
# High freq. dielectric constant tensor:
#      x y z
#    x 1.667420 0.000000 -0.033940 
#    y 0.000000 1.687150 0.000000 
#    z -0.033940 0.000000 1.650200 
# 
# From -- ./inp_files/287615.got.cif
#   From: 2010.06.25/outbox.cif.g09.slc.cpg/sg12_144_cif.got.tgz:287615.got - 2010.06.28 00:19:55.
