data_PCOD8095930
_publ_section_title
;
Structure prediction by ZEFSAII (Michael W. Deem and Ramdas Pophale) SiO2 
 PCOD8095930
Probable space group: C 2/M
;
_chemical_formula_sum "Si O2"
_cell_formula_units_Z 56
_cell_length_a 32.944793
_cell_length_b 9.022224
_cell_length_c 13.912523
_cell_angle_alpha 90.000000
_cell_angle_beta 46.812315
_cell_angle_gamma 90.000000
_cell_volume 3015.107221
_symmetry_space_group_name_H-M "C 2/M"
_symmetry_group_IT_number 12
_symmetry_cell_setting 'monoclinic'
loop_
_space_group_symop_operation_xyz
x,y,z
-x,y,-z
-x,-y,-z
x,-y,z
1/2+x,1/2+y,z
1/2-x,1/2+y,-z
1/2-x,1/2-y,-z
1/2+x,1/2-y,z
loop_
_atom_site_type_symbol
_atom_site_label
_atom_site_fract_x
_atom_site_fract_y
_atom_site_fract_z
Si Si1 0.914006 0.330774 0.170012
Si Si2 0.029096 0.173664 0.753357
Si Si3 0.198379 0.670678 0.536679
Si Si4 0.809231 0.672251 0.008755
Si Si5 0.360626 0.674736 0.536408
Si Si6 0.695682 0.827718 0.205865
Si Si7 0.418560 0.174694 0.942902
O O1 0.934394 0.500000 0.145146
O O2 0.956289 0.234038 0.164366
O O3 0.851603 0.312368 0.307757
O O4 0.914614 0.274918 0.059852
O O5 0.077331 0.215829 0.599386
O O6 0.972156 0.247491 0.808240
O O7 0.020775 0.000000 0.774655
O O8 0.212234 0.500000 0.492501
O O9 0.250000 0.750000 0.500000
O O10 0.184820 0.751657 0.459240
O O11 0.797114 0.500000 0.049182
O O12 0.756675 0.764612 0.131735
O O13 0.819618 0.701555 0.879724
O O14 0.863391 0.729352 0.977572
O O15 0.350959 0.500000 0.552955
O O16 0.351348 0.742187 0.656975
O O17 0.694545 0.000000 0.234077
O O18 0.425363 0.000000 0.920440
#
# Coordination Sequence:
#
# PCOD8095930 Si02
#       7
#     8   8   8   8   8   8   8
#     4   9  19  34  52  75 106 145 182 213 259 322
#     4  10  21  36  53  78 108 141 181 226 269 312
#     4  10  20  33  50  78 111 142 180 223 265 320
#     4   9  20  37  57  82 112 142 175 219 273 330
#     4  10  21  37  56  75 104 147 183 219 275 326
#     4  10  20  36  58  84 109 138 179 225 273 325
#     4  10  20  35  56  79 106 144 181 216 264 323
#
# _framework density 18.573138
#
# number of rings (size 3 to 8) (size 9 to 14) (size 15 to 20)
#    0.000    2.286    0.000    2.143    2.000    5.714 
#    0.000    0.714    0.000    4.286    0.000    0.000 
#    0.000    0.000    0.000    0.000    0.000    0.000 
#
# Total GULP energy -347310.400361 kJ/mol
# GULP energy per Si atom -12403.942870 kJ/mol
# Density = 1.853086 g / cm^3
# Si number density = 18.573138 Si / 1000 Ang^3
#
#
#
# Elastic Constant Matrix: (Units=GPa)
#
#
# Indices 1 2 3 4 5 6 
#
# 1 111.6592 43.0983 48.1232 0.0000 -12.3464 0.0000
# 2 43.0983 81.3101 46.8394 0.0000 -3.7653 0.0002
# 3 48.1232 46.8394 99.4841 0.0000 1.6008 0.0000
# 4 0.0000 0.0000 0.0000 31.3528 0.0000 -3.7850
# 5 -12.3464 -3.7653 1.6008 0.0000 16.5921 0.0000
# 6 0.0000 0.0002 0.0000 -3.7850 0.0000 32.1219
#
#
#
# Elastic Compliance Matrix: (Units=1/GPa)
#
#
# Indices 1 2 3 4 5 6 
#
# 1 0.013682 -0.003976 -0.004903 0.000000 0.009752 0.000000
# 2 -0.003976 0.018390 -0.006765 0.000000 0.001867 0.000000
# 3 -0.004903 -0.006765 0.015717 0.000000 -0.006700 0.000000
# 4 0.000000 0.000000 0.000000 0.032355 0.000000 0.003812
# 5 0.009752 0.001867 -0.006700 0.000000 0.068596 0.000000
# 6 0.000000 0.000000 0.000000 0.003812 0.000000 0.031581
#
#
# Mechanical properties :
#
#
# Convention : Reuss Voigt Hill
#
# Bulk Modulus (GPa) = 60.60716 63.17501 61.89108
# Shear Modulus (GPa) = 23.02993 26.30620 24.66806
#
# Velocity S-wave (km/s) = 3.52513 3.76754 3.64834
# Velocity P-wave (km/s) = 7.01934 7.28106 7.15140
#
# Compressibility (1/GPa) = 0.01649970
#
# Stress axis : x y z
#
# Youngs Moduli (GPa) = 73.08888 54.37868 63.62677
#
# Poissons Ratio (x) = 0.21621 0.31198
# Poissons Ratio (y) = 0.29060 0.43044
# Poissons Ratio (z) = 0.35838 0.36787
#
# Static dielectric constant tensor:
#      x y z
#    x 3.347890 0.000000 -0.031060 
#    y 0.000000 3.440290 0.000000 
#    z -0.031060 0.000000 3.544310 
# 
# 
# High freq. dielectric constant tensor:
#      x y z
#    x 1.712580 0.000000 -0.007920 
#    y 0.000000 1.724980 0.000000 
#    z -0.007920 0.000000 1.724370 
# 
# From -- ./inp_files/187215.got.cif
#   From: 2010.06.25/outbox.cif.g09.slc.cpg/sg12_94_cif.got.tgz:187215.got - 2010.06.28 00:19:55.
