data_PCOD8095298
_publ_section_title
;
Structure prediction by ZEFSAII (Michael W. Deem and Ramdas Pophale) SiO2 
 PCOD8095298
Probable space group: C 2/M
;
_chemical_formula_sum "Si O2"
_cell_formula_units_Z 60
_cell_length_a 22.294755
_cell_length_b 9.376112
_cell_length_c 27.720057
_cell_angle_alpha 90.000000
_cell_angle_beta 35.247093
_cell_angle_gamma 90.000000
_cell_volume 3344.055758
_symmetry_space_group_name_H-M "C 2/M"
_symmetry_group_IT_number 12
_symmetry_cell_setting 'monoclinic'
loop_
_space_group_symop_operation_xyz
x,y,z
-x,y,-z
-x,-y,-z
x,-y,z
1/2+x,1/2+y,z
1/2-x,1/2+y,-z
1/2-x,1/2-y,-z
1/2+x,1/2-y,z
loop_
_atom_site_type_symbol
_atom_site_label
_atom_site_fract_x
_atom_site_fract_y
_atom_site_fract_z
Si Si1 0.986409 0.329182 0.324876
Si Si2 0.855699 0.167607 0.332483
Si Si3 0.629445 0.335777 0.786746
Si Si4 0.375607 0.840490 0.493608
Si Si5 0.411859 0.831733 0.094259
Si Si6 0.317150 0.348769 0.674059
Si Si7 0.000000 0.249152 0.500000
Si Si8 0.320967 0.341044 0.778323
O O1 0.992212 0.500000 0.318785
O O2 0.104672 0.269043 0.242496
O O3 0.925104 0.266750 0.320106
O O4 0.927306 0.270449 0.411849
O O5 0.901934 0.191773 0.248135
O O6 0.736240 0.224782 0.416776
O O7 0.864786 0.000000 0.339802
O O8 0.617659 0.500000 0.808878
O O9 0.567744 0.242436 0.867042
O O10 0.749909 0.291896 0.710027
O O11 0.458321 0.843299 0.482990
O O12 0.351020 0.000000 0.494481
O O13 0.299742 0.789634 0.145243
O O14 0.419087 0.000000 0.097884
O O15 0.500000 0.776727 0.000000
O O16 0.253920 0.500000 0.710248
O O17 0.409044 0.354996 0.575786
O O18 0.366446 0.344253 0.694613
O O19 0.326979 0.500000 0.797830
#
# Coordination Sequence:
#
# PCOD8095298 Si02
#       8
#     8   8   8   8   8   8   4   8
#     4  11  22  35  52  76 102 141 191 234 266 303
#     4  10  21  38  53  71 103 148 189 225 270 313
#     4  10  20  34  55  80 107 139 176 216 263 321
#     4  10  21  34  50  74 105 142 184 229 276 320
#     4   9  19  37  61  88 117 142 165 204 265 329
#     4  10  20  32  48  74 105 138 177 219 268 317
#     4  12  18  32  50  74 105 138 181 226 275 322
#     4   9  18  34  53  76 106 139 170 207 261 323
#
# _framework density 17.942284999999998
#
# number of rings (size 3 to 8) (size 9 to 14) (size 15 to 20)
#    0.000    2.000    2.667    2.400    0.000    4.000 
#    0.000    0.667    0.000    0.800    0.000    0.000 
#    0.000    0.000    0.000    0.000    0.000    0.000 
#
# Total GULP energy -371653.424110 kJ/mol
# GULP energy per Si atom -12388.447470 kJ/mol
# Density = 1.790145 g / cm^3
# Si number density = 17.942285 Si / 1000 Ang^3
#
#
#
# Elastic Constant Matrix: (Units=GPa)
#
#
# Indices 1 2 3 4 5 6 
#
# 1 108.5563 50.0527 45.3707 -0.0018 3.1005 0.0061
# 2 50.0527 73.7441 37.4627 -0.0077 2.5260 0.0208
# 3 45.3707 37.4627 122.8324 0.0013 9.6859 0.0009
# 4 -0.0018 -0.0077 0.0013 21.2556 0.0010 0.1451
# 5 3.1005 2.5260 9.6859 0.0010 17.6555 -0.0047
# 6 0.0061 0.0208 0.0009 0.1451 -0.0047 28.5570
#
#
#
# Elastic Compliance Matrix: (Units=1/GPa)
#
#
# Indices 1 2 3 4 5 6 
#
# 1 0.014134 -0.008213 -0.002731 -0.000002 0.000191 0.000003
# 2 -0.008213 0.020821 -0.003340 0.000007 0.000296 -0.000013
# 3 -0.002731 -0.003340 0.010550 -0.000002 -0.004830 0.000002
# 4 -0.000002 0.000007 -0.000002 0.047048 -0.000003 -0.000239
# 5 0.000191 0.000296 -0.004830 -0.000003 0.059213 0.000010
# 6 0.000003 -0.000013 0.000002 -0.000239 0.000010 0.035019
#
#
# Mechanical properties :
#
#
# Convention : Reuss Voigt Hill
#
# Bulk Modulus (GPa) = 59.04056 63.43389 61.23722
# Shear Modulus (GPa) = 22.62451 24.97676 23.80064
#
# Velocity S-wave (km/s) = 3.55485 3.73508 3.64608
# Velocity P-wave (km/s) = 7.05879 7.35066 7.20621
#
# Compressibility (1/GPa) = 0.01693751
#
# Stress axis : x y z
#
# Youngs Moduli (GPa) = 70.74892 48.02772 94.79075
#
# Poissons Ratio (x) = 0.39444 0.25889
# Poissons Ratio (y) = 0.58104 0.31661
# Poissons Ratio (z) = 0.19323 0.16042
#
# Static dielectric constant tensor:
#      x y z
#    x 3.158730 -0.000010 0.075160 
#    y -0.000010 3.233600 0.000000 
#    z 0.075160 0.000000 3.389550 
# 
# 
# High freq. dielectric constant tensor:
#      x y z
#    x 1.678470 0.000000 0.006550 
#    y 0.000000 1.689360 0.000000 
#    z 0.006550 0.000000 1.678670 
# 
# From -- ./inp_files/365473.got.cif
#   From: 2010.06.25/outbox.cif.g09.slc.cpg/sg12_183_cif.got.tgz:365473.got - 2010.06.28 00:19:55.
