data_PCOD8095183
_publ_section_title
;
Structure prediction by ZEFSAII (Michael W. Deem and Ramdas Pophale) SiO2 
 PCOD8095183
Probable space group: C 2/M
;
_chemical_formula_sum "Si O2"
_cell_formula_units_Z 56
_cell_length_a 13.083327
_cell_length_b 13.116708
_cell_length_c 19.173039
_cell_angle_alpha 90.000000
_cell_angle_beta 79.570701
_cell_angle_gamma 90.000000
_cell_volume 3235.929916
_symmetry_space_group_name_H-M "C 2/M"
_symmetry_group_IT_number 12
_symmetry_cell_setting 'monoclinic'
loop_
_space_group_symop_operation_xyz
x,y,z
-x,y,-z
-x,-y,-z
x,-y,z
1/2+x,1/2+y,z
1/2-x,1/2+y,-z
1/2-x,1/2-y,-z
1/2+x,1/2-y,z
loop_
_atom_site_type_symbol
_atom_site_label
_atom_site_fract_x
_atom_site_fract_y
_atom_site_fract_z
Si Si1 0.208414 0.118077 0.561919
Si Si2 0.778729 0.683348 0.101875
Si Si3 0.427648 0.382194 0.820028
Si Si4 0.787053 0.614650 0.947334
Si Si5 0.107146 0.232608 0.450958
Si Si6 0.497733 0.219467 0.920714
Si Si7 0.003015 0.118765 0.340970
O O1 0.166533 0.150164 0.491202
O O2 0.314826 0.173524 0.570951
O O3 0.117842 0.143097 0.628862
O O4 0.235774 0.000000 0.556311
O O5 0.696568 0.639238 0.167278
O O6 0.773059 0.806514 0.094982
O O7 0.895536 0.661177 0.112806
O O8 0.751542 0.630819 0.031448
O O9 0.451094 0.500000 0.832056
O O10 0.479565 0.316583 0.874389
O O11 0.475235 0.347815 0.740657
O O12 0.760800 0.500000 0.926856
O O13 0.909717 0.634286 0.923588
O O14 0.080693 0.181690 0.380507
O O15 0.000000 0.270777 0.500000
O O16 0.500000 0.260100 0.000000
O O17 0.026743 0.000000 0.350709
#
# Coordination Sequence:
#
# PCOD8095183 Si02
#       7
#     8   8   8   8   8   8   8
#     4   9  17  30  50  75  99 123 154 187 222 269
#     4   9  18  30  45  67  90 114 148 191 235 275
#     4  10  20  32  47  68  92 120 156 193 229 274
#     4   9  17  30  47  66  88 114 147 188 236 288
#     4   9  17  30  50  74  97 123 153 188 226 261
#     4   9  19  32  46  67  90 115 152 195 239 281
#     4   9  18  32  48  67  94 127 157 185 223 272
#
# _framework density 17.305689999999998
#
# number of rings (size 3 to 8) (size 9 to 14) (size 15 to 20)
#    0.000    2.857    0.000    1.714    0.000    7.143 
#    0.000    0.000    0.000    3.429    0.000    0.000 
#    0.000    0.000    0.000    0.000    0.000    0.000 
#
# Total GULP energy -347143.419965 kJ/mol
# GULP energy per Si atom -12397.979284 kJ/mol
# Density = 1.726630 g / cm^3
# Si number density = 17.305690 Si / 1000 Ang^3
#
#
#
# Elastic Constant Matrix: (Units=GPa)
#
#
# Indices 1 2 3 4 5 6 
#
# 1 81.8581 18.4554 28.7702 0.0000 -12.7803 0.0000
# 2 18.4554 83.1958 32.2466 0.0000 -2.8223 0.0000
# 3 28.7702 32.2466 86.1347 0.0000 -10.4430 0.0000
# 4 0.0000 0.0000 0.0000 20.2116 0.0000 -1.9973
# 5 -12.7803 -2.8223 -10.4430 0.0000 21.3993 0.0000
# 6 0.0000 0.0000 0.0000 -1.9973 0.0000 21.9794
#
#
#
# Elastic Compliance Matrix: (Units=1/GPa)
#
#
# Indices 1 2 3 4 5 6 
#
# 1 0.014922 -0.001719 -0.003494 0.000000 0.006980 0.000000
# 2 -0.001719 0.014270 -0.004958 0.000000 -0.001564 0.000000
# 3 -0.003494 -0.004958 0.015200 0.000000 0.004677 0.000000
# 4 0.000000 0.000000 0.000000 0.049925 0.000000 0.004537
# 5 0.006980 -0.001564 0.004677 0.000000 0.052975 0.000000
# 6 0.000000 0.000000 0.000000 0.004537 0.000000 0.045909
#
#
# Mechanical properties :
#
#
# Convention : Reuss Voigt Hill
#
# Bulk Modulus (GPa) = 41.58097 45.57034 43.57565
# Shear Modulus (GPa) = 22.56737 24.16582 23.36659
#
# Velocity S-wave (km/s) = 3.61507 3.74091 3.67853
# Velocity P-wave (km/s) = 6.44240 6.71185 6.57850
#
# Compressibility (1/GPa) = 0.02404946
#
# Stress axis : x y z
#
# Youngs Moduli (GPa) = 67.01676 70.07871 65.78979
#
# Poissons Ratio (x) = 0.12046 0.22989
# Poissons Ratio (y) = 0.11520 0.32616
# Poissons Ratio (z) = 0.23418 0.34743
#
# Static dielectric constant tensor:
#      x y z
#    x 3.346610 0.000000 -0.238110 
#    y 0.000000 3.066060 0.000000 
#    z -0.238110 0.000000 3.136500 
# 
# 
# High freq. dielectric constant tensor:
#      x y z
#    x 1.672640 0.000000 -0.019230 
#    y 0.000000 1.658440 0.000000 
#    z -0.019230 0.000000 1.648650 
# 
# From -- ./inp_files/309449.got.cif
#   From: 2010.06.25/outbox.cif.g09.slc.cpg/sg12_155_cif.got.tgz:309449.got - 2010.06.28 00:19:55.
