data_PCOD8095618
_publ_section_title
;
Structure prediction by ZEFSAII (Michael W. Deem and Ramdas Pophale) SiO2 
 PCOD8095618
Probable space group: C 2/M
;
_chemical_formula_sum "Si O2"
_cell_formula_units_Z 56
_cell_length_a 20.688581
_cell_length_b 9.304575
_cell_length_c 22.413323
_cell_angle_alpha 90.000000
_cell_angle_beta 128.538733
_cell_angle_gamma 90.000000
_cell_volume 3374.769923
_symmetry_space_group_name_H-M "C 2/M"
_symmetry_group_IT_number 12
_symmetry_cell_setting 'monoclinic'
loop_
_space_group_symop_operation_xyz
x,y,z
-x,y,-z
-x,-y,-z
x,-y,z
1/2+x,1/2+y,z
1/2-x,1/2+y,-z
1/2-x,1/2-y,-z
1/2+x,1/2-y,z
loop_
_atom_site_type_symbol
_atom_site_label
_atom_site_fract_x
_atom_site_fract_y
_atom_site_fract_z
Si Si1 0.316290 0.669874 0.998007
Si Si2 0.332711 0.170642 0.530165
Si Si3 0.850996 0.667615 0.289542
Si Si4 0.241193 0.164164 0.856475
Si Si5 0.510798 0.833736 0.305267
Si Si6 0.925683 0.159129 0.163843
Si Si7 0.092044 0.669829 0.549712
O O1 0.295143 0.500000 0.980856
O O2 0.314118 0.745412 0.931633
O O3 0.250000 0.750000 0.000000
O O4 0.405135 0.692330 0.082188
O O5 0.250000 0.250000 0.500000
O O6 0.402638 0.217844 0.617663
O O7 0.359878 0.227062 0.480560
O O8 0.319126 0.000000 0.522756
O O9 0.830148 0.500000 0.268870
O O10 0.777982 0.761340 0.218040
O O11 0.855753 0.711468 0.361625
O O12 0.939305 0.705249 0.311176
O O13 0.159441 0.173340 0.849123
O O14 0.270036 0.000000 0.863252
O O15 0.494952 0.761780 0.231678
O O16 0.512679 0.000000 0.292900
O O17 0.961979 0.000000 0.190866
O O18 0.082021 0.500000 0.538789
O O19 0.000000 0.737789 0.500000
#
# Coordination Sequence:
#
# PCOD8095618 Si02
#       7
#     8   8   8   8   8   8   8
#     4   9  15  23  34  51  78 113 148 180 217 265
#     4  10  20  33  48  68  93 121 153 191 234 276
#     4   9  15  25  44  65  82 109 149 192 228 261
#     4   9  16  24  34  53  84 116 143 178 221 269
#     4   9  16  26  42  62  83 110 148 187 223 266
#     4   8  15  24  35  53  79 110 143 180 220 260
#     4   9  15  28  50  70  88 114 156 199 229 268
#
# _framework density 16.593724000000002
#
# number of rings (size 3 to 8) (size 9 to 14) (size 15 to 20)
#    0.000    3.000    1.429    1.714    0.000    4.571 
#    0.000    0.714    0.000    0.857    0.000    0.000 
#    0.000    1.143    0.000   12.857    0.000    9.429 
#
# Total GULP energy -346981.539622 kJ/mol
# GULP energy per Si atom -12392.197844 kJ/mol
# Density = 1.655596 g / cm^3
# Si number density = 16.593724 Si / 1000 Ang^3
#
#
#
# Elastic Constant Matrix: (Units=GPa)
#
#
# Indices 1 2 3 4 5 6 
#
# 1 50.4168 25.0191 49.2101 0.0000 -2.7291 0.0000
# 2 25.0191 75.4154 71.5767 0.0000 2.7428 0.0000
# 3 49.2101 71.5767 171.3301 0.0000 1.7751 0.0000
# 4 0.0000 0.0000 0.0000 30.1021 0.0000 3.4619
# 5 -2.7291 2.7428 1.7751 0.0000 10.9203 0.0000
# 6 0.0000 0.0000 0.0000 3.4619 0.0000 14.2594
#
#
#
# Elastic Compliance Matrix: (Units=1/GPa)
#
#
# Indices 1 2 3 4 5 6 
#
# 1 0.028774 -0.003222 -0.007013 0.000000 0.009140 0.000000
# 2 -0.003222 0.022511 -0.008426 0.000000 -0.005089 0.000000
# 3 -0.007013 -0.008426 0.011387 0.000000 -0.001487 0.000000
# 4 0.000000 0.000000 0.000000 0.034174 0.000000 -0.008297
# 5 0.009140 -0.005089 -0.001487 0.000000 0.095376 0.000000
# 6 0.000000 0.000000 0.000000 -0.008297 0.000000 0.072144
#
#
# Mechanical properties :
#
#
# Convention : Reuss Voigt Hill
#
# Bulk Modulus (GPa) = 39.44968 65.41934 52.43451
# Shear Modulus (GPa) = 16.12182 21.14679 18.63431
#
# Velocity S-wave (km/s) = 3.12037 3.57373 3.35471
# Velocity P-wave (km/s) = 6.06694 7.51920 6.83177
#
# Compressibility (1/GPa) = 0.02534875
#
# Stress axis : x y z
#
# Youngs Moduli (GPa) = 34.75416 44.42196 87.82118
#
# Poissons Ratio (x) = 0.14312 0.61590
# Poissons Ratio (y) = 0.11197 0.74002
# Poissons Ratio (z) = 0.24374 0.37432
#
# Static dielectric constant tensor:
#      x y z
#    x 2.546220 0.000000 -0.043300 
#    y 0.000000 3.057830 0.000000 
#    z -0.043300 0.000000 3.743140 
# 
# 
# High freq. dielectric constant tensor:
#      x y z
#    x 1.560220 0.000000 -0.001070 
#    y 0.000000 1.629110 0.000000 
#    z -0.001070 0.000000 1.665510 
# 
# From -- ./inp_files/319015.got.cif
#   From: 2010.06.25/outbox.cif.g09.slc.cpg/sg12_160_cif.got.tgz:319015.got - 2010.06.28 00:19:55.
