data_PCOD8095926
_publ_section_title
;
Structure prediction by ZEFSAII (Michael W. Deem and Ramdas Pophale) SiO2 
 PCOD8095926
Probable space group: C 2/M
;
_chemical_formula_sum "Si O2"
_cell_formula_units_Z 64
_cell_length_a 24.815126
_cell_length_b 9.249462
_cell_length_c 14.348992
_cell_angle_alpha 90.000000
_cell_angle_beta 88.045830
_cell_angle_gamma 90.000000
_cell_volume 3291.559435
_symmetry_space_group_name_H-M "C 2/M"
_symmetry_group_IT_number 12
_symmetry_cell_setting 'monoclinic'
loop_
_space_group_symop_operation_xyz
x,y,z
-x,y,-z
-x,-y,-z
x,-y,z
1/2+x,1/2+y,z
1/2-x,1/2+y,-z
1/2-x,1/2-y,-z
1/2+x,1/2-y,z
loop_
_atom_site_type_symbol
_atom_site_label
_atom_site_fract_x
_atom_site_fract_y
_atom_site_fract_z
Si Si1 0.561816 0.330968 0.516367
Si Si2 0.513215 0.838884 0.228101
Si Si3 0.699581 0.667885 0.809699
Si Si4 0.341046 0.334509 0.988800
Si Si5 0.587346 0.332050 0.727517
Si Si6 0.891782 0.328453 0.650137
Si Si7 0.805695 0.172499 0.785971
Si Si8 0.055977 0.663181 0.030522
O O1 0.500000 0.284766 0.500000
O O2 0.569585 0.500000 0.493710
O O3 0.579234 0.292677 0.620107
O O4 0.604679 0.238952 0.453097
O O5 0.461625 0.739428 0.212786
O O6 0.548507 0.793173 0.314581
O O7 0.556374 0.830100 0.142072
O O8 0.490330 0.000000 0.240801
O O9 0.710409 0.500000 0.784825
O O10 0.644596 0.722453 0.763637
O O11 0.746697 0.766665 0.764495
O O12 0.699055 0.689798 0.922044
O O13 0.357494 0.500000 0.977572
O O14 0.317056 0.279372 0.892269
O O15 0.394834 0.251046 0.013827
O O16 0.582132 0.500000 0.747050
O O17 0.879337 0.500000 0.649213
O O18 0.847110 0.246586 0.713169
O O19 0.807394 0.000000 0.773231
O O20 0.060959 0.500000 0.991965
O O21 0.000000 0.732774 0.000000
#
# Coordination Sequence:
#
# PCOD8095926 Si02
#       8
#     8   8   8   8   8   8   8   8
#     4  10  20  36  59  87 118 149 185 232 284 340
#     4  10  20  33  52  81 115 149 186 230 280 334
#     4  10  22  40  59  83 115 150 192 238 284 336
#     4  10  21  36  56  83 113 148 192 237 281 334
#     4  10  21  37  59  85 115 152 188 230 287 343
#     4  11  22  37  59  86 115 149 188 234 285 335
#     4  11  23  39  60  85 113 151 196 238 284 336
#     4  10  20  33  50  77 115 155 191 230 279 334
#
# _framework density 19.443671999999999
#
# number of rings (size 3 to 8) (size 9 to 14) (size 15 to 20)
#    0.000    1.750    2.500    1.875    0.000    3.500 
#    0.000    0.625    0.000    0.000    0.000    0.000 
#    0.000    0.000    0.000    0.000    0.000    0.000 
#
# Total GULP energy -396771.101941 kJ/mol
# GULP energy per Si atom -12399.096936 kJ/mol
# Density = 1.939942 g / cm^3
# Si number density = 19.443672 Si / 1000 Ang^3
#
#
#
# Elastic Constant Matrix: (Units=GPa)
#
#
# Indices 1 2 3 4 5 6 
#
# 1 112.4375 56.9228 35.3931 0.0000 -8.7679 0.0000
# 2 56.9228 65.4587 22.6893 0.0000 -14.3403 0.0000
# 3 35.3931 22.6893 61.5112 0.0000 -7.6769 0.0000
# 4 0.0000 0.0000 0.0000 21.6272 0.0000 -4.9476
# 5 -8.7679 -14.3403 -7.6769 0.0000 24.0681 0.0000
# 6 0.0000 0.0000 0.0000 -4.9476 0.0000 38.0424
#
#
#
# Elastic Compliance Matrix: (Units=1/GPa)
#
#
# Indices 1 2 3 4 5 6 
#
# 1 0.017423 -0.014147 -0.005277 0.000000 -0.003765 0.000000
# 2 -0.014147 0.030958 -0.001687 0.000000 0.012754 0.000000
# 3 -0.005277 -0.001687 0.020361 0.000000 0.003567 0.000000
# 4 0.000000 0.000000 0.000000 0.047656 0.000000 0.006198
# 5 -0.003765 0.012754 0.003567 0.000000 0.048914 0.000000
# 6 0.000000 0.000000 0.000000 0.006198 0.000000 0.027093
#
#
# Mechanical properties :
#
#
# Convention : Reuss Voigt Hill
#
# Bulk Modulus (GPa) = 37.70789 52.15753 44.93271
# Shear Modulus (GPa) = 20.53662 25.04101 22.78882
#
# Velocity S-wave (km/s) = 3.25347 3.59259 3.42723
# Velocity P-wave (km/s) = 5.79214 6.64019 6.23061
#
# Compressibility (1/GPa) = 0.02651965
#
# Stress axis : x y z
#
# Youngs Moduli (GPa) = 57.39391 32.30179 49.11343
#
# Poissons Ratio (x) = 0.45698 0.25916
# Poissons Ratio (y) = 0.81196 0.08287
# Poissons Ratio (z) = 0.30286 0.05451
#
# Static dielectric constant tensor:
#      x y z
#    x 3.411150 0.000000 0.087290 
#    y 0.000000 3.453060 0.000000 
#    z 0.087290 0.000000 3.590280 
# 
# 
# High freq. dielectric constant tensor:
#      x y z
#    x 1.750120 0.000000 -0.000960 
#    y 0.000000 1.752600 0.000000 
#    z -0.000960 0.000000 1.757430 
# 
# From -- ./inp_files/238724.got.cif
#   From: 2010.06.25/outbox.cif.g09.slc.cpg/sg12_120_cif.got.tgz:238724.got - 2010.06.28 00:19:55.
