data_PCOD8095083
_publ_section_title
;
Structure prediction by ZEFSAII (Michael W. Deem and Ramdas Pophale) SiO2 
 PCOD8095083
Probable space group: C 2/M
;
_chemical_formula_sum "Si O2"
_cell_formula_units_Z 56
_cell_length_a 9.347792
_cell_length_b 18.134686
_cell_length_c 16.095307
_cell_angle_alpha 90.000000
_cell_angle_beta 85.182820
_cell_angle_gamma 90.000000
_cell_volume 2718.827046
_symmetry_space_group_name_H-M "C 2/M"
_symmetry_group_IT_number 12
_symmetry_cell_setting 'monoclinic'
loop_
_space_group_symop_operation_xyz
x,y,z
-x,y,-z
-x,-y,-z
x,-y,z
1/2+x,1/2+y,z
1/2-x,1/2+y,-z
1/2-x,1/2-y,-z
1/2+x,1/2-y,z
loop_
_atom_site_type_symbol
_atom_site_label
_atom_site_fract_x
_atom_site_fract_y
_atom_site_fract_z
Si Si1 0.732604 0.684987 0.879395
Si Si2 0.391263 0.193240 0.571622
Si Si3 0.774959 0.584196 0.200661
Si Si4 0.155101 0.661847 0.954908
Si Si5 0.933580 0.842045 0.426115
Si Si6 0.476607 0.344225 0.246496
Si Si7 0.483428 0.823169 0.742266
O O1 0.690038 0.770863 0.889932
O O2 0.623083 0.637198 0.828075
O O3 0.887276 0.675898 0.829657
O O4 0.734397 0.653847 0.973504
O O5 0.500000 0.153720 0.500000
O O6 0.227174 0.187809 0.547464
O O7 0.447102 0.276552 0.580378
O O8 0.396747 0.155762 0.662843
O O9 0.741229 0.500000 0.224782
O O10 0.832453 0.589268 0.102654
O O11 0.635327 0.634504 0.214116
O O12 0.893003 0.615697 0.257666
O O13 0.000000 0.674805 0.000000
O O14 0.936494 0.884133 0.336545
O O15 0.000000 0.891338 0.500000
O O16 0.448819 0.258106 0.267729
#
# Coordination Sequence:
#
# PCOD8095083 Si02
#       7
#     8   8   8   8   8   8   8
#     4  11  20  37  62  97 117 158 214 270 296 360
#     4  10  20  31  55  95 132 159 203 267 320 361
#     4  12  27  43  61  93 133 169 202 258 331 380
#     4  11  22  37  63  92 127 158 211 262 317 367
#     4  10  20  31  54  93 132 164 199 265 322 365
#     4  11  21  38  64  91 126 163 219 256 310 373
#     4  11  20  39  64  91 122 168 216 256 303 380
#
# _framework density 20.597116
#
# number of rings (size 3 to 8) (size 9 to 14) (size 15 to 20)
#    0.000    1.143    5.714    1.714   10.000    0.286 
#    0.000    2.143    0.000    0.857    0.000    0.000 
#    0.000    0.000    0.000    0.000    0.000    0.000 
#
# Total GULP energy -346911.919291 kJ/mol
# GULP energy per Si atom -12389.711403 kJ/mol
# Density = 2.055024 g / cm^3
# Si number density = 20.597116 Si / 1000 Ang^3
#
#
#
# Elastic Constant Matrix: (Units=GPa)
#
#
# Indices 1 2 3 4 5 6 
#
# 1 113.0617 15.0257 30.5429 0.0000 13.2895 0.0000
# 2 15.0257 43.1493 17.9143 0.0000 4.3609 0.0000
# 3 30.5429 17.9143 135.6150 0.0000 22.2173 0.0000
# 4 0.0000 0.0000 0.0000 6.8469 0.0000 2.9924
# 5 13.2895 4.3609 22.2173 0.0000 41.2336 0.0000
# 6 0.0000 0.0000 0.0000 2.9924 0.0000 8.5990
#
#
#
# Elastic Compliance Matrix: (Units=1/GPa)
#
#
# Indices 1 2 3 4 5 6 
#
# 1 0.009847 -0.002581 -0.001537 0.000000 -0.002072 0.000000
# 2 -0.002581 0.025229 -0.002688 0.000000 -0.000388 0.000000
# 3 -0.001537 -0.002688 0.008717 0.000000 -0.003917 0.000000
# 4 0.000000 0.000000 0.000000 0.172251 0.000000 -0.059943
# 5 -0.002072 -0.000388 -0.003917 0.000000 0.027072 0.000000
# 6 0.000000 0.000000 0.000000 -0.059943 0.000000 0.137153
#
#
# Mechanical properties :
#
#
# Convention : Reuss Voigt Hill
#
# Bulk Modulus (GPa) = 33.13414 46.53242 39.83328
# Shear Modulus (GPa) = 12.37805 26.55875 19.46840
#
# Velocity S-wave (km/s) = 2.45411 3.59477 3.07775
# Velocity P-wave (km/s) = 4.91446 6.31432 5.65785
#
# Compressibility (1/GPa) = 0.03018036
#
# Stress axis : x y z
#
# Youngs Moduli (GPa) = 101.55779 39.63640 114.72134
#
# Poissons Ratio (x) = 0.10231 0.17634
# Poissons Ratio (y) = 0.26214 0.30835
# Poissons Ratio (z) = 0.15611 0.10653
#
# Static dielectric constant tensor:
#      x y z
#    x 3.747060 0.000000 0.242740 
#    y 0.000000 2.934360 0.000000 
#    z 0.242740 0.000000 4.803490 
# 
# 
# High freq. dielectric constant tensor:
#      x y z
#    x 1.819340 0.000000 0.009290 
#    y 0.000000 1.707800 0.000000 
#    z 0.009290 0.000000 1.845420 
# 
# From -- ./inp_files/257644.got.cif
#   From: 2010.06.25/outbox.cif.g09.slc.cpg/sg12_129_cif.got.tgz:257644.got - 2010.06.28 00:19:55.
