data_PCOD8095829
_publ_section_title
;
Structure prediction by ZEFSAII (Michael W. Deem and Ramdas Pophale) SiO2 
 PCOD8095829
Probable space group: C 2/M
;
_chemical_formula_sum "Si O2"
_cell_formula_units_Z 64
_cell_length_a 31.805916
_cell_length_b 9.497891
_cell_length_c 16.099837
_cell_angle_alpha 90.000000
_cell_angle_beta 133.848120
_cell_angle_gamma 90.000000
_cell_volume 3507.514254
_symmetry_space_group_name_H-M "C 2/M"
_symmetry_group_IT_number 12
_symmetry_cell_setting 'monoclinic'
loop_
_space_group_symop_operation_xyz
x,y,z
-x,y,-z
-x,-y,-z
x,-y,z
1/2+x,1/2+y,z
1/2-x,1/2+y,-z
1/2-x,1/2-y,-z
1/2+x,1/2-y,z
loop_
_atom_site_type_symbol
_atom_site_label
_atom_site_fract_x
_atom_site_fract_y
_atom_site_fract_z
Si Si1 0.827262 0.162730 0.548195
Si Si2 0.253400 0.150902 0.080987
Si Si3 0.570868 0.169368 0.863279
Si Si4 0.456591 0.333441 0.672415
Si Si5 0.441026 0.650988 0.465489
Si Si6 0.836830 0.166074 0.907302
Si Si7 0.613309 0.152108 0.740410
Si Si8 0.275517 0.663436 0.654951
O O1 0.894912 0.203688 0.630078
O O2 0.785430 0.251072 0.429307
O O3 0.811788 0.197121 0.621899
O O4 0.817144 0.000000 0.512338
O O5 0.218498 0.208858 0.112080
O O6 0.320280 0.131852 0.192154
O O7 0.225923 0.000000 0.018424
O O8 0.250000 0.250000 0.000000
O O9 0.506769 0.238417 0.782985
O O10 0.600446 0.213161 0.815174
O O11 0.568331 0.000000 0.871253
O O12 0.608669 0.239144 0.988859
O O13 0.471810 0.500000 0.701204
O O14 0.452910 0.283522 0.571878
O O15 0.500000 0.621795 0.500000
O O16 0.408281 0.500000 0.431542
O O17 0.404594 0.752088 0.359231
O O18 0.817630 0.208936 0.788119
O O19 0.852787 0.000000 0.934363
O O20 0.581494 0.000000 0.691854
O O21 0.258675 0.500000 0.639798
#
# Coordination Sequence:
#
# PCOD8095829 Si02
#       8
#     8   8   8   8   8   8   8   8
#     4   9  19  37  60  84 110 139 172 216 267 318
#     4  10  20  34  50  73 104 139 177 216 258 309
#     4  11  22  36  54  77 107 143 182 223 265 310
#     4  10  21  37  55  78 108 143 181 217 262 320
#     4  10  20  33  50  73 102 138 179 216 254 307
#     4  10  21  36  56  79 106 143 181 218 265 318
#     4  10  21  34  48  71 105 139 174 218 264 307
#     4   9  19  37  60  85 110 137 173 217 267 319
#
# _framework density 18.24654
#
# number of rings (size 3 to 8) (size 9 to 14) (size 15 to 20)
#    0.000    2.125    2.500    0.375    1.750    2.750 
#    0.000    0.625    0.000    3.750    0.000    0.000 
#    0.000    0.000    0.000    0.000    0.000    0.000 
#
# Total GULP energy -396594.368541 kJ/mol
# GULP energy per Si atom -12393.574017 kJ/mol
# Density = 1.820501 g / cm^3
# Si number density = 18.246540 Si / 1000 Ang^3
#
#
#
# Elastic Constant Matrix: (Units=GPa)
#
#
# Indices 1 2 3 4 5 6 
#
# 1 89.9189 35.9841 52.0591 0.0000 10.6246 0.0000
# 2 35.9841 84.9437 73.5619 0.0000 6.2493 0.0000
# 3 52.0591 73.5619 143.9772 0.0000 2.3970 0.0000
# 4 0.0000 0.0000 0.0000 15.7905 0.0000 12.8487
# 5 10.6246 6.2493 2.3970 0.0000 27.5088 0.0000
# 6 0.0000 0.0000 0.0000 12.8487 0.0000 19.4773
#
#
#
# Elastic Compliance Matrix: (Units=1/GPa)
#
#
# Indices 1 2 3 4 5 6 
#
# 1 0.015064 -0.002465 -0.004105 0.000000 -0.004900 0.000000
# 2 -0.002465 0.021937 -0.010264 0.000000 -0.003137 0.000000
# 3 -0.004105 -0.010264 0.013629 0.000000 0.002730 0.000000
# 4 0.000000 0.000000 0.000000 0.136715 0.000000 -0.090188
# 5 -0.004900 -0.003137 0.002730 0.000000 0.038719 0.000000
# 6 0.000000 0.000000 0.000000 -0.090188 0.000000 0.110837
#
#
# Mechanical properties :
#
#
# Convention : Reuss Voigt Hill
#
# Bulk Modulus (GPa) = 58.96687 71.33889 65.15288
# Shear Modulus (GPa) = 13.28996 23.03763 18.16380
#
# Velocity S-wave (km/s) = 2.70173 3.55713 3.15852
# Velocity P-wave (km/s) = 6.48994 7.48685 7.00615
#
# Compressibility (1/GPa) = 0.01695867
#
# Stress axis : x y z
#
# Youngs Moduli (GPa) = 66.38508 45.58558 73.37356
#
# Poissons Ratio (x) = 0.11239 0.30123
# Poissons Ratio (y) = 0.16367 0.75314
# Poissons Ratio (z) = 0.27254 0.46791
#
# Static dielectric constant tensor:
#      x y z
#    x 3.331730 0.000000 0.051800 
#    y 0.000000 6.975910 0.000000 
#    z 0.051800 0.000000 3.349290 
# 
# 
# High freq. dielectric constant tensor:
#      x y z
#    x 1.701090 0.000000 0.002500 
#    y 0.000000 1.708450 0.000000 
#    z 0.002500 0.000000 1.701300 
# 
# From -- ./inp_files/250000.got.cif
#   From: 2010.06.25/outbox.cif.g09.slc.cpg/sg12_125_cif.got.tgz:250000.got - 2010.06.28 00:19:55.
