data_PCOD8095277
_publ_section_title
;
Structure prediction by ZEFSAII (Michael W. Deem and Ramdas Pophale) SiO2 
 PCOD8095277
Probable space group: C 2/M
;
_chemical_formula_sum "Si O2"
_cell_formula_units_Z 40
_cell_length_a 18.381269
_cell_length_b 9.177391
_cell_length_c 15.835949
_cell_angle_alpha 90.000000
_cell_angle_beta 125.994154
_cell_angle_gamma 90.000000
_cell_volume 2161.367695
_symmetry_space_group_name_H-M "C 2/M"
_symmetry_group_IT_number 12
_symmetry_cell_setting 'monoclinic'
loop_
_space_group_symop_operation_xyz
x,y,z
-x,y,-z
-x,-y,-z
x,-y,z
1/2+x,1/2+y,z
1/2-x,1/2+y,-z
1/2-x,1/2-y,-z
1/2+x,1/2-y,z
loop_
_atom_site_type_symbol
_atom_site_label
_atom_site_fract_x
_atom_site_fract_y
_atom_site_fract_z
Si Si1 0.966689 0.672327 0.609903
Si Si2 0.173812 0.173173 0.184778
Si Si3 0.331806 0.672190 0.010571
Si Si4 0.862938 0.672611 0.376812
Si Si5 0.475855 0.328048 0.788344
O O1 0.965999 0.500000 0.624715
O O2 0.890684 0.720036 0.490311
O O3 0.944581 0.752795 0.681231
O O4 0.063328 0.726139 0.640836
O O5 0.266060 0.238852 0.286605
O O6 0.089837 0.228658 0.182471
O O7 0.177268 0.000000 0.188305
O O8 0.161982 0.228683 0.081279
O O9 0.316061 0.500000 0.003080
O O10 0.423121 0.718176 0.119669
O O11 0.250000 0.750000 0.000000
O O12 0.860981 0.500000 0.371684
O O13 0.467182 0.500000 0.771079
#
# Coordination Sequence:
#
# PCOD8095277 Si02
#       5
#     8   8   8   8   8
#     4   9  17  31  51  73  96 125 163 201 234 274
#     4   9  17  31  50  70  96 130 162 193 234 284
#     4  10  20  34  53  74  95 123 160 199 238 283
#     4   8  15  29  50  72  93 125 168 201 227 274
#     4  10  20  32  48  73 101 126 156 195 239 287
#
# _framework density 18.506799000000001
#
# number of rings (size 3 to 8) (size 9 to 14) (size 15 to 20)
#    0.000    2.800    0.000    3.000    0.000    5.600 
#    0.000    3.000    0.000    4.800    0.000    0.000 
#    0.000    0.000    0.000    0.000    0.000    0.000 
#
# Total GULP energy -247969.136457 kJ/mol
# GULP energy per Si atom -12398.456823 kJ/mol
# Density = 1.846468 g / cm^3
# Si number density = 18.506799 Si / 1000 Ang^3
#
#
#
# Elastic Constant Matrix: (Units=GPa)
#
#
# Indices 1 2 3 4 5 6 
#
# 1 114.7130 24.9788 51.6669 0.0000 -19.1852 0.0000
# 2 24.9788 19.2207 25.2987 0.0000 -4.9326 0.0000
# 3 51.6669 25.2987 118.5494 0.0000 -19.3022 0.0000
# 4 0.0000 0.0000 0.0000 26.0025 0.0000 -5.6457
# 5 -19.1852 -4.9326 -19.3022 0.0000 38.0336 0.0000
# 6 0.0000 0.0000 0.0000 -5.6457 0.0000 24.4427
#
#
#
# Elastic Compliance Matrix: (Units=1/GPa)
#
#
# Indices 1 2 3 4 5 6 
#
# 1 0.013286 -0.013189 -0.002358 0.000000 0.003795 0.000000
# 2 -0.013189 0.085541 -0.012845 0.000000 -0.002078 0.000000
# 3 -0.002358 -0.012845 0.012797 0.000000 0.003639 0.000000
# 4 0.000000 0.000000 0.000000 0.040488 0.000000 0.009352
# 5 0.003795 -0.002078 0.003639 0.000000 0.029784 0.000000
# 6 0.000000 0.000000 0.000000 0.009352 0.000000 0.043072
#
#
# Mechanical properties :
#
#
# Convention : Reuss Voigt Hill
#
# Bulk Modulus (GPa) = 18.23486 50.70799 34.47142
# Shear Modulus (GPa) = 16.66495 27.73166 22.19831
#
# Velocity S-wave (km/s) = 3.00405 3.87519 3.46709
# Velocity P-wave (km/s) = 4.68048 6.89071 5.89020
#
# Compressibility (1/GPa) = 0.05484001
#
# Stress axis : x y z
#
# Youngs Moduli (GPa) = 75.26752 11.69034 78.14551
#
# Poissons Ratio (x) = 0.15418 0.18427
# Poissons Ratio (y) = 0.99268 1.00377
# Poissons Ratio (z) = 0.17748 0.15016
#
# Static dielectric constant tensor:
#      x y z
#    x 3.570770 0.000000 0.144750 
#    y 0.000000 2.880040 0.000000 
#    z 0.144750 0.000000 3.703470 
# 
# 
# High freq. dielectric constant tensor:
#      x y z
#    x 1.724970 0.000000 0.000420 
#    y 0.000000 1.664540 0.000000 
#    z 0.000420 0.000000 1.735810 
# 
# From -- ./inp_files/140494.got.cif
#   From: 2010.06.25/outbox.cif.g09.slc.cpg/sg12_71_cif.got.tgz:140494.got - 2010.06.28 00:19:55.
