data_PCOD8095405
_publ_section_title
;
Structure prediction by ZEFSAII (Michael W. Deem and Ramdas Pophale) SiO2 
 PCOD8095405
Probable space group: C 2/M
;
_chemical_formula_sum "Si O2"
_cell_formula_units_Z 48
_cell_length_a 22.797924
_cell_length_b 8.712033
_cell_length_c 17.651416
_cell_angle_alpha 90.000000
_cell_angle_beta 130.110186
_cell_angle_gamma 90.000000
_cell_volume 2681.304568
_symmetry_space_group_name_H-M "C 2/M"
_symmetry_group_IT_number 12
_symmetry_cell_setting 'monoclinic'
loop_
_space_group_symop_operation_xyz
x,y,z
-x,y,-z
-x,-y,-z
x,-y,z
1/2+x,1/2+y,z
1/2-x,1/2+y,-z
1/2-x,1/2-y,-z
1/2+x,1/2-y,z
loop_
_atom_site_type_symbol
_atom_site_label
_atom_site_fract_x
_atom_site_fract_y
_atom_site_fract_z
Si Si1 0.692192 0.683042 0.391507
Si Si2 0.044557 0.169157 0.107278
Si Si3 0.782143 0.167983 0.755984
Si Si4 0.030588 0.322655 0.246593
Si Si5 0.369523 0.680404 0.107096
Si Si6 0.268619 0.179606 0.899823
O O1 0.690607 0.500000 0.391020
O O2 0.750000 0.750000 0.500000
O O3 0.721861 0.739413 0.332823
O O4 0.606668 0.739677 0.343013
O O5 0.129976 0.145913 0.151155
O O6 0.034723 0.300841 0.160423
O O7 0.013372 0.000000 0.108723
O O8 0.000000 0.236295 0.000000
O O9 0.750437 0.273687 0.797410
O O10 0.741278 0.000000 0.724103
O O11 0.033227 0.500000 0.272008
O O12 0.949624 0.250304 0.204902
O O13 0.379108 0.500000 0.109056
O O14 0.306644 0.729314 0.116511
O O15 0.342803 0.741619 0.001706
O O16 0.283754 0.000000 0.915342
#
# Coordination Sequence:
#
# PCOD8095405 Si02
#       6
#     8   8   8   8   8   8
#     4  10  21  38  58  79 102 130 164 206 260 312
#     4   9  17  29  45  67  98 134 165 198 247 301
#     4   9  18  31  49  73 102 134 164 200 251 305
#     4  11  21  32  50  75 100 130 169 210 251 298
#     4  10  20  34  50  71 105 144 176 209 250 295
#     4  10  20  32  50  76 104 138 178 213 246 291
#
# _framework density 17.901734000000001
#
# number of rings (size 3 to 8) (size 9 to 14) (size 15 to 20)
#    0.000    2.167    0.000    5.000    0.000    7.000 
#    0.000    0.000    0.000    1.000    0.000    7.000 
#    0.000    0.000    0.000    0.000    0.000    0.000 
#
# Total GULP energy -297343.053638 kJ/mol
# GULP energy per Si atom -12389.293902 kJ/mol
# Density = 1.786099 g / cm^3
# Si number density = 17.901734 Si / 1000 Ang^3
#
#
#
# Elastic Constant Matrix: (Units=GPa)
#
#
# Indices 1 2 3 4 5 6 
#
# 1 78.5244 29.9019 45.2015 0.0000 0.4407 0.0000
# 2 29.9019 83.4184 35.7507 0.0000 2.1086 0.0000
# 3 45.2015 35.7507 136.7037 0.0000 2.6826 0.0000
# 4 0.0000 0.0000 0.0000 26.5733 0.0000 2.8454
# 5 0.4407 2.1086 2.6826 0.0000 25.5373 0.0000
# 6 0.0000 0.0000 0.0000 2.8454 0.0000 25.2182
#
#
#
# Elastic Compliance Matrix: (Units=1/GPa)
#
#
# Indices 1 2 3 4 5 6 
#
# 1 0.016909 -0.004138 -0.004519 0.000000 0.000525 0.000000
# 2 -0.004138 0.014528 -0.002414 0.000000 -0.000875 0.000000
# 3 -0.004519 -0.002414 0.009455 0.000000 -0.000716 0.000000
# 4 0.000000 0.000000 0.000000 0.038092 0.000000 -0.004298
# 5 0.000525 -0.000875 -0.000716 0.000000 0.039297 0.000000
# 6 0.000000 0.000000 0.000000 -0.004298 0.000000 0.040139
#
#
# Mechanical properties :
#
#
# Convention : Reuss Voigt Hill
#
# Bulk Modulus (GPa) = 53.33420 57.81717 55.57569
# Shear Modulus (GPa) = 26.76512 27.98527 27.37520
#
# Velocity S-wave (km/s) = 3.87086 3.95811 3.91473
# Velocity P-wave (km/s) = 7.05943 7.29767 7.17954
#
# Compressibility (1/GPa) = 0.01874969
#
# Stress axis : x y z
#
# Youngs Moduli (GPa) = 59.14018 68.83458 105.76706
#
# Poissons Ratio (x) = 0.28481 0.47799
# Poissons Ratio (y) = 0.24470 0.25532
# Poissons Ratio (z) = 0.26727 0.16617
#
# Static dielectric constant tensor:
#      x y z
#    x 3.190720 0.000000 0.051880 
#    y 0.000000 3.342500 0.000000 
#    z 0.051880 0.000000 3.463830 
# 
# 
# High freq. dielectric constant tensor:
#      x y z
#    x 1.682490 0.000000 0.004320 
#    y 0.000000 1.696690 0.000000 
#    z 0.004320 0.000000 1.672540 
# 
# From -- ./inp_files/281831.got.cif
#   From: 2010.06.25/outbox.cif.g09.slc.cpg/sg12_141_cif.got.tgz:281831.got - 2010.06.28 00:19:55.
