data_PCOD8095132
_publ_section_title
;
Structure prediction by ZEFSAII (Michael W. Deem and Ramdas Pophale) SiO2 
 PCOD8095132
Probable space group: C 2/M
;
_chemical_formula_sum "Si O2"
_cell_formula_units_Z 48
_cell_length_a 32.171914
_cell_length_b 9.164258
_cell_length_c 9.613936
_cell_angle_alpha 90.000000
_cell_angle_beta 105.203673
_cell_angle_gamma 90.000000
_cell_volume 2735.285130
_symmetry_space_group_name_H-M "C 2/M"
_symmetry_group_IT_number 12
_symmetry_cell_setting 'monoclinic'
loop_
_space_group_symop_operation_xyz
x,y,z
-x,y,-z
-x,-y,-z
x,-y,z
1/2+x,1/2+y,z
1/2-x,1/2+y,-z
1/2-x,1/2-y,-z
1/2+x,1/2-y,z
loop_
_atom_site_type_symbol
_atom_site_label
_atom_site_fract_x
_atom_site_fract_y
_atom_site_fract_z
Si Si1 0.464849 0.328542 0.856361
Si Si2 0.129942 0.838777 0.213278
Si Si3 0.960475 0.668278 0.568198
Si Si4 0.793774 0.335197 0.377597
Si Si5 0.123660 0.835947 0.537901
Si Si6 0.210686 0.336358 0.294704
O O1 0.466774 0.500000 0.820935
O O2 0.417662 0.289137 0.878139
O O3 0.474307 0.238376 0.726156
O O4 0.500000 0.282575 0.000000
O O5 0.129299 0.841947 0.378536
O O6 0.166681 0.729241 0.191148
O O7 0.140968 0.000000 0.165827
O O8 0.947913 0.500000 0.581626
O O9 0.919891 0.749899 0.463110
O O10 0.000000 0.685807 0.500000
O O11 0.795744 0.500000 0.322309
O O12 0.835575 0.247872 0.359907
O O13 0.792025 0.334860 0.542025
O O14 0.751237 0.258184 0.278908
O O15 0.121417 0.000000 0.597379
O O16 0.216123 0.500000 0.242902
#
# Coordination Sequence:
#
# PCOD8095132 Si02
#       6
#     8   8   8   8   8   8
#     4   9  18  32  49  68  90 118 153 191 229 270
#     4   8  14  24  37  54  78 107 138 174 217 261
#     4  10  20  32  46  66  92 121 153 188 226 269
#     4   9  15  22  33  50  75 106 138 173 214 259
#     4   9  16  26  40  57  79 109 144 180 219 263
#     4   9  15  21  31  49  74 105 140 173 207 254
#
# _framework density 17.548444
#
# number of rings (size 3 to 8) (size 9 to 14) (size 15 to 20)
#    0.000    3.000    0.000    3.000    0.000    9.667 
#    0.000    0.000    0.000    0.000    0.000    0.000 
#    0.000    1.333    0.000    4.000    0.000   11.167 
#
# Total GULP energy -297517.675655 kJ/mol
# GULP energy per Si atom -12396.569819 kJ/mol
# Density = 1.750850 g / cm^3
# Si number density = 17.548444 Si / 1000 Ang^3
#
#
#
# Elastic Constant Matrix: (Units=GPa)
#
#
# Indices 1 2 3 4 5 6 
#
# 1 124.6122 81.7390 42.6325 0.0000 39.4692 0.0000
# 2 81.7390 153.7618 35.3642 0.0000 23.1040 0.0000
# 3 42.6325 35.3642 35.9114 0.0000 21.2901 0.0000
# 4 0.0000 0.0000 0.0000 13.5058 0.0000 8.3180
# 5 39.4692 23.1040 21.2901 0.0000 27.9290 0.0000
# 6 0.0000 0.0000 0.0000 8.3180 0.0000 34.3677
#
#
#
# Elastic Compliance Matrix: (Units=1/GPa)
#
#
# Indices 1 2 3 4 5 6 
#
# 1 0.020487 -0.006523 -0.007175 0.000000 -0.018087 0.000000
# 2 -0.006523 0.010506 -0.005318 0.000000 0.004581 0.000000
# 3 -0.007175 -0.005318 0.060177 0.000000 -0.031334 0.000000
# 4 0.000000 0.000000 0.000000 0.087013 0.000000 -0.021060
# 5 -0.018087 0.004581 -0.031334 0.000000 0.081461 0.000000
# 6 0.000000 0.000000 0.000000 -0.021060 0.000000 0.034194
#
#
# Mechanical properties :
#
#
# Convention : Reuss Voigt Hill
#
# Bulk Modulus (GPa) = 18.81884 70.41742 44.61813
# Shear Modulus (GPa) = 14.30276 25.46380 19.88328
#
# Velocity S-wave (km/s) = 2.85800 3.81341 3.36973
# Velocity P-wave (km/s) = 4.65167 7.72036 6.37346
#
# Compressibility (1/GPa) = 0.05313823
#
# Stress axis : x y z
#
# Youngs Moduli (GPa) = 48.81130 95.18506 16.61752
#
# Poissons Ratio (x) = 0.62088 0.11923
# Poissons Ratio (y) = 0.31839 0.08837
# Poissons Ratio (z) = 0.35023 0.50619
#
# Static dielectric constant tensor:
#      x y z
#    x 3.400550 0.000000 0.474520 
#    y 0.000000 3.516060 0.000000 
#    z 0.474520 0.000000 2.700900 
# 
# 
# High freq. dielectric constant tensor:
#      x y z
#    x 1.681740 0.000000 0.042030 
#    y 0.000000 1.693160 0.000000 
#    z 0.042030 0.000000 1.602630 
# 
# From -- ./inp_files/108740.got.cif
#   From: 2010.06.25/outbox.cif.g09.slc.cpg/sg12_55_cif.got.tgz:108740.got - 2010.06.28 00:19:55.
