data_PCOD8095317
_publ_section_title
;
Structure prediction by ZEFSAII (Michael W. Deem and Ramdas Pophale) SiO2 
 PCOD8095317
Probable space group: C 2/M
;
_chemical_formula_sum "Si O2"
_cell_formula_units_Z 64
_cell_length_a 9.225328
_cell_length_b 28.857863
_cell_length_c 16.366819
_cell_angle_alpha 90.000000
_cell_angle_beta 118.291485
_cell_angle_gamma 90.000000
_cell_volume 3836.747330
_symmetry_space_group_name_H-M "C 2/M"
_symmetry_group_IT_number 12
_symmetry_cell_setting 'monoclinic'
loop_
_space_group_symop_operation_xyz
x,y,z
-x,y,-z
-x,-y,-z
x,-y,z
1/2+x,1/2+y,z
1/2-x,1/2+y,-z
1/2-x,1/2-y,-z
1/2+x,1/2-y,z
loop_
_atom_site_type_symbol
_atom_site_label
_atom_site_fract_x
_atom_site_fract_y
_atom_site_fract_z
Si Si1 0.649546 0.445274 0.273332
Si Si2 0.310701 0.554545 0.267661
Si Si3 0.338970 0.445065 0.911738
Si Si4 0.185061 0.890290 0.569260
Si Si5 0.718264 0.708077 0.609258
Si Si6 0.895732 0.210272 0.602230
Si Si7 0.687365 0.118776 0.561870
Si Si8 0.490287 0.055292 0.089809
O O1 0.681343 0.500000 0.292519
O O2 0.473340 0.429865 0.262727
O O3 0.656242 0.430037 0.181121
O O4 0.792418 0.416761 0.357568
O O5 0.300043 0.500000 0.267621
O O6 0.314154 0.570992 0.361813
O O7 0.149973 0.574830 0.179783
O O8 0.340207 0.500000 0.919792
O O9 0.174395 0.425302 0.910780
O O10 0.500000 0.424558 0.000000
O O11 0.289794 0.844390 0.622354
O O12 0.260669 0.910102 0.505598
O O13 0.000000 0.872607 0.500000
O O14 0.855266 0.748290 0.656200
O O15 0.594436 0.706409 0.653954
O O16 0.642053 0.722602 0.501625
O O17 0.803376 0.163506 0.606173
O O18 0.500000 0.135266 0.500000
O O19 0.489972 0.000000 0.090614
O O20 0.500000 0.073907 0.000000
#
# Coordination Sequence:
#
# PCOD8095317 Si02
#       8
#     8   8   8   8   8   8   8   8
#     4  10  20  34  47  64  90 123 158 190 228 268
#     4  10  20  32  49  66  87 122 160 192 223 267
#     4   9  17  30  48  67  89 113 142 188 238 274
#     4  11  19  34  45  63  92 125 159 191 223 261
#     4   9  16  28  45  63  85 112 148 190 231 270
#     4   9  17  28  44  64  84 112 149 189 232 269
#     4  11  23  32  44  64  92 126 159 192 224 266
#     4   9  17  30  48  69  87 109 147 191 233 273
#
# _framework density 16.680796000000001
#
# number of rings (size 3 to 8) (size 9 to 14) (size 15 to 20)
#    0.000    2.250    3.750    0.750    7.000    4.000 
#    0.000    0.000    0.000    0.000    0.000    0.000 
#    0.000    1.000    0.000    7.250    0.000    2.250 
#
# Total GULP energy -396543.928089 kJ/mol
# GULP energy per Si atom -12391.997753 kJ/mol
# Density = 1.664283 g / cm^3
# Si number density = 16.680796 Si / 1000 Ang^3
#
#
#
# Elastic Constant Matrix: (Units=GPa)
#
#
# Indices 1 2 3 4 5 6 
#
# 1 90.7545 18.0886 38.9995 0.0000 -8.6644 0.0000
# 2 18.0886 26.8697 24.0973 0.0000 1.1657 0.0000
# 3 38.9995 24.0973 77.4632 0.0000 -9.1396 0.0000
# 4 0.0000 0.0000 0.0000 1.3252 0.0000 -0.2358
# 5 -8.6644 1.1657 -9.1396 0.0000 25.9458 0.0000
# 6 0.0000 0.0000 0.0000 -0.2358 0.0000 20.0462
#
#
#
# Elastic Compliance Matrix: (Units=1/GPa)
#
#
# Indices 1 2 3 4 5 6 
#
# 1 0.014680 -0.005183 -0.005397 0.000000 0.003234 0.000000
# 2 -0.005183 0.055228 -0.015722 0.000000 -0.009750 0.000000
# 3 -0.005397 -0.015722 0.021272 0.000000 0.006397 0.000000
# 4 0.000000 0.000000 0.000000 0.756170 0.000000 0.008896
# 5 0.003234 -0.009750 0.006397 0.000000 0.042313 0.000000
# 6 0.000000 0.000000 0.000000 0.008896 0.000000 0.049989
#
#
# Mechanical properties :
#
#
# Convention : Reuss Voigt Hill
#
# Bulk Modulus (GPa) = 25.92178 39.71759 32.81968
# Shear Modulus (GPa) = 4.97456 17.05690 11.01573
#
# Velocity S-wave (km/s) = 1.72878 3.20120 2.57258
# Velocity P-wave (km/s) = 4.42250 6.12582 5.34248
#
# Compressibility (1/GPa) = 0.03857760
#
# Stress axis : x y z
#
# Youngs Moduli (GPa) = 68.12183 18.10679 47.01035
#
# Poissons Ratio (x) = 0.09384 0.25371
# Poissons Ratio (y) = 0.35304 0.73907
# Poissons Ratio (z) = 0.36764 0.28467
#
# Static dielectric constant tensor:
#      x y z
#    x 3.536800 0.000000 -0.029970 
#    y 0.000000 2.792930 0.000000 
#    z -0.029970 0.000000 2.917080 
# 
# 
# High freq. dielectric constant tensor:
#      x y z
#    x 1.662670 0.000000 -0.009570 
#    y 0.000000 1.603950 0.000000 
#    z -0.009570 0.000000 1.600640 
# 
# From -- ./inp_files/200928.got.cif
#   From: 2010.06.25/outbox.cif.g09.slc.cpg/sg12_101_cif.got.tgz:200928.got - 2010.06.28 00:19:55.
