data_PCOD8095626
_publ_section_title
;
Structure prediction by ZEFSAII (Michael W. Deem and Ramdas Pophale) SiO2 
 PCOD8095626
Probable space group: C 2/M
;
_chemical_formula_sum "Si O2"
_cell_formula_units_Z 56
_cell_length_a 27.868992
_cell_length_b 8.906878
_cell_length_c 14.238280
_cell_angle_alpha 90.000000
_cell_angle_beta 60.848753
_cell_angle_gamma 90.000000
_cell_volume 3086.640816
_symmetry_space_group_name_H-M "C 2/M"
_symmetry_group_IT_number 12
_symmetry_cell_setting 'monoclinic'
loop_
_space_group_symop_operation_xyz
x,y,z
-x,y,-z
-x,-y,-z
x,-y,z
1/2+x,1/2+y,z
1/2-x,1/2+y,-z
1/2-x,1/2-y,-z
1/2+x,1/2-y,z
loop_
_atom_site_type_symbol
_atom_site_label
_atom_site_fract_x
_atom_site_fract_y
_atom_site_fract_z
Si Si1 0.126683 0.676341 0.864155
Si Si2 0.707860 0.674401 0.911227
Si Si3 0.963461 0.163884 0.943931
Si Si4 0.071444 0.322340 0.349364
Si Si5 0.326623 0.175926 0.867945
Si Si6 0.050317 0.677671 0.576022
Si Si7 0.930478 0.177516 0.255751
O O1 0.128444 0.500000 0.849059
O O2 0.185975 0.738344 0.839957
O O3 0.110330 0.749626 0.781001
O O4 0.084541 0.717760 0.989064
O O5 0.694954 0.500000 0.911565
O O6 0.772654 0.706104 0.856856
O O7 0.676286 0.733153 0.033168
O O8 0.005605 0.223280 0.824315
O O9 0.938208 0.000000 0.941316
O O10 0.000000 0.141290 0.000000
O O11 0.072657 0.500000 0.346208
O O12 0.121328 0.259159 0.239115
O O13 0.078346 0.271822 0.451323
O O14 0.013137 0.267205 0.364409
O O15 0.332314 0.000000 0.886446
O O16 0.054179 0.500000 0.587486
O O17 0.083342 0.760011 0.627895
O O18 0.922210 0.000000 0.258490
#
# Coordination Sequence:
#
# PCOD8095626 Si02
#       7
#     8   8   8   8   8   8   8
#     4  11  21  32  49  71  97 131 171 207 245 298
#     4  10  20  33  50  74 104 133 166 208 253 294
#     4   8  16  30  44  63  95 129 159 194 240 288
#     4   8  16  32  53  76 101 130 166 208 246 287
#     4   9  18  34  54  75  99 133 172 206 245 296
#     4   9  17  31  52  77 103 131 166 203 244 294
#     4  10  20  33  48  70 103 134 163 202 249 298
#
# _framework density 18.142702
#
# number of rings (size 3 to 8) (size 9 to 14) (size 15 to 20)
#    0.000    2.714    0.000    3.857    2.000    3.714 
#    0.000    2.143    0.000    0.857    0.000    0.000 
#    0.000    0.000    0.000    0.000    0.000    0.000 
#
# Total GULP energy -347077.976481 kJ/mol
# GULP energy per Si atom -12395.642017 kJ/mol
# Density = 1.810141 g / cm^3
# Si number density = 18.142702 Si / 1000 Ang^3
#
#
#
# Elastic Constant Matrix: (Units=GPa)
#
#
# Indices 1 2 3 4 5 6 
#
# 1 85.7555 38.9074 31.9845 0.0000 12.9112 0.0000
# 2 38.9074 82.3267 24.2127 0.0000 11.7205 0.0000
# 3 31.9845 24.2127 77.9729 0.0000 1.6143 0.0000
# 4 0.0000 0.0000 0.0000 11.3141 0.0000 9.6892
# 5 12.9112 11.7205 1.6143 0.0000 29.1024 0.0000
# 6 0.0000 0.0000 0.0000 9.6892 0.0000 26.4229
#
#
#
# Elastic Compliance Matrix: (Units=1/GPa)
#
#
# Indices 1 2 3 4 5 6 
#
# 1 0.016911 -0.005818 -0.005029 0.000000 -0.004880 0.000000
# 2 -0.005818 0.016191 -0.002562 0.000000 -0.003797 0.000000
# 3 -0.005029 -0.002562 0.015634 0.000000 0.002396 0.000000
# 4 0.000000 0.000000 0.000000 0.128848 0.000000 -0.047248
# 5 -0.004880 -0.003797 0.002396 0.000000 0.037923 0.000000
# 6 0.000000 0.000000 0.000000 -0.047248 0.000000 0.055172
#
#
# Mechanical properties :
#
#
# Convention : Reuss Voigt Hill
#
# Bulk Modulus (GPa) = 45.62836 48.47381 47.05108
# Shear Modulus (GPa) = 16.40398 23.43126 19.91762
#
# Velocity S-wave (km/s) = 3.01019 3.59764 3.31695
# Velocity P-wave (km/s) = 6.10623 6.63577 6.37650
#
# Compressibility (1/GPa) = 0.02191620
#
# Stress axis : x y z
#
# Youngs Moduli (GPa) = 59.13157 61.76410 63.96293
#
# Poissons Ratio (x) = 0.35937 0.32169
# Poissons Ratio (y) = 0.34405 0.16389
# Poissons Ratio (z) = 0.29739 0.15826
#
# Static dielectric constant tensor:
#      x y z
#    x 3.378190 0.000000 -0.075120 
#    y 0.000000 3.164960 0.000000 
#    z -0.075120 0.000000 3.546650 
# 
# 
# High freq. dielectric constant tensor:
#      x y z
#    x 1.698160 0.000000 0.014210 
#    y 0.000000 1.691950 0.000000 
#    z 0.014210 0.000000 1.680700 
# 
# From -- ./inp_files/243600.got.cif
#   From: 2010.06.25/outbox.cif.g09.slc.cpg/sg12_122_cif.got.tgz:243600.got - 2010.06.28 00:19:55.
