data_PCOD8095767
_publ_section_title
;
Structure prediction by ZEFSAII (Michael W. Deem and Ramdas Pophale) SiO2 
 PCOD8095767
Probable space group: C 2/M
;
_chemical_formula_sum "Si O2"
_cell_formula_units_Z 48
_cell_length_a 18.780365
_cell_length_b 9.478345
_cell_length_c 32.075658
_cell_angle_alpha 90.000000
_cell_angle_beta 151.501403
_cell_angle_gamma 90.000000
_cell_volume 2724.303133
_symmetry_space_group_name_H-M "C 2/M"
_symmetry_group_IT_number 12
_symmetry_cell_setting 'monoclinic'
loop_
_space_group_symop_operation_xyz
x,y,z
-x,y,-z
-x,-y,-z
x,-y,z
1/2+x,1/2+y,z
1/2-x,1/2+y,-z
1/2-x,1/2-y,-z
1/2+x,1/2-y,z
loop_
_atom_site_type_symbol
_atom_site_label
_atom_site_fract_x
_atom_site_fract_y
_atom_site_fract_z
Si Si1 0.695034 0.166527 0.271016
Si Si2 0.182211 0.834624 0.427216
Si Si3 0.847052 0.166914 0.266108
Si Si4 0.672460 0.834922 0.585705
Si Si5 0.431571 0.162268 0.923816
Si Si6 0.896643 0.340130 0.071471
O O1 0.811406 0.217212 0.295004
O O2 0.730710 0.249497 0.331364
O O3 0.527557 0.207306 0.170523
O O4 0.709295 0.000000 0.286721
O O5 0.250000 0.750000 0.500000
O O6 0.267851 0.793907 0.429207
O O7 0.010015 0.787226 0.334868
O O8 0.195465 0.000000 0.443820
O O9 0.726018 0.232394 0.171493
O O10 0.824430 0.000000 0.254574
O O11 0.500000 0.790048 0.500000
O O12 0.693673 0.000000 0.605669
O O13 0.549970 0.177259 0.948138
O O14 0.399848 0.000000 0.918603
O O15 0.500000 0.238829 0.000000
O O16 0.852836 0.500000 0.058758
O O17 0.750000 0.250000 0.000000
#
# Coordination Sequence:
#
# PCOD8095767 Si02
#       6
#     8   8   8   8   8   8
#     4   9  18  33  51  70  94 126 164 201 235 278
#     4  10  20  33  50  71  95 124 158 195 234 279
#     4   8  15  29  47  67  91 120 158 199 231 266
#     4  10  21  34  48  72 103 128 154 194 243 291
#     4   8  14  26  46  70  93 119 155 197 234 269
#     4   9  18  31  48  72  99 126 158 197 240 286
#
# _framework density 17.619185000000002
#
# number of rings (size 3 to 8) (size 9 to 14) (size 15 to 20)
#    0.000    3.000    0.000    3.000    0.000    3.000 
#    0.000    3.333    0.000    1.500    0.000    0.000 
#    0.000    0.000    0.000    0.000    0.000    0.000 
#
# Total GULP energy -297492.140702 kJ/mol
# GULP energy per Si atom -12395.505863 kJ/mol
# Density = 1.757908 g / cm^3
# Si number density = 17.619185 Si / 1000 Ang^3
#
#
#
# Elastic Constant Matrix: (Units=GPa)
#
#
# Indices 1 2 3 4 5 6 
#
# 1 120.3037 41.1287 91.2780 0.0000 -0.9159 0.0000
# 2 41.1287 39.0318 51.6422 0.0000 -2.7758 0.0002
# 3 91.2780 51.6422 147.0576 0.0003 -7.4798 0.0002
# 4 0.0000 0.0000 0.0003 29.3802 0.0001 -1.9819
# 5 -0.9159 -2.7758 -7.4798 0.0001 39.9920 0.0000
# 6 0.0000 0.0002 0.0002 -1.9819 0.0000 18.7171
#
#
#
# Elastic Compliance Matrix: (Units=1/GPa)
#
#
# Indices 1 2 3 4 5 6 
#
# 1 0.016851 -0.007329 -0.007967 0.000000 -0.001613 0.000000
# 2 -0.007329 0.051044 -0.013331 0.000000 0.000882 0.000000
# 3 -0.007967 -0.013331 0.016528 0.000000 0.001983 0.000000
# 4 0.000000 0.000000 0.000000 0.034281 0.000000 0.003630
# 5 -0.001613 0.000882 0.001983 0.000000 0.025400 0.000000
# 6 0.000000 0.000000 0.000000 0.003630 0.000000 0.053811
#
#
# Mechanical properties :
#
#
# Convention : Reuss Voigt Hill
#
# Bulk Modulus (GPa) = 36.80941 74.94342 55.87641
# Shear Modulus (GPa) = 18.92317 25.77413 22.34865
#
# Velocity S-wave (km/s) = 3.28076 3.82886 3.56536
# Velocity P-wave (km/s) = 5.94039 7.88507 6.98078
#
# Compressibility (1/GPa) = 0.02716697
#
# Stress axis : x y z
#
# Youngs Moduli (GPa) = 59.34415 19.59109 60.50432
#
# Poissons Ratio (x) = 0.14359 0.48207
# Poissons Ratio (y) = 0.43495 0.80658
# Poissons Ratio (z) = 0.47282 0.26117
#
# Static dielectric constant tensor:
#      x y z
#    x 2.901600 0.000000 -0.206550 
#    y 0.000000 2.885930 0.000000 
#    z -0.206550 0.000000 3.659360 
# 
# 
# High freq. dielectric constant tensor:
#      x y z
#    x 1.683800 0.000000 0.000190 
#    y 0.000000 1.639430 0.000000 
#    z 0.000190 0.000000 1.696900 
# 
# From -- ./inp_files/231354.got.cif
#   From: 2010.06.25/outbox.cif.g09.slc.cpg/sg12_116_cif.got.tgz:231354.got - 2010.06.28 00:19:55.
