data_PCOD8095564
_publ_section_title
;
Structure prediction by ZEFSAII (Michael W. Deem and Ramdas Pophale) SiO2 
 PCOD8095564
Probable space group: C 2/M
;
_chemical_formula_sum "Si O2"
_cell_formula_units_Z 64
_cell_length_a 17.129589
_cell_length_b 21.966021
_cell_length_c 8.901221
_cell_angle_alpha 90.000000
_cell_angle_beta 105.403958
_cell_angle_gamma 90.000000
_cell_volume 3228.937724
_symmetry_space_group_name_H-M "C 2/M"
_symmetry_group_IT_number 12
_symmetry_cell_setting 'monoclinic'
loop_
_space_group_symop_operation_xyz
x,y,z
-x,y,-z
-x,-y,-z
x,-y,z
1/2+x,1/2+y,z
1/2-x,1/2+y,-z
1/2-x,1/2-y,-z
1/2+x,1/2-y,z
loop_
_atom_site_type_symbol
_atom_site_label
_atom_site_fract_x
_atom_site_fract_y
_atom_site_fract_z
Si Si1 0.776137 0.371079 0.868335
Si Si2 0.671739 0.429404 0.058363
Si Si3 0.525495 0.857419 0.681047
Si Si4 0.854122 0.281859 0.138757
Si Si5 0.094927 0.807822 0.066379
Si Si6 0.622644 0.930976 0.313981
Si Si7 0.326543 0.068841 0.336116
Si Si8 0.730521 0.753177 0.314427
O O1 0.826257 0.423875 0.810832
O O2 0.753299 0.322837 0.726346
O O3 0.703234 0.407611 0.911120
O O4 0.829644 0.335321 0.014461
O O5 0.640745 0.500000 0.033781
O O6 0.738385 0.422352 0.221788
O O7 0.601888 0.381504 0.073211
O O8 0.500000 0.846251 0.500000
O O9 0.552035 0.792940 0.766201
O O10 0.455796 0.888292 0.742264
O O11 0.608085 0.895944 0.729274
O O12 0.853058 0.216878 0.052295
O O13 0.795533 0.286083 0.253174
O O14 0.139726 0.773985 0.231338
O O15 0.000000 0.790409 0.000000
O O16 0.673701 0.911357 0.488472
O O17 0.592585 0.000000 0.312857
O O18 0.355385 0.000000 0.338940
O O19 0.750000 0.750000 0.500000
#
# Coordination Sequence:
#
# PCOD8095564 Si02
#       8
#     8   8   8   8   8   8   8   8
#     4  11  21  37  60  87 120 159 201 254 299 361
#     4  11  21  40  65  86 112 161 208 251 308 365
#     4  10  20  32  57  81 123 161 204 244 301 358
#     4  11  22  41  59  86 122 157 201 247 303 360
#     4  11  24  42  63  94 126 156 195 256 313 360
#     4  10  22  35  52  89 127 161 203 248 295 356
#     4   9  18  35  57  80 116 162 208 251 293 350
#     4  11  24  41  70  91 119 162 209 253 306 367
#
# _framework density 19.82076
#
# number of rings (size 3 to 8) (size 9 to 14) (size 15 to 20)
#    0.000    1.500    3.750    1.500    8.750    1.750 
#    0.000    0.625    0.000    0.000    0.000    0.875 
#    0.000    0.000    0.000    0.000    0.000    0.000 
#
# Total GULP energy -396524.893452 kJ/mol
# GULP energy per Si atom -12391.402920 kJ/mol
# Density = 1.977565 g / cm^3
# Si number density = 19.820760 Si / 1000 Ang^3
#
#
#
# Elastic Constant Matrix: (Units=GPa)
#
#
# Indices 1 2 3 4 5 6 
#
# 1 57.5099 10.9412 51.4270 0.0000 11.1641 0.0000
# 2 10.9412 83.7813 38.1226 0.0000 10.4707 0.0000
# 3 51.4270 38.1226 95.2311 0.0000 -5.5344 0.0000
# 4 0.0000 0.0000 0.0000 25.9983 0.0000 3.3942
# 5 11.1641 10.4707 -5.5344 0.0000 23.4479 0.0000
# 6 0.0000 0.0000 0.0000 3.3942 0.0000 30.1332
#
#
#
# Elastic Compliance Matrix: (Units=1/GPa)
#
#
# Indices 1 2 3 4 5 6 
#
# 1 0.061907 0.017507 -0.043199 0.000000 -0.047490 0.000000
# 2 0.017507 0.021195 -0.019238 0.000000 -0.022341 0.000000
# 3 -0.043199 -0.019238 0.043826 0.000000 0.039503 0.000000
# 4 0.000000 0.000000 0.000000 0.039038 0.000000 -0.004397
# 5 -0.047490 -0.022341 0.039503 0.000000 0.084559 0.000000
# 6 0.000000 0.000000 0.000000 -0.004397 0.000000 0.033681
#
#
# Mechanical properties :
#
#
# Convention : Reuss Voigt Hill
#
# Bulk Modulus (GPa) = 26.97673 48.61154 37.79414
# Shear Modulus (GPa) = 12.93921 24.98465 18.96193
#
# Velocity S-wave (km/s) = 2.55779 3.55424 3.09636
# Velocity P-wave (km/s) = 4.72895 6.43602 5.64736
#
# Compressibility (1/GPa) = 0.03706898
#
# Stress axis : x y z
#
# Youngs Moduli (GPa) = 16.15337 47.18049 22.81732
#
# Poissons Ratio (x) = -0.82601 0.98569
# Poissons Ratio (y) = -0.28280 0.43895
# Poissons Ratio (z) = 0.69782 0.90764
#
# Static dielectric constant tensor:
#      x y z
#    x 3.425490 0.000000 0.068030 
#    y 0.000000 3.867950 0.000000 
#    z 0.068030 0.000000 3.756290 
# 
# 
# High freq. dielectric constant tensor:
#      x y z
#    x 1.744300 0.000000 0.000240 
#    y 0.000000 1.782000 0.000000 
#    z 0.000240 0.000000 1.774000 
# 
# From -- ./inp_files/78804.got.cif
#   From: 2010.06.25/outbox.cif.g09.slc.cpg/sg12_40_cif.got.tgz:78804.got - 2010.06.28 00:19:55.
