data_PCOD8095661
_publ_section_title
;
Structure prediction by ZEFSAII (Michael W. Deem and Ramdas Pophale) SiO2 
 PCOD8095661
Probable space group: C 2/M
;
_chemical_formula_sum "Si O2"
_cell_formula_units_Z 48
_cell_length_a 20.434927
_cell_length_b 9.102799
_cell_length_c 15.607074
_cell_angle_alpha 90.000000
_cell_angle_beta 71.049488
_cell_angle_gamma 90.000000
_cell_volume 2745.797967
_symmetry_space_group_name_H-M "C 2/M"
_symmetry_group_IT_number 12
_symmetry_cell_setting 'monoclinic'
loop_
_space_group_symop_operation_xyz
x,y,z
-x,y,-z
-x,-y,-z
x,-y,z
1/2+x,1/2+y,z
1/2-x,1/2+y,-z
1/2-x,1/2-y,-z
1/2+x,1/2-y,z
loop_
_atom_site_type_symbol
_atom_site_label
_atom_site_fract_x
_atom_site_fract_y
_atom_site_fract_z
Si Si1 0.576218 0.828957 0.440606
Si Si2 0.097429 0.325457 0.897879
Si Si3 0.258609 0.172014 0.234289
Si Si4 0.951817 0.325418 0.899248
Si Si5 0.791817 0.172263 0.556601
Si Si6 0.126974 0.671721 0.232319
O O1 0.500000 0.777979 0.500000
O O2 0.630782 0.736555 0.472861
O O3 0.584528 0.794641 0.336621
O O4 0.588467 0.000000 0.455765
O O5 0.098036 0.500000 0.893217
O O6 0.167141 0.262747 0.825539
O O7 0.030661 0.266303 0.873790
O O8 0.092103 0.273969 0.999123
O O9 0.248005 0.207995 0.338503
O O10 0.200868 0.249858 0.201421
O O11 0.253167 0.000000 0.218396
O O12 0.953600 0.500000 0.894241
O O13 0.916980 0.262170 0.828069
O O14 0.750000 0.250000 0.500000
O O15 0.796136 0.000000 0.536398
O O16 0.140624 0.500000 0.214912
#
# Coordination Sequence:
#
# PCOD8095661 Si02
#       6
#     8   8   8   8   8   8
#     4   9  18  32  49  69  94 124 157 193 232 275
#     4   8  14  26  44  66  91 117 149 187 222 260
#     4   9  18  31  47  67  91 119 149 183 224 270
#     4   8  14  25  43  67  91 116 149 188 224 258
#     4  10  20  33  49  69  94 123 155 192 233 277
#     4   9  17  29  46  68  93 119 149 186 225 266
#
# _framework density 17.481256999999999
#
# number of rings (size 3 to 8) (size 9 to 14) (size 15 to 20)
#    0.000    3.167    0.000    1.500    0.000    3.000 
#    0.000    5.000    0.000    1.000    0.000    2.333 
#    0.000    0.000    0.000    0.000    0.000    0.000 
#
# Total GULP energy -297544.009531 kJ/mol
# GULP energy per Si atom -12397.667064 kJ/mol
# Density = 1.744147 g / cm^3
# Si number density = 17.481257 Si / 1000 Ang^3
#
#
#
# Elastic Constant Matrix: (Units=GPa)
#
#
# Indices 1 2 3 4 5 6 
#
# 1 183.8133 49.0806 106.7238 0.0000 0.6727 0.0000
# 2 49.0806 36.8543 33.3242 0.0000 3.9122 0.0000
# 3 106.7238 33.3242 100.4824 0.0000 0.1203 0.0000
# 4 0.0000 0.0000 0.0000 13.8382 0.0000 0.2567
# 5 0.6727 3.9122 0.1203 0.0000 43.8223 0.0000
# 6 0.0000 0.0000 0.0000 0.2567 0.0000 29.2765
#
#
#
# Elastic Compliance Matrix: (Units=1/GPa)
#
#
# Indices 1 2 3 4 5 6 
#
# 1 0.015836 -0.008483 -0.014007 0.000000 0.000553 0.000000
# 2 -0.008483 0.043821 -0.005519 0.000000 -0.003767 0.000000
# 3 -0.014007 -0.005519 0.026658 0.000000 0.000635 0.000000
# 4 0.000000 0.000000 0.000000 0.072276 0.000000 -0.000634
# 5 0.000553 -0.003767 0.000635 0.000000 0.023145 0.000000
# 6 0.000000 0.000000 0.000000 -0.000634 0.000000 0.034163
#
#
# Mechanical properties :
#
#
# Convention : Reuss Voigt Hill
#
# Bulk Modulus (GPa) = 33.00513 77.71191 55.35852
# Shear Modulus (GPa) = 17.72958 26.18881 21.95920
#
# Velocity S-wave (km/s) = 3.18811 3.87474 3.54807
# Velocity P-wave (km/s) = 5.69854 8.03549 6.96572
#
# Compressibility (1/GPa) = 0.03029832
#
# Stress axis : x y z
#
# Youngs Moduli (GPa) = 63.14801 22.82030 37.51166
#
# Poissons Ratio (x) = 0.19358 0.52542
# Poissons Ratio (y) = 0.53567 0.20701
# Poissons Ratio (z) = 0.88451 0.12594
#
# Static dielectric constant tensor:
#      x y z
#    x 3.556340 0.000000 -0.039090 
#    y 0.000000 2.913580 0.000000 
#    z -0.039090 0.000000 3.393210 
# 
# 
# High freq. dielectric constant tensor:
#      x y z
#    x 1.684820 0.000000 0.000120 
#    y 0.000000 1.638090 0.000000 
#    z 0.000120 0.000000 1.676000 
# 
# From -- ./inp_files/229863.got.cif
#   From: 2010.06.25/outbox.cif.g09.slc.cpg/sg12_115_cif.got.tgz:229863.got - 2010.06.28 00:19:55.
