data_PCOD8095730
_publ_section_title
;
Structure prediction by ZEFSAII (Michael W. Deem and Ramdas Pophale) SiO2 
 PCOD8095730
Probable space group: C 2/M
;
_chemical_formula_sum "Si O2"
_cell_formula_units_Z 56
_cell_length_a 13.489630
_cell_length_b 23.734617
_cell_length_c 13.615655
_cell_angle_alpha 90.000000
_cell_angle_beta 138.717554
_cell_angle_gamma 90.000000
_cell_volume 2876.168563
_symmetry_space_group_name_H-M "C 2/M"
_symmetry_group_IT_number 12
_symmetry_cell_setting 'monoclinic'
loop_
_space_group_symop_operation_xyz
x,y,z
-x,y,-z
-x,-y,-z
x,-y,z
1/2+x,1/2+y,z
1/2-x,1/2+y,-z
1/2-x,1/2-y,-z
1/2+x,1/2-y,z
loop_
_atom_site_type_symbol
_atom_site_label
_atom_site_fract_x
_atom_site_fract_y
_atom_site_fract_z
Si Si1 0.966358 0.776447 0.087213
Si Si2 0.457244 0.785025 0.581049
Si Si3 0.858791 0.822617 0.610958
Si Si4 0.156196 0.564471 0.654061
Si Si5 0.650915 0.823448 0.897967
Si Si6 0.940208 0.937200 0.729930
Si Si7 0.257253 0.936634 0.066164
O O1 0.939056 0.709468 0.083804
O O2 0.106151 0.797745 0.254768
O O3 0.826851 0.809643 0.029118
O O4 0.000000 0.789331 0.000000
O O5 0.500000 0.793729 0.500000
O O6 0.321766 0.824405 0.520152
O O7 0.419510 0.718836 0.571226
O O8 0.597193 0.804657 0.750071
O O9 0.933878 0.884921 0.648222
O O10 0.115260 0.500000 0.639824
O O11 0.287605 0.573115 0.674993
O O12 0.219975 0.585567 0.805664
O O13 0.000000 0.594679 0.500000
O O14 0.642586 0.890518 0.918167
O O15 0.939335 0.000000 0.679477
O O16 0.081519 0.933125 0.908123
O O17 0.317928 0.000000 0.092096
#
# Coordination Sequence:
#
# PCOD8095730 Si02
#       7
#     8   8   8   8   8   8   8
#     4  10  20  35  54  76 104 136 175 219 256 303
#     4  10  22  37  54  76 106 138 172 220 264 303
#     4  10  21  36  53  79 105 136 177 210 261 319
#     4   9  19  31  45  71 102 138 176 205 250 311
#     4  10  21  34  53  79 102 137 179 209 258 315
#     4  10  20  33  50  73 105 139 171 213 260 312
#     4  10  20  33  49  73 106 139 172 214 259 310
#
# _framework density 19.470345999999999
#
# number of rings (size 3 to 8) (size 9 to 14) (size 15 to 20)
#    0.000    2.143    1.429    1.286    6.000    1.714 
#    0.000    0.000    0.000    0.857    0.000    0.000 
#    0.000    0.000    0.000    0.000    0.000    0.000 
#
# Total GULP energy -346889.686392 kJ/mol
# GULP energy per Si atom -12388.917371 kJ/mol
# Density = 1.942603 g / cm^3
# Si number density = 19.470346 Si / 1000 Ang^3
#
#
#
# Elastic Constant Matrix: (Units=GPa)
#
#
# Indices 1 2 3 4 5 6 
#
# 1 25.5183 13.8757 -2.6312 0.0000 0.7063 0.0000
# 2 13.8757 144.0252 11.0356 0.0000 5.9942 0.0000
# 3 -2.6312 11.0356 53.4588 0.0000 10.0785 0.0000
# 4 0.0000 0.0000 0.0000 23.0528 0.0000 5.0295
# 5 0.7063 5.9942 10.0785 0.0000 22.1958 0.0000
# 6 0.0000 0.0000 0.0000 5.0295 0.0000 17.1802
#
#
#
# Elastic Compliance Matrix: (Units=1/GPa)
#
#
# Indices 1 2 3 4 5 6 
#
# 1 0.041859 -0.004212 0.003244 0.000000 -0.001668 0.000000
# 2 -0.004212 0.007516 -0.001533 0.000000 -0.001200 0.000000
# 3 0.003244 -0.001533 0.020914 0.000000 -0.009186 0.000000
# 4 0.000000 0.000000 0.000000 0.046338 0.000000 -0.013566
# 5 -0.001668 -0.001200 -0.009186 0.000000 0.049602 0.000000
# 6 0.000000 0.000000 0.000000 -0.013566 0.000000 0.062178
#
#
# Mechanical properties :
#
#
# Convention : Reuss Voigt Hill
#
# Bulk Modulus (GPa) = 15.31683 29.72917 22.52300
# Shear Modulus (GPa) = 19.59474 25.86723 22.73099
#
# Velocity S-wave (km/s) = 3.17581 3.64888 3.42053
# Velocity P-wave (km/s) = 4.61860 5.74930 5.21469
#
# Compressibility (1/GPa) = 0.06528768
#
# Stress axis : x y z
#
# Youngs Moduli (GPa) = 23.88999 133.04257 47.81524
#
# Poissons Ratio (x) = 0.56036 -0.15512
# Poissons Ratio (y) = 0.10062 0.07329
# Poissons Ratio (z) = -0.07750 0.20392
#
# Static dielectric constant tensor:
#      x y z
#    x 3.003220 0.000000 0.146920 
#    y 0.000000 4.064370 0.000000 
#    z 0.146920 0.000000 3.776010 
# 
# 
# High freq. dielectric constant tensor:
#      x y z
#    x 1.692710 0.000000 0.026120 
#    y 0.000000 1.777290 0.000000 
#    z 0.026120 0.000000 1.772180 
# 
# From -- ./inp_files/218232.got.cif
#   From: 2010.06.25/outbox.cif.g09.slc.cpg/sg12_110_cif.got.tgz:218232.got - 2010.06.28 00:19:55.
