data_PCOD8095081
_publ_section_title
;
Structure prediction by ZEFSAII (Michael W. Deem and Ramdas Pophale) SiO2 
 PCOD8095081
Probable space group: C 2/M
;
_chemical_formula_sum "Si O2"
_cell_formula_units_Z 56
_cell_length_a 14.078169
_cell_length_b 27.409950
_cell_length_c 8.139944
_cell_angle_alpha 90.000000
_cell_angle_beta 123.702388
_cell_angle_gamma 90.000000
_cell_volume 2613.142783
_symmetry_space_group_name_H-M "C 2/M"
_symmetry_group_IT_number 12
_symmetry_cell_setting 'monoclinic'
loop_
_space_group_symop_operation_xyz
x,y,z
-x,y,-z
-x,-y,-z
x,-y,z
1/2+x,1/2+y,z
1/2-x,1/2+y,-z
1/2-x,1/2-y,-z
1/2+x,1/2-y,z
loop_
_atom_site_type_symbol
_atom_site_label
_atom_site_fract_x
_atom_site_fract_y
_atom_site_fract_z
Si Si1 0.313285 0.112041 0.705426
Si Si2 0.429179 0.053915 0.578550
Si Si3 0.340502 0.945738 0.052530
Si Si4 0.175276 0.272458 0.574190
Si Si5 0.372323 0.674526 0.324945
Si Si6 0.502589 0.811108 0.832646
Si Si7 0.770366 0.651327 0.109229
O O1 0.317929 0.083107 0.535242
O O2 0.301507 0.072704 0.838154
O O3 0.205180 0.147683 0.612005
O O4 0.429679 0.142254 0.819754
O O5 0.500000 0.080674 0.500000
O O6 0.390326 0.000000 0.480342
O O7 0.521770 0.050701 0.814316
O O8 0.288673 0.000000 0.034613
O O9 0.292789 0.907330 0.147096
O O10 0.250000 0.250000 0.500000
O O11 0.152257 0.232296 0.690630
O O12 0.052858 0.285554 0.377992
O O13 0.231862 0.320223 0.717595
O O14 0.500000 0.661163 0.500000
O O15 0.345091 0.659369 0.109727
O O16 0.629983 0.827211 0.911448
O O17 0.500000 0.778263 0.000000
#
# Coordination Sequence:
#
# PCOD8095081 Si02
#       7
#     8   8   8   8   8   8   8
#     4  11  20  37  60  84 128 161 212 250 317 381
#     4  10  20  31  53  92 130 159 196 254 326 392
#     4  10  20  34  57  90 126 163 201 255 327 387
#     4  12  25  40  63  93 125 169 214 265 327 389
#     4  11  24  43  60  86 125 172 222 271 312 373
#     4  12  20  38  61  95 123 164 207 254 324 383
#     4  11  23  40  64  91 128 169 209 271 322 383
#
# _framework density 21.430133999999999
#
# number of rings (size 3 to 8) (size 9 to 14) (size 15 to 20)
#    0.000    1.000    5.714    2.571    2.000    2.286 
#    0.000    0.000    0.000   10.714    0.000    0.000 
#    0.000   18.286    0.000    0.000    0.000    0.000 
#
# Total GULP energy -346879.417975 kJ/mol
# GULP energy per Si atom -12388.550642 kJ/mol
# Density = 2.138136 g / cm^3
# Si number density = 21.430134 Si / 1000 Ang^3
#
#
#
# Elastic Constant Matrix: (Units=GPa)
#
#
# Indices 1 2 3 4 5 6 
#
# 1 74.9664 35.6121 28.1495 0.0000 -8.8843 0.0000
# 2 35.6121 134.1939 30.8874 0.0000 -9.0960 0.0000
# 3 28.1495 30.8874 86.6414 0.0000 3.3812 0.0000
# 4 0.0000 0.0000 0.0000 20.7843 0.0000 -7.7917
# 5 -8.8843 -9.0960 3.3812 0.0000 38.7821 0.0000
# 6 0.0000 0.0000 0.0000 -7.7917 0.0000 30.4504
#
#
#
# Elastic Compliance Matrix: (Units=1/GPa)
#
#
# Indices 1 2 3 4 5 6 
#
# 1 0.016983 -0.003231 -0.004503 0.000000 0.003525 0.000000
# 2 -0.003231 0.008918 -0.002190 0.000000 0.001542 0.000000
# 3 -0.004503 -0.002190 0.013893 0.000000 -0.002756 0.000000
# 4 0.000000 0.000000 0.000000 0.053218 0.000000 0.013618
# 5 0.003525 0.001542 -0.002756 0.000000 0.027195 0.000000
# 6 0.000000 0.000000 0.000000 0.013618 0.000000 0.036325
#
#
# Mechanical properties :
#
#
# Convention : Reuss Voigt Hill
#
# Bulk Modulus (GPa) = 50.13652 53.89997 52.01825
# Shear Modulus (GPa) = 27.31806 31.41354 29.36580
#
# Velocity S-wave (km/s) = 3.57424 3.83281 3.70578
# Velocity P-wave (km/s) = 6.36237 6.69278 6.52966
#
# Compressibility (1/GPa) = 0.01994554
#
# Stress axis : x y z
#
# Youngs Moduli (GPa) = 58.88197 112.13323 71.97830
#
# Poissons Ratio (x) = 0.36235 0.32414
# Poissons Ratio (y) = 0.19027 0.15760
# Poissons Ratio (z) = 0.26516 0.24552
#
# Static dielectric constant tensor:
#      x y z
#    x 3.747070 0.000000 -0.348700 
#    y 0.000000 4.273160 0.000000 
#    z -0.348700 0.000000 4.057470 
# 
# 
# High freq. dielectric constant tensor:
#      x y z
#    x 1.802400 0.000000 -0.030810 
#    y 0.000000 1.841670 0.000000 
#    z -0.030810 0.000000 1.838050 
# 
# From -- ./inp_files/54824.got.cif
#   From: 2010.06.25/outbox.cif.g09.slc.cpg/sg12_28_cif.got.tgz:54824.got - 2010.06.28 00:19:55.
