data_PCOD8095007
_publ_section_title
;
Structure prediction by ZEFSAII (Michael W. Deem and Ramdas Pophale) SiO2 
 PCOD8095007
Probable space group: C 2/M
;
_chemical_formula_sum "Si O2"
_cell_formula_units_Z 56
_cell_length_a 9.865204
_cell_length_b 21.351675
_cell_length_c 17.205430
_cell_angle_alpha 90.000000
_cell_angle_beta 130.550957
_cell_angle_gamma 90.000000
_cell_volume 2753.714323
_symmetry_space_group_name_H-M "C 2/M"
_symmetry_group_IT_number 12
_symmetry_cell_setting 'monoclinic'
loop_
_space_group_symop_operation_xyz
x,y,z
-x,y,-z
-x,-y,-z
x,-y,z
1/2+x,1/2+y,z
1/2-x,1/2+y,-z
1/2-x,1/2-y,-z
1/2+x,1/2-y,z
loop_
_atom_site_type_symbol
_atom_site_label
_atom_site_fract_x
_atom_site_fract_y
_atom_site_fract_z
Si Si1 0.476904 0.432527 0.255513
Si Si2 0.303878 0.752899 0.931428
Si Si3 0.331379 0.070959 0.981877
Si Si4 0.993993 0.799234 0.289628
Si Si5 0.696784 0.612896 0.088459
Si Si6 0.394936 0.199448 0.382110
Si Si7 0.159785 0.568204 0.700128
O O1 0.439094 0.500000 0.284129
O O2 0.341328 0.422594 0.134997
O O3 0.474579 0.372039 0.312117
O O4 0.667811 0.435264 0.288036
O O5 0.314001 0.685662 0.891937
O O6 0.158063 0.793357 0.832135
O O7 0.500000 0.784202 0.000000
O O8 0.250000 0.750000 0.000000
O O9 0.369498 0.000000 0.021054
O O10 0.500000 0.099408 0.000000
O O11 0.311542 0.110290 0.052864
O O12 0.184798 0.789882 0.318501
O O13 0.967966 0.751662 0.350155
O O14 0.792257 0.574429 0.191511
O O15 0.500000 0.584462 0.000000
O O16 0.500000 0.210097 0.500000
O O17 0.447113 0.130074 0.368308
O O18 0.058656 0.500000 0.653104
#
# Coordination Sequence:
#
# PCOD8095007 Si02
#       7
#     8   8   8   8   8   8   8
#     4   9  19  35  56  81 114 155 198 236 285 358
#     4  11  23  35  55  89 128 161 195 237 291 360
#     4  10  20  31  46  75 116 158 195 226 272 341
#     4  11  22  40  64  89 120 157 202 247 304 362
#     4  11  20  33  55  83 119 158 200 237 287 353
#     4  11  24  43  65  90 116 154 208 262 312 356
#     4  10  20  37  61  89 117 152 199 251 301 355
#
# _framework density 20.336169000000002
#
# number of rings (size 3 to 8) (size 9 to 14) (size 15 to 20)
#    0.000    1.571    2.857    2.571    4.000    4.286 
#    0.000    0.000    0.000    0.429    0.000    0.000 
#    0.000    0.000    0.000    0.000    0.000    0.000 
#
# Total GULP energy -346985.393689 kJ/mol
# GULP energy per Si atom -12392.335489 kJ/mol
# Density = 2.028988 g / cm^3
# Si number density = 20.336169 Si / 1000 Ang^3
#
#
#
# Elastic Constant Matrix: (Units=GPa)
#
#
# Indices 1 2 3 4 5 6 
#
# 1 77.6095 40.6176 31.6773 0.0000 -7.2060 0.0000
# 2 40.6176 181.9531 36.3840 0.0000 -15.3339 0.0000
# 3 31.6773 36.3840 63.6297 0.0000 -5.7247 0.0000
# 4 0.0000 0.0000 0.0000 17.3886 0.0000 -6.3980
# 5 -7.2060 -15.3339 -5.7247 0.0000 23.8238 0.0000
# 6 0.0000 0.0000 0.0000 -6.3980 0.0000 26.2838
#
#
#
# Elastic Compliance Matrix: (Units=1/GPa)
#
#
# Indices 1 2 3 4 5 6 
#
# 1 0.017130 -0.002239 -0.007064 0.000000 0.002043 0.000000
# 2 -0.002239 0.006748 -0.002467 0.000000 0.003073 0.000000
# 3 -0.007064 -0.002467 0.020757 0.000000 0.001263 0.000000
# 4 0.000000 0.000000 0.000000 0.063167 0.000000 0.015376
# 5 0.002043 0.003073 0.001263 0.000000 0.044874 0.000000
# 6 0.000000 0.000000 0.000000 0.015376 0.000000 0.041789
#
#
# Mechanical properties :
#
#
# Convention : Reuss Voigt Hill
#
# Bulk Modulus (GPa) = 47.40610 60.06112 53.73361
# Shear Modulus (GPa) = 22.21861 27.80014 25.00937
#
# Velocity S-wave (km/s) = 3.30898 3.70135 3.51065
# Velocity P-wave (km/s) = 6.16125 6.91844 6.55080
#
# Compressibility (1/GPa) = 0.02109433
#
# Stress axis : x y z
#
# Youngs Moduli (GPa) = 58.37807 148.18830 48.17655
#
# Poissons Ratio (x) = 0.33184 0.34030
# Poissons Ratio (y) = 0.13072 0.11887
# Poissons Ratio (z) = 0.41236 0.36564
#
# Static dielectric constant tensor:
#      x y z
#    x 3.532430 0.000000 0.069600 
#    y 0.000000 4.556840 0.000000 
#    z 0.069600 0.000000 3.353940 
# 
# 
# High freq. dielectric constant tensor:
#      x y z
#    x 1.776500 0.000000 0.003540 
#    y 0.000000 1.825500 0.000000 
#    z 0.003540 0.000000 1.760990 
# 
# From -- ./inp_files/198954.got.cif
#   From: 2010.06.25/outbox.cif.g09.slc.cpg/sg12_100_cif.got.tgz:198954.got - 2010.06.28 00:19:55.
