data_PCOD8095712
_publ_section_title
;
Structure prediction by ZEFSAII (Michael W. Deem and Ramdas Pophale) SiO2 
 PCOD8095712
Probable space group: C 2/M
;
_chemical_formula_sum "Si O2"
_cell_formula_units_Z 48
_cell_length_a 21.154665
_cell_length_b 16.216044
_cell_length_c 9.083523
_cell_angle_alpha 90.000000
_cell_angle_beta 57.336149
_cell_angle_gamma 90.000000
_cell_volume 2623.257102
_symmetry_space_group_name_H-M "C 2/M"
_symmetry_group_IT_number 12
_symmetry_cell_setting 'monoclinic'
loop_
_space_group_symop_operation_xyz
x,y,z
-x,y,-z
-x,-y,-z
x,-y,z
1/2+x,1/2+y,z
1/2-x,1/2+y,-z
1/2-x,1/2-y,-z
1/2+x,1/2-y,z
loop_
_atom_site_type_symbol
_atom_site_label
_atom_site_fract_x
_atom_site_fract_y
_atom_site_fract_z
Si Si1 0.444603 0.822595 0.268118
Si Si2 0.914067 0.231693 0.578211
Si Si3 0.165721 0.092795 0.508726
Si Si4 0.388857 0.781933 0.926496
Si Si5 0.330334 0.906681 0.212683
Si Si6 0.419200 0.657671 0.123667
O O1 0.413187 0.812101 0.473340
O O2 0.534096 0.835248 0.154688
O O3 0.400360 0.893279 0.236137
O O4 0.431802 0.736313 0.207772
O O5 0.873836 0.153240 0.557069
O O6 0.871064 0.260874 0.779657
O O7 0.000000 0.204792 0.500000
O O8 0.254552 0.110261 0.399119
O O9 0.138098 0.100492 0.713647
O O10 0.148722 0.000000 0.476359
O O11 0.328785 0.843669 0.075978
O O12 0.387695 0.692153 0.008277
O O13 0.334230 0.000000 0.148326
O O14 0.500000 0.612150 0.000000
#
# Coordination Sequence:
#
# PCOD8095712 Si02
#       6
#     8   8   8   8   8   8
#     4   8  16  31  52  74  96 127 164 199 239 288
#     4   9  18  34  53  73  98 126 162 205 246 294
#     4  10  21  34  48  71 102 133 164 200 244 290
#     4   9  17  31  53  77  97 125 165 204 243 289
#     4  10  20  33  49  72 102 132 164 202 241 286
#     4   8  15  30  50  70  91 120 164 206 236 279
#
# _framework density 18.297863
#
# number of rings (size 3 to 8) (size 9 to 14) (size 15 to 20)
#    0.000    3.000    0.000    2.500    0.000    8.667 
#    0.000    1.667    0.000    7.000    0.000    0.000 
#    0.000    0.000    0.000    0.000    0.000    0.000 
#
# Total GULP energy -297376.173138 kJ/mol
# GULP energy per Si atom -12390.673881 kJ/mol
# Density = 1.825622 g / cm^3
# Si number density = 18.297863 Si / 1000 Ang^3
#
#
#
# Elastic Constant Matrix: (Units=GPa)
#
#
# Indices 1 2 3 4 5 6 
#
# 1 44.0161 20.3031 29.5402 0.0000 6.8304 0.0000
# 2 20.3031 67.0915 41.6813 0.0000 -3.0088 0.0000
# 3 29.5402 41.6813 137.4495 0.0000 10.0887 0.0000
# 4 0.0000 0.0000 0.0000 -16.9504 0.0000 -12.7182
# 5 6.8304 -3.0088 10.0887 0.0000 31.9815 0.0000
# 6 0.0000 0.0000 0.0000 -12.7182 0.0000 19.7564
#
#
#
# Elastic Compliance Matrix: (Units=1/GPa)
#
#
# Indices 1 2 3 4 5 6 
#
# 1 0.029279 -0.006733 -0.003834 0.000000 -0.005677 0.000000
# 2 -0.006733 0.020320 -0.005078 0.000000 0.004952 0.000000
# 3 -0.003834 -0.005078 0.009842 0.000000 -0.002764 0.000000
# 4 0.000000 0.000000 0.000000 -0.039781 0.000000 -0.025609
# 5 -0.005677 0.004952 -0.002764 0.000000 0.033818 0.000000
# 6 0.000000 0.000000 0.000000 -0.025609 0.000000 0.034131
#
#
# Mechanical properties :
#
#
# Convention : Reuss Voigt Hill
#
# Bulk Modulus (GPa) = 35.52401 47.95626 41.74014
# Shear Modulus (GPa) = 38.97652 17.42633 28.20143
#
# Velocity S-wave (km/s) = 4.62032 3.08940 3.93012
# Velocity P-wave (km/s) = 6.92240 6.24431 6.59208
#
# Compressibility (1/GPa) = 0.02814997
#
# Stress axis : x y z
#
# Youngs Moduli (GPa) = 34.15453 49.21377 101.60287
#
# Poissons Ratio (x) = 0.33135 0.38955
# Poissons Ratio (y) = 0.22996 0.51597
# Poissons Ratio (z) = 0.13095 0.24992
#
# Static dielectric constant tensor:
#      x y z
#    x 3.402320 0.000000 0.165420 
#    y 0.000000 3.149830 0.000000 
#    z 0.165420 0.000000 4.103420 
# 
# 
# High freq. dielectric constant tensor:
#      x y z
#    x 1.684360 0.000000 -0.002200 
#    y 0.000000 1.676590 0.000000 
#    z -0.002200 0.000000 1.729190 
# 
# From -- ./inp_files/87735.got.cif
#   From: 2010.06.25/outbox.cif.g09.slc.cpg/sg12_44_cif.got.tgz:87735.got - 2010.06.28 00:19:55.
