data_PCOD8095875
_publ_section_title
;
Structure prediction by ZEFSAII (Michael W. Deem and Ramdas Pophale) SiO2 
 PCOD8095875
Probable space group: C 2/M
;
_chemical_formula_sum "Si O2"
_cell_formula_units_Z 64
_cell_length_a 18.904994
_cell_length_b 8.899621
_cell_length_c 21.090216
_cell_angle_alpha 90.000000
_cell_angle_beta 77.166688
_cell_angle_gamma 90.000000
_cell_volume 3459.734540
_symmetry_space_group_name_H-M "C 2/M"
_symmetry_group_IT_number 12
_symmetry_cell_setting 'monoclinic'
loop_
_space_group_symop_operation_xyz
x,y,z
-x,y,-z
-x,-y,-z
x,-y,z
1/2+x,1/2+y,z
1/2-x,1/2+y,-z
1/2-x,1/2-y,-z
1/2+x,1/2-y,z
loop_
_atom_site_type_symbol
_atom_site_label
_atom_site_fract_x
_atom_site_fract_y
_atom_site_fract_z
Si Si1 0.313193 0.822695 0.567478
Si Si2 0.098861 0.826298 0.800899
Si Si3 0.218784 0.677602 0.943616
Si Si4 0.377741 0.177495 0.687007
Si Si5 0.744985 0.821716 0.190394
Si Si6 0.469691 0.321540 0.312766
Si Si7 0.930369 0.174217 0.053601
Si Si8 0.347229 0.323158 0.434709
O O1 0.346667 0.763181 0.626412
O O2 0.358753 0.752159 0.500806
O O3 0.229203 0.771609 0.580649
O O4 0.319763 0.000000 0.561479
O O5 0.180521 0.762144 0.791995
O O6 0.056241 0.753720 0.750082
O O7 0.053966 0.799492 0.874747
O O8 0.107019 0.000000 0.782781
O O9 0.227389 0.500000 0.944571
O O10 0.264516 0.741415 0.875270
O O11 0.134749 0.721283 0.955594
O O12 0.250000 0.750000 0.000000
O O13 0.321984 0.226211 0.752790
O O14 0.453743 0.253190 0.685069
O O15 0.387632 0.000000 0.683841
O O16 0.749306 0.000000 0.178370
O O17 0.477279 0.500000 0.309597
O O18 0.411366 0.268405 0.376324
O O19 0.909941 0.000000 0.045407
O O20 0.000000 0.223786 0.000000
O O21 0.348986 0.500000 0.443985
#
# Coordination Sequence:
#
# PCOD8095875 Si02
#       8
#     8   8   8   8   8   8   8   8
#     4   9  18  34  55  76  99 131 171 211 254 305
#     4   8  15  31  54  74  95 130 173 211 249 300
#     4  11  22  36  55  80 110 142 178 219 263 311
#     4  10  21  35  52  76 105 135 167 209 261 312
#     4   9  18  36  58  76  98 133 177 218 257 306
#     4  10  20  33  50  74 104 137 172 210 255 309
#     4   9  18  34  56  81 108 139 176 217 264 318
#     4   9  18  33  53  75  98 130 174 217 253 296
#
# _framework density 18.498529999999999
#
# number of rings (size 3 to 8) (size 9 to 14) (size 15 to 20)
#    0.000    2.625    0.000    2.625    0.000    6.250 
#    0.000    6.250    0.000    6.000    0.000    0.000 
#    0.000    0.000    0.000    0.000    0.000    0.000 
#
# Total GULP energy -396784.037158 kJ/mol
# GULP energy per Si atom -12399.501161 kJ/mol
# Density = 1.845643 g / cm^3
# Si number density = 18.498530 Si / 1000 Ang^3
#
#
#
# Elastic Constant Matrix: (Units=GPa)
#
#
# Indices 1 2 3 4 5 6 
#
# 1 121.9092 35.2540 104.6594 0.0000 -2.4182 0.0000
# 2 35.2540 45.7879 50.9351 0.0000 3.8342 0.0000
# 3 104.6594 50.9351 188.5522 0.0000 1.9459 0.0000
# 4 0.0000 0.0000 0.0000 26.5274 0.0000 0.5623
# 5 -2.4182 3.8342 1.9459 0.0000 37.0141 0.0000
# 6 0.0000 0.0000 0.0000 0.5623 0.0000 30.3686
#
#
#
# Elastic Compliance Matrix: (Units=1/GPa)
#
#
# Indices 1 2 3 4 5 6 
#
# 1 0.016179 -0.003719 -0.007995 0.000000 0.001863 0.000000
# 2 -0.003719 0.032368 -0.006646 0.000000 -0.003247 0.000000
# 3 -0.007995 -0.006646 0.011541 0.000000 -0.000441 0.000000
# 4 0.000000 0.000000 0.000000 0.037712 0.000000 -0.000698
# 5 0.001863 -0.003247 -0.000441 0.000000 0.027498 0.000000
# 6 0.000000 0.000000 0.000000 -0.000698 0.000000 0.032942
#
#
# Mechanical properties :
#
#
# Convention : Reuss Voigt Hill
#
# Bulk Modulus (GPa) = 42.79308 81.99404 62.39356
# Shear Modulus (GPa) = 24.66096 29.80874 27.23485
#
# Velocity S-wave (km/s) = 3.65517 4.01859 3.84118
# Velocity P-wave (km/s) = 6.40290 8.12114 7.31266
#
# Compressibility (1/GPa) = 0.02336827
#
# Stress axis : x y z
#
# Youngs Moduli (GPa) = 61.80849 30.89436 86.64571
#
# Poissons Ratio (x) = 0.11490 0.69273
# Poissons Ratio (y) = 0.22987 0.57585
# Poissons Ratio (z) = 0.49416 0.20533
#
# Static dielectric constant tensor:
#      x y z
#    x 3.430730 0.000000 0.056350 
#    y 0.000000 3.153370 0.000000 
#    z 0.056350 0.000000 3.705220 
# 
# 
# High freq. dielectric constant tensor:
#      x y z
#    x 1.713120 0.000000 0.000180 
#    y 0.000000 1.692520 0.000000 
#    z 0.000180 0.000000 1.734590 
# 
# From -- ./inp_files/319133.got.cif
#   From: 2010.06.25/outbox.cif.g09.slc.cpg/sg12_160_cif.got.tgz:319133.got - 2010.06.28 00:19:55.
