data_PCOD8095242
_publ_section_title
;
Structure prediction by ZEFSAII (Michael W. Deem and Ramdas Pophale) SiO2 
 PCOD8095242
Probable space group: C 2/M
;
_chemical_formula_sum "Si O2"
_cell_formula_units_Z 64
_cell_length_a 17.008022
_cell_length_b 13.847823
_cell_length_c 28.824170
_cell_angle_alpha 90.000000
_cell_angle_beta 149.558150
_cell_angle_gamma 90.000000
_cell_volume 3439.630970
_symmetry_space_group_name_H-M "C 2/M"
_symmetry_group_IT_number 12
_symmetry_cell_setting 'monoclinic'
loop_
_space_group_symop_operation_xyz
x,y,z
-x,y,-z
-x,-y,-z
x,-y,z
1/2+x,1/2+y,z
1/2-x,1/2+y,-z
1/2-x,1/2-y,-z
1/2+x,1/2-y,z
loop_
_atom_site_type_symbol
_atom_site_label
_atom_site_fract_x
_atom_site_fract_y
_atom_site_fract_z
Si Si1 0.447055 0.390906 0.023709
Si Si2 0.609658 0.389396 0.511538
Si Si3 0.421115 0.892270 0.159694
Si Si4 0.931132 0.720860 0.685352
Si Si5 0.068629 0.250468 0.415687
Si Si6 0.918850 0.110190 0.746988
Si Si7 0.935253 0.610443 0.419248
Si Si8 0.427738 0.273567 0.099316
O O1 0.512488 0.500000 0.065903
O O2 0.263383 0.393368 0.936027
O O3 0.500000 0.354580 0.000000
O O4 0.509501 0.312777 0.093567
O O5 0.500000 0.381999 0.500000
O O6 0.655392 0.500000 0.524572
O O7 0.760701 0.325084 0.597242
O O8 0.520984 0.345261 0.421058
O O9 0.463007 0.851944 0.231533
O O10 0.497056 0.825436 0.157312
O O11 0.488860 0.000000 0.187731
O O12 0.009012 0.739099 0.674561
O O13 0.928587 0.827102 0.705762
O O14 0.250000 0.250000 0.500000
O O15 0.022236 0.344621 0.420252
O O16 0.747881 0.124521 0.681256
O O17 0.048263 0.142499 0.850254
O O18 0.951251 0.000000 0.749555
O O19 0.985481 0.500000 0.444869
O O20 0.000000 0.658130 0.500000
O O21 0.250000 0.250000 0.000000
#
# Coordination Sequence:
#
# PCOD8095242 Si02
#       8
#     8   8   8   8   8   8   8   8
#     4   9  17  30  50  76 104 130 159 203 257 307
#     4  10  20  34  51  68  92 133 179 215 248 295
#     4   9  18  32  50  72  98 131 167 201 246 305
#     4  10  20  33  50  73 101 129 163 211 259 304
#     4  10  20  32  48  71 100 135 174 215 262 309
#     4  10  20  34  55  80 105 137 176 217 263 316
#     4  10  20  34  52  75 106 141 175 217 266 314
#     4   9  18  33  52  76 104 135 172 212 259 313
#
# _framework density 18.606646999999999
#
# number of rings (size 3 to 8) (size 9 to 14) (size 15 to 20)
#    0.000    2.375    0.000    3.375    0.000    4.500 
#    0.000    2.500    0.000    0.375    0.000    8.750 
#    0.000    0.000    0.000    0.000    0.000    0.000 
#
# Total GULP energy -396544.719992 kJ/mol
# GULP energy per Si atom -12392.022500 kJ/mol
# Density = 1.856430 g / cm^3
# Si number density = 18.606647 Si / 1000 Ang^3
#
#
#
# Elastic Constant Matrix: (Units=GPa)
#
#
# Indices 1 2 3 4 5 6 
#
# 1 124.3335 67.3487 29.9244 -0.0001 -38.7163 0.0000
# 2 67.3487 139.8405 43.6268 0.0000 -29.4032 0.0000
# 3 29.9244 43.6268 70.4121 0.0002 -24.0954 0.0001
# 4 -0.0001 0.0000 0.0002 23.1143 0.0000 0.2655
# 5 -38.7163 -29.4032 -24.0954 0.0000 35.2678 0.0000
# 6 0.0000 0.0000 0.0001 0.2655 0.0000 22.6494
#
#
#
# Elastic Compliance Matrix: (Units=1/GPa)
#
#
# Indices 1 2 3 4 5 6 
#
# 1 0.014106 -0.004506 0.001058 0.000000 0.012452 0.000000
# 2 -0.004506 0.010958 -0.004491 0.000000 0.001121 0.000000
# 3 0.001058 -0.004491 0.020427 0.000000 0.011373 0.000000
# 4 0.000000 0.000000 0.000000 0.043269 0.000000 -0.000507
# 5 0.012452 0.001121 0.011373 0.000000 0.050729 0.000000
# 6 0.000000 0.000000 0.000000 -0.000507 0.000000 0.044157
#
#
# Mechanical properties :
#
#
# Convention : Reuss Voigt Hill
#
# Bulk Modulus (GPa) = 33.76823 68.48733 51.12778
# Shear Modulus (GPa) = 23.87835 29.11872 26.49853
#
# Velocity S-wave (km/s) = 3.58624 3.96025 3.77788
# Velocity P-wave (km/s) = 5.94441 7.60259 6.82405
#
# Compressibility (1/GPa) = 0.02961364
#
# Stress axis : x y z
#
# Youngs Moduli (GPa) = 70.89051 91.25993 48.95494
#
# Poissons Ratio (x) = 0.41117 -0.05178
# Poissons Ratio (y) = 0.31940 0.21985
# Poissons Ratio (z) = -0.07498 0.40983
#
# Static dielectric constant tensor:
#      x y z
#    x 3.510100 0.000000 -0.399860 
#    y 0.000000 3.805280 0.000000 
#    z -0.399860 0.000000 3.516760 
# 
# 
# High freq. dielectric constant tensor:
#      x y z
#    x 1.707770 0.000000 -0.022440 
#    y 0.000000 1.731100 0.000000 
#    z -0.022440 0.000000 1.714650 
# 
# From -- ./inp_files/361266.got.cif
#   From: 2010.06.25/outbox.cif.g09.slc.cpg/sg12_181_cif.got.tgz:361266.got - 2010.06.28 00:19:55.
