data_PCOD8095713
_publ_section_title
;
Structure prediction by ZEFSAII (Michael W. Deem and Ramdas Pophale) SiO2 
 PCOD8095713
Probable space group: C 2/M
;
_chemical_formula_sum "Si O2"
_cell_formula_units_Z 64
_cell_length_a 28.116741
_cell_length_b 8.871813
_cell_length_c 15.212779
_cell_angle_alpha 90.000000
_cell_angle_beta 92.799232
_cell_angle_gamma 90.000000
_cell_volume 3790.246040
_symmetry_space_group_name_H-M "C 2/M"
_symmetry_group_IT_number 12
_symmetry_cell_setting 'monoclinic'
loop_
_space_group_symop_operation_xyz
x,y,z
-x,y,-z
-x,-y,-z
x,-y,z
1/2+x,1/2+y,z
1/2-x,1/2+y,-z
1/2-x,1/2-y,-z
1/2+x,1/2-y,z
loop_
_atom_site_type_symbol
_atom_site_label
_atom_site_fract_x
_atom_site_fract_y
_atom_site_fract_z
Si Si1 0.955401 0.324530 0.312052
Si Si2 0.596931 0.324358 0.851853
Si Si3 0.892892 0.178474 0.822284
Si Si4 0.204458 0.177017 0.100659
Si Si5 0.298493 0.325043 0.098355
Si Si6 0.434111 0.823917 0.660566
Si Si7 0.056358 0.830312 0.514325
Si Si8 0.944186 0.325708 0.983594
O O1 0.946917 0.500000 0.325908
O O2 0.932312 0.273904 0.219245
O O3 0.929692 0.238891 0.390134
O O4 0.011149 0.286607 0.312565
O O5 0.584893 0.500000 0.838272
O O6 0.653135 0.292874 0.843633
O O7 0.583176 0.275838 0.948496
O O8 0.839566 0.229277 0.843331
O O9 0.901178 0.229553 0.723353
O O10 0.930755 0.265491 0.886231
O O11 0.900297 0.000000 0.833270
O O12 0.253965 0.244858 0.142123
O O13 0.209251 0.000000 0.103452
O O14 0.195499 0.236600 0.000737
O O15 0.286980 0.500000 0.094401
O O16 0.420904 0.769560 0.561177
O O17 0.422995 0.000000 0.668190
O O18 0.000000 0.827044 0.500000
O O19 0.076294 0.000000 0.510380
O O20 0.929290 0.500000 0.992548
O O21 0.000000 0.304862 0.000000
#
# Coordination Sequence:
#
# PCOD8095713 Si02
#       8
#     8   8   8   8   8   8   8   8
#     4  10  20  33  49  72 102 133 166 204 244 288
#     4  11  21  34  50  71  98 129 166 204 243 291
#     4  11  21  34  50  71  98 129 166 204 243 291
#     4   9  18  33  50  70  94 122 160 205 249 291
#     4   9  18  33  50  70  94 122 160 205 249 291
#     4  10  20  33  49  72 102 133 166 204 244 288
#     4   9  17  31  51  73  96 127 166 205 247 289
#     4  11  23  35  46  65  96 133 170 203 238 285
#
# _framework density 16.885446999999999
#
# number of rings (size 3 to 8) (size 9 to 14) (size 15 to 20)
#    0.000    2.000    1.250    3.000    0.000    9.000 
#    0.000    0.000    0.000    0.000    0.000    0.875 
#    0.000    0.000    0.000    0.000    0.000    0.000 
#
# Total GULP energy -396869.519010 kJ/mol
# GULP energy per Si atom -12402.172469 kJ/mol
# Density = 1.684701 g / cm^3
# Si number density = 16.885447 Si / 1000 Ang^3
#
#
#
# Elastic Constant Matrix: (Units=GPa)
#
#
# Indices 1 2 3 4 5 6 
#
# 1 73.8271 40.0133 19.9110 0.0000 -15.2640 0.0000
# 2 40.0133 59.0481 16.5169 0.0000 -6.1355 0.0000
# 3 19.9110 16.5169 60.1876 0.0000 -18.4106 0.0000
# 4 0.0000 0.0000 0.0000 32.5748 0.0000 -1.8433
# 5 -15.2640 -6.1355 -18.4106 0.0000 15.6135 0.0000
# 6 0.0000 0.0000 0.0000 -1.8433 0.0000 25.0740
#
#
#
# Elastic Compliance Matrix: (Units=1/GPa)
#
#
# Indices 1 2 3 4 5 6 
#
# 1 0.026238 -0.016184 0.002600 0.000000 0.022356 0.000000
# 2 -0.016184 0.028366 -0.006038 0.000000 -0.011795 0.000000
# 3 0.002600 -0.006038 0.027316 0.000000 0.032378 0.000000
# 4 0.000000 0.000000 0.000000 0.030827 0.000000 0.002266
# 5 0.022356 -0.011795 0.032378 0.000000 0.119446 0.000000
# 6 0.000000 0.000000 0.000000 0.002266 0.000000 0.040048
#
#
# Mechanical properties :
#
#
# Convention : Reuss Voigt Hill
#
# Bulk Modulus (GPa) = 23.43326 38.43838 30.93582
# Shear Modulus (GPa) = 15.35110 22.42725 18.88917
#
# Velocity S-wave (km/s) = 3.01845 3.64840 3.34827
# Velocity P-wave (km/s) = 5.10451 6.36878 5.77137
#
# Compressibility (1/GPa) = 0.04267438
#
# Stress axis : x y z
#
# Youngs Moduli (GPa) = 38.11303 35.25392 36.60914
#
# Poissons Ratio (x) = 0.57055 -0.09518
# Poissons Ratio (y) = 0.61682 0.22106
# Poissons Ratio (z) = -0.09909 0.21287
#
# Static dielectric constant tensor:
#      x y z
#    x 3.096290 0.000000 -0.082100 
#    y 0.000000 3.239110 0.000000 
#    z -0.082100 0.000000 3.076230 
# 
# 
# High freq. dielectric constant tensor:
#      x y z
#    x 1.629320 0.000000 -0.008570 
#    y 0.000000 1.664730 0.000000 
#    z -0.008570 0.000000 1.634890 
# 
# From -- ./inp_files/244057.got.cif
#   From: 2010.06.25/outbox.cif.g09.slc.cpg/sg12_123_cif.got.tgz:244057.got - 2010.06.28 00:19:55.
