data_PCOD8095402
_publ_section_title
;
Structure prediction by ZEFSAII (Michael W. Deem and Ramdas Pophale) SiO2 
 PCOD8095402
Probable space group: C 2/M
;
_chemical_formula_sum "Si O2"
_cell_formula_units_Z 56
_cell_length_a 20.792976
_cell_length_b 9.488666
_cell_length_c 16.706527
_cell_angle_alpha 90.000000
_cell_angle_beta 113.058947
_cell_angle_gamma 90.000000
_cell_volume 3032.802578
_symmetry_space_group_name_H-M "C 2/M"
_symmetry_group_IT_number 12
_symmetry_cell_setting 'monoclinic'
loop_
_space_group_symop_operation_xyz
x,y,z
-x,y,-z
-x,-y,-z
x,-y,z
1/2+x,1/2+y,z
1/2-x,1/2+y,-z
1/2-x,1/2-y,-z
1/2+x,1/2-y,z
loop_
_atom_site_type_symbol
_atom_site_label
_atom_site_fract_x
_atom_site_fract_y
_atom_site_fract_z
Si Si1 0.002250 0.334670 0.912585
Si Si2 0.893539 0.166813 0.416696
Si Si3 0.405194 0.165741 0.722922
Si Si4 0.972502 0.833076 0.612765
Si Si5 0.757151 0.333080 0.703471
Si Si6 0.250336 0.337351 0.120881
Si Si7 0.148355 0.663139 0.928413
O O1 0.012587 0.500000 0.929792
O O2 0.069923 0.278792 0.898138
O O3 0.934271 0.301055 0.826276
O O4 0.000000 0.264088 0.000000
O O5 0.919850 0.214854 0.516601
O O6 0.816250 0.232359 0.364001
O O7 0.948930 0.213318 0.374961
O O8 0.889953 0.000000 0.412744
O O9 0.450122 0.251652 0.681145
O O10 0.323912 0.216139 0.683074
O O11 0.412399 0.000000 0.707247
O O12 0.968160 0.000000 0.626018
O O13 0.753120 0.500000 0.697132
O O14 0.770171 0.285019 0.800888
O O15 0.272495 0.500000 0.131860
O O16 0.317475 0.250610 0.125969
O O17 0.185198 0.308480 0.031507
O O18 0.152626 0.500000 0.906543
#
# Coordination Sequence:
#
# PCOD8095402 Si02
#       7
#     8   8   8   8   8   8   8
#     4   9  17  30  48  68  95 132 166 193 232 288
#     4   8  16  32  53  73  95 129 166 199 237 293
#     4  10  20  32  50  76 101 126 163 207 244 282
#     4   9  18  34  54  74  97 127 164 200 243 297
#     4   9  17  30  49  72  96 126 164 203 236 281
#     4   9  17  29  47  69  92 121 161 199 235 280
#     4   9  17  29  45  67  94 124 156 197 242 282
#
# _framework density 18.464769
#
# number of rings (size 3 to 8) (size 9 to 14) (size 15 to 20)
#    0.000    3.000    0.000    1.714    2.000    4.000 
#    0.000    2.143    0.000    5.143    0.000    0.000 
#    0.000    0.000    0.000    0.000    0.000    0.000 
#
# Total GULP energy -347038.947084 kJ/mol
# GULP energy per Si atom -12394.248110 kJ/mol
# Density = 1.842274 g / cm^3
# Si number density = 18.464769 Si / 1000 Ang^3
#
#
#
# Elastic Constant Matrix: (Units=GPa)
#
#
# Indices 1 2 3 4 5 6 
#
# 1 133.6466 27.4070 46.0053 0.0000 6.1684 0.0000
# 2 27.4070 28.5663 22.9304 0.0000 -4.5536 0.0000
# 3 46.0053 22.9304 69.1111 0.0000 -7.9782 0.0000
# 4 0.0000 0.0000 0.0000 17.6109 0.0000 -5.8260
# 5 6.1684 -4.5536 -7.9782 0.0000 31.5713 0.0000
# 6 0.0000 0.0000 0.0000 -5.8260 0.0000 21.4365
#
#
#
# Elastic Compliance Matrix: (Units=1/GPa)
#
#
# Indices 1 2 3 4 5 6 
#
# 1 0.011014 -0.006795 -0.005602 0.000000 -0.004548 0.000000
# 2 -0.006795 0.052178 -0.012120 0.000000 0.005791 0.000000
# 3 -0.005602 -0.012120 0.022810 0.000000 0.005111 0.000000
# 4 0.000000 0.000000 0.000000 0.062393 0.000000 0.016957
# 5 -0.004548 0.005791 0.005111 0.000000 0.034690 0.000000
# 6 0.000000 0.000000 0.000000 0.016957 0.000000 0.051258
#
#
# Mechanical properties :
#
#
# Convention : Reuss Voigt Hill
#
# Bulk Modulus (GPa) = 27.05140 47.11216 37.08178
# Shear Modulus (GPa) = 16.90900 23.12249 20.01575
#
# Velocity S-wave (km/s) = 3.02941 3.54255 3.29598
# Velocity P-wave (km/s) = 5.18831 6.50407 5.88309
#
# Compressibility (1/GPa) = 0.03696666
#
# Stress axis : x y z
#
# Youngs Moduli (GPa) = 90.79085 19.16521 43.84025
#
# Poissons Ratio (x) = 0.13023 0.24561
# Poissons Ratio (y) = 0.61695 0.53135
# Poissons Ratio (z) = 0.50864 0.23229
#
# Static dielectric constant tensor:
#      x y z
#    x 3.769670 0.000000 0.192700 
#    y 0.000000 2.902370 0.000000 
#    z 0.192700 0.000000 3.473790 
# 
# 
# High freq. dielectric constant tensor:
#      x y z
#    x 1.731090 0.000000 0.003960 
#    y 0.000000 1.658390 0.000000 
#    z 0.003960 0.000000 1.716270 
# 
# From -- ./inp_files/231981.got.cif
#   From: 2010.06.25/outbox.cif.g09.slc.cpg/sg12_116_cif.got.tgz:231981.got - 2010.06.28 00:19:55.
