data_PCOD8095483
_publ_section_title
;
Structure prediction by ZEFSAII (Michael W. Deem and Ramdas Pophale) SiO2 
 PCOD8095483
Probable space group: C 2/M
;
_chemical_formula_sum "Si O2"
_cell_formula_units_Z 56
_cell_length_a 15.505050
_cell_length_b 15.425861
_cell_length_c 12.836154
_cell_angle_alpha 90.000000
_cell_angle_beta 74.324227
_cell_angle_gamma 90.000000
_cell_volume 2955.944859
_symmetry_space_group_name_H-M "C 2/M"
_symmetry_group_IT_number 12
_symmetry_cell_setting 'monoclinic'
loop_
_space_group_symop_operation_xyz
x,y,z
-x,y,-z
-x,-y,-z
x,-y,z
1/2+x,1/2+y,z
1/2-x,1/2+y,-z
1/2-x,1/2-y,-z
1/2+x,1/2-y,z
loop_
_atom_site_type_symbol
_atom_site_label
_atom_site_fract_x
_atom_site_fract_y
_atom_site_fract_z
Si Si1 0.953406 0.399205 0.914169
Si Si2 0.822968 0.338183 0.674266
Si Si3 0.408847 0.744714 0.473711
Si Si4 0.768285 0.672005 0.918835
Si Si5 0.011711 0.399807 0.671549
Si Si6 0.360438 0.598423 0.328083
Si Si7 0.915686 0.101181 0.087722
O O1 0.969855 0.500000 0.915648
O O2 0.847060 0.383758 0.945576
O O3 0.002872 0.366811 0.793523
O O4 0.000000 0.354059 0.000000
O O5 0.833334 0.260621 0.586737
O O6 0.799352 0.296128 0.794121
O O7 0.744919 0.402926 0.664273
O O8 0.914708 0.393174 0.648098
O O9 0.500000 0.717780 0.500000
O O10 0.418611 0.834242 0.405073
O O11 0.380272 0.663193 0.415004
O O12 0.676832 0.617961 0.942378
O O13 0.750000 0.750000 0.000000
O O14 0.044491 0.500000 0.651629
O O15 0.388251 0.500000 0.349024
O O16 0.413250 0.633504 0.208481
O O17 0.931049 0.000000 0.086426
O O18 0.000000 0.145468 0.000000
#
# Coordination Sequence:
#
# PCOD8095483 Si02
#       7
#     8   8   8   8   8   8   8
#     4   9  18  33  52  75 106 140 169 203 253 312
#     4   9  19  35  53  75 102 131 171 219 257 298
#     4  10  21  34  51  77 107 133 166 213 258 308
#     4  10  20  32  52  78 103 134 169 209 260 314
#     4   9  18  33  54  79 105 134 169 211 259 308
#     4  10  20  35  55  75 100 139 177 211 257 307
#     4   9  19  35  54  75  99 132 178 225 257 291
#
# _framework density 18.944873000000001
#
# number of rings (size 3 to 8) (size 9 to 14) (size 15 to 20)
#    0.000    2.571    0.000    1.286    0.000   13.143 
#    0.000    0.000    0.000    1.714    0.000    0.000 
#    0.000    0.000    0.000    0.000    0.000    0.000 
#
# Total GULP energy -347045.657592 kJ/mol
# GULP energy per Si atom -12394.487771 kJ/mol
# Density = 1.890175 g / cm^3
# Si number density = 18.944873 Si / 1000 Ang^3
#
#
#
# Elastic Constant Matrix: (Units=GPa)
#
#
# Indices 1 2 3 4 5 6 
#
# 1 82.0204 15.6237 51.8602 0.0000 1.5748 0.0000
# 2 15.6237 63.5172 40.2560 0.0000 6.9434 0.0000
# 3 51.8602 40.2560 117.5664 0.0000 4.4129 0.0000
# 4 0.0000 0.0000 0.0000 29.3520 0.0000 3.1127
# 5 1.5748 6.9434 4.4129 0.0000 32.6593 0.0000
# 6 0.0000 0.0000 0.0000 3.1127 0.0000 7.9088
#
#
#
# Elastic Compliance Matrix: (Units=1/GPa)
#
#
# Indices 1 2 3 4 5 6 
#
# 1 0.016934 0.000719 -0.007719 0.000000 0.000074 0.000000
# 2 0.000719 0.020512 -0.007212 0.000000 -0.003421 0.000000
# 3 -0.007719 -0.007212 0.014382 0.000000 -0.000038 0.000000
# 4 0.000000 0.000000 0.000000 0.035553 0.000000 -0.013993
# 5 0.000074 -0.003421 -0.000038 0.000000 0.031348 0.000000
# 6 0.000000 0.000000 0.000000 -0.013993 0.000000 0.131949
#
#
# Mechanical properties :
#
#
# Convention : Reuss Voigt Hill
#
# Bulk Modulus (GPa) = 42.72922 53.17597 47.95260
# Shear Modulus (GPa) = 17.42748 24.34162 20.88455
#
# Velocity S-wave (km/s) = 3.03628 3.58839 3.32382
# Velocity P-wave (km/s) = 5.90724 6.73041 6.33222
#
# Compressibility (1/GPa) = 0.02340319
#
# Stress axis : x y z
#
# Youngs Moduli (GPa) = 59.05204 48.75237 69.53353
#
# Poissons Ratio (x) = -0.03503 0.53671
# Poissons Ratio (y) = -0.04243 0.50148
# Poissons Ratio (z) = 0.45581 0.35160
#
# Static dielectric constant tensor:
#      x y z
#    x 3.124890 0.000000 -0.024320 
#    y 0.000000 3.173480 0.000000 
#    z -0.024320 0.000000 4.060210 
# 
# 
# High freq. dielectric constant tensor:
#      x y z
#    x 1.728740 0.000000 -0.000590 
#    y 0.000000 1.711800 0.000000 
#    z -0.000590 0.000000 1.750920 
# 
# From -- ./inp_files/214167.got.cif
#   From: 2010.06.25/outbox.cif.g09.slc.cpg/sg12_108_cif.got.tgz:214167.got - 2010.06.28 00:19:55.
