data_PCOD8095831
_publ_section_title
;
Structure prediction by ZEFSAII (Michael W. Deem and Ramdas Pophale) SiO2 
 PCOD8095831
Probable space group: C 2/M
;
_chemical_formula_sum "Si O2"
_cell_formula_units_Z 56
_cell_length_a 18.790859
_cell_length_b 9.047386
_cell_length_c 20.607525
_cell_angle_alpha 90.000000
_cell_angle_beta 122.519443
_cell_angle_gamma 90.000000
_cell_volume 2954.138529
_symmetry_space_group_name_H-M "C 2/M"
_symmetry_group_IT_number 12
_symmetry_cell_setting 'monoclinic'
loop_
_space_group_symop_operation_xyz
x,y,z
-x,y,-z
-x,-y,-z
x,-y,z
1/2+x,1/2+y,z
1/2-x,1/2+y,-z
1/2-x,1/2-y,-z
1/2+x,1/2-y,z
loop_
_atom_site_type_symbol
_atom_site_label
_atom_site_fract_x
_atom_site_fract_y
_atom_site_fract_z
Si Si1 0.094591 0.834546 0.019515
Si Si2 0.973653 0.175092 0.722091
Si Si3 0.697346 0.825401 0.324172
Si Si4 0.461099 0.165346 0.125349
Si Si5 0.351660 0.163215 0.837858
Si Si6 0.995079 0.669966 0.391715
Si Si7 0.137055 0.330565 0.562570
O O1 0.102390 0.739729 0.957507
O O2 0.123763 0.000000 0.018044
O O3 0.158084 0.770869 0.105394
O O4 0.000000 0.831546 0.000000
O O5 0.880500 0.243196 0.680672
O O6 0.013124 0.220106 0.672637
O O7 0.035666 0.237835 0.807906
O O8 0.968547 0.000000 0.726668
O O9 0.703709 0.782218 0.250729
O O10 0.782538 0.776054 0.401191
O O11 0.682773 0.000000 0.325242
O O12 0.552564 0.158223 0.138639
O O13 0.428902 0.000000 0.125655
O O14 0.323035 0.000000 0.846047
O O15 0.990783 0.500000 0.366320
O O16 0.083272 0.698485 0.471603
O O17 0.918288 0.707522 0.401683
O O18 0.167408 0.500000 0.580341
#
# Coordination Sequence:
#
# PCOD8095831 Si02
#       7
#     8   8   8   8   8   8   8
#     4   9  15  22  36  60  89 122 159 198 237 280
#     4  11  21  32  49  74 102 131 166 206 246 291
#     4  10  20  33  50  73 103 134 164 203 249 294
#     4   9  16  27  42  61  91 128 161 197 242 289
#     4   8  15  26  39  59  89 126 161 193 236 286
#     4   9  19  37  56  74  98 128 162 201 248 297
#     4   9  19  36  57  76  96 126 164 204 244 294
#
# _framework density 18.956458000000001
#
# number of rings (size 3 to 8) (size 9 to 14) (size 15 to 20)
#    0.000    2.714    0.000    4.286    0.000    7.429 
#    0.000    1.429    0.000    0.000    0.000    1.000 
#    0.000    0.000    0.000    0.000    0.000    0.000 
#
# Total GULP energy -347155.021354 kJ/mol
# GULP energy per Si atom -12398.393620 kJ/mol
# Density = 1.891331 g / cm^3
# Si number density = 18.956458 Si / 1000 Ang^3
#
#
#
# Elastic Constant Matrix: (Units=GPa)
#
#
# Indices 1 2 3 4 5 6 
#
# 1 21.8490 18.7872 11.2893 0.0000 -14.2676 0.0000
# 2 18.7872 120.4205 33.1600 0.0000 -20.7330 0.0000
# 3 11.2893 33.1600 60.0970 0.0000 -28.1949 0.0000
# 4 0.0000 0.0000 0.0000 36.0522 0.0000 -3.1444
# 5 -14.2676 -20.7330 -28.1949 0.0000 20.5844 0.0000
# 6 0.0000 0.0000 0.0000 -3.1444 0.0000 19.9402
#
#
#
# Elastic Compliance Matrix: (Units=1/GPa)
#
#
# Indices 1 2 3 4 5 6 
#
# 1 0.119161 -0.007558 0.047466 0.000000 0.139996 0.000000
# 2 -0.007558 0.010633 -0.005262 0.000000 -0.001735 0.000000
# 3 0.047466 -0.005262 0.065965 0.000000 0.117954 0.000000
# 4 0.000000 0.000000 0.000000 0.028124 0.000000 0.004435
# 5 0.139996 -0.001735 0.117954 0.000000 0.305432 0.000000
# 6 0.000000 0.000000 0.000000 0.004435 0.000000 0.050849
#
#
# Mechanical properties :
#
#
# Convention : Reuss Voigt Hill
#
# Bulk Modulus (GPa) = 3.77284 36.53772 20.15528
# Shear Modulus (GPa) = 8.34412 24.59071 16.46742
#
# Velocity S-wave (km/s) = 2.10031 3.60560 2.95056
# Velocity P-wave (km/s) = 2.80648 6.05394 4.71840
#
# Compressibility (1/GPa) = 0.26505241
#
# Stress axis : x y z
#
# Youngs Moduli (GPa) = 8.39199 94.04255 15.15945
#
# Poissons Ratio (x) = 0.71076 -0.71955
# Poissons Ratio (y) = 0.06343 0.07976
# Poissons Ratio (z) = -0.39833 0.49482
#
# Static dielectric constant tensor:
#      x y z
#    x 2.887910 0.000000 -0.138180 
#    y 0.000000 3.519280 0.000000 
#    z -0.138180 0.000000 3.659200 
# 
# 
# High freq. dielectric constant tensor:
#      x y z
#    x 1.678890 0.000000 -0.015610 
#    y 0.000000 1.741900 0.000000 
#    z -0.015610 0.000000 1.745940 
# 
# From -- ./inp_files/314456.got.cif
#   From: 2010.06.25/outbox.cif.g09.slc.cpg/sg12_158_cif.got.tgz:314456.got - 2010.06.28 00:19:55.
