data_PCOD8095940
_publ_section_title
;
Structure prediction by ZEFSAII (Michael W. Deem and Ramdas Pophale) SiO2 
 PCOD8095940
Probable space group: C 2/M
;
_chemical_formula_sum "Si O2"
_cell_formula_units_Z 44
_cell_length_a 17.982056
_cell_length_b 20.232943
_cell_length_c 6.571617
_cell_angle_alpha 90.000000
_cell_angle_beta 96.710693
_cell_angle_gamma 90.000000
_cell_volume 2374.570105
_symmetry_space_group_name_H-M "C 2/M"
_symmetry_group_IT_number 12
_symmetry_cell_setting 'monoclinic'
loop_
_space_group_symop_operation_xyz
x,y,z
-x,y,-z
-x,-y,-z
x,-y,z
1/2+x,1/2+y,z
1/2-x,1/2+y,-z
1/2-x,1/2-y,-z
1/2+x,1/2-y,z
loop_
_atom_site_type_symbol
_atom_site_label
_atom_site_fract_x
_atom_site_fract_y
_atom_site_fract_z
Si Si1 0.186630 0.640916 0.485254
Si Si2 0.717632 0.306306 0.834657
Si Si3 0.000000 0.677262 0.000000
Si Si4 0.608149 0.070739 0.141270
Si Si5 0.239715 0.423847 0.892712
Si Si6 0.426328 0.761669 0.349534
O O1 0.227269 0.691343 0.342694
O O2 0.162747 0.575893 0.352293
O O3 0.241691 0.612483 0.675454
O O4 0.113803 0.676845 0.554772
O O5 0.635912 0.294076 0.712008
O O6 0.750000 0.250000 0.000000
O O7 0.710995 0.377631 0.942530
O O8 0.949092 0.629989 0.846655
O O9 0.048988 0.721686 0.870055
O O10 0.566834 0.000000 0.135638
O O11 0.654236 0.076665 0.945817
O O12 0.270040 0.500000 0.894859
O O13 0.500000 0.737671 0.500000
#
# Coordination Sequence:
#
# PCOD8095940 Si02
#       6
#     8   8   4   8   8   8
#     4  11  20  38  59  83 117 155 202 242 298 351
#     4  11  23  39  63  88 119 159 202 251 297 348
#     4  12  21  36  50  78 123 158 196 234 294 348
#     4  10  20  33  50  80 118 160 197 234 281 350
#     4  10  21  37  60  87 117 154 202 248 293 348
#     4  12  24  36  57  86 120 155 195 248 297 351
#
# _framework density 18.529669999999999
#
# number of rings (size 3 to 8) (size 9 to 14) (size 15 to 20)
#    0.000    1.091    5.455    2.455    0.000    0.727 
#    0.000    0.909    0.000    0.545    0.000    1.909 
#    0.000    0.000    0.000    0.000    0.000    0.000 
#
# Total GULP energy -272590.530396 kJ/mol
# GULP energy per Si atom -12390.478654 kJ/mol
# Density = 1.848750 g / cm^3
# Si number density = 18.529670 Si / 1000 Ang^3
#
#
#
# Elastic Constant Matrix: (Units=GPa)
#
#
# Indices 1 2 3 4 5 6 
#
# 1 78.5486 35.0991 38.7143 0.0000 4.5878 0.0000
# 2 35.0991 93.0713 43.2872 0.0000 5.9561 0.0000
# 3 38.7143 43.2872 109.7658 0.0000 -3.7370 0.0000
# 4 0.0000 0.0000 0.0000 24.6403 0.0000 11.3699
# 5 4.5878 5.9561 -3.7370 0.0000 40.7336 0.0000
# 6 0.0000 0.0000 0.0000 11.3699 0.0000 63.9324
#
#
#
# Elastic Compliance Matrix: (Units=1/GPa)
#
#
# Indices 1 2 3 4 5 6 
#
# 1 0.016856 -0.004235 -0.004332 0.000000 -0.001677 0.000000
# 2 -0.004235 0.014461 -0.004279 0.000000 -0.002030 0.000000
# 3 -0.004332 -0.004279 0.012402 0.000000 0.002251 0.000000
# 4 0.000000 0.000000 0.000000 0.044212 0.000000 -0.007863
# 5 -0.001677 -0.002030 0.002251 0.000000 0.025242 0.000000
# 6 0.000000 0.000000 0.000000 -0.007863 0.000000 0.017040
#
#
# Mechanical properties :
#
#
# Convention : Reuss Voigt Hill
#
# Bulk Modulus (GPa) = 55.46640 57.28745 56.37692
# Shear Modulus (GPa) = 30.88047 36.81358 33.84702
#
# Velocity S-wave (km/s) = 4.08676 4.46212 4.27856
# Velocity P-wave (km/s) = 7.22963 7.58492 7.40941
#
# Compressibility (1/GPa) = 0.01802893
#
# Stress axis : x y z
#
# Youngs Moduli (GPa) = 59.32449 69.15033 80.63054
#
# Poissons Ratio (x) = 0.29283 0.34932
# Poissons Ratio (y) = 0.25122 0.34498
# Poissons Ratio (z) = 0.25702 0.29586
#
# Static dielectric constant tensor:
#      x y z
#    x 3.274880 0.000000 -0.003240 
#    y 0.000000 3.377160 0.000000 
#    z -0.003240 0.000000 3.636260 
# 
# 
# High freq. dielectric constant tensor:
#      x y z
#    x 1.688040 0.000000 -0.005650 
#    y 0.000000 1.705810 0.000000 
#    z -0.005650 0.000000 1.741280 
# 
# From -- ./inp_files/16024.got.cif
#   From: 2010.06.25/outbox.cif.g09.slc.cpg/sg12_9_cif.got.tgz:16024.got - 2010.06.28 00:19:55.
