data_PCOD8095197
_publ_section_title
;
Structure prediction by ZEFSAII (Michael W. Deem and Ramdas Pophale) SiO2 
 PCOD8095197
Probable space group: C 2/M
;
_chemical_formula_sum "Si O2"
_cell_formula_units_Z 40
_cell_length_a 18.983081
_cell_length_b 9.190950
_cell_length_c 13.994081
_cell_angle_alpha 90.000000
_cell_angle_beta 68.462417
_cell_angle_gamma 90.000000
_cell_volume 2271.104234
_symmetry_space_group_name_H-M "C 2/M"
_symmetry_group_IT_number 12
_symmetry_cell_setting 'monoclinic'
loop_
_space_group_symop_operation_xyz
x,y,z
-x,y,-z
-x,-y,-z
x,-y,z
1/2+x,1/2+y,z
1/2-x,1/2+y,-z
1/2-x,1/2-y,-z
1/2+x,1/2-y,z
loop_
_atom_site_type_symbol
_atom_site_label
_atom_site_fract_x
_atom_site_fract_y
_atom_site_fract_z
Si Si1 0.112681 0.839160 0.217068
Si Si2 0.322378 0.669606 0.004677
Si Si3 0.213556 0.339133 0.806611
Si Si4 0.221309 0.172802 0.420114
Si Si5 0.420906 0.833195 0.591678
O O1 0.108213 0.803232 0.104996
O O2 0.200710 0.838233 0.199722
O O3 0.068661 0.722268 0.303965
O O4 0.078700 0.000000 0.253657
O O5 0.304181 0.500000 0.022855
O O6 0.250000 0.750000 0.000000
O O7 0.339061 0.732710 0.102749
O O8 0.178523 0.500000 0.833381
O O9 0.217024 0.291253 0.693667
O O10 0.250000 0.250000 0.500000
O O11 0.139345 0.235295 0.434021
O O12 0.213580 0.000000 0.438775
O O13 0.500000 0.816675 0.500000
O O14 0.393341 0.000000 0.607312
#
# Coordination Sequence:
#
# PCOD8095197 Si02
#       5
#     8   8   8   8   8
#     4   8  15  26  39  59  87 117 149 184 224 270
#     4   9  15  22  35  57  84 113 144 179 221 268
#     4   8  15  26  39  59  86 114 145 181 222 268
#     4  10  20  33  49  69  94 124 157 192 230 274
#     4  10  20  32  47  69  95 123 157 194 230 272
#
# _framework density 17.612577000000002
#
# number of rings (size 3 to 8) (size 9 to 14) (size 15 to 20)
#    0.000    3.000    0.000    4.200    0.000   10.400 
#    0.000    0.000    0.000    0.000    0.000    1.400 
#    0.000   11.200    0.000    0.000    0.000    0.000 
#
# Total GULP energy -247775.515332 kJ/mol
# GULP energy per Si atom -12388.775767 kJ/mol
# Density = 1.757249 g / cm^3
# Si number density = 17.612577 Si / 1000 Ang^3
#
#
#
# Elastic Constant Matrix: (Units=GPa)
#
#
# Indices 1 2 3 4 5 6 
#
# 1 24.1755 29.6540 31.6970 0.0000 7.2367 0.0000
# 2 29.6540 134.2029 95.6936 0.0000 8.9337 0.0000
# 3 31.6970 95.6936 167.6698 0.0000 20.4918 0.0000
# 4 0.0000 0.0000 0.0000 39.1485 0.0000 3.4790
# 5 7.2367 8.9337 20.4918 0.0000 19.0968 0.0000
# 6 0.0000 0.0000 0.0000 3.4790 0.0000 16.1822
#
#
#
# Elastic Compliance Matrix: (Units=1/GPa)
#
#
# Indices 1 2 3 4 5 6 
#
# 1 0.063921 -0.009793 -0.004712 0.000000 -0.014585 0.000000
# 2 -0.009793 0.014138 -0.006748 0.000000 0.004338 0.000000
# 3 -0.004712 -0.006748 0.011627 0.000000 -0.007534 0.000000
# 4 0.000000 0.000000 0.000000 0.026041 0.000000 -0.005599
# 5 -0.014585 0.004338 -0.007534 0.000000 0.063947 0.000000
# 6 0.000000 0.000000 0.000000 -0.005599 0.000000 0.063000
#
#
# Mechanical properties :
#
#
# Convention : Reuss Voigt Hill
#
# Bulk Modulus (GPa) = 21.19567 71.12637 46.16102
# Shear Modulus (GPa) = 16.61644 26.15239 21.38441
#
# Velocity S-wave (km/s) = 3.07488 3.85758 3.48825
# Velocity P-wave (km/s) = 4.96659 7.76613 6.51843
#
# Compressibility (1/GPa) = 0.04717944
#
# Stress axis : x y z
#
# Youngs Moduli (GPa) = 15.64432 70.73050 86.00841
#
# Poissons Ratio (x) = 0.69270 0.40527
# Poissons Ratio (y) = 0.15321 0.58037
# Poissons Ratio (z) = 0.07372 0.47728
#
# Static dielectric constant tensor:
#      x y z
#    x 2.599860 0.000000 0.406670 
#    y 0.000000 3.618250 0.000000 
#    z 0.406670 0.000000 4.514020 
# 
# 
# High freq. dielectric constant tensor:
#      x y z
#    x 1.593370 0.000000 0.016630 
#    y 0.000000 1.694110 0.000000 
#    z 0.016630 0.000000 1.708160 
# 
# From -- ./inp_files/229097.got.cif
#   From: 2010.06.25/outbox.cif.g09.slc.cpg/sg12_115_cif.got.tgz:229097.got - 2010.06.28 00:19:55.
