data_PCOD8095812
_publ_section_title
;
Structure prediction by ZEFSAII (Michael W. Deem and Ramdas Pophale) SiO2 
 PCOD8095812
Probable space group: C 2/M
;
_chemical_formula_sum "Si O2"
_cell_formula_units_Z 56
_cell_length_a 22.836255
_cell_length_b 9.012313
_cell_length_c 14.629678
_cell_angle_alpha 90.000000
_cell_angle_beta 91.993502
_cell_angle_gamma 90.000000
_cell_volume 3009.074871
_symmetry_space_group_name_H-M "C 2/M"
_symmetry_group_IT_number 12
_symmetry_cell_setting 'monoclinic'
loop_
_space_group_symop_operation_xyz
x,y,z
-x,y,-z
-x,-y,-z
x,-y,z
1/2+x,1/2+y,z
1/2-x,1/2+y,-z
1/2-x,1/2-y,-z
1/2+x,1/2-y,z
loop_
_atom_site_type_symbol
_atom_site_label
_atom_site_fract_x
_atom_site_fract_y
_atom_site_fract_z
Si Si1 0.737150 0.675790 0.595042
Si Si2 0.115313 0.328898 0.974882
Si Si3 0.872201 0.835898 0.301302
Si Si4 0.202476 0.829754 0.235678
Si Si5 0.964817 0.330192 0.205587
Si Si6 0.076945 0.830472 0.152416
Si Si7 0.210471 0.833775 0.878024
O O1 0.747370 0.500000 0.591621
O O2 0.750000 0.750000 0.500000
O O3 0.669485 0.712979 0.616983
O O4 0.781249 0.742519 0.671910
O O5 0.129628 0.500000 0.992444
O O6 0.070766 0.306373 0.889337
O O7 0.177100 0.246472 0.959803
O O8 0.083659 0.263447 0.061067
O O9 0.925432 0.721784 0.289807
O O10 0.831785 0.838766 0.210447
O O11 0.898315 0.000000 0.319958
O O12 0.133050 0.817737 0.220552
O O13 0.231791 0.757531 0.147056
O O14 0.223581 0.000000 0.244881
O O15 0.982272 0.500000 0.221726
O O16 0.022927 0.232069 0.207323
O O17 0.064812 0.000000 0.123791
O O18 0.228108 0.000000 0.909484
#
# Coordination Sequence:
#
# PCOD8095812 Si02
#       7
#     8   8   8   8   8   8   8
#     4  10  20  35  59  87 110 133 161 200 251 305
#     4  10  20  33  50  73 100 133 177 224 262 299
#     4   8  16  31  51  76 103 131 164 201 246 299
#     4  10  21  36  52  74 104 136 171 209 255 309
#     4  10  20  33  51  74 100 134 176 218 256 295
#     4  11  23  35  49  70 100 140 178 215 259 303
#     4   9  17  31  51  73  99 133 171 212 259 307
#
# _framework density 18.610371000000001
#
# number of rings (size 3 to 8) (size 9 to 14) (size 15 to 20)
#    0.000    2.286    0.000    3.857    0.000   10.286 
#    0.000    0.000    0.000    0.857    0.000    6.000 
#    0.000    0.000    0.000    0.000    0.000    0.000 
#
# Total GULP energy -347239.856381 kJ/mol
# GULP energy per Si atom -12401.423442 kJ/mol
# Density = 1.856801 g / cm^3
# Si number density = 18.610371 Si / 1000 Ang^3
#
#
#
# Elastic Constant Matrix: (Units=GPa)
#
#
# Indices 1 2 3 4 5 6 
#
# 1 95.8284 67.6964 45.0257 0.0000 -23.4655 0.0000
# 2 67.6964 147.3555 49.3341 0.0000 -13.1317 0.0000
# 3 45.0257 49.3341 68.2175 0.0000 -24.9566 0.0000
# 4 0.0000 0.0000 0.0000 29.3145 0.0000 -7.9675
# 5 -23.4655 -13.1317 -24.9566 0.0000 23.8384 0.0000
# 6 0.0000 0.0000 0.0000 -7.9675 0.0000 34.0176
#
#
#
# Elastic Compliance Matrix: (Units=1/GPa)
#
#
# Indices 1 2 3 4 5 6 
#
# 1 0.019990 -0.006808 -0.003961 0.000000 0.011780 0.000000
# 2 -0.006808 0.011406 -0.006335 0.000000 -0.007050 0.000000
# 3 -0.003961 -0.006335 0.031040 0.000000 0.025107 0.000000
# 4 0.000000 0.000000 0.000000 0.036432 0.000000 0.008533
# 5 0.011780 -0.007050 0.025107 0.000000 0.075947 0.000000
# 6 0.000000 0.000000 0.000000 0.008533 0.000000 0.031395
#
#
# Mechanical properties :
#
#
# Convention : Reuss Voigt Hill
#
# Bulk Modulus (GPa) = 35.42432 70.61265 53.01849
# Shear Modulus (GPa) = 20.01378 27.39045 23.70212
#
# Velocity S-wave (km/s) = 3.28290 3.84055 3.57262
# Velocity P-wave (km/s) = 5.78325 7.59549 6.75046
#
# Compressibility (1/GPa) = 0.02822919
#
# Stress axis : x y z
#
# Youngs Moduli (GPa) = 50.02383 87.66975 32.21660
#
# Poissons Ratio (x) = 0.59683 0.12762
# Poissons Ratio (y) = 0.34055 0.20408
# Poissons Ratio (z) = 0.19816 0.55536
#
# Static dielectric constant tensor:
#      x y z
#    x 3.455400 0.000000 -0.287770 
#    y 0.000000 3.658130 0.000000 
#    z -0.287770 0.000000 3.153480 
# 
# 
# High freq. dielectric constant tensor:
#      x y z
#    x 1.719700 0.000000 -0.020810 
#    y 0.000000 1.740500 0.000000 
#    z -0.020810 0.000000 1.688060 
# 
# From -- ./inp_files/230950.got.cif
#   From: 2010.06.25/outbox.cif.g09.slc.cpg/sg12_116_cif.got.tgz:230950.got - 2010.06.28 00:19:55.
