data_PCOD8095494
_publ_section_title
;
Structure prediction by ZEFSAII (Michael W. Deem and Ramdas Pophale) SiO2 
 PCOD8095494
Probable space group: C 2/M
;
_chemical_formula_sum "Si O2"
_cell_formula_units_Z 64
_cell_length_a 20.668221
_cell_length_b 9.510586
_cell_length_c 27.984625
_cell_angle_alpha 90.000000
_cell_angle_beta 38.728968
_cell_angle_gamma 90.000000
_cell_volume 3441.536625
_symmetry_space_group_name_H-M "C 2/M"
_symmetry_group_IT_number 12
_symmetry_cell_setting 'monoclinic'
loop_
_space_group_symop_operation_xyz
x,y,z
-x,y,-z
-x,-y,-z
x,-y,z
1/2+x,1/2+y,z
1/2-x,1/2+y,-z
1/2-x,1/2-y,-z
1/2+x,1/2-y,z
loop_
_atom_site_type_symbol
_atom_site_label
_atom_site_fract_x
_atom_site_fract_y
_atom_site_fract_z
Si Si1 0.056140 0.660435 0.422416
Si Si2 0.985402 0.333755 0.778380
Si Si3 0.252349 0.167657 0.743961
Si Si4 0.521395 0.333458 0.850970
Si Si5 0.639323 0.158257 0.523606
Si Si6 0.791769 0.666937 0.827692
Si Si7 0.316473 0.163510 0.395168
Si Si8 0.079958 0.833318 0.992636
O O1 0.078967 0.500000 0.424549
O O2 0.164600 0.728691 0.342558
O O3 0.000000 0.736682 0.500000
O O4 0.980074 0.669974 0.421278
O O5 0.975732 0.500000 0.793659
O O6 0.897183 0.282120 0.792258
O O7 0.973024 0.249177 0.834439
O O8 0.096845 0.293537 0.692714
O O9 0.138870 0.216149 0.793217
O O10 0.280537 0.227671 0.780347
O O11 0.259597 0.000000 0.741631
O O12 0.516186 0.500000 0.844500
O O13 0.452313 0.286669 0.935792
O O14 0.643412 0.209180 0.575737
O O15 0.710390 0.251699 0.447174
O O16 0.680496 0.000000 0.494545
O O17 0.790301 0.500000 0.825940
O O18 0.694955 0.722367 0.914851
O O19 0.291086 0.000000 0.406744
O O20 0.075926 0.000000 0.991044
O O21 0.000000 0.769499 0.000000
#
# Coordination Sequence:
#
# PCOD8095494 Si02
#       8
#     8   8   8   8   8   8   8   8
#     4   9  17  26  40  67 100 124 151 199 250 287
#     4  10  21  34  49  72 104 140 169 198 244 304
#     4   9  16  28  48  74  99 127 168 212 250 291
#     4  10  20  32  52  80 105 128 162 211 256 295
#     4   9  17  30  49  71  92 121 162 209 251 287
#     4   9  16  29  51  73  97 132 170 205 244 296
#     4   9  18  32  48  66  94 130 166 198 237 294
#     4   9  15  28  50  79 105 125 160 210 256 292
#
# _framework density 18.596344999999999
#
# number of rings (size 3 to 8) (size 9 to 14) (size 15 to 20)
#    0.000    2.750    1.250    0.750    1.750    4.000 
#    0.000    0.000    0.000    2.250    0.000    0.000 
#    0.000    0.000    0.000    0.000    0.000    0.000 
#
# Total GULP energy -396651.560619 kJ/mol
# GULP energy per Si atom -12395.361269 kJ/mol
# Density = 1.855402 g / cm^3
# Si number density = 18.596345 Si / 1000 Ang^3
#
#
#
# Elastic Constant Matrix: (Units=GPa)
#
#
# Indices 1 2 3 4 5 6 
#
# 1 72.0012 11.4831 26.5454 0.0002 8.0124 -0.0005
# 2 11.4831 18.5381 16.2460 0.0004 2.1756 -0.0014
# 3 26.5454 16.2460 133.4902 -0.0001 2.7985 0.0001
# 4 0.0002 0.0004 -0.0001 16.1532 0.0000 4.8221
# 5 8.0124 2.1756 2.7985 0.0000 30.1519 -0.0001
# 6 -0.0005 -0.0014 0.0001 4.8221 -0.0001 18.3196
#
#
#
# Elastic Compliance Matrix: (Units=1/GPa)
#
#
# Indices 1 2 3 4 5 6 
#
# 1 0.016346 -0.007749 -0.002232 0.000000 -0.003577 0.000000
# 2 -0.007749 0.064467 -0.006263 -0.000003 -0.002011 0.000006
# 3 -0.002232 -0.006263 0.008692 0.000000 0.000238 -0.000001
# 4 0.000000 -0.000003 0.000000 0.067187 0.000000 -0.017685
# 5 -0.003577 -0.002011 0.000238 0.000000 0.034239 0.000000
# 6 0.000000 0.000006 -0.000001 -0.017685 0.000000 0.059241
#
#
# Mechanical properties :
#
#
# Convention : Reuss Voigt Hill
#
# Bulk Modulus (GPa) = 17.53852 36.95316 27.24584
# Shear Modulus (GPa) = 16.57463 24.24194 20.40829
#
# Velocity S-wave (km/s) = 2.98868 3.61444 3.31635
# Velocity P-wave (km/s) = 4.62182 6.11009 5.41731
#
# Compressibility (1/GPa) = 0.05701736
#
# Stress axis : x y z
#
# Youngs Moduli (GPa) = 61.17856 15.51174 115.04436
#
# Poissons Ratio (x) = 0.12020 0.25682
# Poissons Ratio (y) = 0.47406 0.72049
# Poissons Ratio (z) = 0.13657 0.09715
#
# Static dielectric constant tensor:
#      x y z
#    x 3.420120 0.000000 -0.045160 
#    y 0.000000 2.818910 0.000000 
#    z -0.045160 0.000000 3.748980 
# 
# 
# High freq. dielectric constant tensor:
#      x y z
#    x 1.724800 0.000000 -0.000370 
#    y 0.000000 1.649950 0.000000 
#    z -0.000370 0.000000 1.739310 
# 
# From -- ./inp_files/365712.got.cif
#   From: 2010.06.25/outbox.cif.g09.slc.cpg/sg12_183_cif.got.tgz:365712.got - 2010.06.28 00:19:55.
