data_PCOD8095064
_publ_section_title
;
Structure prediction by ZEFSAII (Michael W. Deem and Ramdas Pophale) SiO2 
 PCOD8095064
Probable space group: C 2/M
;
_chemical_formula_sum "Si O2"
_cell_formula_units_Z 64
_cell_length_a 20.107738
_cell_length_b 9.120180
_cell_length_c 23.718574
_cell_angle_alpha 90.000000
_cell_angle_beta 50.665872
_cell_angle_gamma 90.000000
_cell_volume 3364.299372
_symmetry_space_group_name_H-M "C 2/M"
_symmetry_group_IT_number 12
_symmetry_cell_setting 'monoclinic'
loop_
_space_group_symop_operation_xyz
x,y,z
-x,y,-z
-x,-y,-z
x,-y,z
1/2+x,1/2+y,z
1/2-x,1/2+y,-z
1/2-x,1/2-y,-z
1/2+x,1/2-y,z
loop_
_atom_site_type_symbol
_atom_site_label
_atom_site_fract_x
_atom_site_fract_y
_atom_site_fract_z
Si Si1 0.794929 0.328736 0.676901
Si Si2 0.543923 0.674087 0.105368
Si Si3 0.639960 0.325627 0.837876
Si Si4 0.239694 0.170892 0.418575
Si Si5 0.678007 0.674351 0.941145
Si Si6 0.554033 0.167080 0.320067
Si Si7 0.629084 0.169110 0.158254
Si Si8 0.877594 0.170350 0.411955
O O1 0.782793 0.500000 0.670075
O O2 0.716368 0.268657 0.756947
O O3 0.797951 0.239599 0.617701
O O4 0.884323 0.299063 0.660527
O O5 0.546631 0.500000 0.106835
O O6 0.450216 0.731363 0.138059
O O7 0.563812 0.736804 0.156155
O O8 0.612931 0.735314 0.023204
O O9 0.642542 0.500000 0.839302
O O10 0.651354 0.260943 0.894609
O O11 0.169443 0.202780 0.504101
O O12 0.330145 0.245081 0.386691
O O13 0.256750 0.000000 0.400629
O O14 0.673730 0.500000 0.940587
O O15 0.774115 0.725608 0.904967
O O16 0.608564 0.194323 0.234542
O O17 0.474590 0.276190 0.365537
O O18 0.520322 0.000000 0.340551
O O19 0.619186 0.000000 0.146582
O O20 0.876943 0.000000 0.396836
#
# Coordination Sequence:
#
# PCOD8095064 Si02
#       8
#     8   8   8   8   8   8   8   8
#     4  10  20  36  58  82 112 152 193 231 275 328
#     4  10  20  31  52  83 107 136 184 235 278 324
#     4   9  17  32  53  79 108 139 183 232 272 318
#     4  10  22  40  61  87 117 146 180 224 277 334
#     4   9  16  32  55  76 104 143 184 227 275 325
#     4  10  21  37  57  81 112 152 193 232 276 330
#     4  10  20  35  53  75 109 148 182 223 276 331
#     4  10  22  40  62  86 114 147 183 227 275 328
#
# _framework density 19.023278000000001
#
# number of rings (size 3 to 8) (size 9 to 14) (size 15 to 20)
#    0.000    2.250    1.250    1.500    1.750    4.500 
#    0.000    2.500    0.000    3.000    0.000    0.000 
#    0.000    0.000    0.000    0.000    0.000    0.000 
#
# Total GULP energy -396901.449585 kJ/mol
# GULP energy per Si atom -12403.170300 kJ/mol
# Density = 1.897998 g / cm^3
# Si number density = 19.023278 Si / 1000 Ang^3
#
#
#
# Elastic Constant Matrix: (Units=GPa)
#
#
# Indices 1 2 3 4 5 6 
#
# 1 118.1731 37.1070 30.1260 -0.0001 2.4173 -0.0002
# 2 37.1070 51.8239 28.7926 -0.0002 1.8145 -0.0002
# 3 30.1260 28.7926 52.9686 0.0000 -3.5963 0.0000
# 4 -0.0001 -0.0002 0.0000 22.2325 0.0000 -0.3157
# 5 2.4173 1.8145 -3.5963 0.0000 40.6357 0.0000
# 6 -0.0002 -0.0002 0.0000 -0.3157 0.0000 29.7431
#
#
#
# Elastic Compliance Matrix: (Units=1/GPa)
#
#
# Indices 1 2 3 4 5 6 
#
# 1 0.011233 -0.006370 -0.002970 0.000000 -0.000647 0.000000
# 2 -0.006370 0.031529 -0.013668 0.000000 -0.002239 0.000000
# 3 -0.002970 -0.013668 0.028221 0.000000 0.003285 0.000000
# 4 0.000000 0.000000 0.000000 0.044986 0.000000 0.000478
# 5 -0.000647 -0.002239 0.003285 0.000000 0.025038 0.000000
# 6 0.000000 0.000000 0.000000 0.000478 0.000000 0.033626
#
#
# Mechanical properties :
#
#
# Convention : Reuss Voigt Hill
#
# Bulk Modulus (GPa) = 40.05228 46.11298 43.08263
# Shear Modulus (GPa) = 21.83686 26.98492 24.41089
#
# Velocity S-wave (km/s) = 3.39175 3.77041 3.58608
# Velocity P-wave (km/s) = 6.03644 6.57629 6.31214
#
# Compressibility (1/GPa) = 0.02496737
#
# Stress axis : x y z
#
# Youngs Moduli (GPa) = 89.02498 31.71658 35.43517
#
# Poissons Ratio (x) = 0.20204 0.10524
# Poissons Ratio (y) = 0.56712 0.48431
# Poissons Ratio (z) = 0.26439 0.43349
#
# Static dielectric constant tensor:
#      x y z
#    x 3.559390 0.000000 -0.034120 
#    y 0.000000 3.154590 0.000000 
#    z -0.034120 0.000000 3.546220 
# 
# 
# High freq. dielectric constant tensor:
#      x y z
#    x 1.753690 0.000000 0.000070 
#    y 0.000000 1.706430 0.000000 
#    z 0.000070 0.000000 1.745110 
# 
# From -- ./inp_files/346025.got.cif
#   From: 2010.06.25/outbox.cif.g09.slc.cpg/sg12_174_cif.got.tgz:346025.got - 2010.06.28 00:19:55.
