data_PCOD8095330
_publ_section_title
;
Structure prediction by ZEFSAII (Michael W. Deem and Ramdas Pophale) SiO2 
 PCOD8095330
Probable space group: C 2/M
;
_chemical_formula_sum "Si O2"
_cell_formula_units_Z 44
_cell_length_a 14.628505
_cell_length_b 29.225559
_cell_length_c 11.301624
_cell_angle_alpha 90.000000
_cell_angle_beta 148.171834
_cell_angle_gamma 90.000000
_cell_volume 2548.132186
_symmetry_space_group_name_H-M "C 2/M"
_symmetry_group_IT_number 12
_symmetry_cell_setting 'monoclinic'
loop_
_space_group_symop_operation_xyz
x,y,z
-x,y,-z
-x,-y,-z
x,-y,z
1/2+x,1/2+y,z
1/2-x,1/2+y,-z
1/2-x,1/2-y,-z
1/2+x,1/2-y,z
loop_
_atom_site_type_symbol
_atom_site_label
_atom_site_fract_x
_atom_site_fract_y
_atom_site_fract_z
Si Si1 0.977656 0.448954 0.835714
Si Si2 0.500000 0.237343 0.500000
Si Si3 0.820555 0.884210 0.450390
Si Si4 0.219928 0.884361 0.869801
Si Si5 0.130985 0.788927 0.417914
Si Si6 0.270622 0.298071 0.960185
O O1 0.962516 0.500000 0.765539
O O2 0.797146 0.422264 0.614859
O O3 0.000000 0.451662 0.000000
O O4 0.142026 0.424816 0.952158
O O5 0.559075 0.272085 0.464135
O O6 0.348071 0.202928 0.287983
O O7 0.773165 0.875705 0.262074
O O8 0.768355 0.836377 0.454725
O O9 0.023092 0.897972 0.690131
O O10 0.282072 0.839555 0.010097
O O11 0.250000 0.750000 0.500000
O O12 0.975014 0.800512 0.154637
O O13 0.250000 0.250000 0.000000
#
# Coordination Sequence:
#
# PCOD8095330 Si02
#       6
#     8   4   8   8   8   8
#     4   9  18  29  45  72  98 128 170 206 247 304
#     4  10  20  34  46  70 104 130 170 212 242 294
#     4   9  17  30  47  69  98 131 165 200 248 301
#     4   9  17  31  48  67  99 134 161 202 253 298
#     4  10  20  32  49  72  99 135 172 203 248 301
#     4   9  18  31  48  67  97 129 166 202 243 295
#
# _framework density 17.267548999999999
#
# number of rings (size 3 to 8) (size 9 to 14) (size 15 to 20)
#    0.000    2.727    0.000    3.273    5.091    1.455 
#    3.273    3.636    0.000    0.000    0.000    0.636 
#    0.000    3.273    0.000    0.000    0.000    0.000 
#
# Total GULP energy -272559.719086 kJ/mol
# GULP energy per Si atom -12389.078140 kJ/mol
# Density = 1.722825 g / cm^3
# Si number density = 17.267549 Si / 1000 Ang^3
#
#
#
# Elastic Constant Matrix: (Units=GPa)
#
#
# Indices 1 2 3 4 5 6 
#
# 1 39.6483 40.2999 32.0738 0.0000 18.7550 0.0000
# 2 40.2999 155.4935 65.6645 0.0000 25.2995 0.0000
# 3 32.0738 65.6645 114.6527 0.0000 9.6047 0.0000
# 4 0.0000 0.0000 0.0000 27.1641 0.0000 8.0096
# 5 18.7550 25.2995 9.6047 0.0000 25.0376 0.0000
# 6 0.0000 0.0000 0.0000 8.0096 0.0000 27.8383
#
#
#
# Elastic Compliance Matrix: (Units=1/GPa)
#
#
# Indices 1 2 3 4 5 6 
#
# 1 0.051922 -0.004494 -0.009375 0.000000 -0.030757 0.000000
# 2 -0.004494 0.010221 -0.004147 0.000000 -0.005371 0.000000
# 3 -0.009375 -0.004147 0.013205 0.000000 0.006147 0.000000
# 4 0.000000 0.000000 0.000000 0.040226 0.000000 -0.011574
# 5 -0.030757 -0.005371 0.006147 0.000000 0.066048 0.000000
# 6 0.000000 0.000000 0.000000 -0.011574 0.000000 0.039252
#
#
# Mechanical properties :
#
#
# Convention : Reuss Voigt Hill
#
# Bulk Modulus (GPa) = 25.43433 65.09676 45.26555
# Shear Modulus (GPa) = 18.51791 27.45842 22.98817
#
# Velocity S-wave (km/s) = 3.27832 3.99203 3.65265
# Velocity P-wave (km/s) = 5.39364 7.68304 6.63779
#
# Compressibility (1/GPa) = 0.03931693
#
# Stress axis : x y z
#
# Youngs Moduli (GPa) = 19.25967 97.83993 75.73148
#
# Poissons Ratio (x) = 0.43965 0.70997
# Poissons Ratio (y) = 0.08655 0.31404
# Poissons Ratio (z) = 0.18056 0.40571
#
# Static dielectric constant tensor:
#      x y z
#    x 2.809090 0.000000 0.067280 
#    y 0.000000 3.372950 0.000000 
#    z 0.067280 0.000000 3.947340 
# 
# 
# High freq. dielectric constant tensor:
#      x y z
#    x 1.623800 0.000000 0.026280 
#    y 0.000000 1.661130 0.000000 
#    z 0.026280 0.000000 1.670760 
# 
# From -- ./inp_files/150158.got.cif
#   From: 2010.06.25/outbox.cif.g09.slc.cpg/sg12_76_cif.got.tgz:150158.got - 2010.06.28 00:19:55.
