data_PCOD8095453
_publ_section_title
;
Structure prediction by ZEFSAII (Michael W. Deem and Ramdas Pophale) SiO2 
 PCOD8095453
Probable space group: C 2/M
;
_chemical_formula_sum "Si O2"
_cell_formula_units_Z 64
_cell_length_a 27.747092
_cell_length_b 17.139442
_cell_length_c 18.864142
_cell_angle_alpha 90.000000
_cell_angle_beta 22.241996
_cell_angle_gamma 90.000000
_cell_volume 3395.777763
_symmetry_space_group_name_H-M "C 2/M"
_symmetry_group_IT_number 12
_symmetry_cell_setting 'monoclinic'
loop_
_space_group_symop_operation_xyz
x,y,z
-x,y,-z
-x,-y,-z
x,-y,z
1/2+x,1/2+y,z
1/2-x,1/2+y,-z
1/2-x,1/2-y,-z
1/2+x,1/2-y,z
loop_
_atom_site_type_symbol
_atom_site_label
_atom_site_fract_x
_atom_site_fract_y
_atom_site_fract_z
Si Si1 0.542275 0.855326 0.020025
Si Si2 0.894161 0.797457 0.983572
Si Si3 0.882860 0.750817 0.610516
Si Si4 0.835445 0.411975 0.399750
Si Si5 0.676105 0.412680 0.371934
Si Si6 0.871590 0.152607 0.417314
Si Si7 0.123529 0.915936 0.875355
Si Si8 0.672464 0.810099 0.463252
O O1 0.438010 0.911412 0.197469
O O2 0.500000 0.833096 0.000000
O O3 0.546067 0.773389 0.054810
O O4 0.673156 0.902323 0.839771
O O5 0.745766 0.774633 0.171871
O O6 0.902632 0.879068 0.012839
O O7 0.983685 0.815271 0.793430
O O8 0.887901 0.843884 0.587655
O O9 0.899691 0.702135 0.513830
O O10 0.000000 0.727287 0.500000
O O11 0.812676 0.500000 0.457011
O O12 0.699344 0.379262 0.556266
O O13 0.896248 0.361685 0.382238
O O14 0.640552 0.500000 0.392344
O O15 0.628171 0.409627 0.519056
O O16 0.789673 0.225938 0.557524
O O17 0.198859 0.855594 0.724998
O O18 0.193162 0.000000 0.792374
O O19 0.000000 0.933911 0.000000
#
# Coordination Sequence:
#
# PCOD8095453 Si02
#       8
#     8   8   8   8   8   8   8   8
#     4  11  21  34  54  82 120 166 198 221 265 339
#     4  10  21  35  58  81 112 149 190 240 282 334
#     4   9  21  42  65  86 101 145 201 247 297 343
#     4  12  23  32  54  86 123 161 190 227 274 337
#     4  10  21  36  56  86 123 153 189 238 284 335
#     4  11  21  34  53  86 120 158 189 220 274 345
#     4  10  20  32  51  79 112 149 188 229 276 331
#     4  10  21  37  54  78 116 149 190 236 280 336
#
# _framework density 18.846934000000001
#
# number of rings (size 3 to 8) (size 9 to 14) (size 15 to 20)
#    0.000    1.625    2.500    3.375    1.750    2.750 
#    0.000    2.500    0.000    9.375    0.000    0.000 
#    0.000    0.000    0.000    0.000    0.000    0.000 
#
# Total GULP energy -396531.261776 kJ/mol
# GULP energy per Si atom -12391.601930 kJ/mol
# Density = 1.880404 g / cm^3
# Si number density = 18.846934 Si / 1000 Ang^3
#
#
#
# Elastic Constant Matrix: (Units=GPa)
#
#
# Indices 1 2 3 4 5 6 
#
# 1 76.9333 30.8298 41.0112 -0.0003 -7.0680 -0.0001
# 2 30.8298 118.3935 29.4549 -0.0004 -1.4329 -0.0004
# 3 41.0112 29.4549 88.4403 -0.0004 7.0493 -0.0005
# 4 -0.0003 -0.0004 -0.0004 -21.1855 -0.0001 -14.2091
# 5 -7.0680 -1.4329 7.0493 -0.0001 27.5544 -0.0001
# 6 -0.0001 -0.0004 -0.0005 -14.2091 -0.0001 8.5613
#
#
#
# Elastic Compliance Matrix: (Units=1/GPa)
#
#
# Indices 1 2 3 4 5 6 
#
# 1 0.019354 -0.002816 -0.008596 0.000000 0.007017 0.000000
# 2 -0.002816 0.009664 -0.001935 0.000000 0.000275 0.000000
# 3 -0.008596 -0.001935 0.016457 0.000000 -0.006516 0.000000
# 4 0.000000 0.000000 0.000000 -0.022337 0.000000 -0.037073
# 5 0.007017 0.000275 -0.006516 0.000000 0.039773 0.000000
# 6 0.000000 0.000000 0.000000 -0.037073 0.000000 0.055275
#
#
# Mechanical properties :
#
#
# Convention : Reuss Voigt Hill
#
# Bulk Modulus (GPa) = 53.24490 54.03988 53.64239
# Shear Modulus (GPa) = 33.08186 15.15081 24.11633
#
# Velocity S-wave (km/s) = 4.19416 2.83837 3.58102
# Velocity P-wave (km/s) = 7.19495 6.28308 6.75442
#
# Compressibility (1/GPa) = 0.01878114
#
# Stress axis : x y z
#
# Youngs Moduli (GPa) = 51.66935 103.47229 60.76484
#
# Poissons Ratio (x) = 0.29140 0.52234
# Poissons Ratio (y) = 0.14551 0.11756
# Poissons Ratio (z) = 0.44415 0.20019
#
# Static dielectric constant tensor:
#      x y z
#    x 3.272150 0.000000 0.611290 
#    y 0.000000 3.632300 0.000000 
#    z 0.611290 0.000000 4.387260 
# 
# 
# High freq. dielectric constant tensor:
#      x y z
#    x 1.693750 0.000000 0.031370 
#    y 0.000000 1.747550 0.000000 
#    z 0.031370 0.000000 1.725070 
# 
# From -- ./inp_files/330496.got.cif
#   From: 2010.06.25/outbox.cif.g09.slc.cpg/sg12_166_cif.got.tgz:330496.got - 2010.06.28 00:19:55.
