data_PCOD8095434
_publ_section_title
;
Structure prediction by ZEFSAII (Michael W. Deem and Ramdas Pophale) SiO2 
 PCOD8095434
Probable space group: C 2/M
;
_chemical_formula_sum "Si O2"
_cell_formula_units_Z 64
_cell_length_a 21.814822
_cell_length_b 17.762807
_cell_length_c 14.988161
_cell_angle_alpha 90.000000
_cell_angle_beta 146.548271
_cell_angle_gamma 90.000000
_cell_volume 3201.458045
_symmetry_space_group_name_H-M "C 2/M"
_symmetry_group_IT_number 12
_symmetry_cell_setting 'monoclinic'
loop_
_space_group_symop_operation_xyz
x,y,z
-x,y,-z
-x,-y,-z
x,-y,z
1/2+x,1/2+y,z
1/2-x,1/2+y,-z
1/2-x,1/2-y,-z
1/2+x,1/2-y,z
loop_
_atom_site_type_symbol
_atom_site_label
_atom_site_fract_x
_atom_site_fract_y
_atom_site_fract_z
Si Si1 0.020364 0.588325 0.251168
Si Si2 0.455859 0.416060 0.686256
Si Si3 0.165488 0.300454 0.025836
Si Si4 0.759462 0.164865 0.537043
Si Si5 0.419112 0.417141 0.977128
Si Si6 0.763486 0.802083 0.736723
Si Si7 0.387545 0.699077 0.198950
Si Si8 0.013676 0.663642 0.421244
O O1 0.015310 0.500000 0.220464
O O2 0.142681 0.621639 0.385008
O O3 0.992247 0.600089 0.321416
O O4 0.928612 0.634419 0.082189
O O5 0.435746 0.500000 0.623377
O O6 0.338615 0.377254 0.563747
O O7 0.523137 0.368282 0.693962
O O8 0.524099 0.421123 0.859173
O O9 0.192336 0.274382 0.160808
O O10 0.274314 0.332149 0.106005
O O11 0.123310 0.229332 0.916043
O O12 0.750000 0.250000 0.500000
O O13 0.813220 0.172237 0.700976
O O14 0.384277 0.500000 0.901590
O O15 0.305440 0.369747 0.850834
O O16 0.500000 0.380913 0.000000
O O17 0.633202 0.797018 0.561135
O O18 0.425585 0.768689 0.306630
O O19 0.000000 0.623419 0.500000
#
# Coordination Sequence:
#
# PCOD8095434 Si02
#       8
#     8   8   8   8   8   8   8   8
#     4  10  23  39  58  88 126 158 191 248 320 374
#     4  11  21  35  57  86 120 157 195 245 305 361
#     4  10  20  36  60  83 114 161 203 247 294 354
#     4  11  23  39  61  89 116 157 205 247 302 365
#     4  10  20  32  50  83 122 152 185 235 301 365
#     4  11  20  34  60  86 115 151 201 249 296 353
#     4  10  20  37  57  83 119 155 208 250 284 352
#     4  10  20  36  58  85 115 157 204 247 297 352
#
# _framework density 19.99089
#
# number of rings (size 3 to 8) (size 9 to 14) (size 15 to 20)
#    0.000    1.625    3.750    2.625    0.000    2.750 
#    0.000    1.250    0.000    4.875    0.000    0.000 
#    0.000    0.000    0.000    0.000    0.000    0.000 
#
# Total GULP energy -396516.967994 kJ/mol
# GULP energy per Si atom -12391.155250 kJ/mol
# Density = 1.994539 g / cm^3
# Si number density = 19.990890 Si / 1000 Ang^3
#
#
#
# Elastic Constant Matrix: (Units=GPa)
#
#
# Indices 1 2 3 4 5 6 
#
# 1 44.7270 28.6837 14.8438 0.0000 18.1652 0.0000
# 2 28.6837 123.0306 42.8050 0.0000 23.4783 0.0000
# 3 14.8438 42.8050 92.0006 0.0000 14.1167 0.0000
# 4 0.0000 0.0000 0.0000 16.2954 0.0000 6.5847
# 5 18.1652 23.4783 14.1167 0.0000 24.8251 0.0000
# 6 0.0000 0.0000 0.0000 6.5847 0.0000 19.1699
#
#
#
# Elastic Compliance Matrix: (Units=1/GPa)
#
#
# Indices 1 2 3 4 5 6 
#
# 1 0.033217 -0.003641 -0.000508 0.000000 -0.020573 0.000000
# 2 -0.003641 0.011450 -0.003820 0.000000 -0.005991 0.000000
# 3 -0.000508 -0.003820 0.013276 0.000000 -0.003564 0.000000
# 4 0.000000 0.000000 0.000000 0.071257 0.000000 -0.024476
# 5 -0.020573 -0.005991 -0.003564 0.000000 0.063029 0.000000
# 6 0.000000 0.000000 0.000000 -0.024476 0.000000 0.060573
#
#
# Mechanical properties :
#
#
# Convention : Reuss Voigt Hill
#
# Bulk Modulus (GPa) = 23.80813 48.04703 35.92758
# Shear Modulus (GPa) = 17.68393 23.61978 20.65186
#
# Velocity S-wave (km/s) = 2.97745 3.44106 3.21762
# Velocity P-wave (km/s) = 4.87397 6.31463 5.64049
#
# Compressibility (1/GPa) = 0.04200246
#
# Stress axis : x y z
#
# Youngs Moduli (GPa) = 30.10476 87.33950 75.32454
#
# Poissons Ratio (x) = 0.31805 0.03830
# Poissons Ratio (y) = 0.10963 0.28776
# Poissons Ratio (z) = 0.01531 0.33366
#
# Static dielectric constant tensor:
#      x y z
#    x 3.487210 0.000000 0.154080 
#    y 0.000000 3.560960 0.000000 
#    z 0.154080 0.000000 3.310310 
# 
# 
# High freq. dielectric constant tensor:
#      x y z
#    x 1.765760 0.000000 0.010280 
#    y 0.000000 1.760190 0.000000 
#    z 0.010280 0.000000 1.785230 
# 
# From -- ./inp_files/290462.got.cif
#   From: 2010.06.25/outbox.cif.g09.slc.cpg/sg12_146_cif.got.tgz:290462.got - 2010.06.28 00:19:55.
