data_PCOD8095916
_publ_section_title
;
Structure prediction by ZEFSAII (Michael W. Deem and Ramdas Pophale) SiO2 
 PCOD8095916
Probable space group: C 2/M
;
_chemical_formula_sum "Si O2"
_cell_formula_units_Z 64
_cell_length_a 25.021371
_cell_length_b 8.920319
_cell_length_c 14.690856
_cell_angle_alpha 90.000000
_cell_angle_beta 89.487732
_cell_angle_gamma 90.000000
_cell_volume 3278.847600
_symmetry_space_group_name_H-M "C 2/M"
_symmetry_group_IT_number 12
_symmetry_cell_setting 'monoclinic'
loop_
_space_group_symop_operation_xyz
x,y,z
-x,y,-z
-x,-y,-z
x,-y,z
1/2+x,1/2+y,z
1/2-x,1/2+y,-z
1/2-x,1/2-y,-z
1/2+x,1/2-y,z
loop_
_atom_site_type_symbol
_atom_site_label
_atom_site_fract_x
_atom_site_fract_y
_atom_site_fract_z
Si Si1 0.307126 0.176631 0.026630
Si Si2 0.157601 0.178766 0.787626
Si Si3 0.440138 0.671970 0.705845
Si Si4 0.199360 0.327280 0.462219
Si Si5 0.917405 0.323793 0.513057
Si Si6 0.058662 0.828483 0.669179
Si Si7 0.362748 0.825698 0.845765
Si Si8 0.230331 0.675864 0.270958
O O1 0.334934 0.247882 0.114174
O O2 0.296370 0.000000 0.039528
O O3 0.250000 0.250000 0.000000
O O4 0.355466 0.202876 0.953006
O O5 0.105347 0.237936 0.733707
O O6 0.209154 0.237484 0.729670
O O7 0.154413 0.000000 0.799777
O O8 0.422727 0.500000 0.694564
O O9 0.429137 0.754467 0.610921
O O10 0.503402 0.685992 0.725151
O O11 0.410719 0.738684 0.795102
O O12 0.212016 0.500000 0.468172
O O13 0.250000 0.250000 0.500000
O O14 0.144167 0.287082 0.512075
O O15 0.195781 0.273983 0.358066
O O16 0.928824 0.500000 0.520053
O O17 0.949844 0.256917 0.427434
O O18 0.072043 0.000000 0.644248
O O19 0.305002 0.765828 0.811902
O O20 0.371670 0.000000 0.821801
O O21 0.236499 0.500000 0.263460
#
# Coordination Sequence:
#
# PCOD8095916 Si02
#       8
#     8   8   8   8   8   8   8   8
#     4  11  22  37  61  91 121 152 192 239 291 353
#     4  10  20  38  62  85 116 157 193 238 297 348
#     4  11  23  39  60  87 116 152 201 247 287 342
#     4  10  20  33  50  76 112 149 188 229 278 340
#     4  11  22  37  59  86 116 155 200 242 287 345
#     4  10  23  41  60  84 117 156 197 243 295 344
#     4  10  20  38  60  84 114 149 189 235 288 344
#     4   9  16  32  55  77 108 147 183 223 280 340
#
# _framework density 19.519053
#
# number of rings (size 3 to 8) (size 9 to 14) (size 15 to 20)
#    0.000    1.750    2.500    2.250    0.000    6.000 
#    0.000    1.250    0.000    3.750    0.000    0.000 
#    0.000    0.000    0.000    0.000    0.000    0.000 
#
# Total GULP energy -396485.698780 kJ/mol
# GULP energy per Si atom -12390.178087 kJ/mol
# Density = 1.947463 g / cm^3
# Si number density = 19.519053 Si / 1000 Ang^3
#
#
#
# Elastic Constant Matrix: (Units=GPa)
#
#
# Indices 1 2 3 4 5 6 
#
# 1 94.4186 36.3170 35.6314 0.0000 -16.0736 0.0000
# 2 36.3170 75.4147 32.5974 0.0000 -6.9849 0.0000
# 3 35.6314 32.5974 62.7941 0.0000 -11.2837 0.0000
# 4 0.0000 0.0000 0.0000 33.9051 0.0000 -1.5939
# 5 -16.0736 -6.9849 -11.2837 0.0000 30.7154 0.0000
# 6 0.0000 0.0000 0.0000 -1.5939 0.0000 27.8691
#
#
#
# Elastic Compliance Matrix: (Units=1/GPa)
#
#
# Indices 1 2 3 4 5 6 
#
# 1 0.015212 -0.004539 -0.005386 0.000000 0.004950 0.000000
# 2 -0.004539 0.018463 -0.007154 0.000000 -0.000805 0.000000
# 3 -0.005386 -0.007154 0.023444 0.000000 0.004167 0.000000
# 4 0.000000 0.000000 0.000000 0.029574 0.000000 0.001691
# 5 0.004950 -0.000805 0.004167 0.000000 0.036495 0.000000
# 6 0.000000 0.000000 0.000000 0.001691 0.000000 0.035979
#
#
# Mechanical properties :
#
#
# Convention : Reuss Voigt Hill
#
# Bulk Modulus (GPa) = 43.55093 49.07990 46.31541
# Shear Modulus (GPa) = 24.87827 27.03668 25.95747
#
# Velocity S-wave (km/s) = 3.57398 3.72579 3.65067
# Velocity P-wave (km/s) = 6.27627 6.61119 6.44590
#
# Compressibility (1/GPa) = 0.02296162
#
# Stress axis : x y z
#
# Youngs Moduli (GPa) = 65.73616 54.16100 42.65544
#
# Poissons Ratio (x) = 0.24584 0.22975
# Poissons Ratio (y) = 0.29839 0.30514
# Poissons Ratio (z) = 0.35407 0.38745
#
# Static dielectric constant tensor:
#      x y z
#    x 3.808610 0.000000 -0.134160 
#    y 0.000000 3.500080 0.000000 
#    z -0.134160 0.000000 3.436830 
# 
# 
# High freq. dielectric constant tensor:
#      x y z
#    x 1.767010 0.000000 -0.009240 
#    y 0.000000 1.746500 0.000000 
#    z -0.009240 0.000000 1.758750 
# 
# From -- ./inp_files/238761.got.cif
#   From: 2010.06.25/outbox.cif.g09.slc.cpg/sg12_120_cif.got.tgz:238761.got - 2010.06.28 00:19:55.
