data_PCOD8095420
_publ_section_title
;
Structure prediction by ZEFSAII (Michael W. Deem and Ramdas Pophale) SiO2 
 PCOD8095420
Probable space group: C 2/M
;
_chemical_formula_sum "Si O2"
_cell_formula_units_Z 64
_cell_length_a 19.352619
_cell_length_b 8.987465
_cell_length_c 25.148957
_cell_angle_alpha 90.000000
_cell_angle_beta 53.987017
_cell_angle_gamma 90.000000
_cell_volume 3538.205604
_symmetry_space_group_name_H-M "C 2/M"
_symmetry_group_IT_number 12
_symmetry_cell_setting 'monoclinic'
loop_
_space_group_symop_operation_xyz
x,y,z
-x,y,-z
-x,-y,-z
x,-y,z
1/2+x,1/2+y,z
1/2-x,1/2+y,-z
1/2-x,1/2-y,-z
1/2+x,1/2-y,z
loop_
_atom_site_type_symbol
_atom_site_label
_atom_site_fract_x
_atom_site_fract_y
_atom_site_fract_z
Si Si1 0.955918 0.177016 0.799637
Si Si2 0.164573 0.168275 0.053327
Si Si3 0.863254 0.167008 0.574296
Si Si4 0.595618 0.823795 0.804728
Si Si5 0.497533 0.329138 0.940967
Si Si6 0.469526 0.666916 0.429943
Si Si7 0.064296 0.329440 0.301724
Si Si8 0.231016 0.670828 0.297380
O O1 0.879940 0.231557 0.873119
O O2 0.931903 0.228187 0.751910
O O3 0.044164 0.250255 0.779205
O O4 0.967054 0.000000 0.797474
O O5 0.099799 0.185251 0.033755
O O6 0.190836 0.000000 0.051673
O O7 0.250000 0.250000 0.000000
O O8 0.888926 0.219124 0.502776
O O9 0.794544 0.278332 0.631282
O O10 0.947346 0.167128 0.571538
O O11 0.824918 0.000000 0.589945
O O12 0.559200 0.772579 0.877953
O O13 0.693309 0.773133 0.757989
O O14 0.589540 0.000000 0.802779
O O15 0.529139 0.500000 0.922093
O O16 0.500000 0.270997 0.000000
O O17 0.453228 0.500000 0.415610
O O18 0.483748 0.777896 0.374149
O O19 0.049809 0.500000 0.292201
O O20 0.152470 0.306252 0.292872
O O21 0.260165 0.500000 0.286653
#
# Coordination Sequence:
#
# PCOD8095420 Si02
#       8
#     8   8   8   8   8   8   8   8
#     4  10  21  38  56  74 102 139 174 208 256 311
#     4   9  19  34  53  76 100 129 163 202 248 298
#     4   8  14  26  45  70  99 132 171 211 253 301
#     4  11  22  36  55  77 103 136 175 215 254 304
#     4   9  19  37  57  76 101 134 170 207 252 303
#     4   8  14  26  45  69 100 135 167 207 258 304
#     4  10  20  32  50  78 106 134 173 216 254 299
#     4  10  20  33  50  75 107 139 172 213 259 304
#
# _framework density 18.088263999999999
#
# number of rings (size 3 to 8) (size 9 to 14) (size 15 to 20)
#    0.000    2.625    0.000    3.750    0.000    5.750 
#    0.000    6.250    0.000    0.750    0.000    0.000 
#    0.000    0.000    0.000    0.000    0.000    0.000 
#
# Total GULP energy -396726.756734 kJ/mol
# GULP energy per Si atom -12397.711148 kJ/mol
# Density = 1.804709 g / cm^3
# Si number density = 18.088264 Si / 1000 Ang^3
#
#
#
# Elastic Constant Matrix: (Units=GPa)
#
#
# Indices 1 2 3 4 5 6 
#
# 1 45.7168 34.5413 49.3158 -0.0001 3.0856 -0.0001
# 2 34.5413 100.9548 55.5827 -0.0001 -1.3163 -0.0003
# 3 49.3158 55.5827 118.4031 0.0000 5.7861 -0.0001
# 4 -0.0001 -0.0001 0.0000 37.0195 0.0000 -1.8117
# 5 3.0856 -1.3163 5.7861 0.0000 21.3569 -0.0001
# 6 -0.0001 -0.0003 -0.0001 -1.8117 -0.0001 26.4877
#
#
#
# Elastic Compliance Matrix: (Units=1/GPa)
#
#
# Indices 1 2 3 4 5 6 
#
# 1 0.042802 -0.006655 -0.014574 0.000000 -0.002646 0.000000
# 2 -0.006655 0.014532 -0.004196 0.000000 0.002994 0.000000
# 3 -0.014574 -0.004196 0.016615 0.000000 -0.002655 0.000000
# 4 0.000000 0.000000 0.000000 0.027103 0.000000 0.001854
# 5 -0.002646 0.002994 -0.002655 0.000000 0.048109 0.000000
# 6 0.000000 0.000000 0.000000 0.001854 0.000000 0.037880
#
#
# Mechanical properties :
#
#
# Convention : Reuss Voigt Hill
#
# Bulk Modulus (GPa) = 43.29235 60.43936 51.86585
# Shear Modulus (GPa) = 20.35903 25.34849 22.85376
#
# Velocity S-wave (km/s) = 3.35854 3.74756 3.55837
# Velocity P-wave (km/s) = 6.24705 7.22577 6.75416
#
# Compressibility (1/GPa) = 0.02309877
#
# Stress axis : x y z
#
# Youngs Moduli (GPa) = 23.36358 68.81499 60.18509
#
# Poissons Ratio (x) = 0.45796 0.87713
# Poissons Ratio (y) = 0.15548 0.25255
# Poissons Ratio (z) = 0.34050 0.28876
#
# Static dielectric constant tensor:
#      x y z
#    x 3.045200 0.000000 0.059140 
#    y 0.000000 3.391510 0.000000 
#    z 0.059140 0.000000 3.660990 
# 
# 
# High freq. dielectric constant tensor:
#      x y z
#    x 1.666730 0.000000 0.001460 
#    y 0.000000 1.702910 0.000000 
#    z 0.001460 0.000000 1.712720 
# 
# From -- ./inp_files/345984.got.cif
#   From: 2010.06.25/outbox.cif.g09.slc.cpg/sg12_173_cif.got.tgz:345984.got - 2010.06.28 00:19:55.
