data_PCOD8095850
_publ_section_title
;
Structure prediction by ZEFSAII (Michael W. Deem and Ramdas Pophale) SiO2 
 PCOD8095850
Probable space group: C 2/M
;
_chemical_formula_sum "Si O2"
_cell_formula_units_Z 64
_cell_length_a 25.778980
_cell_length_b 9.796398
_cell_length_c 17.597607
_cell_angle_alpha 90.000000
_cell_angle_beta 54.540715
_cell_angle_gamma 90.000000
_cell_volume 3619.859926
_symmetry_space_group_name_H-M "C 2/M"
_symmetry_group_IT_number 12
_symmetry_cell_setting 'monoclinic'
loop_
_space_group_symop_operation_xyz
x,y,z
-x,y,-z
-x,-y,-z
x,-y,z
1/2+x,1/2+y,z
1/2-x,1/2+y,-z
1/2-x,1/2-y,-z
1/2+x,1/2-y,z
loop_
_atom_site_type_symbol
_atom_site_label
_atom_site_fract_x
_atom_site_fract_y
_atom_site_fract_z
Si Si1 0.673923 0.650244 0.870046
Si Si2 0.569450 0.157167 0.915845
Si Si3 0.725012 0.841565 0.088873
Si Si4 0.036681 0.338020 0.630981
Si Si5 0.225687 0.154116 0.657373
Si Si6 0.135349 0.662580 0.422818
Si Si7 0.103632 0.337756 0.282639
Si Si8 0.115452 0.340837 0.708872
O O1 0.646327 0.500000 0.911575
O O2 0.617730 0.758693 0.927181
O O3 0.730237 0.688291 0.878213
O O4 0.702652 0.654302 0.762656
O O5 0.579300 0.187537 0.818523
O O6 0.581220 0.000000 0.925212
O O7 0.500000 0.204817 0.000000
O O8 0.654269 0.795344 0.174780
O O9 0.725996 0.000000 0.063486
O O10 0.750000 0.750000 0.000000
O O11 0.033897 0.500000 0.631333
O O12 0.078740 0.283945 0.524871
O O13 0.067784 0.289718 0.683705
O O14 0.965257 0.278478 0.683468
O O15 0.297861 0.211735 0.597003
O O16 0.180924 0.254955 0.646527
O O17 0.222129 0.000000 0.626680
O O18 0.137177 0.500000 0.417159
O O19 0.123736 0.722317 0.348062
O O20 0.101325 0.500000 0.291431
O O21 0.133235 0.500000 0.684404
#
# Coordination Sequence:
#
# PCOD8095850 Si02
#       8
#     8   8   8   8   8   8   8   8
#     4   9  17  31  48  67  94 124 157 198 240 284
#     4   9  18  31  48  68  92 125 165 202 238 286
#     4  10  20  33  50  74 100 127 161 202 246 292
#     4   9  17  27  44  71 101 129 157 200 251 291
#     4   9  16  29  50  70  92 125 161 197 234 280
#     4   9  15  26  47  73  96 123 163 203 242 289
#     4   9  16  29  48  70  98 129 162 201 243 288
#     4   9  18  31  44  67 101 127 155 198 245 288
#
# _framework density 17.680243000000001
#
# number of rings (size 3 to 8) (size 9 to 14) (size 15 to 20)
#    0.000    2.875    1.250    0.375    0.000    3.750 
#    0.000    2.500    0.000    0.750    0.000    0.000 
#    0.000    3.000    0.000    0.000    0.000    0.000 
#
# Total GULP energy -396695.913460 kJ/mol
# GULP energy per Si atom -12396.747296 kJ/mol
# Density = 1.764000 g / cm^3
# Si number density = 17.680243 Si / 1000 Ang^3
#
#
#
# Elastic Constant Matrix: (Units=GPa)
#
#
# Indices 1 2 3 4 5 6 
#
# 1 143.3754 45.8286 65.8066 0.0000 -21.5330 0.0000
# 2 45.8286 38.5292 29.8009 -0.0001 -9.3294 0.0000
# 3 65.8066 29.8009 93.1052 -0.0001 -24.0953 0.0000
# 4 0.0000 -0.0001 -0.0001 16.7177 0.0000 -1.5569
# 5 -21.5330 -9.3294 -24.0953 0.0000 33.0944 0.0000
# 6 0.0000 0.0000 0.0000 -1.5569 0.0000 25.1303
#
#
#
# Elastic Compliance Matrix: (Units=1/GPa)
#
#
# Indices 1 2 3 4 5 6 
#
# 1 0.013273 -0.011252 -0.005379 0.000000 0.001548 0.000000
# 2 -0.011252 0.044149 -0.005979 0.000000 0.000772 0.000000
# 3 -0.005379 -0.005979 0.018623 0.000000 0.008374 0.000000
# 4 0.000000 0.000000 0.000000 0.060164 0.000000 0.003727
# 5 0.001548 0.000772 0.008374 0.000000 0.037538 0.000000
# 6 0.000000 0.000000 0.000000 0.003727 0.000000 0.040023
#
#
# Mechanical properties :
#
#
# Convention : Reuss Voigt Hill
#
# Bulk Modulus (GPa) = 32.44041 61.98689 47.21365
# Shear Modulus (GPa) = 18.56914 23.89340 21.23127
#
# Velocity S-wave (km/s) = 3.24431 3.68015 3.46908
# Velocity P-wave (km/s) = 5.69406 7.29343 6.54280
#
# Compressibility (1/GPa) = 0.03082576
#
# Stress axis : x y z
#
# Youngs Moduli (GPa) = 75.34359 22.65059 53.69655
#
# Poissons Ratio (x) = 0.25486 0.28884
# Poissons Ratio (y) = 0.84775 0.32103
# Poissons Ratio (z) = 0.40528 0.13542
#
# Static dielectric constant tensor:
#      x y z
#    x 3.998170 0.000000 0.135650 
#    y 0.000000 3.052630 0.000000 
#    z 0.135650 0.000000 3.526240 
# 
# 
# High freq. dielectric constant tensor:
#      x y z
#    x 1.693210 0.000000 -0.006750 
#    y 0.000000 1.634250 0.000000 
#    z -0.006750 0.000000 1.684150 
# 
# From -- ./inp_files/292739.got.cif
#   From: 2010.06.25/outbox.cif.g09.slc.cpg/sg12_147_cif.got.tgz:292739.got - 2010.06.28 00:19:55.
