data_PCOD8095601
_publ_section_title
;
Structure prediction by ZEFSAII (Michael W. Deem and Ramdas Pophale) SiO2 
 PCOD8095601
Probable space group: C 2/M
;
_chemical_formula_sum "Si O2"
_cell_formula_units_Z 64
_cell_length_a 20.677442
_cell_length_b 8.852019
_cell_length_c 18.997365
_cell_angle_alpha 90.000000
_cell_angle_beta 108.236245
_cell_angle_gamma 90.000000
_cell_volume 3302.576760
_symmetry_space_group_name_H-M "C 2/M"
_symmetry_group_IT_number 12
_symmetry_cell_setting 'monoclinic'
loop_
_space_group_symop_operation_xyz
x,y,z
-x,y,-z
-x,-y,-z
x,-y,z
1/2+x,1/2+y,z
1/2-x,1/2+y,-z
1/2-x,1/2-y,-z
1/2+x,1/2-y,z
loop_
_atom_site_type_symbol
_atom_site_label
_atom_site_fract_x
_atom_site_fract_y
_atom_site_fract_z
Si Si1 0.951162 0.177122 0.419685
Si Si2 0.160727 0.670953 0.146588
Si Si3 0.689235 0.822661 0.648732
Si Si4 0.831299 0.680519 0.692486
Si Si5 0.465150 0.679013 0.690162
Si Si6 0.687283 0.328332 0.793847
Si Si7 0.572761 0.835320 0.994140
Si Si8 0.435599 0.323199 0.155359
O O1 0.987940 0.228912 0.359748
O O2 0.000000 0.222440 0.500000
O O3 0.879593 0.260389 0.410552
O O4 0.936017 0.000000 0.412422
O O5 0.133390 0.500000 0.142402
O O6 0.153867 0.741831 0.222656
O O7 0.238316 0.677326 0.147162
O O8 0.117388 0.751692 0.069738
O O9 0.758068 0.744418 0.641721
O O10 0.681792 0.787002 0.728235
O O11 0.695123 0.000000 0.637311
O O12 0.826811 0.500000 0.689447
O O13 0.891412 0.739842 0.662219
O O14 0.453301 0.500000 0.684496
O O15 0.502833 0.735158 0.774224
O O16 0.670082 0.500000 0.761739
O O17 0.635679 0.273096 0.835410
O O18 0.563018 0.738771 0.921779
O O19 0.605363 0.000000 0.986791
O O20 0.500000 0.863445 0.000000
O O21 0.441718 0.500000 0.152017
#
# Coordination Sequence:
#
# PCOD8095601 Si02
#       8
#     8   8   8   8   8   8   8   8
#     4  10  21  40  65  88 115 154 190 224 277 340
#     4   8  16  31  51  72 100 142 188 232 273 327
#     4  11  21  35  58  88 120 149 185 233 281 330
#     4  10  20  36  60  84 111 152 195 231 279 338
#     4  10  20  36  57  85 115 141 184 239 283 329
#     4   9  17  34  55  75 104 145 189 228 280 338
#     4  10  20  33  47  68 102 141 185 236 286 334
#     4  10  20  33  52  76 106 142 180 232 286 333
#
# _framework density 19.378806999999998
#
# number of rings (size 3 to 8) (size 9 to 14) (size 15 to 20)
#    0.000    2.250    1.250    3.000    0.000    3.500 
#    0.000    3.750    0.000    0.000    0.000    0.000 
#    0.000    0.000    0.000    0.000    0.000    0.000 
#
# Total GULP energy -396623.034351 kJ/mol
# GULP energy per Si atom -12394.469823 kJ/mol
# Density = 1.933470 g / cm^3
# Si number density = 19.378807 Si / 1000 Ang^3
#
#
#
# Elastic Constant Matrix: (Units=GPa)
#
#
# Indices 1 2 3 4 5 6 
#
# 1 109.3609 33.9053 25.8459 0.0000 22.2304 0.0000
# 2 33.9053 55.8937 22.1403 0.0000 12.1058 0.0000
# 3 25.8459 22.1403 88.4661 0.0000 25.8605 0.0000
# 4 0.0000 0.0000 0.0000 28.7706 0.0000 -7.2476
# 5 22.2304 12.1058 25.8605 0.0000 26.4927 0.0000
# 6 0.0000 0.0000 0.0000 -7.2476 0.0000 48.2825
#
#
#
# Elastic Compliance Matrix: (Units=1/GPa)
#
#
# Indices 1 2 3 4 5 6 
#
# 1 0.012578 -0.005962 0.000149 0.000000 -0.007976 0.000000
# 2 -0.005962 0.023369 -0.003425 0.000000 -0.002333 0.000000
# 3 0.000149 -0.003425 0.016367 0.000000 -0.014536 0.000000
# 4 0.000000 0.000000 0.000000 0.036124 0.000000 0.005422
# 5 -0.007976 -0.002333 -0.014536 0.000000 0.059694 0.000000
# 6 0.000000 0.000000 0.000000 0.005422 0.000000 0.021525
#
#
# Mechanical properties :
#
#
# Convention : Reuss Voigt Hill
#
# Bulk Modulus (GPa) = 29.55206 46.38927 37.97067
# Shear Modulus (GPa) = 25.07366 32.16444 28.61905
#
# Velocity S-wave (km/s) = 3.60094 4.07845 3.84711
# Velocity P-wave (km/s) = 5.70717 6.79474 6.27456
#
# Compressibility (1/GPa) = 0.03383859
#
# Stress axis : x y z
#
# Youngs Moduli (GPa) = 79.50110 42.79106 61.09996
#
# Poissons Ratio (x) = 0.25510 -0.00908
# Poissons Ratio (y) = 0.47395 0.20926
# Poissons Ratio (z) = -0.01181 0.14656
#
# Static dielectric constant tensor:
#      x y z
#    x 3.719320 0.000000 0.170910 
#    y 0.000000 3.279180 0.000000 
#    z 0.170910 0.000000 3.575840 
# 
# 
# High freq. dielectric constant tensor:
#      x y z
#    x 1.763830 0.000000 0.016630 
#    y 0.000000 1.728300 0.000000 
#    z 0.016630 0.000000 1.743180 
# 
# From -- ./inp_files/320080.got.cif
#   From: 2010.06.25/outbox.cif.g09.slc.cpg/sg12_161_cif.got.tgz:320080.got - 2010.06.28 00:19:55.
