data_PCOD8095339
_publ_section_title
;
Structure prediction by ZEFSAII (Michael W. Deem and Ramdas Pophale) SiO2 
 PCOD8095339
Probable space group: C 2/M
;
_chemical_formula_sum "Si O2"
_cell_formula_units_Z 48
_cell_length_a 20.813758
_cell_length_b 23.212998
_cell_length_c 17.478125
_cell_angle_alpha 90.000000
_cell_angle_beta 161.307580
_cell_angle_gamma 90.000000
_cell_volume 2706.374602
_symmetry_space_group_name_H-M "C 2/M"
_symmetry_group_IT_number 12
_symmetry_cell_setting 'monoclinic'
loop_
_space_group_symop_operation_xyz
x,y,z
-x,y,-z
-x,-y,-z
x,-y,z
1/2+x,1/2+y,z
1/2-x,1/2+y,-z
1/2-x,1/2-y,-z
1/2+x,1/2-y,z
loop_
_atom_site_type_symbol
_atom_site_label
_atom_site_fract_x
_atom_site_fract_y
_atom_site_fract_z
Si Si1 0.264858 0.103554 0.249247
Si Si2 0.375236 0.434974 0.745105
Si Si3 0.362843 0.837285 0.604299
Si Si4 0.305851 0.277992 0.443810
Si Si5 0.762161 0.263982 0.237454
Si Si6 0.255725 0.293710 0.075715
O O1 0.500000 0.092753 0.500000
O O2 0.217255 0.074940 0.276110
O O3 0.200332 0.169879 0.175233
O O4 0.116995 0.075239 0.018894
O O5 0.334057 0.500000 0.671913
O O6 0.257683 0.393978 0.553851
O O7 0.328067 0.785637 0.505261
O O8 0.300851 0.821003 0.619843
O O9 0.605496 0.846534 0.884427
O O10 0.186516 0.268760 0.229287
O O11 0.513551 0.310768 0.655443
O O12 0.667671 0.236612 0.054006
O O13 0.000000 0.260240 0.500000
O O14 0.250000 0.250000 0.000000
#
# Coordination Sequence:
#
# PCOD8095339 Si02
#       6
#     8   8   8   8   8   8
#     4  10  21  35  55  73 101 142 176 210 251 301
#     4  11  24  37  49  72 104 139 184 221 244 295
#     4  10  20  32  49  74 100 136 169 209 258 298
#     4   9  18  32  49  76 102 131 167 203 257 313
#     4   9  17  31  51  79 106 135 163 203 256 314
#     4   9  19  30  49  75 106 131 161 203 254 315
#
# _framework density 17.735904000000001
#
# number of rings (size 3 to 8) (size 9 to 14) (size 15 to 20)
#    0.000    2.333    1.667    1.000    9.333    2.000 
#    0.000    0.000    0.000    0.000    0.000    2.333 
#    0.000    4.000    0.000    0.000    0.000    0.000 
#
# Total GULP energy -297319.481025 kJ/mol
# GULP energy per Si atom -12388.311709 kJ/mol
# Density = 1.769554 g / cm^3
# Si number density = 17.735904 Si / 1000 Ang^3
#
#
#
# Elastic Constant Matrix: (Units=GPa)
#
#
# Indices 1 2 3 4 5 6 
#
# 1 102.4034 28.9045 33.7660 -0.0002 -14.2785 -0.0001
# 2 28.9045 86.5272 58.3169 0.0000 -6.1226 0.0000
# 3 33.7660 58.3169 105.3775 0.0002 2.3033 0.0000
# 4 -0.0002 0.0000 0.0002 16.0390 -0.0003 -0.0156
# 5 -14.2785 -6.1226 2.3033 -0.0003 24.8237 -0.0001
# 6 -0.0001 0.0000 0.0000 -0.0156 -0.0001 10.5636
#
#
#
# Elastic Compliance Matrix: (Units=1/GPa)
#
#
# Indices 1 2 3 4 5 6 
#
# 1 0.012218 -0.001346 -0.003323 0.000000 0.007004 0.000000
# 2 -0.001346 0.019362 -0.010392 0.000000 0.004966 0.000000
# 3 -0.003323 -0.010392 0.016437 0.000000 -0.006000 0.000000
# 4 0.000000 0.000000 0.000000 0.062348 0.000001 0.000092
# 5 0.007004 0.004966 -0.006000 0.000001 0.046094 0.000001
# 6 0.000000 0.000000 0.000000 0.000092 0.000001 0.094665
#
#
# Mechanical properties :
#
#
# Convention : Reuss Voigt Hill
#
# Bulk Modulus (GPa) = 55.88592 59.58698 57.73645
# Shear Modulus (GPa) = 17.40876 21.83997 19.62436
#
# Velocity S-wave (km/s) = 3.13638 3.51294 3.32998
# Velocity P-wave (km/s) = 6.68538 7.07983 6.88543
#
# Compressibility (1/GPa) = 0.01789359
#
# Stress axis : x y z
#
# Youngs Moduli (GPa) = 81.84968 51.64669 60.83866
#
# Poissons Ratio (x) = 0.06952 0.20217
# Poissons Ratio (y) = 0.11018 0.63227
# Poissons Ratio (z) = 0.27199 0.53674
#
# Static dielectric constant tensor:
#      x y z
#    x 3.517090 0.000000 0.094850 
#    y 0.000000 2.898020 0.000000 
#    z 0.094850 0.000000 3.907220 
# 
# 
# High freq. dielectric constant tensor:
#      x y z
#    x 1.689080 0.000000 0.010260 
#    y 0.000000 1.621430 0.000000 
#    z 0.010260 0.000000 1.707940 
# 
# From -- ./inp_files/285945.got.cif
#   From: 2010.06.25/outbox.cif.g09.slc.cpg/sg12_143_cif.got.tgz:285945.got - 2010.06.28 00:19:55.
