data_PCOD8095030
_publ_section_title
;
Structure prediction by ZEFSAII (Michael W. Deem and Ramdas Pophale) SiO2 
 PCOD8095030
Probable space group: C 2/M
;
_chemical_formula_sum "Si O2"
_cell_formula_units_Z 48
_cell_length_a 19.261833
_cell_length_b 18.237628
_cell_length_c 5.137919
_cell_angle_alpha 90.000000
_cell_angle_beta 92.944118
_cell_angle_gamma 90.000000
_cell_volume 1802.518030
_symmetry_space_group_name_H-M "C 2/M"
_symmetry_group_IT_number 12
_symmetry_cell_setting 'monoclinic'
loop_
_space_group_symop_operation_xyz
x,y,z
-x,y,-z
-x,-y,-z
x,-y,z
1/2+x,1/2+y,z
1/2-x,1/2+y,-z
1/2-x,1/2-y,-z
1/2+x,1/2-y,z
loop_
_atom_site_type_symbol
_atom_site_label
_atom_site_fract_x
_atom_site_fract_y
_atom_site_fract_z
Si Si1 0.761489 0.421949 0.141983
Si Si2 0.421201 0.414452 0.069507
Si Si3 0.424341 0.082447 0.142174
Si Si4 0.244302 0.657800 0.352598
Si Si5 0.417021 0.171852 0.647232
Si Si6 0.616008 0.674157 0.423803
O O1 0.728096 0.500000 0.065845
O O2 0.750682 0.409751 0.444897
O O3 0.842846 0.423993 0.095452
O O4 0.729209 0.363985 0.931590
O O5 0.402222 0.500000 0.094493
O O6 0.374547 0.377482 0.829955
O O7 0.500000 0.403609 0.000000
O O8 0.411916 0.374716 0.344355
O O9 0.451935 0.121468 0.879251
O O10 0.455908 0.000000 0.180918
O O11 0.442674 0.136040 0.384003
O O12 0.165242 0.682420 0.329218
O O13 0.306862 0.709414 0.477762
O O14 0.437414 0.258411 0.647745
#
# Coordination Sequence:
#
# PCOD8095030 Si02
#       6
#     8   8   8   8   8   8
#     4   9  17  28  43  66 102 149 195 230 258 307
#     4  11  26  47  66  85 112 148 200 267 321 352
#     4   9  17  31  50  73 112 163 197 220 259 313
#     4  10  20  31  48  77 116 154 184 227 284 349
#     4  10  20  34  52  84 124 156 195 236 275 343
#     4  12  23  38  62  87 113 150 192 238 307 372
#
# _framework density 26.629415000000002
#
# number of rings (size 3 to 8) (size 9 to 14) (size 15 to 20)
#    0.000    1.833    0.000    4.500    0.000    9.333 
#    0.000    6.667    0.000    0.000    0.000    0.000 
#    0.000   46.667    0.000    0.000    0.000    0.000 
#
# Total GULP energy -297322.265317 kJ/mol
# GULP energy per Si atom -12388.427722 kJ/mol
# Density = 2.656880 g / cm^3
# Si number density = 26.629415 Si / 1000 Ang^3
#
#
#
# Elastic Constant Matrix: (Units=GPa)
#
#
# Indices 1 2 3 4 5 6 
#
# 1 57.1418 -7.7001 17.8049 0.0000 -5.6832 0.0000
# 2 -7.7001 165.7158 90.2659 0.0000 2.2122 0.0000
# 3 17.8049 90.2659 197.0151 0.0000 -17.5326 0.0000
# 4 0.0000 0.0000 0.0000 28.4750 0.0000 4.5662
# 5 -5.6832 2.2122 -17.5326 0.0000 47.8335 0.0000
# 6 0.0000 0.0000 0.0000 4.5662 0.0000 20.4630
#
#
#
# Elastic Compliance Matrix: (Units=1/GPa)
#
#
# Indices 1 2 3 4 5 6 
#
# 1 0.018748 0.002296 -0.002644 0.000000 0.001152 0.000000
# 2 0.002296 0.008472 -0.004238 0.000000 -0.001672 0.000000
# 3 -0.002644 -0.004238 0.007490 0.000000 0.002627 0.000000
# 4 0.000000 0.000000 0.000000 0.036422 0.000000 -0.008127
# 5 0.001152 -0.001672 0.002627 0.000000 0.022083 0.000000
# 6 0.000000 0.000000 0.000000 -0.008127 0.000000 0.050682
#
#
# Mechanical properties :
#
#
# Convention : Reuss Voigt Hill
#
# Bulk Modulus (GPa) = 39.15644 68.95711 54.05677
# Shear Modulus (GPa) = 30.94422 40.65443 35.79932
#
# Velocity S-wave (km/s) = 3.41256 3.91151 3.67052
# Velocity P-wave (km/s) = 5.50123 6.80817 6.18929
#
# Compressibility (1/GPa) = 0.02553858
#
# Stress axis : x y z
#
# Youngs Moduli (GPa) = 53.33891 118.03922 133.50988
#
# Poissons Ratio (x) = -0.27099 0.35295
# Poissons Ratio (y) = -0.12245 0.56579
# Poissons Ratio (z) = 0.14101 0.50022
#
# Static dielectric constant tensor:
#      x y z
#    x 5.438800 0.000000 -0.065600 
#    y 0.000000 4.764820 0.000000 
#    z -0.065600 0.000000 4.832150 
# 
# 
# High freq. dielectric constant tensor:
#      x y z
#    x 2.112330 0.000000 -0.005490 
#    y 0.000000 2.060850 0.000000 
#    z -0.005490 0.000000 2.076690 
# 
# From -- ./inp_files/24782.got.cif
#   From: 2010.06.25/outbox.cif.g09.slc.cpg/sg12_13_cif.got.tgz:24782.got - 2010.06.28 00:19:55.
