data_PCOD8095274
_publ_section_title
;
Structure prediction by ZEFSAII (Michael W. Deem and Ramdas Pophale) SiO2 
 PCOD8095274
Probable space group: C 2/M
;
_chemical_formula_sum "Si O2"
_cell_formula_units_Z 48
_cell_length_a 27.245031
_cell_length_b 9.029884
_cell_length_c 13.475737
_cell_angle_alpha 90.000000
_cell_angle_beta 120.795650
_cell_angle_gamma 90.000000
_cell_volume 2847.833182
_symmetry_space_group_name_H-M "C 2/M"
_symmetry_group_IT_number 12
_symmetry_cell_setting 'monoclinic'
loop_
_space_group_symop_operation_xyz
x,y,z
-x,y,-z
-x,-y,-z
x,-y,z
1/2+x,1/2+y,z
1/2-x,1/2+y,-z
1/2-x,1/2-y,-z
1/2+x,1/2-y,z
loop_
_atom_site_type_symbol
_atom_site_label
_atom_site_fract_x
_atom_site_fract_y
_atom_site_fract_z
Si Si1 0.933085 0.829523 0.043372
Si Si2 0.232988 0.327888 0.635288
Si Si3 0.719458 0.326713 0.823219
Si Si4 0.936446 0.170096 0.817479
Si Si5 0.332554 0.171416 0.631361
Si Si6 0.334671 0.172694 0.053801
O O1 0.893784 0.722616 0.066880
O O2 0.998055 0.801690 0.144657
O O3 0.915661 0.000000 0.043040
O O4 0.926263 0.787927 0.921316
O O5 0.241836 0.500000 0.666773
O O6 0.208334 0.248476 0.706286
O O7 0.294141 0.261101 0.669455
O O8 0.187403 0.298836 0.501289
O O9 0.708349 0.500000 0.802122
O O10 0.673974 0.260506 0.853047
O O11 0.783601 0.290002 0.925035
O O12 0.897501 0.273656 0.708153
O O13 0.919986 0.000000 0.781666
O O14 0.327745 0.000000 0.654571
O O15 0.336982 0.000000 0.081031
#
# Coordination Sequence:
#
# PCOD8095274 Si02
#       6
#     8   8   8   8   8   8
#     4   9  18  32  49  71  98 128 161 195 235 282
#     4  10  20  33  49  70  98 129 159 195 238 282
#     4  10  20  33  50  72  97 126 160 196 235 283
#     4   9  18  32  50  71  97 129 161 195 236 281
#     4  10  20  32  48  72  99 127 160 196 236 282
#     4  10  20  32  48  72  99 127 158 194 238 283
#
# _framework density 16.854918999999999
#
# number of rings (size 3 to 8) (size 9 to 14) (size 15 to 20)
#    0.000    2.333    0.000    4.000    0.000    8.000 
#    0.000    1.667    0.000    1.000    0.000    7.000 
#    0.000    0.000    0.000    0.000    0.000    0.000 
#
# Total GULP energy -297699.363956 kJ/mol
# GULP energy per Si atom -12404.140165 kJ/mol
# Density = 1.681656 g / cm^3
# Si number density = 16.854919 Si / 1000 Ang^3
#
#
#
# Elastic Constant Matrix: (Units=GPa)
#
#
# Indices 1 2 3 4 5 6 
#
# 1 96.1198 48.9379 42.4773 0.0000 -6.4397 0.0000
# 2 48.9379 95.1111 49.9759 0.0000 -7.0418 0.0000
# 3 42.4773 49.9759 74.9449 0.0000 -3.9185 0.0000
# 4 0.0000 0.0000 0.0000 31.0127 0.0000 -1.7535
# 5 -6.4397 -7.0418 -3.9185 0.0000 28.2928 0.0000
# 6 0.0000 0.0000 0.0000 -1.7535 0.0000 34.8696
#
#
#
# Elastic Compliance Matrix: (Units=1/GPa)
#
#
# Indices 1 2 3 4 5 6 
#
# 1 0.015409 -0.005032 -0.005299 0.000000 0.001521 0.000000
# 2 -0.005032 0.018013 -0.009051 0.000000 0.002085 0.000000
# 3 -0.005299 -0.009051 0.022363 0.000000 -0.000362 0.000000
# 4 0.000000 0.000000 0.000000 0.032337 0.000000 0.001626
# 5 0.001521 0.002085 -0.000362 0.000000 0.036160 0.000000
# 6 0.000000 0.000000 0.000000 0.001626 0.000000 0.028760
#
#
# Mechanical properties :
#
#
# Convention : Reuss Voigt Hill
#
# Bulk Modulus (GPa) = 58.74603 60.99532 59.87068
# Shear Modulus (GPa) = 25.31926 27.15402 26.23664
#
# Velocity S-wave (km/s) = 3.88001 4.01814 3.94968
# Velocity P-wave (km/s) = 7.41635 7.60225 7.50988
#
# Compressibility (1/GPa) = 0.01702243
#
# Stress axis : x y z
#
# Youngs Moduli (GPa) = 64.89729 55.51515 44.71686
#
# Poissons Ratio (x) = 0.27933 0.23694
# Poissons Ratio (y) = 0.32654 0.40473
# Poissons Ratio (z) = 0.34387 0.50247
#
# Static dielectric constant tensor:
#      x y z
#    x 3.017050 0.000000 0.009630 
#    y 0.000000 3.186880 0.000000 
#    z 0.009630 0.000000 3.055550 
# 
# 
# High freq. dielectric constant tensor:
#      x y z
#    x 1.639010 0.000000 -0.000950 
#    y 0.000000 1.661890 0.000000 
#    z -0.000950 0.000000 1.637670 
# 
# From -- ./inp_files/173084.got.cif
#   From: 2010.06.25/outbox.cif.g09.slc.cpg/sg12_87_cif.got.tgz:173084.got - 2010.06.28 00:19:55.
