data_PCOD8095660
_publ_section_title
;
Structure prediction by ZEFSAII (Michael W. Deem and Ramdas Pophale) SiO2 
 PCOD8095660
Probable space group: C 2/M
;
_chemical_formula_sum "Si O2"
_cell_formula_units_Z 64
_cell_length_a 24.846521
_cell_length_b 9.424408
_cell_length_c 18.136549
_cell_angle_alpha 90.000000
_cell_angle_beta 62.532030
_cell_angle_gamma 90.000000
_cell_volume 3768.161804
_symmetry_space_group_name_H-M "C 2/M"
_symmetry_group_IT_number 12
_symmetry_cell_setting 'monoclinic'
loop_
_space_group_symop_operation_xyz
x,y,z
-x,y,-z
-x,-y,-z
x,-y,z
1/2+x,1/2+y,z
1/2-x,1/2+y,-z
1/2-x,1/2-y,-z
1/2+x,1/2-y,z
loop_
_atom_site_type_symbol
_atom_site_label
_atom_site_fract_x
_atom_site_fract_y
_atom_site_fract_z
Si Si1 0.630129 0.333149 0.177121
Si Si2 0.014472 0.335568 0.217305
Si Si3 0.780020 0.164676 0.308081
Si Si4 0.879894 0.665601 0.336334
Si Si5 0.841709 0.161996 0.007042
Si Si6 0.797346 0.660497 0.513193
Si Si7 0.453245 0.836723 0.969943
Si Si8 0.233424 0.335143 0.179930
O O1 0.624507 0.500000 0.196453
O O2 0.564195 0.261394 0.226468
O O3 0.673860 0.261229 0.209541
O O4 0.658730 0.299980 0.078999
O O5 0.025717 0.500000 0.231278
O O6 0.017845 0.312262 0.128004
O O7 0.948567 0.280828 0.284251
O O8 0.834964 0.253083 0.308986
O O9 0.714961 0.190339 0.392181
O O10 0.768946 0.212318 0.231198
O O11 0.798968 0.000000 0.299746
O O12 0.875918 0.500000 0.317833
O O13 0.862845 0.693137 0.434262
O O14 0.776018 0.193213 0.082521
O O15 0.860871 0.000000 0.007170
O O16 0.890350 0.255482 0.019634
O O17 0.780535 0.500000 0.506093
O O18 0.750000 0.750000 0.500000
O O19 0.439006 0.000000 0.994912
O O20 0.500000 0.775051 0.000000
O O21 0.214037 0.500000 0.196971
#
# Coordination Sequence:
#
# PCOD8095660 Si02
#       8
#     8   8   8   8   8   8   8   8
#     4  10  20  34  50  68  89 119 160 200 234 269
#     4   9  18  32  48  67  92 123 156 190 229 273
#     4   9  18  30  46  71 100 125 149 183 232 279
#     4   9  17  29  49  73  96 123 155 188 223 272
#     4   9  19  33  47  66  90 119 157 193 230 273
#     4   8  14  27  45  67  95 123 150 182 222 271
#     4   9  18  30  44  64  93 125 153 186 228 271
#     4  10  20  33  49  69  94 123 154 192 235 278
#
# _framework density 16.984407999999998
#
# number of rings (size 3 to 8) (size 9 to 14) (size 15 to 20)
#    0.000    2.875    0.000    0.750    1.750    2.250 
#    0.000    0.000    0.000    0.750    0.000    5.250 
#    0.000    0.000    0.000    0.000    0.000    0.000 
#
# Total GULP energy -396576.946724 kJ/mol
# GULP energy per Si atom -12393.029585 kJ/mol
# Density = 1.694575 g / cm^3
# Si number density = 16.984408 Si / 1000 Ang^3
#
#
#
# Elastic Constant Matrix: (Units=GPa)
#
#
# Indices 1 2 3 4 5 6 
#
# 1 96.4800 49.7630 40.8109 0.0000 -17.5944 0.0000
# 2 49.7630 60.0838 29.5702 0.0001 -10.1015 0.0003
# 3 40.8109 29.5702 78.4851 0.0000 -17.1121 0.0000
# 4 0.0000 0.0001 0.0000 18.8868 0.0000 -2.8129
# 5 -17.5944 -10.1015 -17.1121 0.0000 20.4811 0.0000
# 6 0.0000 0.0003 0.0000 -2.8129 0.0000 30.6839
#
#
#
# Elastic Compliance Matrix: (Units=1/GPa)
#
#
# Indices 1 2 3 4 5 6 
#
# 1 0.020484 -0.013823 -0.003782 0.000000 0.007619 0.000000
# 2 -0.013823 0.030098 -0.004285 0.000000 -0.000610 0.000000
# 3 -0.003782 -0.004285 0.018528 0.000000 0.010118 0.000000
# 4 0.000000 0.000000 0.000000 0.053680 0.000000 0.004921
# 5 0.007619 -0.000610 0.010118 0.000000 0.063524 0.000000
# 6 0.000000 0.000000 0.000000 0.004921 0.000000 0.033041
#
#
# Mechanical properties :
#
#
# Convention : Reuss Voigt Hill
#
# Bulk Modulus (GPa) = 39.47872 52.81524 46.14698
# Shear Modulus (GPa) = 18.41080 21.67066 20.04073
#
# Velocity S-wave (km/s) = 3.29596 3.57587 3.43876
# Velocity P-wave (km/s) = 6.14647 6.94355 6.55713
#
# Compressibility (1/GPa) = 0.02533010
#
# Stress axis : x y z
#
# Youngs Moduli (GPa) = 48.81909 33.22442 53.97103
#
# Poissons Ratio (x) = 0.45926 0.20412
# Poissons Ratio (y) = 0.67482 0.23128
# Poissons Ratio (z) = 0.18464 0.14238
#
# Static dielectric constant tensor:
#      x y z
#    x 2.929830 0.000000 -0.074350 
#    y 0.000000 3.173420 0.000000 
#    z -0.074350 0.000000 3.823040 
# 
# 
# High freq. dielectric constant tensor:
#      x y z
#    x 1.632070 0.000000 -0.008280 
#    y 0.000000 1.655920 0.000000 
#    z -0.008280 0.000000 1.653300 
# 
# From -- ./inp_files/323622.got.cif
#   From: 2010.06.25/outbox.cif.g09.slc.cpg/sg12_162_cif.got.tgz:323622.got - 2010.06.28 00:19:55.
