data_PCOD8095047
_publ_section_title
;
Structure prediction by ZEFSAII (Michael W. Deem and Ramdas Pophale) SiO2 
 PCOD8095047
Probable space group: C 2/M
;
_chemical_formula_sum "Si O2"
_cell_formula_units_Z 48
_cell_length_a 19.396652
_cell_length_b 10.756267
_cell_length_c 13.077699
_cell_angle_alpha 90.000000
_cell_angle_beta 73.614835
_cell_angle_gamma 90.000000
_cell_volume 2617.661802
_symmetry_space_group_name_H-M "C 2/M"
_symmetry_group_IT_number 12
_symmetry_cell_setting 'monoclinic'
loop_
_space_group_symop_operation_xyz
x,y,z
-x,y,-z
-x,-y,-z
x,-y,z
1/2+x,1/2+y,z
1/2-x,1/2+y,-z
1/2-x,1/2-y,-z
1/2+x,1/2-y,z
loop_
_atom_site_type_symbol
_atom_site_label
_atom_site_fract_x
_atom_site_fract_y
_atom_site_fract_z
Si Si1 0.078640 0.352045 0.083262
Si Si2 0.916637 0.360082 0.532790
Si Si3 0.328966 0.859393 0.771827
Si Si4 0.582052 0.146987 0.853162
Si Si5 0.783450 0.257179 0.316854
Si Si6 0.825546 0.864356 0.493822
O O1 0.078080 0.500000 0.091732
O O2 0.135523 0.297672 0.141607
O O3 0.997759 0.304435 0.142264
O O4 0.101427 0.308341 0.960254
O O5 0.902580 0.500000 0.493571
O O6 0.889010 0.353197 0.659473
O O7 0.879019 0.252993 0.481462
O O8 0.000000 0.329398 0.500000
O O9 0.258179 0.784938 0.767922
O O10 0.305311 0.000000 0.804590
O O11 0.638009 0.198305 0.747959
O O12 0.584259 0.000000 0.848790
O O13 0.790478 0.144208 0.395323
O O14 0.737020 0.362788 0.394071
O O15 0.863635 0.000000 0.487260
#
# Coordination Sequence:
#
# PCOD8095047 Si02
#       6
#     8   8   8   8   8   8
#     4   8  16  30  49  73 101 126 161 217 267 302
#     4   9  19  33  52  78 103 133 176 218 258 307
#     4   9  17  31  48  70 101 131 165 214 259 299
#     4   9  17  30  49  76 101 127 165 214 267 306
#     4  10  20  31  50  73 100 139 177 212 249 311
#     4  10  21  35  49  72 108 143 175 213 259 312
#
# _framework density 18.336974999999999
#
# number of rings (size 3 to 8) (size 9 to 14) (size 15 to 20)
#    0.000    2.833    0.000    2.000    2.333    5.667 
#    0.000    0.000    0.000    0.000    0.000   10.500 
#    0.000    0.000    0.000    0.000    0.000    0.000 
#
# Total GULP energy -297406.317998 kJ/mol
# GULP energy per Si atom -12391.929917 kJ/mol
# Density = 1.829524 g / cm^3
# Si number density = 18.336975 Si / 1000 Ang^3
#
#
#
# Elastic Constant Matrix: (Units=GPa)
#
#
# Indices 1 2 3 4 5 6 
#
# 1 89.9541 39.0597 46.7458 0.0000 10.3552 0.0000
# 2 39.0597 84.6487 21.0896 0.0000 5.9991 0.0000
# 3 46.7458 21.0896 69.6020 0.0000 8.8780 0.0000
# 4 0.0000 0.0000 0.0000 9.9465 0.0000 -0.8169
# 5 10.3552 5.9991 8.8780 0.0000 42.2606 0.0000
# 6 0.0000 0.0000 0.0000 -0.8169 0.0000 20.1654
#
#
#
# Elastic Compliance Matrix: (Units=1/GPa)
#
#
# Indices 1 2 3 4 5 6 
#
# 1 0.019854 -0.006248 -0.011235 0.000000 -0.001618 0.000000
# 2 -0.006248 0.014788 -0.000218 0.000000 -0.000522 0.000000
# 3 -0.011235 -0.000218 0.022219 0.000000 -0.001884 0.000000
# 4 0.000000 0.000000 0.000000 0.100874 0.000000 0.004086
# 5 -0.001618 -0.000522 -0.001884 0.000000 0.024529 0.000000
# 6 0.000000 0.000000 0.000000 0.004086 0.000000 0.049755
#
#
# Mechanical properties :
#
#
# Convention : Reuss Voigt Hill
#
# Bulk Modulus (GPa) = 46.59844 50.88834 48.74339
# Shear Modulus (GPa) = 18.20999 23.62847 20.91923
#
# Velocity S-wave (km/s) = 3.15473 3.59356 3.38127
# Velocity P-wave (km/s) = 6.22392 6.71046 6.47176
#
# Compressibility (1/GPa) = 0.02145995
#
# Stress axis : x y z
#
# Youngs Moduli (GPa) = 50.36692 67.62356 45.00562
#
# Poissons Ratio (x) = 0.42249 0.50564
# Poissons Ratio (y) = 0.31467 0.00981
# Poissons Ratio (z) = 0.56588 0.01475
#
# Static dielectric constant tensor:
#      x y z
#    x 3.494830 0.000000 0.121830 
#    y 0.000000 3.027740 0.000000 
#    z 0.121830 0.000000 3.486920 
# 
# 
# High freq. dielectric constant tensor:
#      x y z
#    x 1.713360 0.000000 0.007250 
#    y 0.000000 1.669010 0.000000 
#    z 0.007250 0.000000 1.709830 
# 
# From -- ./inp_files/154187.got.cif
#   From: 2010.06.25/outbox.cif.g09.slc.cpg/sg12_78_cif.got.tgz:154187.got - 2010.06.28 00:19:55.
