data_PCOD8095079
_publ_section_title
;
Structure prediction by ZEFSAII (Michael W. Deem and Ramdas Pophale) SiO2 
 PCOD8095079
Probable space group: C 2/M
;
_chemical_formula_sum "Si O2"
_cell_formula_units_Z 56
_cell_length_a 22.949937
_cell_length_b 11.279441
_cell_length_c 11.702233
_cell_angle_alpha 90.000000
_cell_angle_beta 100.755890
_cell_angle_gamma 90.000000
_cell_volume 2976.048262
_symmetry_space_group_name_H-M "C 2/M"
_symmetry_group_IT_number 12
_symmetry_cell_setting 'monoclinic'
loop_
_space_group_symop_operation_xyz
x,y,z
-x,y,-z
-x,-y,-z
x,-y,z
1/2+x,1/2+y,z
1/2-x,1/2+y,-z
1/2-x,1/2-y,-z
1/2+x,1/2-y,z
loop_
_atom_site_type_symbol
_atom_site_label
_atom_site_fract_x
_atom_site_fract_y
_atom_site_fract_z
Si Si1 0.608321 0.634433 0.309607
Si Si2 0.430269 0.257923 0.482364
Si Si3 0.763501 0.140064 0.094012
Si Si4 0.182387 0.372454 0.534245
Si Si5 0.393832 0.636681 0.233572
Si Si6 0.723967 0.785195 0.321689
Si Si7 0.501712 0.358317 0.126443
O O1 0.617380 0.500000 0.278497
O O2 0.581754 0.640360 0.428182
O O3 0.671694 0.690776 0.312069
O O4 0.559744 0.694609 0.209161
O O5 0.500000 0.225125 0.500000
O O6 0.388586 0.148511 0.506183
O O7 0.402092 0.294934 0.353264
O O8 0.831484 0.158350 0.150791
O O9 0.725279 0.155905 0.196517
O O10 0.753486 0.000000 0.047139
O O11 0.750000 0.250000 0.000000
O O12 0.191673 0.500000 0.594896
O O13 0.213013 0.276919 0.628685
O O14 0.212396 0.378519 0.419047
O O15 0.404573 0.500000 0.265264
O O16 0.442844 0.687935 0.165975
O O17 0.503650 0.500000 0.127082
O O18 0.500000 0.304682 0.000000
#
# Coordination Sequence:
#
# PCOD8095079 Si02
#       7
#     8   8   8   8   8   8   8
#     4  10  20  31  53  86 116 150 194 244 299 360
#     4  11  20  34  55  84 117 154 199 243 303 367
#     4  11  25  43  64  90 121 161 205 253 306 364
#     4  10  21  37  57  82 116 155 198 247 301 365
#     4  10  20  36  57  83 117 152 190 244 307 355
#     4  10  21  38  58  84 112 155 196 245 303 359
#     4   9  18  31  49  77 111 150 189 241 299 348
#
# _framework density 18.816898999999999
#
# number of rings (size 3 to 8) (size 9 to 14) (size 15 to 20)
#    0.000    1.857    2.857    1.286    2.000    2.000 
#    0.000    0.000    0.000    0.000    0.000    1.000 
#    0.000    0.000    0.000    0.000    0.000    0.000 
#
# Total GULP energy -346881.289015 kJ/mol
# GULP energy per Si atom -12388.617465 kJ/mol
# Density = 1.877407 g / cm^3
# Si number density = 18.816899 Si / 1000 Ang^3
#
#
#
# Elastic Constant Matrix: (Units=GPa)
#
#
# Indices 1 2 3 4 5 6 
#
# 1 129.6898 28.2356 28.3396 0.0000 7.4234 0.0000
# 2 28.2356 77.8132 27.6898 0.0000 4.1287 0.0000
# 3 28.3396 27.6898 108.5482 0.0000 -2.1467 0.0000
# 4 0.0000 0.0000 0.0000 19.8500 0.0000 4.8984
# 5 7.4234 4.1287 -2.1467 0.0000 26.2301 0.0000
# 6 0.0000 0.0000 0.0000 4.8984 0.0000 10.5776
#
#
#
# Elastic Compliance Matrix: (Units=1/GPa)
#
#
# Indices 1 2 3 4 5 6 
#
# 1 0.008743 -0.002449 -0.001702 0.000000 -0.002228 0.000000
# 2 -0.002449 0.014989 -0.003222 0.000000 -0.001930 0.000000
# 3 -0.001702 -0.003222 0.010515 0.000000 0.001850 0.000000
# 4 0.000000 0.000000 0.000000 0.056878 0.000000 -0.026340
# 5 -0.002228 -0.001930 0.001850 0.000000 0.039210 0.000000
# 6 0.000000 0.000000 0.000000 -0.026340 0.000000 0.106737
#
#
# Mechanical properties :
#
#
# Convention : Reuss Voigt Hill
#
# Bulk Modulus (GPa) = 51.27879 53.84236 52.56057
# Shear Modulus (GPa) = 19.35588 26.78394 23.06991
#
# Velocity S-wave (km/s) = 3.21073 3.77689 3.50526
# Velocity P-wave (km/s) = 6.40747 6.90621 6.66151
#
# Compressibility (1/GPa) = 0.01950124
#
# Stress axis : x y z
#
# Youngs Moduli (GPa) = 114.37302 66.71586 95.09788
#
# Poissons Ratio (x) = 0.16337 0.16187
# Poissons Ratio (y) = 0.28007 0.30645
# Poissons Ratio (z) = 0.19468 0.21499
#
# Static dielectric constant tensor:
#      x y z
#    x 3.656490 0.000000 -0.011670 
#    y 0.000000 3.212800 0.000000 
#    z -0.011670 0.000000 3.584330 
# 
# 
# High freq. dielectric constant tensor:
#      x y z
#    x 1.749770 0.000000 -0.001930 
#    y 0.000000 1.693620 0.000000 
#    z -0.001930 0.000000 1.730620 
# 
# From -- ./inp_files/173975.got.cif
#   From: 2010.06.25/outbox.cif.g09.slc.cpg/sg12_87_cif.got.tgz:173975.got - 2010.06.28 00:19:55.
