data_PCOD8095199
_publ_section_title
;
Structure prediction by ZEFSAII (Michael W. Deem and Ramdas Pophale) SiO2 
 PCOD8095199
Probable space group: C 2/M
;
_chemical_formula_sum "Si O2"
_cell_formula_units_Z 32
_cell_length_a 23.107410
_cell_length_b 9.232524
_cell_length_c 9.629787
_cell_angle_alpha 90.000000
_cell_angle_beta 62.915145
_cell_angle_gamma 90.000000
_cell_volume 1829.114779
_symmetry_space_group_name_H-M "C 2/M"
_symmetry_group_IT_number 12
_symmetry_cell_setting 'monoclinic'
loop_
_space_group_symop_operation_xyz
x,y,z
-x,y,-z
-x,-y,-z
x,-y,z
1/2+x,1/2+y,z
1/2-x,1/2+y,-z
1/2-x,1/2-y,-z
1/2+x,1/2-y,z
loop_
_atom_site_type_symbol
_atom_site_label
_atom_site_fract_x
_atom_site_fract_y
_atom_site_fract_z
Si Si1 0.940975 0.166912 0.168966
Si Si2 0.815595 0.661540 0.271230
Si Si3 0.695798 0.840000 0.386841
Si Si4 0.947276 0.329705 0.444387
O O1 0.878744 0.243473 0.166730
O O2 0.961849 0.241288 0.289540
O O3 0.923305 0.000000 0.217042
O O4 0.000000 0.183506 0.000000
O O5 0.824604 0.500000 0.200645
O O6 0.751325 0.731515 0.270998
O O7 0.805625 0.656510 0.445824
O O8 0.624021 0.790222 0.415574
O O9 0.712039 0.000000 0.311587
O O10 0.950358 0.500000 0.404505
O O11 0.000000 0.283632 0.500000
#
# Coordination Sequence:
#
# PCOD8095199 Si02
#       4
#     8   8   8   8
#     4  10  20  32  47  69  96 125 156 191 232 276
#     4   9  16  26  43  66  90 118 153 192 231 270
#     4   8  14  25  42  65  92 118 146 186 232 273
#     4   9  18  32  50  72  96 123 155 190 231 278
#
# _framework density 17.494802
#
# number of rings (size 3 to 8) (size 9 to 14) (size 15 to 20)
#    0.000    3.000    0.000    3.000    0.000    8.500 
#    0.000    0.000    0.000    1.500    0.000    0.000 
#    0.000    0.000    0.000    0.000    0.000    0.000 
#
# Total GULP energy -198338.050227 kJ/mol
# GULP energy per Si atom -12396.128139 kJ/mol
# Density = 1.745498 g / cm^3
# Si number density = 17.494802 Si / 1000 Ang^3
#
#
#
# Elastic Constant Matrix: (Units=GPa)
#
#
# Indices 1 2 3 4 5 6 
#
# 1 158.0573 72.7878 38.8422 0.0000 -20.3409 0.0000
# 2 72.7878 126.9158 44.8394 0.0000 -16.2400 0.0000
# 3 38.8422 44.8394 42.4306 0.0000 -12.7230 0.0000
# 4 0.0000 0.0000 0.0000 20.5345 0.0000 -6.9986
# 5 -20.3409 -16.2400 -12.7230 0.0000 18.1097 0.0000
# 6 0.0000 0.0000 0.0000 -6.9986 0.0000 29.8349
#
#
#
# Elastic Compliance Matrix: (Units=1/GPa)
#
#
# Indices 1 2 3 4 5 6 
#
# 1 0.009453 -0.003595 -0.003341 0.000000 0.005046 0.000000
# 2 -0.003595 0.014028 -0.011367 0.000000 0.000556 0.000000
# 3 -0.003341 -0.011367 0.043652 0.000000 0.016722 0.000000
# 4 0.000000 0.000000 0.000000 0.052930 0.000000 0.012416
# 5 0.005046 0.000556 0.016722 0.000000 0.073134 0.000000
# 6 0.000000 0.000000 0.000000 0.012416 0.000000 0.036430
#
#
# Mechanical properties :
#
#
# Convention : Reuss Voigt Hill
#
# Bulk Modulus (GPa) = 32.75695 71.14917 51.95306
# Shear Modulus (GPa) = 18.08910 25.09144 21.59027
#
# Velocity S-wave (km/s) = 3.21903 3.79122 3.51678
# Velocity P-wave (km/s) = 5.70795 7.74090 6.80082
#
# Compressibility (1/GPa) = 0.03052787
#
# Stress axis : x y z
#
# Youngs Moduli (GPa) = 105.78684 71.28516 22.90826
#
# Poissons Ratio (x) = 0.25629 0.07653
# Poissons Ratio (y) = 0.38034 0.26039
# Poissons Ratio (z) = 0.35343 0.81027
#
# Static dielectric constant tensor:
#      x y z
#    x 3.575540 0.000000 -0.294300 
#    y 0.000000 3.517970 0.000000 
#    z -0.294300 0.000000 2.711150 
# 
# 
# High freq. dielectric constant tensor:
#      x y z
#    x 1.682680 0.000000 -0.031660 
#    y 0.000000 1.686390 0.000000 
#    z -0.031660 0.000000 1.618460 
# 
# From -- ./inp_files/92039.got.cif
#   From: 2010.06.25/outbox.cif.g09.slc.cpg/sg12_47_cif.got.tgz:92039.got - 2010.06.28 00:19:55.
