data_PCOD8095117
_publ_section_title
;
Structure prediction by ZEFSAII (Michael W. Deem and Ramdas Pophale) SiO2 
 PCOD8095117
Probable space group: C 2/M
;
_chemical_formula_sum "Si O2"
_cell_formula_units_Z 56
_cell_length_a 28.174087
_cell_length_b 9.398383
_cell_length_c 17.428640
_cell_angle_alpha 90.000000
_cell_angle_beta 128.214421
_cell_angle_gamma 90.000000
_cell_volume 3625.967580
_symmetry_space_group_name_H-M "C 2/M"
_symmetry_group_IT_number 12
_symmetry_cell_setting 'monoclinic'
loop_
_space_group_symop_operation_xyz
x,y,z
-x,y,-z
-x,-y,-z
x,-y,z
1/2+x,1/2+y,z
1/2-x,1/2+y,-z
1/2-x,1/2-y,-z
1/2+x,1/2-y,z
loop_
_atom_site_type_symbol
_atom_site_label
_atom_site_fract_x
_atom_site_fract_y
_atom_site_fract_z
Si Si1 0.964650 0.663555 0.127696
Si Si2 0.569121 0.661097 0.043843
Si Si3 0.430879 0.661096 0.405600
Si Si4 0.535350 0.163555 0.698396
Si Si5 0.900288 0.664752 0.785551
Si Si6 0.311863 0.833225 0.561863
Si Si7 0.099712 0.664752 0.484975
O O1 0.951430 0.500000 0.093714
O O2 0.945606 0.698522 0.195606
O O3 0.035461 0.696262 0.189292
O O4 0.924333 0.761285 0.031594
O O5 0.592576 0.500000 0.059603
O O6 0.609134 0.742131 0.147273
O O7 0.500000 0.667408 0.000000
O O8 0.500000 0.667407 0.500000
O O9 0.407424 0.500000 0.374449
O O10 0.424333 0.738716 0.317072
O O11 0.390867 0.742130 0.429006
O O12 0.464538 0.196262 0.618370
O O13 0.548570 0.000000 0.690854
O O14 0.894971 0.500000 0.803267
O O15 0.849114 0.710687 0.674503
O O16 0.250000 0.750000 0.500000
O O17 0.349113 0.789316 0.523723
O O18 0.298614 0.000000 0.548615
O O19 0.105028 0.500000 0.513325
#
# Coordination Sequence:
#
# PCOD8095117 Si02
#       7
#     8   8   8   8   8   8   8
#     4   9  15  25  42  61  81 110 145 174 203 246
#     4   9  17  26  37  58  84 109 137 170 212 256
#     4   9  17  26  37  58  84 109 137 170 212 256
#     4   9  15  25  42  61  81 110 145 174 203 246
#     4   9  16  29  44  57  78 110 146 179 209 247
#     4  10  20  32  46  64  84 110 148 188 221 252
#     4   9  16  29  44  57  78 110 146 179 209 247
#
# _framework density 15.444155
#
# number of rings (size 3 to 8) (size 9 to 14) (size 15 to 20)
#    0.000    2.857    1.429    0.857    0.000    5.143 
#    0.000    0.000    0.000    0.000    0.000    0.000 
#    0.000    1.143    0.000    3.714    0.000    4.571 
#
# Total GULP energy -347171.537062 kJ/mol
# GULP energy per Si atom -12398.983467 kJ/mol
# Density = 1.540900 g / cm^3
# Si number density = 15.444155 Si / 1000 Ang^3
#
#
#
# Elastic Constant Matrix: (Units=GPa)
#
#
# Indices 1 2 3 4 5 6 
#
# 1 77.9628 55.2989 54.2866 0.0000 -22.8611 0.0000
# 2 55.2989 98.9639 62.1665 0.0000 -23.5297 0.0000
# 3 54.2866 62.1665 92.2087 0.0000 -25.9492 0.0000
# 4 0.0000 0.0000 0.0000 21.0655 0.0000 -2.1540
# 5 -22.8611 -23.5297 -25.9492 0.0000 25.7531 0.0000
# 6 0.0000 0.0000 0.0000 -2.1540 0.0000 20.4368
#
#
#
# Elastic Compliance Matrix: (Units=1/GPa)
#
#
# Indices 1 2 3 4 5 6 
#
# 1 0.026240 -0.007727 -0.007915 0.000000 0.008258 0.000000
# 2 -0.007727 0.020432 -0.008239 0.000000 0.003507 0.000000
# 3 -0.007915 -0.008239 0.023678 0.000000 0.009304 0.000000
# 4 0.000000 0.000000 0.000000 0.047988 0.000000 0.005058
# 5 0.008258 0.003507 0.009304 0.000000 0.058741 0.000000
# 6 0.000000 0.000000 0.000000 0.005058 0.000000 0.049464
#
#
# Mechanical properties :
#
#
# Convention : Reuss Voigt Hill
#
# Bulk Modulus (GPa) = 44.27122 68.07104 56.17113
# Shear Modulus (GPa) = 17.74092 19.94329 18.84211
#
# Velocity S-wave (km/s) = 3.39295 3.59739 3.49666
# Velocity P-wave (km/s) = 6.63905 7.83749 7.26303
#
# Compressibility (1/GPa) = 0.02258804
#
# Stress axis : x y z
#
# Youngs Moduli (GPa) = 38.10908 48.94396 42.23357
#
# Poissons Ratio (x) = 0.37819 0.33429
# Poissons Ratio (y) = 0.29447 0.34795
# Poissons Ratio (z) = 0.30164 0.40324
#
# Static dielectric constant tensor:
#      x y z
#    x 2.728390 0.000000 -0.346190 
#    y 0.000000 3.024850 0.000000 
#    z -0.346190 0.000000 2.829440 
# 
# 
# High freq. dielectric constant tensor:
#      x y z
#    x 1.557900 0.000000 -0.039530 
#    y 0.000000 1.596420 0.000000 
#    z -0.039530 0.000000 1.569440 
# 
# From -- ./inp_files/291665.got.cif
#   From: 2010.06.25/outbox.cif.g09.slc.cpg/sg12_146_cif.got.tgz:291665.got - 2010.06.28 00:19:55.
