data_PCOD8095399
_publ_section_title
;
Structure prediction by ZEFSAII (Michael W. Deem and Ramdas Pophale) SiO2 
 PCOD8095399
Probable space group: C 2/M
;
_chemical_formula_sum "Si O2"
_cell_formula_units_Z 64
_cell_length_a 9.347798
_cell_length_b 26.266655
_cell_length_c 20.779297
_cell_angle_alpha 90.000000
_cell_angle_beta 131.603421
_cell_angle_gamma 90.000000
_cell_volume 3815.103000
_symmetry_space_group_name_H-M "C 2/M"
_symmetry_group_IT_number 12
_symmetry_cell_setting 'monoclinic'
loop_
_space_group_symop_operation_xyz
x,y,z
-x,y,-z
-x,-y,-z
x,-y,z
1/2+x,1/2+y,z
1/2-x,1/2+y,-z
1/2-x,1/2-y,-z
1/2+x,1/2-y,z
loop_
_atom_site_type_symbol
_atom_site_label
_atom_site_fract_x
_atom_site_fract_y
_atom_site_fract_z
Si Si1 0.936553 0.888479 0.796115
Si Si2 0.641012 0.439639 0.595916
Si Si3 0.102036 0.942258 0.967873
Si Si4 0.472369 0.916783 0.140346
Si Si5 0.927120 0.558941 0.271316
Si Si6 0.815988 0.205296 0.106721
Si Si7 0.896117 0.942326 0.272083
Si Si8 0.461478 0.805909 0.091546
O O1 0.711201 0.900142 0.735818
O O2 0.000743 0.829826 0.821678
O O3 0.985536 0.906797 0.739450
O O4 0.049730 0.918230 0.884636
O O5 0.500000 0.415985 0.500000
O O6 0.625575 0.500000 0.592655
O O7 0.581321 0.419793 0.648833
O O8 0.858846 0.424309 0.644903
O O9 0.329829 0.937333 0.043253
O O10 0.032359 0.000000 0.942959
O O11 0.000000 0.915932 0.000000
O O12 0.394952 0.935986 0.185610
O O13 0.674988 0.941808 0.185472
O O14 0.485552 0.855693 0.142273
O O15 0.885069 0.500000 0.278710
O O16 0.663569 0.207415 0.118965
O O17 0.900154 0.261207 0.121227
O O18 0.707432 0.184850 0.010727
O O19 0.973008 0.000000 0.290452
#
# Coordination Sequence:
#
# PCOD8095399 Si02
#       8
#     8   8   8   8   8   8   8   8
#     4  12  21  33  47  73 107 137 171 218 259 293
#     4   8  16  34  56  75  99 137 175 200 241 312
#     4  11  21  30  44  66  99 145 187 209 234 296
#     4  11  19  33  49  68  98 135 180 213 250 291
#     4  10  20  32  50  76 107 139 170 205 247 301
#     4  10  22  36  50  66  92 132 180 226 267 293
#     4  10  20  32  50  75 106 134 161 211 260 296
#     4  10  21  37  50  66  89 131 185 228 262 295
#
# _framework density 16.775431999999999
#
# number of rings (size 3 to 8) (size 9 to 14) (size 15 to 20)
#    0.000    1.750    3.750    3.000    1.750    0.500 
#    0.000    1.875    0.000    3.000    0.000    0.000 
#    0.000   16.000    0.000    0.000    0.000    0.000 
#
# Total GULP energy -396752.779416 kJ/mol
# GULP energy per Si atom -12398.524357 kJ/mol
# Density = 1.673725 g / cm^3
# Si number density = 16.775432 Si / 1000 Ang^3
#
#
#
# Elastic Constant Matrix: (Units=GPa)
#
#
# Indices 1 2 3 4 5 6 
#
# 1 89.1612 22.9564 33.4344 0.0000 4.7726 0.0000
# 2 22.9564 69.0036 14.2587 0.0000 0.9044 0.0000
# 3 33.4344 14.2587 94.3791 0.0000 4.5955 0.0000
# 4 0.0000 0.0000 0.0000 12.9990 0.0000 -11.0006
# 5 4.7726 0.9044 4.5955 0.0000 13.1893 0.0000
# 6 0.0000 0.0000 0.0000 -11.0006 0.0000 82.6351
#
#
#
# Elastic Compliance Matrix: (Units=1/GPa)
#
#
# Indices 1 2 3 4 5 6 
#
# 1 0.013930 -0.003721 -0.004211 0.000000 -0.003318 0.000000
# 2 -0.003721 0.015954 -0.001124 0.000000 0.000644 0.000000
# 3 -0.004211 -0.001124 0.012389 0.000000 -0.002716 0.000000
# 4 0.000000 0.000000 0.000000 0.086696 0.000000 0.011541
# 5 -0.003318 0.000644 -0.002716 0.000000 0.077922 0.000000
# 6 0.000000 0.000000 0.000000 0.011541 0.000000 0.013638
#
#
# Mechanical properties :
#
#
# Convention : Reuss Voigt Hill
#
# Bulk Modulus (GPa) = 41.38661 43.76032 42.57347
# Shear Modulus (GPa) = 20.26799 33.89096 27.07948
#
# Velocity S-wave (km/s) = 3.47968 4.49962 4.02211
# Velocity P-wave (km/s) = 6.39287 7.28958 6.85590
#
# Compressibility (1/GPa) = 0.02416240
#
# Stress axis : x y z
#
# Youngs Moduli (GPa) = 71.78537 62.68198 80.71413
#
# Poissons Ratio (x) = 0.23322 0.33991
# Poissons Ratio (y) = 0.26710 0.09068
# Poissons Ratio (z) = 0.30230 0.07042
#
# Static dielectric constant tensor:
#      x y z
#    x 3.445060 0.000000 0.082540 
#    y 0.000000 2.992180 0.000000 
#    z 0.082540 0.000000 3.130040 
# 
# 
# High freq. dielectric constant tensor:
#      x y z
#    x 1.654470 0.000000 0.004580 
#    y 0.000000 1.623940 0.000000 
#    z 0.004580 0.000000 1.614500 
# 
# From -- ./inp_files/200607.got.cif
#   From: 2010.06.25/outbox.cif.g09.slc.cpg/sg12_101_cif.got.tgz:200607.got - 2010.06.28 00:19:55.
