data_PCOD8095882
_publ_section_title
;
Structure prediction by ZEFSAII (Michael W. Deem and Ramdas Pophale) SiO2 
 PCOD8095882
Probable space group: C 2/M
;
_chemical_formula_sum "Si O2"
_cell_formula_units_Z 48
_cell_length_a 24.434817
_cell_length_b 8.961798
_cell_length_c 11.758455
_cell_angle_alpha 90.000000
_cell_angle_beta 101.817270
_cell_angle_gamma 90.000000
_cell_volume 2520.292779
_symmetry_space_group_name_H-M "C 2/M"
_symmetry_group_IT_number 12
_symmetry_cell_setting 'monoclinic'
loop_
_space_group_symop_operation_xyz
x,y,z
-x,y,-z
-x,-y,-z
x,-y,z
1/2+x,1/2+y,z
1/2-x,1/2+y,-z
1/2-x,1/2-y,-z
1/2+x,1/2-y,z
loop_
_atom_site_type_symbol
_atom_site_label
_atom_site_fract_x
_atom_site_fract_y
_atom_site_fract_z
Si Si1 0.588041 0.176688 0.493772
Si Si2 0.333995 0.674806 0.985719
Si Si3 0.949614 0.323217 0.059620
Si Si4 0.264877 0.325945 0.175457
Si Si5 0.979717 0.323451 0.319271
Si Si6 0.796526 0.175811 0.442880
O O1 0.565254 0.230482 0.606868
O O2 0.542428 0.225515 0.380101
O O3 0.644227 0.263837 0.488976
O O4 0.599240 0.000000 0.496202
O O5 0.340915 0.500000 0.972226
O O6 0.393104 0.751870 0.988860
O O7 0.311862 0.716072 0.102393
O O8 0.291396 0.734586 0.872677
O O9 0.941965 0.500000 0.058942
O O10 0.963304 0.256817 0.190220
O O11 0.000000 0.274636 0.000000
O O12 0.249905 0.500000 0.163101
O O13 0.287734 0.278183 0.307936
O O14 0.978756 0.500000 0.315443
O O15 0.750000 0.250000 0.500000
O O16 0.794016 0.000000 0.458395
#
# Coordination Sequence:
#
# PCOD8095882 Si02
#       6
#     8   8   8   8   8   8
#     4   9  17  33  56  77  99 132 176 220 257 299
#     4  10  20  35  57  82 105 133 175 224 267 306
#     4  10  20  33  50  74 106 142 174 206 254 314
#     4   9  20  38  57  77 104 139 176 216 263 316
#     4   8  16  32  54  77 100 133 176 215 254 306
#     4  11  23  37  53  77 109 142 176 214 262 316
#
# _framework density 19.045407000000001
#
# number of rings (size 3 to 8) (size 9 to 14) (size 15 to 20)
#    0.000    2.500    0.000    3.000    0.000    3.667 
#    0.000    5.833    0.000    0.000    0.000    0.000 
#    0.000    0.000    0.000    0.000    0.000    0.000 
#
# Total GULP energy -297639.147453 kJ/mol
# GULP energy per Si atom -12401.631144 kJ/mol
# Density = 1.900206 g / cm^3
# Si number density = 19.045407 Si / 1000 Ang^3
#
#
#
# Elastic Constant Matrix: (Units=GPa)
#
#
# Indices 1 2 3 4 5 6 
#
# 1 149.8751 45.3881 26.0536 0.0000 17.4654 0.0000
# 2 45.3881 48.5556 18.6351 0.0000 4.8741 0.0000
# 3 26.0536 18.6351 40.7250 0.0000 9.3384 0.0000
# 4 0.0000 0.0000 0.0000 22.7902 0.0000 5.2815
# 5 17.4654 4.8741 9.3384 0.0000 23.5449 0.0000
# 6 0.0000 0.0000 0.0000 5.2815 0.0000 34.3498
#
#
#
# Elastic Compliance Matrix: (Units=1/GPa)
#
#
# Indices 1 2 3 4 5 6 
#
# 1 0.010042 -0.008318 -0.001435 0.000000 -0.005158 0.000000
# 2 -0.008318 0.031883 -0.010087 0.000000 0.003571 0.000000
# 3 -0.001435 -0.010087 0.032304 0.000000 -0.009660 0.000000
# 4 0.000000 0.000000 0.000000 0.045500 0.000000 -0.006996
# 5 -0.005158 0.003571 -0.009660 0.000000 0.049390 0.000000
# 6 0.000000 0.000000 0.000000 -0.006996 0.000000 0.030188
#
#
# Mechanical properties :
#
#
# Convention : Reuss Voigt Hill
#
# Bulk Modulus (GPa) = 28.94466 46.58992 37.76729
# Shear Modulus (GPa) = 19.95989 26.07557 23.01773
#
# Velocity S-wave (km/s) = 3.24082 3.70418 3.48022
# Velocity P-wave (km/s) = 5.40690 6.54296 6.00187
#
# Compressibility (1/GPa) = 0.03454869
#
# Stress axis : x y z
#
# Youngs Moduli (GPa) = 99.58333 31.36452 30.95635
#
# Poissons Ratio (x) = 0.26090 0.04443
# Poissons Ratio (y) = 0.82835 0.31224
# Poissons Ratio (z) = 0.14293 0.31636
#
# Static dielectric constant tensor:
#      x y z
#    x 3.454440 0.000000 0.000560 
#    y 0.000000 3.217200 0.000000 
#    z 0.000560 0.000000 3.823940 
# 
# 
# High freq. dielectric constant tensor:
#      x y z
#    x 1.746430 0.000000 0.007810 
#    y 0.000000 1.719570 0.000000 
#    z 0.007810 0.000000 1.742950 
# 
# From -- ./inp_files/172295.got.cif
#   From: 2010.06.25/outbox.cif.g09.slc.cpg/sg12_87_cif.got.tgz:172295.got - 2010.06.28 00:19:55.
