data_PCOD8095470
_publ_section_title
;
Structure prediction by ZEFSAII (Michael W. Deem and Ramdas Pophale) SiO2 
 PCOD8095470
Probable space group: C 2/M
;
_chemical_formula_sum "Si O2"
_cell_formula_units_Z 56
_cell_length_a 12.321823
_cell_length_b 18.160043
_cell_length_c 12.425979
_cell_angle_alpha 90.000000
_cell_angle_beta 99.464088
_cell_angle_gamma 90.000000
_cell_volume 2742.651402
_symmetry_space_group_name_H-M "C 2/M"
_symmetry_group_IT_number 12
_symmetry_cell_setting 'monoclinic'
loop_
_space_group_symop_operation_xyz
x,y,z
-x,y,-z
-x,-y,-z
x,-y,z
1/2+x,1/2+y,z
1/2-x,1/2+y,-z
1/2-x,1/2-y,-z
1/2+x,1/2-y,z
loop_
_atom_site_type_symbol
_atom_site_label
_atom_site_fract_x
_atom_site_fract_y
_atom_site_fract_z
Si Si1 0.384144 0.415933 0.453832
Si Si2 0.911435 0.711274 0.567681
Si Si3 0.457049 0.085246 0.740489
Si Si4 0.796000 0.584828 0.184939
Si Si5 0.778054 0.161972 0.615040
Si Si6 0.118973 0.912874 0.979385
Si Si7 0.276404 0.413203 0.221221
O O1 0.500000 0.377498 0.500000
O O2 0.401888 0.500000 0.425832
O O3 0.314871 0.408899 0.551641
O O4 0.325196 0.378436 0.340111
O O5 0.951825 0.637901 0.635776
O O6 0.874576 0.776304 0.643847
O O7 0.816405 0.697047 0.468639
O O8 0.000000 0.743079 0.500000
O O9 0.574070 0.096569 0.820576
O O10 0.355025 0.104561 0.803857
O O11 0.446324 0.000000 0.699149
O O12 0.773445 0.500000 0.211576
O O13 0.761836 0.637034 0.276022
O O14 0.719055 0.609224 0.073898
O O15 0.155910 0.879713 0.869162
O O16 0.107649 0.000000 0.969394
O O17 0.000000 0.880775 0.000000
O O18 0.292824 0.500000 0.221541
#
# Coordination Sequence:
#
# PCOD8095470 Si02
#       7
#     8   8   8   8   8   8   8
#     4  10  20  32  51  83 117 150 191 239 291 346
#     4  11  22  38  54  82 118 159 192 232 295 352
#     4  10  20  36  60  88 116 148 194 247 295 346
#     4  10  21  36  60  91 117 151 196 246 293 341
#     4  11  22  35  55  82 118 155 193 235 287 355
#     4   9  19  35  55  84 121 154 191 237 293 352
#     4   9  18  33  53  81 116 152 188 238 298 345
#
# _framework density 20.418199999999999
#
# number of rings (size 3 to 8) (size 9 to 14) (size 15 to 20)
#    0.000    2.000    2.857    0.857    2.000    1.429 
#    0.000    2.857    0.000    0.857    0.000    0.000 
#    0.000    0.000    0.000    0.000    0.000    0.000 
#
# Total GULP energy -346867.134116 kJ/mol
# GULP energy per Si atom -12388.111933 kJ/mol
# Density = 2.037173 g / cm^3
# Si number density = 20.418200 Si / 1000 Ang^3
#
#
#
# Elastic Constant Matrix: (Units=GPa)
#
#
# Indices 1 2 3 4 5 6 
#
# 1 167.3372 22.3950 60.7359 0.0000 4.9067 0.0000
# 2 22.3950 43.7880 19.8570 0.0000 3.5469 0.0000
# 3 60.7359 19.8570 91.3263 0.0000 5.1086 0.0000
# 4 0.0000 0.0000 0.0000 13.5264 0.0000 -6.4749
# 5 4.9067 3.5469 5.1086 0.0000 35.6402 0.0000
# 6 0.0000 0.0000 0.0000 -6.4749 0.0000 17.3822
#
#
#
# Elastic Compliance Matrix: (Units=1/GPa)
#
#
# Indices 1 2 3 4 5 6 
#
# 1 0.008014 -0.001853 -0.004915 0.000000 -0.000214 0.000000
# 2 -0.001853 0.025872 -0.004298 0.000000 -0.001704 0.000000
# 3 -0.004915 -0.004298 0.015213 0.000000 -0.001076 0.000000
# 4 0.000000 0.000000 0.000000 0.089973 0.000000 0.033515
# 5 -0.000214 -0.001704 -0.001076 0.000000 0.028412 0.000000
# 6 0.000000 0.000000 0.000000 0.033515 0.000000 0.070014
#
#
# Mechanical properties :
#
#
# Convention : Reuss Voigt Hill
#
# Bulk Modulus (GPa) = 37.08080 56.49192 46.78636
# Shear Modulus (GPa) = 18.61382 26.60733 22.61057
#
# Velocity S-wave (km/s) = 3.02259 3.61379 3.33133
# Velocity P-wave (km/s) = 5.51194 6.71864 6.14498
#
# Compressibility (1/GPa) = 0.02696813
#
# Stress axis : x y z
#
# Youngs Moduli (GPa) = 124.78064 38.65206 65.73289
#
# Poissons Ratio (x) = 0.07160 0.32307
# Poissons Ratio (y) = 0.23116 0.28252
# Poissons Ratio (z) = 0.61329 0.16613
#
# Static dielectric constant tensor:
#      x y z
#    x 4.048000 0.000000 0.130440 
#    y 0.000000 3.468580 0.000000 
#    z 0.130440 0.000000 3.659040 
# 
# 
# High freq. dielectric constant tensor:
#      x y z
#    x 1.821660 0.000000 0.005740 
#    y 0.000000 1.764520 0.000000 
#    z 0.005740 0.000000 1.776190 
# 
# From -- ./inp_files/133238.got.cif
#   From: 2010.06.25/outbox.cif.g09.slc.cpg/sg12_67_cif.got.tgz:133238.got - 2010.06.28 00:19:55.
