data_PCOD8095995
_publ_section_title
;
Structure prediction by ZEFSAII (Michael W. Deem and Ramdas Pophale) SiO2 
 PCOD8095995
Probable space group: C 2/M
;
_chemical_formula_sum "Si O2"
_cell_formula_units_Z 56
_cell_length_a 20.364170
_cell_length_b 9.357311
_cell_length_c 16.932907
_cell_angle_alpha 90.000000
_cell_angle_beta 68.277376
_cell_angle_gamma 90.000000
_cell_volume 2997.496631
_symmetry_space_group_name_H-M "C 2/M"
_symmetry_group_IT_number 12
_symmetry_cell_setting 'monoclinic'
loop_
_space_group_symop_operation_xyz
x,y,z
-x,y,-z
-x,-y,-z
x,-y,z
1/2+x,1/2+y,z
1/2-x,1/2+y,-z
1/2-x,1/2-y,-z
1/2+x,1/2-y,z
loop_
_atom_site_type_symbol
_atom_site_label
_atom_site_fract_x
_atom_site_fract_y
_atom_site_fract_z
Si Si1 0.900359 0.331248 0.767119
Si Si2 0.244952 0.831674 0.799333
Si Si3 0.236860 0.337531 0.388099
Si Si4 0.857580 0.163709 0.460573
Si Si5 0.109717 0.331069 0.915157
Si Si6 0.471022 0.830923 0.892909
Si Si7 0.007844 0.333056 0.587411
O O1 0.899400 0.500000 0.776876
O O2 0.819675 0.276515 0.801328
O O3 0.942662 0.264107 0.823073
O O4 0.938077 0.290315 0.667792
O O5 0.242362 0.790819 0.708587
O O6 0.182995 0.749232 0.870734
O O7 0.234692 0.000000 0.816827
O O8 0.207854 0.500000 0.402503
O O9 0.174589 0.236921 0.447133
O O10 0.306034 0.319895 0.409805
O O11 0.928424 0.243960 0.403292
O O12 0.873527 0.000000 0.474006
O O13 0.122618 0.500000 0.903263
O O14 0.050982 0.279306 0.877034
O O15 0.082186 0.286169 0.013807
O O16 0.473426 0.000000 0.886604
O O17 0.025212 0.500000 0.588197
O O18 0.000000 0.287785 0.500000
#
# Coordination Sequence:
#
# PCOD8095995 Si02
#       7
#     8   8   8   8   8   8   8
#     4   9  18  32  52  75 101 139 180 211 248 309
#     4  10  20  34  53  77 105 136 170 212 259 308
#     4   9  19  35  51  71 104 139 172 211 259 313
#     4  10  20  33  51  75 101 134 174 219 263 302
#     4   9  18  33  55  78 103 133 169 215 262 305
#     4   8  16  33  53  76 103 134 173 213 252 306
#     4  10  20  34  53  75 101 137 178 214 255 308
#
# _framework density 18.682257
#
# number of rings (size 3 to 8) (size 9 to 14) (size 15 to 20)
#    0.000    2.714    0.000    2.143    2.000    4.286 
#    0.000    2.143    0.000    1.714    0.000    0.000 
#    0.000    0.000    0.000    0.000    0.000    0.000 
#
# Total GULP energy -347159.636827 kJ/mol
# GULP energy per Si atom -12398.558458 kJ/mol
# Density = 1.863974 g / cm^3
# Si number density = 18.682257 Si / 1000 Ang^3
#
#
#
# Elastic Constant Matrix: (Units=GPa)
#
#
# Indices 1 2 3 4 5 6 
#
# 1 119.5517 36.9103 74.9813 0.0000 -15.1053 0.0000
# 2 36.9103 43.9560 27.3355 0.0000 -9.5473 0.0000
# 3 74.9813 27.3355 112.7083 0.0000 -3.4481 0.0000
# 4 0.0000 0.0000 0.0000 24.5495 0.0000 -10.5522
# 5 -15.1053 -9.5473 -3.4481 0.0000 37.9523 0.0000
# 6 0.0000 0.0000 0.0000 -10.5522 0.0000 28.2081
#
#
#
# Elastic Compliance Matrix: (Units=1/GPa)
#
#
# Indices 1 2 3 4 5 6 
#
# 1 0.017157 -0.007663 -0.009432 0.000000 0.004044 0.000000
# 2 -0.007663 0.031734 -0.002455 0.000000 0.004710 0.000000
# 3 -0.009432 -0.002455 0.015652 0.000000 -0.002949 0.000000
# 4 0.000000 0.000000 0.000000 0.048539 0.000000 0.018158
# 5 0.004044 0.004710 -0.002949 0.000000 0.028875 0.000000
# 6 0.000000 0.000000 0.000000 0.018158 0.000000 0.042243
#
#
# Mechanical properties :
#
#
# Convention : Reuss Voigt Hill
#
# Bulk Modulus (GPa) = 39.30083 61.63002 50.46543
# Shear Modulus (GPa) = 21.57214 27.27458 24.42336
#
# Velocity S-wave (km/s) = 3.40175 3.82503 3.61959
# Velocity P-wave (km/s) = 6.04246 7.25038 6.67380
#
# Compressibility (1/GPa) = 0.02544475
#
# Stress axis : x y z
#
# Youngs Moduli (GPa) = 58.28598 31.51172 63.88919
#
# Poissons Ratio (x) = 0.24148 0.60258
# Poissons Ratio (y) = 0.44665 0.15682
# Poissons Ratio (z) = 0.54973 0.07735
#
# Static dielectric constant tensor:
#      x y z
#    x 3.708210 0.000000 0.153900 
#    y 0.000000 3.103510 0.000000 
#    z 0.153900 0.000000 3.494810 
# 
# 
# High freq. dielectric constant tensor:
#      x y z
#    x 1.736950 0.000000 -0.000080 
#    y 0.000000 1.687190 0.000000 
#    z -0.000080 0.000000 1.725970 
# 
# From -- ./inp_files/280923.got.cif
#   From: 2010.06.25/outbox.cif.g09.slc.cpg/sg12_141_cif.got.tgz:280923.got - 2010.06.28 00:19:55.
