data_PCOD8095945
_publ_section_title
;
Structure prediction by ZEFSAII (Michael W. Deem and Ramdas Pophale) SiO2 
 PCOD8095945
Probable space group: C 2/M
;
_chemical_formula_sum "Si O2"
_cell_formula_units_Z 64
_cell_length_a 20.004954
_cell_length_b 33.841344
_cell_length_c 16.449924
_cell_angle_alpha 90.000000
_cell_angle_beta 159.504221
_cell_angle_gamma 90.000000
_cell_volume 3899.319017
_symmetry_space_group_name_H-M "C 2/M"
_symmetry_group_IT_number 12
_symmetry_cell_setting 'monoclinic'
loop_
_space_group_symop_operation_xyz
x,y,z
-x,y,-z
-x,-y,-z
x,-y,z
1/2+x,1/2+y,z
1/2-x,1/2+y,-z
1/2-x,1/2-y,-z
1/2+x,1/2-y,z
loop_
_atom_site_type_symbol
_atom_site_label
_atom_site_fract_x
_atom_site_fract_y
_atom_site_fract_z
Si Si1 0.323826 0.248256 0.741636
Si Si2 0.928404 0.543612 0.327529
Si Si3 0.140289 0.107522 0.037411
Si Si4 0.416424 0.234907 0.104773
Si Si5 0.964837 0.195399 0.371853
Si Si6 0.774148 0.396271 0.368731
Si Si7 0.333575 0.181090 0.515793
Si Si8 0.530530 0.323964 0.796571
O O1 0.392852 0.233898 0.732196
O O2 0.276336 0.294743 0.680428
O O3 0.138383 0.225240 0.557413
O O4 0.500000 0.241422 0.000000
O O5 0.887854 0.500000 0.244202
O O6 0.737016 0.570023 0.103378
O O7 0.000000 0.538715 0.500000
O O8 0.100011 0.564645 0.474299
O O9 0.251183 0.115875 0.247865
O O10 0.150563 0.145653 0.989505
O O11 0.924307 0.095891 0.812177
O O12 0.471537 0.203957 0.238766
O O13 0.381448 0.279263 0.098972
O O14 0.230485 0.220501 0.844725
O O15 0.958668 0.164961 0.288066
O O16 0.000000 0.174104 0.500000
O O17 0.890996 0.360874 0.543873
O O18 0.189596 0.174799 0.427412
#
# Coordination Sequence:
#
# PCOD8095945 Si02
#       8
#     8   8   8   8   8   8   8   8
#     4  11  21  35  47  65  93 126 172 215 248 288
#     4   9  18  33  50  71 100 130 159 192 238 295
#     4   9  19  32  49  71  99 131 161 204 239 286
#     4  11  21  34  50  65  94 131 169 211 253 289
#     4  12  23  33  48  67  88 128 171 206 251 293
#     4   9  19  31  48  75  98 126 169 197 241 284
#     4  10  20  33  51  69  96 133 163 211 253 280
#     4  10  20  35  48  67  98 126 167 208 248 286
#
# _framework density 16.413122999999999
#
# number of rings (size 3 to 8) (size 9 to 14) (size 15 to 20)
#    0.000    1.875    3.750    1.125    7.000    0.500 
#    0.000    3.750    0.000    0.000    0.000    0.000 
#    0.000    0.500    0.000    3.250    0.000    0.125 
#
# Total GULP energy -396555.754952 kJ/mol
# GULP energy per Si atom -12392.367342 kJ/mol
# Density = 1.637577 g / cm^3
# Si number density = 16.413123 Si / 1000 Ang^3
#
#
#
# Elastic Constant Matrix: (Units=GPa)
#
#
# Indices 1 2 3 4 5 6 
#
# 1 72.4409 36.8231 23.9302 0.0000 -7.2868 0.0001
# 2 36.8231 114.0597 48.4101 -0.0001 -2.9514 0.0000
# 3 23.9302 48.4101 80.8208 0.0007 0.0438 0.0009
# 4 0.0000 -0.0001 0.0007 21.5772 0.0001 0.3476
# 5 -7.2868 -2.9514 0.0438 0.0001 21.3942 0.0002
# 6 0.0001 0.0000 0.0009 0.3476 0.0002 14.1629
#
#
#
# Elastic Compliance Matrix: (Units=1/GPa)
#
#
# Indices 1 2 3 4 5 6 
#
# 1 0.017416 -0.004418 -0.002513 0.000000 0.005328 0.000000
# 2 -0.004418 0.012934 -0.006439 0.000000 0.000293 0.000000
# 3 -0.002513 -0.006439 0.016975 -0.000001 -0.001779 -0.000001
# 4 0.000000 0.000000 -0.000001 0.046364 0.000000 -0.001138
# 5 0.005328 0.000293 -0.001779 0.000000 0.048600 -0.000001
# 6 0.000000 0.000000 -0.000001 -0.001138 -0.000001 0.070635
#
#
# Mechanical properties :
#
#
# Convention : Reuss Voigt Hill
#
# Bulk Modulus (GPa) = 48.58090 53.96092 51.27091
# Shear Modulus (GPa) = 20.28167 21.97071 21.12619
#
# Velocity S-wave (km/s) = 3.51906 3.66267 3.59158
# Velocity P-wave (km/s) = 6.79521 7.12986 6.96454
#
# Compressibility (1/GPa) = 0.02058422
#
# Stress axis : x y z
#
# Youngs Moduli (GPa) = 57.41739 77.31361 58.90924
#
# Poissons Ratio (x) = 0.34158 0.14806
# Poissons Ratio (y) = 0.25368 0.37934
# Poissons Ratio (z) = 0.14431 0.49785
#
# Static dielectric constant tensor:
#      x y z
#    x 3.292880 0.000000 0.065530 
#    y 0.000000 2.994000 0.000000 
#    z 0.065530 0.000000 3.107920 
# 
# 
# High freq. dielectric constant tensor:
#      x y z
#    x 1.627040 0.000000 0.021010 
#    y 0.000000 1.588680 0.000000 
#    z 0.021010 0.000000 1.638400 
# 
# From -- ./inp_files/286795.got.cif
#   From: 2010.06.25/outbox.cif.g09.slc.cpg/sg12_144_cif.got.tgz:286795.got - 2010.06.28 00:19:55.
