data_PCOD8095607
_publ_section_title
;
Structure prediction by ZEFSAII (Michael W. Deem and Ramdas Pophale) SiO2 
 PCOD8095607
Probable space group: C 2/M
;
_chemical_formula_sum "Si O2"
_cell_formula_units_Z 56
_cell_length_a 20.479146
_cell_length_b 9.844326
_cell_length_c 24.128105
_cell_angle_alpha 90.000000
_cell_angle_beta 46.475429
_cell_angle_gamma 90.000000
_cell_volume 3527.007918
_symmetry_space_group_name_H-M "C 2/M"
_symmetry_group_IT_number 12
_symmetry_cell_setting 'monoclinic'
loop_
_space_group_symop_operation_xyz
x,y,z
-x,y,-z
-x,-y,-z
x,-y,z
1/2+x,1/2+y,z
1/2-x,1/2+y,-z
1/2-x,1/2-y,-z
1/2+x,1/2-y,z
loop_
_atom_site_type_symbol
_atom_site_label
_atom_site_fract_x
_atom_site_fract_y
_atom_site_fract_z
Si Si1 0.216423 0.652778 0.845318
Si Si2 0.211835 0.658864 0.473765
Si Si3 0.064611 0.660982 0.007937
Si Si4 0.925253 0.347379 0.171825
Si Si5 0.195037 0.154305 0.695907
Si Si6 0.017043 0.660686 0.550817
Si Si7 0.665640 0.843247 0.288894
O O1 0.255200 0.500000 0.828148
O O2 0.141624 0.657648 0.841200
O O3 0.297966 0.753990 0.783572
O O4 0.168158 0.700376 0.931698
O O5 0.212491 0.500000 0.490011
O O6 0.250000 0.750000 0.500000
O O7 0.273108 0.685162 0.384470
O O8 0.111020 0.712336 0.520761
O O9 0.056281 0.500000 0.007527
O O10 0.025266 0.701342 0.091855
O O11 0.000000 0.730399 0.000000
O O12 0.929620 0.500000 0.193564
O O13 0.890648 0.248777 0.240427
O O14 0.278061 0.184223 0.688259
O O15 0.162479 0.000000 0.721556
O O16 0.021036 0.500000 0.541378
O O17 0.936606 0.702385 0.639253
O O18 0.000000 0.725545 0.500000
O O19 0.671423 0.000000 0.267667
#
# Coordination Sequence:
#
# PCOD8095607 Si02
#       7
#     8   8   8   8   8   8   8
#     4   8  13  21  33  51  79 110 136 166 208 250
#     4  10  20  33  48  65  87 115 146 181 220 260
#     4   7  10  18  31  47  71 107 142 164 192 244
#     4   8  13  21  35  53  74 105 143 174 199 240
#     4   9  16  26  40  59  82 107 137 175 216 252
#     4   9  15  28  49  66  81 111 152 182 208 255
#     4   9  15  24  41  62  80 103 142 181 207 242
#
# _framework density 15.877481
#
# number of rings (size 3 to 8) (size 9 to 14) (size 15 to 20)
#    0.000    3.429    1.429    1.714    0.000    0.571 
#    0.000    1.429    0.000    5.143    0.000    0.000 
#    0.000    1.143    0.000    2.571    0.000    5.000 
#
# Total GULP energy -346868.375056 kJ/mol
# GULP energy per Si atom -12388.156252 kJ/mol
# Density = 1.584134 g / cm^3
# Si number density = 15.877481 Si / 1000 Ang^3
#
#
#
# Elastic Constant Matrix: (Units=GPa)
#
#
# Indices 1 2 3 4 5 6 
#
# 1 52.1892 29.4446 50.6622 0.0000 -7.9743 0.0001
# 2 29.4446 65.0124 68.6362 0.0001 -7.6609 0.0005
# 3 50.6622 68.6362 145.5972 0.0000 -20.7401 0.0000
# 4 0.0000 0.0001 0.0000 30.3951 0.0000 -1.6163
# 5 -7.9743 -7.6609 -20.7401 0.0000 12.6012 0.0000
# 6 0.0001 0.0005 0.0000 -1.6163 0.0000 13.0624
#
#
#
# Elastic Compliance Matrix: (Units=1/GPa)
#
#
# Indices 1 2 3 4 5 6 
#
# 1 0.029867 -0.005314 -0.007387 0.000000 0.003511 0.000000
# 2 -0.005314 0.032009 -0.014300 0.000000 -0.007439 -0.000001
# 3 -0.007387 -0.014300 0.018648 0.000000 0.017323 0.000001
# 4 0.000000 0.000000 0.000000 0.033118 0.000000 0.004098
# 5 0.003511 -0.007439 0.017323 0.000000 0.105569 0.000000
# 6 0.000000 -0.000001 0.000001 0.004098 0.000000 0.077062
#
#
# Mechanical properties :
#
#
# Convention : Reuss Voigt Hill
#
# Bulk Modulus (GPa) = 37.70649 62.25387 49.98018
# Shear Modulus (GPa) = 13.92311 18.81548 16.36930
#
# Velocity S-wave (km/s) = 2.96448 3.44618 3.21436
# Velocity P-wave (km/s) = 5.95965 7.42488 6.73225
#
# Compressibility (1/GPa) = 0.02652064
#
# Stress axis : x y z
#
# Youngs Moduli (GPa) = 33.48202 31.24130 53.62647
#
# Poissons Ratio (x) = 0.16602 0.39614
# Poissons Ratio (y) = 0.17793 0.76685
# Poissons Ratio (z) = 0.24734 0.44675
#
# Static dielectric constant tensor:
#      x y z
#    x 2.554620 0.000000 -0.270660 
#    y 0.000000 2.844950 0.000000 
#    z -0.270660 0.000000 3.447160 
# 
# 
# High freq. dielectric constant tensor:
#      x y z
#    x 1.544320 0.000000 -0.020890 
#    y 0.000000 1.582890 0.000000 
#    z -0.020890 0.000000 1.629650 
# 
# From -- ./inp_files/320701.got.cif
#   From: 2010.06.25/outbox.cif.g09.slc.cpg/sg12_161_cif.got.tgz:320701.got - 2010.06.28 00:19:55.
