data_PCOD8095207
_publ_section_title
;
Structure prediction by ZEFSAII (Michael W. Deem and Ramdas Pophale) SiO2 
 PCOD8095207
Probable space group: C 2/M
;
_chemical_formula_sum "Si O2"
_cell_formula_units_Z 48
_cell_length_a 19.877745
_cell_length_b 9.101744
_cell_length_c 16.056320
_cell_angle_alpha 90.000000
_cell_angle_beta 71.424145
_cell_angle_gamma 90.000000
_cell_volume 2753.604255
_symmetry_space_group_name_H-M "C 2/M"
_symmetry_group_IT_number 12
_symmetry_cell_setting 'monoclinic'
loop_
_space_group_symop_operation_xyz
x,y,z
-x,y,-z
-x,-y,-z
x,-y,z
1/2+x,1/2+y,z
1/2-x,1/2+y,-z
1/2-x,1/2-y,-z
1/2+x,1/2-y,z
loop_
_atom_site_type_symbol
_atom_site_label
_atom_site_fract_x
_atom_site_fract_y
_atom_site_fract_z
Si Si1 0.533281 0.326181 0.570263
Si Si2 0.306189 0.672381 0.086480
Si Si3 0.867990 0.173871 0.234897
Si Si4 0.649799 0.828026 0.092286
Si Si5 0.315542 0.325859 0.431122
Si Si6 0.478812 0.673266 0.768710
O O1 0.500000 0.254370 0.500000
O O2 0.533091 0.500000 0.563610
O O3 0.614241 0.273233 0.547537
O O4 0.487338 0.280711 0.668799
O O5 0.321590 0.500000 0.071630
O O6 0.333118 0.736088 0.164279
O O7 0.222959 0.707656 0.111201
O O8 0.350766 0.754034 0.997984
O O9 0.822868 0.228886 0.332451
O O10 0.950254 0.221866 0.209513
O O11 0.864978 0.000000 0.236248
O O12 0.587025 0.762921 0.171320
O O13 0.638431 0.000000 0.084883
O O14 0.306038 0.500000 0.439108
O O15 0.250000 0.250000 0.500000
O O16 0.464858 0.500000 0.784119
#
# Coordination Sequence:
#
# PCOD8095207 Si02
#       6
#     8   8   8   8   8   8
#     4   8  15  29  48  69  93 122 156 190 222 263
#     4   9  18  34  52  66  87 123 160 188 220 271
#     4   8  16  32  51  68  88 121 162 192 216 262
#     4  10  20  32  47  70  97 119 145 190 239 274
#     4   9  17  30  48  70  95 121 152 190 228 267
#     4   9  17  31  51  70  90 121 158 190 221 267
#
# _framework density 17.431698999999998
#
# number of rings (size 3 to 8) (size 9 to 14) (size 15 to 20)
#    0.000    3.167    0.000    2.500    0.000    2.667 
#    0.000    8.333    0.000    1.000    0.000    0.000 
#    0.000    0.000    0.000    0.000    0.000    0.000 
#
# Total GULP energy -297511.992199 kJ/mol
# GULP energy per Si atom -12396.333008 kJ/mol
# Density = 1.739202 g / cm^3
# Si number density = 17.431699 Si / 1000 Ang^3
#
#
#
# Elastic Constant Matrix: (Units=GPa)
#
#
# Indices 1 2 3 4 5 6 
#
# 1 114.2401 33.4282 106.9475 0.0000 4.2372 0.0000
# 2 33.4282 36.3070 41.5040 0.0000 -4.3138 0.0000
# 3 106.9475 41.5040 161.9064 0.0000 4.9416 0.0000
# 4 0.0000 0.0000 0.0000 25.3803 0.0000 -11.0349
# 5 4.2372 -4.3138 4.9416 0.0000 43.2084 0.0000
# 6 0.0000 0.0000 0.0000 -11.0349 0.0000 23.9032
#
#
#
# Elastic Compliance Matrix: (Units=1/GPa)
#
#
# Indices 1 2 3 4 5 6 
#
# 1 0.023774 -0.005851 -0.014165 0.000000 -0.001296 0.000000
# 2 -0.005851 0.041529 -0.006949 0.000000 0.005515 0.000000
# 3 -0.014165 -0.006949 0.017354 0.000000 -0.001289 0.000000
# 4 0.000000 0.000000 0.000000 0.049295 0.000000 0.022757
# 5 -0.001296 0.005515 -0.001289 0.000000 0.023969 0.000000
# 6 0.000000 0.000000 0.000000 0.022757 0.000000 0.052341
#
#
# Mechanical properties :
#
#
# Convention : Reuss Voigt Hill
#
# Bulk Modulus (GPa) = 34.81015 75.13478 54.97246
# Shear Modulus (GPa) = 18.39813 27.20328 22.80070
#
# Velocity S-wave (km/s) = 3.25228 3.95468 3.62056
# Velocity P-wave (km/s) = 5.84088 8.00304 7.00587
#
# Compressibility (1/GPa) = 0.02872726
#
# Stress axis : x y z
#
# Youngs Moduli (GPa) = 42.06297 24.07951 57.62491
#
# Poissons Ratio (x) = 0.14088 0.81623
# Poissons Ratio (y) = 0.24610 0.40046
# Poissons Ratio (z) = 0.59580 0.16734
#
# Static dielectric constant tensor:
#      x y z
#    x 3.510750 0.000000 0.349420 
#    y 0.000000 2.880980 0.000000 
#    z 0.349420 0.000000 3.605630 
# 
# 
# High freq. dielectric constant tensor:
#      x y z
#    x 1.676790 0.000000 0.002310 
#    y 0.000000 1.638090 0.000000 
#    z 0.002310 0.000000 1.682720 
# 
# From -- ./inp_files/229827.got.cif
#   From: 2010.06.25/outbox.cif.g09.slc.cpg/sg12_115_cif.got.tgz:229827.got - 2010.06.28 00:19:55.
