data_PCOD8095718
_publ_section_title
;
Structure prediction by ZEFSAII (Michael W. Deem and Ramdas Pophale) SiO2 
 PCOD8095718
Probable space group: C 2/M
;
_chemical_formula_sum "Si O2"
_cell_formula_units_Z 56
_cell_length_a 27.569204
_cell_length_b 9.111498
_cell_length_c 13.951288
_cell_angle_alpha 90.000000
_cell_angle_beta 58.941080
_cell_angle_gamma 90.000000
_cell_volume 3002.100659
_symmetry_space_group_name_H-M "C 2/M"
_symmetry_group_IT_number 12
_symmetry_cell_setting 'monoclinic'
loop_
_space_group_symop_operation_xyz
x,y,z
-x,y,-z
-x,-y,-z
x,-y,z
1/2+x,1/2+y,z
1/2-x,1/2+y,-z
1/2-x,1/2-y,-z
1/2+x,1/2-y,z
loop_
_atom_site_type_symbol
_atom_site_label
_atom_site_fract_x
_atom_site_fract_y
_atom_site_fract_z
Si Si1 0.115851 0.166252 0.620107
Si Si2 0.177214 0.170131 0.994275
Si Si3 0.187715 0.174586 0.363546
Si Si4 0.724752 0.330741 0.615887
Si Si5 0.191087 0.670225 0.170949
Si Si6 0.415225 0.171455 0.026226
Si Si7 0.033693 0.669657 0.824470
O O1 0.145469 0.224334 0.492270
O O2 0.157162 0.180419 0.671065
O O3 0.058798 0.252566 0.704316
O O4 0.098171 0.000000 0.619945
O O5 0.163468 0.261478 0.104093
O O6 0.138270 0.230963 0.948779
O O7 0.163906 0.000000 0.026344
O O8 0.241711 0.193496 0.897822
O O9 0.250345 0.245628 0.317303
O O10 0.164774 0.241725 0.287821
O O11 0.193918 0.000000 0.351069
O O12 0.744285 0.500000 0.599935
O O13 0.750000 0.250000 0.500000
O O14 0.174212 0.500000 0.194590
O O15 0.466863 0.201944 0.899863
O O16 0.398757 0.000000 0.041887
O O17 0.434868 0.222961 0.111168
O O18 0.045412 0.500000 0.799030
#
# Coordination Sequence:
#
# PCOD8095718 Si02
#       7
#     8   8   8   8   8   8   8
#     4   9  19  32  47  71 104 136 170 212 255 301
#     4  10  21  36  55  79 104 134 172 213 260 309
#     4  10  20  33  49  72 103 139 173 211 257 307
#     4   9  17  29  43  65  98 134 171 208 247 299
#     4  10  21  36  54  78 106 136 172 213 255 308
#     4   9  19  36  54  76 105 136 172 215 259 304
#     4   9  19  34  53  77 104 137 176 211 253 309
#
# _framework density 18.653606
#
# number of rings (size 3 to 8) (size 9 to 14) (size 15 to 20)
#    0.000    2.571    0.000    3.429    2.000    6.286 
#    0.000    1.429    0.000    0.857    0.000    6.000 
#    0.000    0.000    0.000    0.000    0.000    0.000 
#
# Total GULP energy -347088.408357 kJ/mol
# GULP energy per Si atom -12396.014584 kJ/mol
# Density = 1.861115 g / cm^3
# Si number density = 18.653606 Si / 1000 Ang^3
#
#
#
# Elastic Constant Matrix: (Units=GPa)
#
#
# Indices 1 2 3 4 5 6 
#
# 1 42.3292 18.6212 2.7542 0.0000 2.5613 0.0000
# 2 18.6212 87.7346 31.7404 0.0000 -0.7979 0.0000
# 3 2.7542 31.7404 75.5762 0.0000 3.4305 0.0000
# 4 0.0000 0.0000 0.0000 31.5389 0.0000 1.8532
# 5 2.5613 -0.7979 3.4305 0.0000 21.3376 0.0000
# 6 0.0000 0.0000 0.0000 1.8532 0.0000 28.7844
#
#
#
# Elastic Compliance Matrix: (Units=1/GPa)
#
#
# Indices 1 2 3 4 5 6 
#
# 1 0.026515 -0.006336 0.001863 0.000000 -0.003719 0.000000
# 2 -0.006336 0.014997 -0.006172 0.000000 0.002314 0.000000
# 3 0.001863 -0.006172 0.015893 0.000000 -0.003010 0.000000
# 4 0.000000 0.000000 0.000000 0.031827 0.000000 -0.002049
# 5 -0.003719 0.002314 -0.003010 0.000000 0.047882 0.000000
# 6 0.000000 0.000000 0.000000 -0.002049 0.000000 0.034873
#
#
# Mechanical properties :
#
#
# Convention : Reuss Voigt Hill
#
# Bulk Modulus (GPa) = 27.68909 34.65240 31.17074
# Shear Modulus (GPa) = 24.35275 26.50046 25.42660
#
# Velocity S-wave (km/s) = 3.61713 3.77326 3.69601
# Velocity P-wave (km/s) = 5.68514 6.13192 5.91275
#
# Compressibility (1/GPa) = 0.03611531
#
# Stress axis : x y z
#
# Youngs Moduli (GPa) = 37.71402 66.68076 62.92198
#
# Poissons Ratio (x) = 0.42247 -0.11725
# Poissons Ratio (y) = 0.23894 0.38839
# Poissons Ratio (z) = -0.07028 0.41159
#
# Static dielectric constant tensor:
#      x y z
#    x 3.306140 0.000000 0.088800 
#    y 0.000000 3.444080 0.000000 
#    z 0.088800 0.000000 3.344320 
# 
# 
# High freq. dielectric constant tensor:
#      x y z
#    x 1.692470 0.000000 0.007230 
#    y 0.000000 1.729850 0.000000 
#    z 0.007230 0.000000 1.717330 
# 
# From -- ./inp_files/242979.got.cif
#   From: 2010.06.25/outbox.cif.g09.slc.cpg/sg12_122_cif.got.tgz:242979.got - 2010.06.28 00:19:55.
