data_PCOD8095068
_publ_section_title
;
Structure prediction by ZEFSAII (Michael W. Deem and Ramdas Pophale) SiO2 
 PCOD8095068
Probable space group: C 2/M
;
_chemical_formula_sum "Si O2"
_cell_formula_units_Z 64
_cell_length_a 28.309494
_cell_length_b 19.756177
_cell_length_c 18.781857
_cell_angle_alpha 90.000000
_cell_angle_beta 19.067545
_cell_angle_gamma 90.000000
_cell_volume 3431.622655
_symmetry_space_group_name_H-M "C 2/M"
_symmetry_group_IT_number 12
_symmetry_cell_setting 'monoclinic'
loop_
_space_group_symop_operation_xyz
x,y,z
-x,y,-z
-x,-y,-z
x,-y,z
1/2+x,1/2+y,z
1/2-x,1/2+y,-z
1/2-x,1/2-y,-z
1/2+x,1/2-y,z
loop_
_atom_site_type_symbol
_atom_site_label
_atom_site_fract_x
_atom_site_fract_y
_atom_site_fract_z
Si Si1 0.161075 0.423884 0.113231
Si Si2 0.382168 0.292312 0.342667
Si Si3 0.434805 0.073246 0.309207
Si Si4 0.024902 0.702675 0.380765
Si Si5 0.363487 0.631766 0.236484
Si Si6 0.225751 0.243385 0.359498
Si Si7 0.862849 0.160103 0.743503
Si Si8 0.891535 0.315161 0.002531
O O1 0.173404 0.500000 0.129628
O O2 0.110126 0.365898 0.240534
O O3 0.046410 0.425593 0.214020
O O4 0.319110 0.401897 0.857885
O O5 0.250000 0.250000 0.500000
O O6 0.396127 0.360378 0.275163
O O7 0.358206 0.301592 0.461584
O O8 0.535674 0.256289 0.116162
O O9 0.278606 0.086143 0.566883
O O10 0.433837 0.000000 0.273237
O O11 0.482921 0.127499 0.180794
O O12 0.112764 0.772633 0.243583
O O13 0.000000 0.697914 0.500000
O O14 0.879459 0.711895 0.541285
O O15 0.335065 0.704943 0.241689
O O16 0.500000 0.598528 0.000000
O O17 0.316890 0.187712 0.185994
O O18 0.727709 0.173392 0.886249
O O19 0.000000 0.139385 0.500000
#
# Coordination Sequence:
#
# PCOD8095068 Si02
#       8
#     8   8   8   8   8   8   8   8
#     4  10  21  36  55  77 111 157 189 227 278 340
#     4  10  20  31  52  84 111 136 176 237 281 329
#     4  10  21  37  55  78 113 151 191 226 271 343
#     4  11  20  36  56  84 117 144 185 239 286 327
#     4  11  20  34  57  86 111 139 186 232 288 329
#     4  11  19  33  53  86 115 140 179 238 288 329
#     4  10  20  34  54  86 112 142 191 238 286 324
#     4  11  18  34  57  83 113 143 186 231 286 328
#
# _framework density 18.650068999999998
#
# number of rings (size 3 to 8) (size 9 to 14) (size 15 to 20)
#    0.000    1.500    7.500    1.125    0.000    0.750 
#    0.000    0.000    0.000    1.500    0.000    0.000 
#    0.000    0.000    0.000    0.000    0.000    0.000 
#
# Total GULP energy -396471.437220 kJ/mol
# GULP energy per Si atom -12389.732413 kJ/mol
# Density = 1.860762 g / cm^3
# Si number density = 18.650069 Si / 1000 Ang^3
#
#
#
# Elastic Constant Matrix: (Units=GPa)
#
#
# Indices 1 2 3 4 5 6 
#
# 1 63.7113 17.0295 26.4858 -0.0018 14.8964 -0.0145
# 2 17.0295 94.3535 41.6836 0.0066 8.3784 -0.0001
# 3 26.4858 41.6836 119.1480 -0.0015 7.0798 -0.0258
# 4 -0.0018 0.0066 -0.0015 26.2637 0.0057 43.0788
# 5 14.8964 8.3784 7.0798 0.0057 26.1394 0.0282
# 6 -0.0145 -0.0001 -0.0258 43.0788 0.0282 93.3466
#
#
#
# Elastic Compliance Matrix: (Units=1/GPa)
#
#
# Indices 1 2 3 4 5 6 
#
# 1 0.019747 -0.001185 -0.003383 -0.000020 -0.009957 0.000014
# 2 -0.001185 0.012824 -0.004084 -0.000008 -0.002329 0.000003
# 3 -0.003383 -0.004084 0.010551 -0.000010 0.000379 0.000007
# 4 -0.000020 -0.000008 -0.000010 0.156663 0.000060 -0.072299
# 5 -0.009957 -0.002329 0.000379 0.000060 0.044575 -0.000043
# 6 0.000014 0.000003 0.000007 -0.072299 -0.000043 0.044078
#
#
# Mechanical properties :
#
#
# Convention : Reuss Voigt Hill
#
# Bulk Modulus (GPa) = 38.73539 49.73452 44.23496
# Shear Modulus (GPa) = 15.90584 41.95086 28.92835
#
# Velocity S-wave (km/s) = 2.92354 4.74790 3.94269
# Velocity P-wave (km/s) = 5.67545 7.53537 6.67055
#
# Compressibility (1/GPa) = 0.02581618
#
# Stress axis : x y z
#
# Youngs Moduli (GPa) = 50.63993 77.98140 94.77401
#
# Poissons Ratio (x) = 0.09242 0.32066
# Poissons Ratio (y) = 0.06002 0.38710
# Poissons Ratio (z) = 0.17133 0.31851
#
# Static dielectric constant tensor:
#      x y z
#    x 3.483520 0.000000 0.100720 
#    y 0.000000 3.619060 0.000000 
#    z 0.100720 0.000000 3.635260 
# 
# 
# High freq. dielectric constant tensor:
#      x y z
#    x 1.709640 0.000000 0.002190 
#    y 0.000000 1.688060 0.000000 
#    z 0.002190 0.000000 1.741980 
# 
# From -- ./inp_files/294137.got.cif
#   From: 2010.06.25/outbox.cif.g09.slc.cpg/sg12_148_cif.got.tgz:294137.got - 2010.06.28 00:19:55.
