data_PCOD8095072
_publ_section_title
;
Structure prediction by ZEFSAII (Michael W. Deem and Ramdas Pophale) SiO2 
 PCOD8095072
Probable space group: C 2/M
;
_chemical_formula_sum "Si O2"
_cell_formula_units_Z 48
_cell_length_a 24.136302
_cell_length_b 7.630207
_cell_length_c 24.369737
_cell_angle_alpha 90.000000
_cell_angle_beta 30.726779
_cell_angle_gamma 90.000000
_cell_volume 2293.146639
_symmetry_space_group_name_H-M "C 2/M"
_symmetry_group_IT_number 12
_symmetry_cell_setting 'monoclinic'
loop_
_space_group_symop_operation_xyz
x,y,z
-x,y,-z
-x,-y,-z
x,-y,z
1/2+x,1/2+y,z
1/2-x,1/2+y,-z
1/2-x,1/2-y,-z
1/2+x,1/2-y,z
loop_
_atom_site_type_symbol
_atom_site_label
_atom_site_fract_x
_atom_site_fract_y
_atom_site_fract_z
Si Si1 0.162440 0.500000 0.400056
Si Si2 0.579833 0.000000 0.351165
Si Si3 0.180691 0.697083 0.699698
Si Si4 0.002828 0.293815 0.226258
Si Si5 0.482508 0.697562 0.074471
Si Si6 0.609825 0.698200 0.238886
Si Si7 0.339819 0.795061 0.000271
O O1 0.159826 0.500000 0.335755
O O2 0.219905 0.326692 0.374659
O O3 0.042787 0.500000 0.525198
O O4 0.600024 0.825211 0.298913
O O5 0.225355 0.500000 0.651378
O O6 0.108262 0.764858 0.709651
O O7 0.103039 0.687999 0.818793
O O8 0.002930 0.500000 0.232908
O O9 0.009029 0.211698 0.282058
O O10 0.108464 0.230784 0.101417
O O11 0.435979 0.500000 0.109503
O O12 0.500000 0.782399 0.000000
O O13 0.599551 0.693553 0.002968
O O14 0.618249 0.500000 0.254535
O O15 0.713798 0.752523 0.113503
O O16 0.362361 0.000000 0.988408
#
# Coordination Sequence:
#
# PCOD8095072 Si02
#       7
#     4   4   8   8   8   8   8
#     4  11  26  50  70  89 120 165 219 269 346 374
#     4  11  28  48  67  92 125 160 214 287 316 386
#     4  10  22  40  67  95 124 167 209 263 318 380
#     4   9  18  37  62  94 137 167 206 253 305 376
#     4  10  20  31  52  88 128 167 210 250 303 375
#     4  11  23  39  65  94 130 171 212 257 318 378
#     4   9  20  33  51  89 129 172 208 244 301 373
#
# _framework density 20.931934999999999
#
# number of rings (size 3 to 8) (size 9 to 14) (size 15 to 20)
#    0.000    2.000    1.667    2.000    4.667    3.333 
#    0.000    2.500    0.000    0.000    0.000    0.000 
#    0.000    0.000    0.000    0.000    0.000    0.000 
#
# Total GULP energy -297538.623189 kJ/mol
# GULP energy per Si atom -12397.442633 kJ/mol
# Density = 2.088429 g / cm^3
# Si number density = 20.931935 Si / 1000 Ang^3
#
#
#
# Elastic Constant Matrix: (Units=GPa)
#
#
# Indices 1 2 3 4 5 6 
#
# 1 103.4674 49.5311 38.1098 0.0010 -0.8713 0.0168
# 2 49.5311 94.9760 33.1254 0.0005 -3.2214 0.0451
# 3 38.1098 33.1254 48.9914 0.0074 -9.0765 0.0057
# 4 0.0010 0.0005 0.0074 20.1282 -0.0058 -4.3805
# 5 -0.8713 -3.2214 -9.0765 -0.0058 26.6477 -0.0143
# 6 0.0168 0.0451 0.0057 -4.3805 -0.0143 26.2017
#
#
#
# Elastic Compliance Matrix: (Units=1/GPa)
#
#
# Indices 1 2 3 4 5 6 
#
# 1 0.015399 -0.004912 -0.009259 0.000002 -0.003244 -0.000001
# 2 -0.004912 0.015410 -0.006706 -0.000003 -0.000582 -0.000023
# 3 -0.009259 -0.006706 0.034094 -0.000006 0.010499 0.000015
# 4 0.000002 -0.000003 -0.000006 0.051557 0.000014 0.008620
# 5 -0.003244 -0.000582 0.010499 0.000014 0.040926 0.000025
# 6 -0.000001 -0.000023 0.000015 0.008620 0.000025 0.039607
#
#
# Mechanical properties :
#
#
# Convention : Reuss Voigt Hill
#
# Bulk Modulus (GPa) = 43.19849 54.32972 48.76411
# Shear Modulus (GPa) = 20.28704 23.04008 21.66356
#
# Velocity S-wave (km/s) = 3.11656 3.32130 3.22056
# Velocity P-wave (km/s) = 5.79940 6.38121 6.09725
#
# Compressibility (1/GPa) = 0.02314896
#
# Stress axis : x y z
#
# Youngs Moduli (GPa) = 64.93914 64.89404 29.33095
#
# Poissons Ratio (x) = 0.31873 0.27157
# Poissons Ratio (y) = 0.31895 0.19671
# Poissons Ratio (z) = 0.60125 0.43521
#
# Static dielectric constant tensor:
#      x y z
#    x 4.009340 -0.000050 -0.003820 
#    y -0.000050 3.668760 0.000030 
#    z -0.003820 0.000030 3.495620 
# 
# 
# High freq. dielectric constant tensor:
#      x y z
#    x 1.829820 -0.000010 -0.003450 
#    y -0.000010 1.820790 0.000000 
#    z -0.003450 0.000000 1.783550 
# 
# From -- ./inp_files/348786.got.cif
#   From: 2010.06.25/outbox.cif.g09.slc.cpg/sg12_175_cif.got.tgz:348786.got - 2010.06.28 00:19:55.
