data_PCOD8095404
_publ_section_title
;
Structure prediction by ZEFSAII (Michael W. Deem and Ramdas Pophale) SiO2 
 PCOD8095404
Probable space group: C 2/M
;
_chemical_formula_sum "Si O2"
_cell_formula_units_Z 64
_cell_length_a 18.863247
_cell_length_b 9.490361
_cell_length_c 20.825431
_cell_angle_alpha 90.000000
_cell_angle_beta 108.848495
_cell_angle_gamma 90.000000
_cell_volume 3528.230682
_symmetry_space_group_name_H-M "C 2/M"
_symmetry_group_IT_number 12
_symmetry_cell_setting 'monoclinic'
loop_
_space_group_symop_operation_xyz
x,y,z
-x,y,-z
-x,-y,-z
x,-y,z
1/2+x,1/2+y,z
1/2-x,1/2+y,-z
1/2-x,1/2-y,-z
1/2+x,1/2-y,z
loop_
_atom_site_type_symbol
_atom_site_label
_atom_site_fract_x
_atom_site_fract_y
_atom_site_fract_z
Si Si1 0.149141 0.165713 0.199011
Si Si2 0.800496 0.339929 0.469307
Si Si3 0.560072 0.832167 0.698769
Si Si4 0.296706 0.337074 0.926360
Si Si5 0.210069 0.666938 0.678730
Si Si6 0.998618 0.666298 0.182499
Si Si7 0.642116 0.162951 0.943970
Si Si8 0.467904 0.160603 0.554249
O O1 0.184787 0.203971 0.140892
O O2 0.209810 0.214755 0.269951
O O3 0.074029 0.252686 0.187317
O O4 0.131512 0.000000 0.199392
O O5 0.771238 0.500000 0.458637
O O6 0.750000 0.250000 0.500000
O O7 0.800506 0.276737 0.397136
O O8 0.879591 0.330194 0.527392
O O9 0.642602 0.774740 0.703729
O O10 0.533850 0.774251 0.759885
O O11 0.501059 0.771997 0.628887
O O12 0.560594 0.000000 0.702804
O O13 0.312867 0.500000 0.944265
O O14 0.209727 0.300031 0.914684
O O15 0.351256 0.250646 0.988865
O O16 0.203875 0.500000 0.676888
O O17 0.015657 0.500000 0.190662
O O18 0.936751 0.701812 0.110991
O O19 0.645264 0.000000 0.963860
O O20 0.500000 0.237745 0.500000
O O21 0.497682 0.000000 0.561950
#
# Coordination Sequence:
#
# PCOD8095404 Si02
#       8
#     8   8   8   8   8   8   8   8
#     4  10  21  35  51  73 104 137 168 202 245 302
#     4  10  20  32  50  76 104 133 165 205 254 303
#     4   9  16  29  51  74  97 127 168 214 249 285
#     4   9  18  34  56  78  99 131 171 206 243 294
#     4   9  17  32  52  73  98 133 172 208 248 294
#     4  10  21  34  51  77 104 132 165 207 255 296
#     4   9  18  34  55  78 102 128 166 210 250 291
#     4   9  15  27  48  76 100 122 165 216 250 283
#
# _framework density 18.139403999999999
#
# number of rings (size 3 to 8) (size 9 to 14) (size 15 to 20)
#    0.000    2.625    1.250    0.750    1.750    4.500 
#    0.000    2.500    0.000    3.375    0.000    0.000 
#    0.000    0.000    0.000    0.000    0.000    0.000 
#
# Total GULP energy -396701.606439 kJ/mol
# GULP energy per Si atom -12396.925201 kJ/mol
# Density = 1.809812 g / cm^3
# Si number density = 18.139404 Si / 1000 Ang^3
#
#
#
# Elastic Constant Matrix: (Units=GPa)
#
#
# Indices 1 2 3 4 5 6 
#
# 1 115.2655 37.8974 56.7686 0.0000 9.5067 0.0000
# 2 37.8974 31.6448 31.8380 0.0000 1.4573 0.0000
# 3 56.7686 31.8380 104.5105 0.0000 12.0109 0.0000
# 4 0.0000 0.0000 0.0000 19.2318 0.0000 -3.1211
# 5 9.5067 1.4573 12.0109 0.0000 33.6831 0.0000
# 6 0.0000 0.0000 0.0000 -3.1211 0.0000 28.6544
#
#
#
# Elastic Compliance Matrix: (Units=1/GPa)
#
#
# Indices 1 2 3 4 5 6 
#
# 1 0.015554 -0.014848 -0.003644 0.000000 -0.002448 0.000000
# 2 -0.014848 0.060055 -0.010858 0.000000 0.005464 0.000000
# 3 -0.003644 -0.010858 0.015311 0.000000 -0.003961 0.000000
# 4 0.000000 0.000000 0.000000 0.052933 0.000000 0.005766
# 5 -0.002448 0.005464 -0.003961 0.000000 0.031556 0.000000
# 6 0.000000 0.000000 0.000000 0.005766 0.000000 0.035527
#
#
# Mechanical properties :
#
#
# Convention : Reuss Voigt Hill
#
# Bulk Modulus (GPa) = 31.03669 56.04765 43.54217
# Shear Modulus (GPa) = 17.83319 24.64163 21.23741
#
# Velocity S-wave (km/s) = 3.13887 3.68973 3.42539
# Velocity P-wave (km/s) = 5.50309 7.00839 6.30085
#
# Compressibility (1/GPa) = 0.03221993
#
# Stress axis : x y z
#
# Youngs Moduli (GPa) = 64.29160 16.65127 65.31354
#
# Poissons Ratio (x) = 0.24724 0.23800
# Poissons Ratio (y) = 0.95463 0.70916
# Poissons Ratio (z) = 0.23428 0.18080
#
# Static dielectric constant tensor:
#      x y z
#    x 3.267630 0.000000 -0.075520 
#    y 0.000000 2.927310 0.000000 
#    z -0.075520 0.000000 3.466130 
# 
# 
# High freq. dielectric constant tensor:
#      x y z
#    x 1.709570 0.000000 0.003770 
#    y 0.000000 1.649850 0.000000 
#    z 0.003770 0.000000 1.719120 
# 
# From -- ./inp_files/269283.got.cif
#   From: 2010.06.25/outbox.cif.g09.slc.cpg/sg12_135_cif.got.tgz:269283.got - 2010.06.28 00:19:55.
