data_PCOD8095222
_publ_section_title
;
Structure prediction by ZEFSAII (Michael W. Deem and Ramdas Pophale) SiO2 
 PCOD8095222
Probable space group: C 2/M
;
_chemical_formula_sum "Si O2"
_cell_formula_units_Z 56
_cell_length_a 25.333453
_cell_length_b 9.316422
_cell_length_c 13.490059
_cell_angle_alpha 90.000000
_cell_angle_beta 105.794240
_cell_angle_gamma 90.000000
_cell_volume 3063.678696
_symmetry_space_group_name_H-M "C 2/M"
_symmetry_group_IT_number 12
_symmetry_cell_setting 'monoclinic'
loop_
_space_group_symop_operation_xyz
x,y,z
-x,y,-z
-x,-y,-z
x,-y,z
1/2+x,1/2+y,z
1/2-x,1/2+y,-z
1/2-x,1/2-y,-z
1/2+x,1/2-y,z
loop_
_atom_site_type_symbol
_atom_site_label
_atom_site_fract_x
_atom_site_fract_y
_atom_site_fract_z
Si Si1 0.372311 0.835691 0.763306
Si Si2 0.602417 0.664006 0.515387
Si Si3 0.962889 0.833541 0.710684
Si Si4 0.206969 0.333158 0.105536
Si Si5 0.194063 0.665683 0.470034
Si Si6 0.415767 0.664850 0.269189
Si Si7 0.814234 0.332645 0.132392
O O1 0.428687 0.749198 0.777433
O O2 0.340483 0.779768 0.844338
O O3 0.332301 0.812607 0.650666
O O4 0.389407 0.000000 0.785038
O O5 0.621846 0.500000 0.509779
O O6 0.557639 0.707639 0.410085
O O7 0.654998 0.766927 0.533811
O O8 0.575965 0.685840 0.609218
O O9 0.026760 0.792074 0.752458
O O10 0.953974 0.000000 0.726500
O O11 0.220853 0.500000 0.130797
O O12 0.262118 0.244351 0.155743
O O13 0.185245 0.303705 0.984487
O O14 0.204260 0.500000 0.500874
O O15 0.250000 0.750000 0.500000
O O16 0.400116 0.500000 0.237158
O O17 0.369674 0.769091 0.204507
O O18 0.810980 0.500000 0.156055
#
# Coordination Sequence:
#
# PCOD8095222 Si02
#       7
#     8   8   8   8   8   8   8
#     4   9  19  35  55  74  98 137 173 206 258 312
#     4   9  18  33  52  73 101 139 177 210 250 301
#     4   9  18  34  54  78 104 135 176 216 251 300
#     4   9  19  38  58  75 102 137 172 211 262 316
#     4  10  20  32  47  73 106 135 169 210 253 306
#     4  10  20  34  54  77 106 140 173 211 260 310
#     4  10  21  35  54  81 105 130 171 220 261 305
#
# _framework density 18.278679
#
# number of rings (size 3 to 8) (size 9 to 14) (size 15 to 20)
#    0.000    2.571    0.000    1.286    2.000    4.571 
#    0.000    0.714    0.000    8.571    0.000    0.000 
#    0.000    0.000    0.000    0.000    0.000    0.000 
#
# Total GULP energy -347252.417872 kJ/mol
# GULP energy per Si atom -12401.872067 kJ/mol
# Density = 1.823708 g / cm^3
# Si number density = 18.278679 Si / 1000 Ang^3
#
#
#
# Elastic Constant Matrix: (Units=GPa)
#
#
# Indices 1 2 3 4 5 6 
#
# 1 148.1635 67.6802 51.1447 0.0000 -8.6301 0.0000
# 2 67.6802 84.9519 33.6968 0.0000 1.1096 0.0000
# 3 51.1447 33.6968 49.3019 0.0000 -3.1566 0.0000
# 4 0.0000 0.0000 0.0000 26.4278 0.0000 0.3563
# 5 -8.6301 1.1096 -3.1566 0.0000 30.1443 0.0000
# 6 0.0000 0.0000 0.0000 0.3563 0.0000 35.3622
#
#
#
# Elastic Compliance Matrix: (Units=1/GPa)
#
#
# Indices 1 2 3 4 5 6 
#
# 1 0.013136 -0.007107 -0.008569 0.000000 0.003125 0.000000
# 2 -0.007107 0.020088 -0.006579 0.000000 -0.003463 0.000000
# 3 -0.008569 -0.006579 0.033754 0.000000 0.001323 0.000000
# 4 0.000000 0.000000 0.000000 0.037844 0.000000 -0.000381
# 5 0.003125 -0.003463 0.001323 0.000000 0.034334 0.000000
# 6 0.000000 0.000000 0.000000 -0.000381 0.000000 0.028283
#
#
# Mechanical properties :
#
#
# Convention : Reuss Voigt Hill
#
# Bulk Modulus (GPa) = 44.50838 65.27341 54.89089
# Shear Modulus (GPa) = 22.78540 27.04657 24.91599
#
# Velocity S-wave (km/s) = 3.53449 3.85083 3.69605
# Velocity P-wave (km/s) = 6.40778 7.45383 6.95051
#
# Compressibility (1/GPa) = 0.02246768
#
# Stress axis : x y z
#
# Youngs Moduli (GPa) = 76.12851 49.78059 29.62597
#
# Poissons Ratio (x) = 0.35378 0.25387
# Poissons Ratio (y) = 0.54103 0.19491
# Poissons Ratio (z) = 0.65236 0.32751
#
# Static dielectric constant tensor:
#      x y z
#    x 3.534090 0.000000 -0.134600 
#    y 0.000000 3.485180 0.000000 
#    z -0.134600 0.000000 3.260710 
# 
# 
# High freq. dielectric constant tensor:
#      x y z
#    x 1.715470 0.000000 -0.005010 
#    y 0.000000 1.708090 0.000000 
#    z -0.005010 0.000000 1.691120 
# 
# From -- ./inp_files/237811.got.cif
#   From: 2010.06.25/outbox.cif.g09.slc.cpg/sg12_119_cif.got.tgz:237811.got - 2010.06.28 00:19:55.
