data_PCOD8095413
_publ_section_title
;
Structure prediction by ZEFSAII (Michael W. Deem and Ramdas Pophale) SiO2 
 PCOD8095413
Probable space group: C 2/M
;
_chemical_formula_sum "Si O2"
_cell_formula_units_Z 40
_cell_length_a 18.757185
_cell_length_b 13.235063
_cell_length_c 17.136961
_cell_angle_alpha 90.000000
_cell_angle_beta 34.128218
_cell_angle_gamma 90.000000
_cell_volume 2386.857707
_symmetry_space_group_name_H-M "C 2/M"
_symmetry_group_IT_number 12
_symmetry_cell_setting 'monoclinic'
loop_
_space_group_symop_operation_xyz
x,y,z
-x,y,-z
-x,-y,-z
x,-y,z
1/2+x,1/2+y,z
1/2-x,1/2+y,-z
1/2-x,1/2-y,-z
1/2+x,1/2-y,z
loop_
_atom_site_type_symbol
_atom_site_label
_atom_site_fract_x
_atom_site_fract_y
_atom_site_fract_z
Si Si1 0.051432 0.280434 0.161881
Si Si2 0.202904 0.882374 0.114526
Si Si3 0.859032 0.882629 0.653173
Si Si4 0.651417 0.882117 0.563238
Si Si5 0.714157 0.225784 0.653240
O O1 0.117138 0.177784 0.130698
O O2 0.991939 0.342497 0.289263
O O3 0.937480 0.251414 0.205231
O O4 0.150087 0.352407 0.027992
O O5 0.158427 0.853761 0.241274
O O6 0.184479 0.000000 0.113608
O O7 0.757683 0.819613 0.695487
O O8 0.000000 0.851980 0.500000
O O9 0.832009 0.000000 0.662580
O O10 0.739911 0.853920 0.558481
O O11 0.707860 0.828062 0.435365
O O12 0.651645 0.000000 0.546660
#
# Coordination Sequence:
#
# PCOD8095413 Si02
#       5
#     8   8   8   8   8
#     4   9  19  34  49  76 104 135 174 207 249 302
#     4  10  20  33  53  77 104 137 169 211 262 301
#     4  10  20  32  50  77 106 131 164 216 265 303
#     4   9  17  31  52  74  98 132 173 210 246 295
#     4   9  19  32  50  76 102 137 165 211 251 300
#
# _framework density 16.758434999999999
#
# number of rings (size 3 to 8) (size 9 to 14) (size 15 to 20)
#    1.200    1.400    0.000    2.400    0.000    1.600 
#    0.000    2.000    0.000   10.200    0.000    7.000 
#    0.000    0.000    0.000    0.000    0.000    0.000 
#
# Total GULP energy -247907.476403 kJ/mol
# GULP energy per Si atom -12395.373820 kJ/mol
# Density = 1.672029 g / cm^3
# Si number density = 16.758435 Si / 1000 Ang^3
#
#
#
# Elastic Constant Matrix: (Units=GPa)
#
#
# Indices 1 2 3 4 5 6 
#
# 1 73.7698 31.1713 36.9995 0.0000 -8.1874 0.0000
# 2 31.1713 95.9320 42.2721 0.0000 -3.3461 0.0000
# 3 36.9995 42.2721 96.2312 0.0000 -19.4891 0.0000
# 4 0.0000 0.0000 0.0000 26.7353 0.0000 4.4684
# 5 -8.1874 -3.3461 -19.4891 0.0000 20.8343 0.0000
# 6 0.0000 0.0000 0.0000 4.4684 0.0000 23.3164
#
#
#
# Elastic Compliance Matrix: (Units=1/GPa)
#
#
# Indices 1 2 3 4 5 6 
#
# 1 0.017701 -0.003536 -0.004884 0.000000 0.001820 0.000000
# 2 -0.003536 0.013907 -0.005649 0.000000 -0.004440 0.000000
# 3 -0.004884 -0.005649 0.017492 0.000000 0.013536 0.000000
# 4 0.000000 0.000000 0.000000 0.038641 0.000000 -0.007405
# 5 0.001820 -0.004440 0.013536 0.000000 0.060662 0.000000
# 6 0.000000 0.000000 0.000000 -0.007405 0.000000 0.044307
#
#
# Mechanical properties :
#
#
# Convention : Reuss Voigt Hill
#
# Bulk Modulus (GPa) = 47.70304 54.09100 50.89702
# Shear Modulus (GPa) = 21.94544 24.54320 23.24432
#
# Velocity S-wave (km/s) = 3.62265 3.83107 3.72831
# Velocity P-wave (km/s) = 6.78417 7.20530 6.99791
#
# Compressibility (1/GPa) = 0.02096303
#
# Stress axis : x y z
#
# Youngs Moduli (GPa) = 56.49249 71.90469 57.16797
#
# Poissons Ratio (x) = 0.25426 0.27922
# Poissons Ratio (y) = 0.19976 0.32293
# Poissons Ratio (z) = 0.27592 0.40617
#
# Static dielectric constant tensor:
#      x y z
#    x 2.824200 0.000000 -0.113620 
#    y 0.000000 2.954190 0.000000 
#    z -0.113620 0.000000 3.222060 
# 
# 
# High freq. dielectric constant tensor:
#      x y z
#    x 1.620160 0.000000 -0.012550 
#    y 0.000000 1.637510 0.000000 
#    z -0.012550 0.000000 1.650280 
# 
# From -- ./inp_files/277287.got.cif
#   From: 2010.06.25/outbox.cif.g09.slc.cpg/sg12_139_cif.got.tgz:277287.got - 2010.06.28 00:19:55.
