data_PCOD8095813
_publ_section_title
;
Structure prediction by ZEFSAII (Michael W. Deem and Ramdas Pophale) SiO2 
 PCOD8095813
Probable space group: C 2/M
;
_chemical_formula_sum "Si O2"
_cell_formula_units_Z 64
_cell_length_a 19.541201
_cell_length_b 19.207910
_cell_length_c 21.299960
_cell_angle_alpha 90.000000
_cell_angle_beta 27.453854
_cell_angle_gamma 90.000000
_cell_volume 3685.896772
_symmetry_space_group_name_H-M "C 2/M"
_symmetry_group_IT_number 12
_symmetry_cell_setting 'monoclinic'
loop_
_space_group_symop_operation_xyz
x,y,z
-x,y,-z
-x,-y,-z
x,-y,z
1/2+x,1/2+y,z
1/2-x,1/2+y,-z
1/2-x,1/2-y,-z
1/2+x,1/2-y,z
loop_
_atom_site_type_symbol
_atom_site_label
_atom_site_fract_x
_atom_site_fract_y
_atom_site_fract_z
Si Si1 0.969257 0.337927 0.954666
Si Si2 0.548240 0.385881 0.023050
Si Si3 0.300520 0.683858 0.381745
Si Si4 0.694749 0.726702 0.756426
Si Si5 0.721633 0.224166 0.178954
Si Si6 0.888901 0.581696 0.902167
Si Si7 0.447028 0.576342 0.844682
Si Si8 0.949770 0.686849 0.321428
O O1 0.937287 0.401951 0.934061
O O2 0.118383 0.301491 0.806563
O O3 0.830188 0.285190 0.067035
O O4 0.000000 0.366339 0.000000
O O5 0.438132 0.320557 0.110306
O O6 0.531401 0.432561 0.098057
O O7 0.500000 0.430063 0.000000
O O8 0.713355 0.353223 0.886861
O O9 0.237412 0.693282 0.362115
O O10 0.433588 0.629073 0.280069
O O11 0.168112 0.655535 0.532896
O O12 0.363017 0.759094 0.348737
O O13 0.812677 0.732118 0.717948
O O14 0.571773 0.229804 0.261255
O O15 0.911066 0.500000 0.870208
O O16 0.984505 0.624967 0.774004
O O17 0.717310 0.604373 0.035719
O O18 0.471158 0.500000 0.794863
#
# Coordination Sequence:
#
# PCOD8095813 Si02
#       8
#     8   8   8   8   8   8   8   8
#     4   9  17  31  53  78 106 132 164 213 266 313
#     4   8  14  26  46  73  97 125 162 198 243 294
#     4  10  21  34  51  74 102 135 175 209 258 310
#     4   8  15  29  49  75 102 129 165 207 253 306
#     4   9  16  28  51  78 102 130 161 208 263 296
#     4  11  22  34  52  78 105 137 175 216 259 303
#     4  10  20  33  50  73 100 134 173 211 250 301
#     4  11  21  33  52  76 103 136 170 214 260 304
#
# _framework density 17.363481
#
# number of rings (size 3 to 8) (size 9 to 14) (size 15 to 20)
#    0.000    2.500    2.500    2.250    0.000    2.500 
#    0.000    0.000    0.000    0.000    0.000    3.500 
#    0.000    8.000    0.000    0.000    0.000    0.000 
#
# Total GULP energy -396540.922687 kJ/mol
# GULP energy per Si atom -12391.903834 kJ/mol
# Density = 1.732396 g / cm^3
# Si number density = 17.363481 Si / 1000 Ang^3
#
#
#
# Elastic Constant Matrix: (Units=GPa)
#
#
# Indices 1 2 3 4 5 6 
#
# 1 99.2208 19.5658 37.1640 -0.0037 9.8115 -0.0004
# 2 19.5658 55.7381 30.6777 -0.0163 8.3300 0.0079
# 3 37.1640 30.6777 86.1516 -0.0164 16.1231 0.0095
# 4 -0.0037 -0.0163 -0.0164 17.8092 0.0026 -1.1414
# 5 9.8115 8.3300 16.1231 0.0026 22.6520 -0.0011
# 6 -0.0004 0.0079 0.0095 -1.1414 -0.0011 12.5700
#
#
#
# Elastic Compliance Matrix: (Units=1/GPa)
#
#
# Indices 1 2 3 4 5 6 
#
# 1 0.012199 -0.001634 -0.004389 -0.000003 -0.001559 0.000004
# 2 -0.001634 0.022704 -0.006864 0.000014 -0.002756 -0.000008
# 3 -0.004389 -0.006864 0.017440 0.000009 -0.007988 -0.000009
# 4 -0.000003 0.000014 0.000009 0.056480 -0.000017 0.005129
# 5 -0.001559 -0.002756 -0.007988 -0.000017 0.051521 0.000011
# 6 0.000004 -0.000008 -0.000009 0.005129 0.000011 0.080020
#
#
# Mechanical properties :
#
#
# Convention : Reuss Voigt Hill
#
# Bulk Modulus (GPa) = 37.63692 46.21395 41.92543
# Shear Modulus (GPa) = 18.18225 20.85311 19.51768
#
# Velocity S-wave (km/s) = 3.23949 3.46927 3.35635
# Velocity P-wave (km/s) = 5.97623 6.53614 6.26245
#
# Compressibility (1/GPa) = 0.02656966
#
# Stress axis : x y z
#
# Youngs Moduli (GPa) = 81.97603 44.04423 57.33956
#
# Poissons Ratio (x) = 0.07195 0.25165
# Poissons Ratio (y) = 0.13391 0.39360
# Poissons Ratio (z) = 0.35977 0.30234
#
# Static dielectric constant tensor:
#      x y z
#    x 3.432710 -0.000010 0.067690 
#    y -0.000010 2.883310 0.000020 
#    z 0.067690 0.000020 3.036600 
# 
# 
# High freq. dielectric constant tensor:
#      x y z
#    x 1.688450 0.000000 0.006480 
#    y 0.000000 1.643090 0.000000 
#    z 0.006480 0.000000 1.644960 
# 
# From -- ./inp_files/317809.got.cif
#   From: 2010.06.25/outbox.cif.g09.slc.cpg/sg12_159_cif.got.tgz:317809.got - 2010.06.28 00:19:55.
