data_PCOD8095098
_publ_section_title
;
Structure prediction by ZEFSAII (Michael W. Deem and Ramdas Pophale) SiO2 
 PCOD8095098
Probable space group: C 2/M
;
_chemical_formula_sum "Si O2"
_cell_formula_units_Z 64
_cell_length_a 24.093755
_cell_length_b 23.534656
_cell_length_c 9.038278
_cell_angle_alpha 90.000000
_cell_angle_beta 132.671484
_cell_angle_gamma 90.000000
_cell_volume 3768.202800
_symmetry_space_group_name_H-M "C 2/M"
_symmetry_group_IT_number 12
_symmetry_cell_setting 'monoclinic'
loop_
_space_group_symop_operation_xyz
x,y,z
-x,y,-z
-x,-y,-z
x,-y,z
1/2+x,1/2+y,z
1/2-x,1/2+y,-z
1/2-x,1/2-y,-z
1/2+x,1/2-y,z
loop_
_atom_site_type_symbol
_atom_site_label
_atom_site_fract_x
_atom_site_fract_y
_atom_site_fract_z
Si Si1 0.370578 0.564745 0.429140
Si Si2 0.531892 0.748100 0.706909
Si Si3 0.627335 0.364565 0.865916
Si Si4 0.855870 0.288479 0.867978
Si Si5 0.381334 0.248347 0.601631
Si Si6 0.746889 0.320308 0.276992
Si Si7 0.222662 0.143328 0.547629
Si Si8 0.477085 0.435014 0.120068
O O1 0.350206 0.500000 0.354756
O O2 0.366724 0.600422 0.272684
O O3 0.310981 0.585913 0.444310
O O4 0.454432 0.569817 0.642699
O O5 0.500000 0.777035 0.500000
O O6 0.577637 0.691374 0.746978
O O7 0.460549 0.733094 0.677954
O O8 0.585339 0.792356 0.890370
O O9 0.591795 0.399323 0.938205
O O10 0.713870 0.349954 0.069801
O O11 0.898165 0.283256 0.787065
O O12 0.806259 0.232335 0.784070
O O13 0.801165 0.342989 0.774640
O O14 0.332332 0.203750 0.411791
O O15 0.336766 0.306685 0.535181
O O16 0.741063 0.363310 0.406519
O O17 0.450231 0.500000 0.053234
O O18 0.500000 0.410406 0.000000
#
# Coordination Sequence:
#
# PCOD8095098 Si02
#       8
#     8   8   8   8   8   8   8   8
#     4  11  22  33  46  65  91 123 159 196 229 263
#     4  11  20  27  41  67  95 122 151 177 215 273
#     4  11  20  31  44  64  93 125 154 185 228 265
#     4   8  17  30  46  67  90 118 149 188 228 271
#     4   9  16  30  48  67  92 118 150 187 226 271
#     4   8  17  30  48  68  87 117 153 188 225 274
#     4   9  16  32  50  65  88 119 154 189 231 269
#     4  10  20  32  45  61  83 116 160 201 228 255
#
# _framework density 16.984224000000001
#
# number of rings (size 3 to 8) (size 9 to 14) (size 15 to 20)
#    0.000    2.375    0.000    5.625    0.000    4.000 
#    0.000    4.375    0.000    0.000    0.000    0.000 
#    0.000   13.500    0.000    0.000    0.000    0.000 
#
# Total GULP energy -396621.267119 kJ/mol
# GULP energy per Si atom -12394.414597 kJ/mol
# Density = 1.694557 g / cm^3
# Si number density = 16.984224 Si / 1000 Ang^3
#
#
#
# Elastic Constant Matrix: (Units=GPa)
#
#
# Indices 1 2 3 4 5 6 
#
# 1 29.7526 11.4060 13.9123 0.0000 2.5009 0.0000
# 2 11.4060 44.4322 28.5684 0.0000 4.5540 0.0000
# 3 13.9123 28.5684 112.5826 0.0000 2.7952 0.0000
# 4 0.0000 0.0000 0.0000 20.9266 0.0000 -4.5107
# 5 2.5009 4.5540 2.7952 0.0000 20.0603 0.0000
# 6 0.0000 0.0000 0.0000 -4.5107 0.0000 23.1859
#
#
#
# Elastic Compliance Matrix: (Units=1/GPa)
#
#
# Indices 1 2 3 4 5 6 
#
# 1 0.038061 -0.007792 -0.002661 0.000000 -0.002605 0.000000
# 2 -0.007792 0.029035 -0.006287 0.000000 -0.004744 0.000000
# 3 -0.002661 -0.006287 0.010800 0.000000 0.000254 0.000000
# 4 0.000000 0.000000 0.000000 0.049878 0.000000 0.009704
# 5 -0.002605 -0.004744 0.000254 0.000000 0.051216 0.000000
# 6 0.000000 0.000000 0.000000 0.009704 0.000000 0.045017
#
#
# Mechanical properties :
#
#
# Convention : Reuss Voigt Hill
#
# Bulk Modulus (GPa) = 22.51484 32.72673 27.62078
# Shear Modulus (GPa) = 18.36247 21.69327 20.02787
#
# Velocity S-wave (km/s) = 3.29165 3.57775 3.43768
# Velocity P-wave (km/s) = 5.26609 6.03140 5.66169
#
# Compressibility (1/GPa) = 0.04441515
#
# Stress axis : x y z
#
# Youngs Moduli (GPa) = 26.27345 34.44100 92.58990
#
# Poissons Ratio (x) = 0.26838 0.24641
# Poissons Ratio (y) = 0.20473 0.58212
# Poissons Ratio (z) = 0.06992 0.21653
#
# Static dielectric constant tensor:
#      x y z
#    x 3.113680 0.000000 -0.000930 
#    y 0.000000 2.984510 0.000000 
#    z -0.000930 0.000000 3.620810 
# 
# 
# High freq. dielectric constant tensor:
#      x y z
#    x 1.641870 0.000000 -0.010780 
#    y 0.000000 1.608510 0.000000 
#    z -0.010780 0.000000 1.668050 
# 
# From -- ./inp_files/89193.got.cif
#   From: 2010.06.25/outbox.cif.g09.slc.cpg/sg12_45_cif.got.tgz:89193.got - 2010.06.28 00:19:55.
