data_PCOD8095859
_publ_section_title
;
Structure prediction by ZEFSAII (Michael W. Deem and Ramdas Pophale) SiO2 
 PCOD8095859
Probable space group: C 2/M
;
_chemical_formula_sum "Si O2"
_cell_formula_units_Z 48
_cell_length_a 18.335400
_cell_length_b 9.432542
_cell_length_c 20.513317
_cell_angle_alpha 90.000000
_cell_angle_beta 132.024410
_cell_angle_gamma 90.000000
_cell_volume 2635.492701
_symmetry_space_group_name_H-M "C 2/M"
_symmetry_group_IT_number 12
_symmetry_cell_setting 'monoclinic'
loop_
_space_group_symop_operation_xyz
x,y,z
-x,y,-z
-x,-y,-z
x,-y,z
1/2+x,1/2+y,z
1/2-x,1/2+y,-z
1/2-x,1/2-y,-z
1/2+x,1/2-y,z
loop_
_atom_site_type_symbol
_atom_site_label
_atom_site_fract_x
_atom_site_fract_y
_atom_site_fract_z
Si Si1 0.846335 0.666220 0.076298
Si Si2 0.601727 0.165770 0.401098
Si Si3 0.976148 0.665447 0.912041
Si Si4 0.387008 0.167509 0.246845
Si Si5 0.716493 0.665224 0.236622
Si Si6 0.756272 0.837717 0.599242
O O1 0.822646 0.500000 0.060208
O O2 0.879246 0.716434 0.167551
O O3 0.931328 0.706978 0.076739
O O4 0.750000 0.750000 0.000000
O O5 0.490163 0.222782 0.338033
O O6 0.655096 0.200746 0.501347
O O7 0.655415 0.241553 0.373334
O O8 0.603188 0.000000 0.385458
O O9 0.951047 0.500000 0.891499
O O10 0.884152 0.752067 0.831374
O O11 0.000000 0.709848 0.000000
O O12 0.296394 0.229675 0.234253
O O13 0.382954 0.000000 0.250684
O O14 0.695601 0.500000 0.210983
O O15 0.760493 0.690286 0.334750
O O16 0.785351 0.000000 0.602748
#
# Coordination Sequence:
#
# PCOD8095859 Si02
#       6
#     8   8   8   8   8   8
#     4  10  20  34  52  73  97 126 162 201 241 289
#     4   9  17  32  53  72  96 132 166 199 243 291
#     4  10  21  36  53  74 100 130 165 202 242 292
#     4   9  18  32  50  72  97 128 165 200 239 290
#     4  10  20  33  50  74 102 129 162 204 245 288
#     4   9  18  31  49  75 101 126 162 205 245 288
#
# _framework density 18.212914000000001
#
# number of rings (size 3 to 8) (size 9 to 14) (size 15 to 20)
#    0.000    2.500    0.000    2.000    0.000    3.667 
#    0.000    5.000    0.000    0.000    0.000    5.833 
#    0.000    0.000    0.000    0.000    0.000    0.000 
#
# Total GULP energy -297631.942229 kJ/mol
# GULP energy per Si atom -12401.330926 kJ/mol
# Density = 1.817146 g / cm^3
# Si number density = 18.212914 Si / 1000 Ang^3
#
#
#
# Elastic Constant Matrix: (Units=GPa)
#
#
# Indices 1 2 3 4 5 6 
#
# 1 159.0411 44.3952 85.6401 0.0000 3.2151 0.0000
# 2 44.3952 38.4873 42.3877 0.0000 6.5059 0.0000
# 3 85.6401 42.3877 130.1439 0.0000 9.4633 0.0000
# 4 0.0000 0.0000 0.0000 27.3758 0.0000 4.5341
# 5 3.2151 6.5059 9.4633 0.0000 38.3089 0.0000
# 6 0.0000 0.0000 0.0000 4.5341 0.0000 22.5327
#
#
#
# Elastic Compliance Matrix: (Units=1/GPa)
#
#
# Indices 1 2 3 4 5 6 
#
# 1 0.011002 -0.007574 -0.004887 0.000000 0.001570 0.000000
# 2 -0.007574 0.046247 -0.009729 0.000000 -0.004815 0.000000
# 3 -0.004887 -0.009729 0.014173 0.000000 -0.001439 0.000000
# 4 0.000000 0.000000 0.000000 0.037788 0.000000 -0.007604
# 5 0.001570 -0.004815 -0.001439 0.000000 0.027145 0.000000
# 6 0.000000 0.000000 0.000000 -0.007604 0.000000 0.045910
#
#
# Mechanical properties :
#
#
# Convention : Reuss Voigt Hill
#
# Bulk Modulus (GPa) = 36.97794 74.72425 55.85110
# Shear Modulus (GPa) = 21.21721 27.99346 24.60533
#
# Velocity S-wave (km/s) = 3.41685 3.92473 3.67956
# Velocity P-wave (km/s) = 5.99280 7.85208 6.98459
#
# Compressibility (1/GPa) = 0.02704315
#
# Stress axis : x y z
#
# Youngs Moduli (GPa) = 90.89619 21.62284 70.55707
#
# Poissons Ratio (x) = 0.16376 0.34481
# Poissons Ratio (y) = 0.68840 0.68644
# Poissons Ratio (z) = 0.44421 0.21037
#
# Static dielectric constant tensor:
#      x y z
#    x 3.577010 0.000000 -0.087530 
#    y 0.000000 3.171220 0.000000 
#    z -0.087530 0.000000 3.547070 
# 
# 
# High freq. dielectric constant tensor:
#      x y z
#    x 1.711740 0.000000 -0.001850 
#    y 0.000000 1.681590 0.000000 
#    z -0.001850 0.000000 1.719970 
# 
# From -- ./inp_files/153656.got.cif
#   From: 2010.06.25/outbox.cif.g09.slc.cpg/sg12_77_cif.got.tgz:153656.got - 2010.06.28 00:19:55.
