data_PCOD8095275
_publ_section_title
;
Structure prediction by ZEFSAII (Michael W. Deem and Ramdas Pophale) SiO2 
 PCOD8095275
Probable space group: C 2/M
;
_chemical_formula_sum "Si O2"
_cell_formula_units_Z 48
_cell_length_a 31.807409
_cell_length_b 17.958736
_cell_length_c 9.042988
_cell_angle_alpha 90.000000
_cell_angle_beta 31.470044
_cell_angle_gamma 90.000000
_cell_volume 2696.685910
_symmetry_space_group_name_H-M "C 2/M"
_symmetry_group_IT_number 12
_symmetry_cell_setting 'monoclinic'
loop_
_space_group_symop_operation_xyz
x,y,z
-x,y,-z
-x,-y,-z
x,-y,z
1/2+x,1/2+y,z
1/2-x,1/2+y,-z
1/2-x,1/2-y,-z
1/2+x,1/2-y,z
loop_
_atom_site_type_symbol
_atom_site_label
_atom_site_fract_x
_atom_site_fract_y
_atom_site_fract_z
Si Si1 0.327143 0.302132 0.931200
Si Si2 0.730353 0.913697 0.389430
Si Si3 0.082947 0.339040 0.325945
Si Si4 0.769648 0.413698 0.271547
Si Si5 0.417053 0.160960 0.323628
Si Si6 0.672857 0.697869 0.394057
O O1 0.399353 0.247795 0.767966
O O2 0.346045 0.335642 0.711865
O O3 0.309985 0.369128 0.096126
O O4 0.249999 0.250002 0.151481
O O5 0.713431 0.892541 0.609707
O O6 0.652364 0.893078 0.528178
O O7 0.750003 0.000000 0.310446
O O8 0.077865 0.350178 0.516404
O O9 0.000000 0.363599 0.500000
O O10 0.152363 0.393079 0.057638
O O11 0.749996 0.500000 0.310468
O O12 0.690017 0.369127 0.456032
O O13 0.399355 0.247796 0.335911
O O14 0.500000 0.136401 0.000000
#
# Coordination Sequence:
#
# PCOD8095275 Si02
#       6
#     8   8   8   8   8   8
#     4   8  16  31  49  69  92 121 159 197 234 278
#     4  10  20  32  48  72  99 127 159 194 234 280
#     4  10  20  33  50  72  97 126 159 195 237 283
#     4  10  20  32  48  72  99 127 159 194 234 280
#     4  10  20  33  50  72  97 126 159 195 237 283
#     4   8  16  31  49  69  92 121 159 197 234 278
#
# _framework density 17.799627000000001
#
# number of rings (size 3 to 8) (size 9 to 14) (size 15 to 20)
#    0.000    2.667    0.000    4.000    0.000   10.667 
#    0.000    0.000    0.000    1.000    0.000    0.000 
#    0.000    0.000    0.000    0.000    0.000    0.000 
#
# Total GULP energy -297492.876788 kJ/mol
# GULP energy per Si atom -12395.536533 kJ/mol
# Density = 1.775911 g / cm^3
# Si number density = 17.799627 Si / 1000 Ang^3
#
#
#
# Elastic Constant Matrix: (Units=GPa)
#
#
# Indices 1 2 3 4 5 6 
#
# 1 83.1710 38.3581 6.9063 0.0000 17.4572 0.0000
# 2 38.3581 80.4317 14.4060 0.0000 17.9548 0.0000
# 3 6.9063 14.4060 32.3860 0.0000 20.6124 0.0000
# 4 0.0000 0.0000 0.0000 21.4656 0.0000 5.0538
# 5 17.4572 17.9548 20.6124 0.0000 24.1232 0.0000
# 6 0.0000 0.0000 0.0000 5.0538 0.0000 28.2066
#
#
#
# Elastic Compliance Matrix: (Units=1/GPa)
#
#
# Indices 1 2 3 4 5 6 
#
# 1 0.017552 -0.006511 0.009104 0.000000 -0.015635 0.000000
# 2 -0.006511 0.017339 -0.002432 0.000000 -0.006115 0.000000
# 3 0.009104 -0.002432 0.072471 0.000000 -0.066702 0.000000
# 4 0.000000 0.000000 0.000000 0.048638 0.000000 -0.008714
# 5 -0.015635 -0.006115 -0.066702 0.000000 0.114315 0.000000
# 6 0.000000 0.000000 0.000000 -0.008714 0.000000 0.037014
#
#
# Mechanical properties :
#
#
# Convention : Reuss Voigt Hill
#
# Bulk Modulus (GPa) = 9.28638 35.03661 22.16150
# Shear Modulus (GPa) = 14.58145 23.84695 19.21420
#
# Velocity S-wave (km/s) = 2.86527 3.66422 3.28910
# Velocity P-wave (km/s) = 4.02180 6.13422 5.18669
#
# Compressibility (1/GPa) = 0.10768456
#
# Stress axis : x y z
#
# Youngs Moduli (GPa) = 56.97343 57.67427 13.79854
#
# Poissons Ratio (x) = 0.37552 -0.12563
# Poissons Ratio (y) = 0.37096 0.03356
# Poissons Ratio (z) = -0.51871 0.14028
#
# Static dielectric constant tensor:
#      x y z
#    x 3.407360 0.000000 0.066770 
#    y 0.000000 3.307240 0.000000 
#    z 0.066770 0.000000 3.318340 
# 
# 
# High freq. dielectric constant tensor:
#      x y z
#    x 1.691680 0.000000 0.017710 
#    y 0.000000 1.675390 0.000000 
#    z 0.017710 0.000000 1.668040 
# 
# From -- ./inp_files/87444.got.cif
#   From: 2010.06.25/outbox.cif.g09.slc.cpg/sg12_44_cif.got.tgz:87444.got - 2010.06.28 00:19:55.
