data_PCOD8095731
_publ_section_title
;
Structure prediction by ZEFSAII (Michael W. Deem and Ramdas Pophale) SiO2 
 PCOD8095731
Probable space group: C 2/M
;
_chemical_formula_sum "Si O2"
_cell_formula_units_Z 64
_cell_length_a 22.790169
_cell_length_b 9.002398
_cell_length_c 17.754026
_cell_angle_alpha 90.000000
_cell_angle_beta 94.888565
_cell_angle_gamma 90.000000
_cell_volume 3629.275220
_symmetry_space_group_name_H-M "C 2/M"
_symmetry_group_IT_number 12
_symmetry_cell_setting 'monoclinic'
loop_
_space_group_symop_operation_xyz
x,y,z
-x,y,-z
-x,-y,-z
x,-y,z
1/2+x,1/2+y,z
1/2-x,1/2+y,-z
1/2-x,1/2-y,-z
1/2+x,1/2-y,z
loop_
_atom_site_type_symbol
_atom_site_label
_atom_site_fract_x
_atom_site_fract_y
_atom_site_fract_z
Si Si1 0.295788 0.332372 0.751422
Si Si2 0.188737 0.673733 0.977298
Si Si3 0.507376 0.325555 0.085608
Si Si4 0.841703 0.672074 0.289288
Si Si5 0.796836 0.169412 0.587214
Si Si6 0.822686 0.169222 0.431691
Si Si7 0.387429 0.675121 0.153694
Si Si8 0.875175 0.328090 0.876570
O O1 0.304567 0.500000 0.781865
O O2 0.226617 0.295408 0.736250
O O3 0.326946 0.310965 0.672721
O O4 0.324666 0.222536 0.813893
O O5 0.199028 0.500000 0.965612
O O6 0.162930 0.743504 0.899041
O O7 0.250000 0.750000 0.000000
O O8 0.144681 0.706903 0.040813
O O9 0.517543 0.500000 0.084085
O O10 0.451023 0.280900 0.128493
O O11 0.563785 0.254947 0.132311
O O12 0.500000 0.262513 0.000000
O O13 0.857661 0.500000 0.283539
O O14 0.856719 0.725764 0.376198
O O15 0.883008 0.766210 0.238230
O O16 0.842729 0.191164 0.522049
O O17 0.746349 0.292420 0.575239
O O18 0.770442 0.000000 0.580923
O O19 0.831718 0.000000 0.406444
O O20 0.376590 0.500000 0.148767
O O21 0.885976 0.500000 0.864498
#
# Coordination Sequence:
#
# PCOD8095731 Si02
#       8
#     8   8   8   8   8   8   8   8
#     4   9  18  32  49  70 102 139 170 202 244 298
#     4  11  23  36  51  73 102 135 167 202 247 298
#     4  10  21  39  59  75  93 125 166 210 257 304
#     4  10  20  33  49  73 106 140 169 203 252 303
#     4   8  15  27  43  67  99 136 172 205 247 295
#     4   9  15  25  44  69  99 134 171 208 244 292
#     4  11  22  36  55  76  97 126 168 211 253 301
#     4  11  23  35  51  75 100 128 166 210 252 294
#
# _framework density 17.634374000000001
#
# number of rings (size 3 to 8) (size 9 to 14) (size 15 to 20)
#    0.000    2.125    1.250    3.375    0.000    7.750 
#    0.000    0.000    0.000    0.000    0.000    0.875 
#    0.000    7.000    0.000    0.000    0.000    0.000 
#
# Total GULP energy -396711.960279 kJ/mol
# GULP energy per Si atom -12397.248759 kJ/mol
# Density = 1.759424 g / cm^3
# Si number density = 17.634374 Si / 1000 Ang^3
#
#
#
# Elastic Constant Matrix: (Units=GPa)
#
#
# Indices 1 2 3 4 5 6 
#
# 1 54.3491 33.9701 12.4963 0.0000 -17.1463 0.0000
# 2 33.9701 65.9951 32.7022 0.0000 -13.7064 0.0000
# 3 12.4963 32.7022 91.5239 0.0000 -28.8409 0.0000
# 4 0.0000 0.0000 0.0000 30.9772 0.0000 -1.7181
# 5 -17.1463 -13.7064 -28.8409 0.0000 19.6232 0.0000
# 6 0.0000 0.0000 0.0000 -1.7181 0.0000 23.6304
#
#
#
# Elastic Compliance Matrix: (Units=1/GPa)
#
#
# Indices 1 2 3 4 5 6 
#
# 1 0.041477 -0.019674 0.015752 0.000000 0.045651 0.000000
# 2 -0.019674 0.028125 -0.012275 0.000000 -0.015587 0.000000
# 3 0.015752 -0.012275 0.027562 0.000000 0.045699 0.000000
# 4 0.000000 0.000000 0.000000 0.032413 0.000000 0.002357
# 5 0.045651 -0.015587 0.045699 0.000000 0.147127 0.000000
# 6 0.000000 0.000000 0.000000 0.002357 0.000000 0.042490
#
#
# Mechanical properties :
#
#
# Convention : Reuss Voigt Hill
#
# Bulk Modulus (GPa) = 15.43914 41.13392 28.28653
# Shear Modulus (GPa) = 13.39848 23.69280 18.54564
#
# Velocity S-wave (km/s) = 2.75943 3.66943 3.24647
# Velocity P-wave (km/s) = 4.35048 6.42881 5.48891
#
# Compressibility (1/GPa) = 0.06477045
#
# Stress axis : x y z
#
# Youngs Moduli (GPa) = 24.10973 35.55568 36.28212
#
# Poissons Ratio (x) = 0.69953 -0.57152
# Poissons Ratio (y) = 0.47434 0.44535
# Poissons Ratio (z) = -0.37978 0.43643
#
# Static dielectric constant tensor:
#      x y z
#    x 2.866670 0.000000 -0.227400 
#    y 0.000000 3.308390 0.000000 
#    z -0.227400 0.000000 3.672490 
# 
# 
# High freq. dielectric constant tensor:
#      x y z
#    x 1.630420 0.000000 -0.018720 
#    y 0.000000 1.692680 0.000000 
#    z -0.018720 0.000000 1.695070 
# 
# From -- ./inp_files/281225.got.cif
#   From: 2010.06.25/outbox.cif.g09.slc.cpg/sg12_141_cif.got.tgz:281225.got - 2010.06.28 00:19:55.
