data_PCOD8095229
_publ_section_title
;
Structure prediction by ZEFSAII (Michael W. Deem and Ramdas Pophale) SiO2 
 PCOD8095229
Probable space group: C 2/M
;
_chemical_formula_sum "Si O2"
_cell_formula_units_Z 32
_cell_length_a 25.798747
_cell_length_b 7.867325
_cell_length_c 8.436060
_cell_angle_alpha 90.000000
_cell_angle_beta 70.680013
_cell_angle_gamma 90.000000
_cell_volume 1615.818930
_symmetry_space_group_name_H-M "C 2/M"
_symmetry_group_IT_number 12
_symmetry_cell_setting 'monoclinic'
loop_
_space_group_symop_operation_xyz
x,y,z
-x,y,-z
-x,-y,-z
x,-y,z
1/2+x,1/2+y,z
1/2-x,1/2+y,-z
1/2-x,1/2-y,-z
1/2+x,1/2-y,z
loop_
_atom_site_type_symbol
_atom_site_label
_atom_site_fract_x
_atom_site_fract_y
_atom_site_fract_z
Si Si1 0.866312 0.190658 0.573032
Si Si2 0.438791 0.000000 0.123228
Si Si3 0.254325 0.804048 0.316303
Si Si4 0.367872 0.313941 0.193310
Si Si5 0.061107 0.500000 0.500356
O O1 0.805125 0.232189 0.704127
O O2 0.864153 0.199940 0.386011
O O3 0.908487 0.331076 0.597008
O O4 0.884505 0.000000 0.607912
O O5 0.408482 0.831545 0.086799
O O6 0.438744 0.000000 0.311672
O O7 0.500000 0.000000 0.000000
O O8 0.250000 0.750000 0.500000
O O9 0.305989 0.706577 0.184330
O O10 0.269753 0.000000 0.291953
O O11 0.390193 0.500000 0.119171
O O12 0.000000 0.500000 0.500000
#
# Coordination Sequence:
#
# PCOD8095229 Si02
#       5
#     8   4   8   8   4
#     4   8  16  26  40  65  95 120 146 186 235 276
#     4  10  20  34  48  66  96 128 157 190 226 274
#     4   9  14  21  37  64  95 121 142 181 241 287
#     4   9  16  26  42  66  94 121 149 188 236 279
#     4  10  20  32  48  68  92 126 161 188 222 270
#
# _framework density 19.804199000000001
#
# number of rings (size 3 to 8) (size 9 to 14) (size 15 to 20)
#    0.000    3.000    1.250    2.250    7.000    1.000 
#    0.000    0.000    0.000    0.000    0.000    1.750 
#    0.000    0.000    0.000    0.000    0.000    0.000 
#
# Total GULP energy -198211.049612 kJ/mol
# GULP energy per Si atom -12388.190601 kJ/mol
# Density = 1.975912 g / cm^3
# Si number density = 19.804199 Si / 1000 Ang^3
#
#
#
# Elastic Constant Matrix: (Units=GPa)
#
#
# Indices 1 2 3 4 5 6 
#
# 1 109.1410 85.3413 23.5756 0.0000 -47.2101 0.0000
# 2 85.3413 192.1395 32.9808 0.0000 -44.8998 0.0000
# 3 23.5756 32.9808 32.6555 0.0000 -30.0412 0.0000
# 4 0.0000 0.0000 0.0000 11.3262 0.0000 -13.4009
# 5 -47.2101 -44.8998 -30.0412 0.0000 37.9247 0.0000
# 6 0.0000 0.0000 0.0000 -13.4009 0.0000 29.8074
#
#
#
# Elastic Compliance Matrix: (Units=1/GPa)
#
#
# Indices 1 2 3 4 5 6 
#
# 1 0.041430 -0.007617 0.062411 0.000000 0.091992 0.000000
# 2 -0.007617 0.008635 -0.009363 0.000000 -0.006676 0.000000
# 3 0.062411 -0.009363 0.207514 0.000000 0.230984 0.000000
# 4 0.000000 0.000000 0.000000 0.188630 0.000000 0.084805
# 5 0.091992 -0.006676 0.230984 0.000000 0.315949 0.000000
# 6 0.000000 0.000000 0.000000 0.084805 0.000000 0.071675
#
#
# Mechanical properties :
#
#
# Convention : Reuss Voigt Hill
#
# Bulk Modulus (GPa) = 2.86994 68.63682 35.75338
# Shear Modulus (GPa) = 5.81991 28.61421 17.21706
#
# Velocity S-wave (km/s) = 1.71613 3.80525 2.95170
# Velocity P-wave (km/s) = 2.31929 7.35116 5.45063
#
# Compressibility (1/GPa) = 0.34843961
#
# Stress axis : x y z
#
# Youngs Moduli (GPa) = 24.13738 115.80805 4.81895
#
# Poissons Ratio (x) = 0.88214 -0.30076
# Poissons Ratio (y) = 0.18386 0.04512
# Poissons Ratio (z) = -1.50644 1.08435
#
# Static dielectric constant tensor:
#      x y z
#    x 3.676660 0.000000 -0.599350 
#    y 0.000000 4.098600 0.000000 
#    z -0.599350 0.000000 3.089460 
# 
# 
# High freq. dielectric constant tensor:
#      x y z
#    x 1.749250 0.000000 -0.046830 
#    y 0.000000 1.792810 0.000000 
#    z -0.046830 0.000000 1.706510 
# 
# From -- ./inp_files/92055.got.cif
#   From: 2010.06.25/outbox.cif.g09.slc.cpg/sg12_47_cif.got.tgz:92055.got - 2010.06.28 00:19:55.
