data_PCOD8095979
_publ_section_title
;
Structure prediction by ZEFSAII (Michael W. Deem and Ramdas Pophale) SiO2 
 PCOD8095979
Probable space group: C 2/M
;
_chemical_formula_sum "Si O2"
_cell_formula_units_Z 64
_cell_length_a 9.496634
_cell_length_b 24.842483
_cell_length_c 23.041670
_cell_angle_alpha 90.000000
_cell_angle_beta 44.456044
_cell_angle_gamma 90.000000
_cell_volume 3807.160161
_symmetry_space_group_name_H-M "C 2/M"
_symmetry_group_IT_number 12
_symmetry_cell_setting 'monoclinic'
loop_
_space_group_symop_operation_xyz
x,y,z
-x,y,-z
-x,-y,-z
x,-y,z
1/2+x,1/2+y,z
1/2-x,1/2+y,-z
1/2-x,1/2-y,-z
1/2+x,1/2-y,z
loop_
_atom_site_type_symbol
_atom_site_label
_atom_site_fract_x
_atom_site_fract_y
_atom_site_fract_z
Si Si1 0.396805 0.349469 0.677389
Si Si2 0.153386 0.198250 0.002488
Si Si3 0.925840 0.063082 0.458316
Si Si4 0.231764 0.157906 0.672723
Si Si5 0.338596 0.300577 0.181815
Si Si6 0.016672 0.689150 0.176519
Si Si7 0.016434 0.558895 0.427225
Si Si8 0.015946 0.755500 0.559373
O O1 0.461661 0.403206 0.624588
O O2 0.524386 0.338420 0.698081
O O3 0.416432 0.296718 0.632477
O O4 0.158666 0.354793 0.761599
O O5 0.328590 0.164352 0.917731
O O6 0.250000 0.250000 0.000000
O O7 0.000000 0.220485 0.000000
O O8 0.020846 0.169708 0.092102
O O9 0.696422 0.081869 0.530873
O O10 0.000000 0.077030 0.500000
O O11 0.948392 0.000000 0.435460
O O12 0.200965 0.164174 0.750146
O O13 0.306601 0.097380 0.644100
O O14 0.398032 0.198956 0.598810
O O15 0.137359 0.297158 0.200805
O O16 0.407278 0.241822 0.182853
O O17 0.060010 0.500000 0.387152
O O18 0.000000 0.553952 0.500000
O O19 0.250000 0.750000 0.500000
O O20 0.000000 0.779455 0.500000
#
# Coordination Sequence:
#
# PCOD8095979 Si02
#       8
#     8   8   8   8   8   8   8   8
#     4  12  23  35  51  75 104 136 172 212 256 301
#     4   8  16  32  50  70  97 133 170 203 249 299
#     4  10  22  39  57  76 100 132 176 223 262 299
#     4  12  23  35  50  76 105 132 174 215 252 301
#     4  10  20  33  51  74 104 136 169 211 250 305
#     4  10  20  33  51  74 103 137 170 208 252 307
#     4  10  20  38  59  73  95 135 178 219 260 298
#     4  12  24  35  46  65 101 141 169 199 245 304
#
# _framework density 16.81043
#
# number of rings (size 3 to 8) (size 9 to 14) (size 15 to 20)
#    0.000    1.500    3.750    2.250    3.500    1.000 
#    0.000    0.000    0.000    0.000    0.000    0.875 
#    0.000    5.000    0.000    0.000    0.000    0.000 
#
# Total GULP energy -396508.396753 kJ/mol
# GULP energy per Si atom -12390.887399 kJ/mol
# Density = 1.677217 g / cm^3
# Si number density = 16.810430 Si / 1000 Ang^3
#
#
#
# Elastic Constant Matrix: (Units=GPa)
#
#
# Indices 1 2 3 4 5 6 
#
# 1 130.6658 19.7503 53.7095 0.0000 -4.0921 0.0000
# 2 19.7503 56.7177 33.0369 0.0000 -5.8102 0.0000
# 3 53.7095 33.0369 114.2289 0.0000 -3.7614 0.0000
# 4 0.0000 0.0000 0.0000 15.1443 0.0000 -0.3212
# 5 -4.0921 -5.8102 -3.7614 0.0000 28.3349 0.0000
# 6 0.0000 0.0000 0.0000 -0.3212 0.0000 19.5695
#
#
#
# Elastic Compliance Matrix: (Units=1/GPa)
#
#
# Indices 1 2 3 4 5 6 
#
# 1 0.009532 -0.000787 -0.004233 0.000000 0.000653 0.000000
# 2 -0.000787 0.021629 -0.005769 0.000000 0.003556 0.000000
# 3 -0.004233 -0.005769 0.012408 0.000000 -0.000147 0.000000
# 4 0.000000 0.000000 0.000000 0.066054 0.000000 0.001084
# 5 0.000653 0.003556 -0.000147 0.000000 0.036096 0.000000
# 6 0.000000 0.000000 0.000000 0.001084 0.000000 0.051118
#
#
# Mechanical properties :
#
#
# Convention : Reuss Voigt Hill
#
# Bulk Modulus (GPa) = 45.46824 57.17841 51.32332
# Shear Modulus (GPa) = 22.14875 25.61747 23.88311
#
# Velocity S-wave (km/s) = 3.63376 3.90796 3.77335
# Velocity P-wave (km/s) = 6.68670 7.37905 7.04139
#
# Compressibility (1/GPa) = 0.02199338
#
# Stress axis : x y z
#
# Youngs Moduli (GPa) = 104.90479 46.23316 80.59192
#
# Poissons Ratio (x) = 0.03638 0.34115
# Poissons Ratio (y) = 0.08254 0.46490
# Poissons Ratio (z) = 0.44406 0.26670
#
# Static dielectric constant tensor:
#      x y z
#    x 3.411430 0.000000 -0.078640 
#    y 0.000000 3.017970 0.000000 
#    z -0.078640 0.000000 3.756860 
# 
# 
# High freq. dielectric constant tensor:
#      x y z
#    x 1.676490 0.000000 -0.000540 
#    y 0.000000 1.602080 0.000000 
#    z -0.000540 0.000000 1.651410 
# 
# From -- ./inp_files/302294.got.cif
#   From: 2010.06.25/outbox.cif.g09.slc.cpg/sg12_152_cif.got.tgz:302294.got - 2010.06.28 00:19:55.
