data_PCOD8095270
_publ_section_title
;
Structure prediction by ZEFSAII (Michael W. Deem and Ramdas Pophale) SiO2 
 PCOD8095270
Probable space group: C 2/M
;
_chemical_formula_sum "Si O2"
_cell_formula_units_Z 48
_cell_length_a 19.842133
_cell_length_b 9.258110
_cell_length_c 15.828156
_cell_angle_alpha 90.000000
_cell_angle_beta 72.272897
_cell_angle_gamma 90.000000
_cell_volume 2769.580570
_symmetry_space_group_name_H-M "C 2/M"
_symmetry_group_IT_number 12
_symmetry_cell_setting 'monoclinic'
loop_
_space_group_symop_operation_xyz
x,y,z
-x,y,-z
-x,-y,-z
x,-y,z
1/2+x,1/2+y,z
1/2-x,1/2+y,-z
1/2-x,1/2-y,-z
1/2+x,1/2-y,z
loop_
_atom_site_type_symbol
_atom_site_label
_atom_site_fract_x
_atom_site_fract_y
_atom_site_fract_z
Si Si1 0.141139 0.166854 0.769148
Si Si2 0.300557 0.168632 0.096102
Si Si3 0.011469 0.828730 0.231277
Si Si4 0.648717 0.668816 0.081699
Si Si5 0.533147 0.672347 0.572773
Si Si6 0.814179 0.166067 0.435977
O O1 0.180274 0.267225 0.820896
O O2 0.182092 0.189013 0.665775
O O3 0.059507 0.217893 0.791378
O O4 0.144698 0.000000 0.796621
O O5 0.217757 0.198590 0.111811
O O6 0.318049 0.000000 0.087722
O O7 0.347797 0.245675 0.007171
O O8 0.081007 0.769023 0.157973
O O9 0.009502 0.769960 0.328600
O O10 0.013995 0.000000 0.234099
O O11 0.640514 0.500000 0.063691
O O12 0.500000 0.738435 0.500000
O O13 0.530332 0.500000 0.572790
O O14 0.614052 0.724312 0.548302
O O15 0.750000 0.250000 0.500000
O O16 0.803297 0.000000 0.462600
#
# Coordination Sequence:
#
# PCOD8095270 Si02
#       6
#     8   8   8   8   8   8
#     4   9  18  33  50  68  94 126 158 192 231 276
#     4  10  20  32  48  72  98 122 152 192 237 282
#     4   8  15  29  48  68  89 120 162 196 225 269
#     4   9  18  33  51  69  92 123 158 195 233 276
#     4   8  14  26  46  71  95 118 152 199 236 262
#     4   9  18  31  48  71  97 125 155 190 234 280
#
# _framework density 17.331144999999999
#
# number of rings (size 3 to 8) (size 9 to 14) (size 15 to 20)
#    0.000    3.167    0.000    2.500    0.000    3.333 
#    0.000    7.500    0.000    1.500    0.000    0.000 
#    0.000    0.000    0.000    0.000    0.000    0.000 
#
# Total GULP energy -297528.527234 kJ/mol
# GULP energy per Si atom -12397.021968 kJ/mol
# Density = 1.729170 g / cm^3
# Si number density = 17.331145 Si / 1000 Ang^3
#
#
#
# Elastic Constant Matrix: (Units=GPa)
#
#
# Indices 1 2 3 4 5 6 
#
# 1 95.9076 36.9896 78.6790 0.0000 -7.1154 0.0000
# 2 36.9896 46.5235 45.4245 0.0000 -0.0848 0.0000
# 3 78.6790 45.4245 114.9656 0.0000 -8.1131 0.0000
# 4 0.0000 0.0000 0.0000 26.2279 0.0000 0.0187
# 5 -7.1154 -0.0848 -8.1131 0.0000 41.0957 0.0000
# 6 0.0000 0.0000 0.0000 0.0187 0.0000 23.9394
#
#
#
# Elastic Compliance Matrix: (Units=1/GPa)
#
#
# Indices 1 2 3 4 5 6 
#
# 1 0.024557 -0.005220 -0.014649 0.000000 0.001349 0.000000
# 2 -0.005220 0.036401 -0.011022 0.000000 -0.003005 0.000000
# 3 -0.014649 -0.011022 0.023221 0.000000 0.002025 0.000000
# 4 0.000000 0.000000 0.000000 0.038127 0.000000 -0.000030
# 5 0.001349 -0.003005 0.002025 0.000000 0.024961 0.000000
# 6 0.000000 0.000000 0.000000 -0.000030 0.000000 0.041772
#
#
# Mechanical properties :
#
#
# Convention : Reuss Voigt Hill
#
# Bulk Modulus (GPa) = 44.64649 64.39812 54.52230
# Shear Modulus (GPa) = 19.35830 24.67283 22.01557
#
# Velocity S-wave (km/s) = 3.34573 3.77717 3.56798
# Velocity P-wave (km/s) = 6.38294 7.50072 6.96429
#
# Compressibility (1/GPa) = 0.02239818
#
# Stress axis : x y z
#
# Youngs Moduli (GPa) = 40.72151 27.47165 43.06390
#
# Poissons Ratio (x) = 0.14339 0.63082
# Poissons Ratio (y) = 0.21256 0.47467
# Poissons Ratio (z) = 0.59651 0.30280
#
# Static dielectric constant tensor:
#      x y z
#    x 3.342230 0.000000 -0.051280 
#    y 0.000000 2.886730 0.000000 
#    z -0.051280 0.000000 3.456160 
# 
# 
# High freq. dielectric constant tensor:
#      x y z
#    x 1.672060 0.000000 -0.000210 
#    y 0.000000 1.632820 0.000000 
#    z -0.000210 0.000000 1.676650 
# 
# From -- ./inp_files/229907.got.cif
#   From: 2010.06.25/outbox.cif.g09.slc.cpg/sg12_115_cif.got.tgz:229907.got - 2010.06.28 00:19:55.
