data_PCOD8095952
_publ_section_title
;
Structure prediction by ZEFSAII (Michael W. Deem and Ramdas Pophale) SiO2 
 PCOD8095952
Probable space group: C 2/M
;
_chemical_formula_sum "Si O2"
_cell_formula_units_Z 56
_cell_length_a 27.864430
_cell_length_b 9.353924
_cell_length_c 12.380346
_cell_angle_alpha 90.000000
_cell_angle_beta 76.858065
_cell_angle_gamma 90.000000
_cell_volume 3142.323781
_symmetry_space_group_name_H-M "C 2/M"
_symmetry_group_IT_number 12
_symmetry_cell_setting 'monoclinic'
loop_
_space_group_symop_operation_xyz
x,y,z
-x,y,-z
-x,-y,-z
x,-y,z
1/2+x,1/2+y,z
1/2-x,1/2+y,-z
1/2-x,1/2-y,-z
1/2+x,1/2-y,z
loop_
_atom_site_type_symbol
_atom_site_label
_atom_site_fract_x
_atom_site_fract_y
_atom_site_fract_z
Si Si1 0.033955 0.663957 0.388324
Si Si2 0.375475 0.335586 0.726068
Si Si3 0.500812 0.836883 0.167301
Si Si4 0.296699 0.335190 0.596905
Si Si5 0.094027 0.831223 0.054101
Si Si6 0.109717 0.332504 0.840840
Si Si7 0.314351 0.167295 0.380322
O O1 0.047031 0.500000 0.405472
O O2 0.084868 0.747751 0.361731
O O3 0.004090 0.683282 0.293390
O O4 0.000000 0.728010 0.500000
O O5 0.390621 0.500000 0.707711
O O6 0.322383 0.304248 0.699461
O O7 0.375757 0.292108 0.852249
O O8 0.538943 0.733527 0.087296
O O9 0.445924 0.794551 0.162723
O O10 0.513296 0.000000 0.127039
O O11 0.302076 0.500000 0.561389
O O12 0.323445 0.245929 0.489100
O O13 0.239575 0.292185 0.638226
O O14 0.090380 0.000000 0.036822
O O15 0.123356 0.756791 0.941138
O O16 0.117226 0.500000 0.860188
O O17 0.145608 0.280290 0.727009
O O18 0.319966 0.000000 0.399567
#
# Coordination Sequence:
#
# PCOD8095952 Si02
#       7
#     8   8   8   8   8   8   8
#     4   9  18  30  47  72 100 128 164 206 241 286
#     4   9  19  34  51  70  98 135 165 197 248 298
#     4   9  18  32  48  69  99 133 164 199 247 293
#     4   9  18  35  55  75 101 131 163 201 251 301
#     4  10  20  34  50  71  99 132 170 206 240 288
#     4  10  20  33  51  73 100 131 164 204 250 293
#     4   9  19  34  54  78 101 127 163 207 249 296
#
# _framework density 17.821206
#
# number of rings (size 3 to 8) (size 9 to 14) (size 15 to 20)
#    0.000    2.714    0.000    0.857    2.000    4.286 
#    0.000    0.714    0.000    0.000    0.000    0.000 
#    0.000    0.000    0.000    0.000    0.000    0.000 
#
# Total GULP energy -347220.156428 kJ/mol
# GULP energy per Si atom -12400.719872 kJ/mol
# Density = 1.778064 g / cm^3
# Si number density = 17.821206 Si / 1000 Ang^3
#
#
#
# Elastic Constant Matrix: (Units=GPa)
#
#
# Indices 1 2 3 4 5 6 
#
# 1 84.3722 33.5494 51.5449 0.0000 11.6627 0.0000
# 2 33.5494 53.2651 44.3467 0.0000 -0.0187 0.0000
# 3 51.5449 44.3467 117.6297 0.0000 -4.9019 0.0000
# 4 0.0000 0.0000 0.0000 28.8659 0.0000 0.8608
# 5 11.6627 -0.0187 -4.9019 0.0000 19.7159 0.0000
# 6 0.0000 0.0000 0.0000 0.8608 0.0000 21.7367
#
#
#
# Elastic Compliance Matrix: (Units=1/GPa)
#
#
# Indices 1 2 3 4 5 6 
#
# 1 0.021057 -0.007423 -0.007021 0.000000 -0.014209 0.000000
# 2 -0.007423 0.030108 -0.007997 0.000000 0.002431 0.000000
# 3 -0.007021 -0.007997 0.014920 0.000000 0.007855 0.000000
# 4 0.000000 0.000000 0.000000 0.034684 0.000000 -0.001373
# 5 -0.014209 0.002431 0.007855 0.000000 0.061081 0.000000
# 6 0.000000 0.000000 0.000000 -0.001373 0.000000 0.046060
#
#
# Mechanical properties :
#
#
# Convention : Reuss Voigt Hill
#
# Bulk Modulus (GPa) = 47.16045 57.12767 52.14406
# Shear Modulus (GPa) = 19.24130 22.45211 20.84670
#
# Velocity S-wave (km/s) = 3.28942 3.55329 3.42390
# Velocity P-wave (km/s) = 6.39903 6.99715 6.70476
#
# Compressibility (1/GPa) = 0.02120421
#
# Stress axis : x y z
#
# Youngs Moduli (GPa) = 47.49027 33.21380 67.02432
#
# Poissons Ratio (x) = 0.24653 0.47057
# Poissons Ratio (y) = 0.35250 0.53599
# Poissons Ratio (z) = 0.33342 0.26561
#
# Static dielectric constant tensor:
#      x y z
#    x 3.293750 0.000000 0.099640 
#    y 0.000000 3.267940 0.000000 
#    z 0.099640 0.000000 3.404670 
# 
# 
# High freq. dielectric constant tensor:
#      x y z
#    x 1.679070 0.000000 0.010890 
#    y 0.000000 1.684520 0.000000 
#    z 0.010890 0.000000 1.692600 
# 
# From -- ./inp_files/186424.got.cif
#   From: 2010.06.25/outbox.cif.g09.slc.cpg/sg12_94_cif.got.tgz:186424.got - 2010.06.28 00:19:55.
