data_PCOD8095738
_publ_section_title
;
Structure prediction by ZEFSAII (Michael W. Deem and Ramdas Pophale) SiO2 
 PCOD8095738
Probable space group: C 2/M
;
_chemical_formula_sum "Si O2"
_cell_formula_units_Z 64
_cell_length_a 24.155894
_cell_length_b 8.914686
_cell_length_c 16.998424
_cell_angle_alpha 90.000000
_cell_angle_beta 102.484233
_cell_angle_gamma 90.000000
_cell_volume 3573.928130
_symmetry_space_group_name_H-M "C 2/M"
_symmetry_group_IT_number 12
_symmetry_cell_setting 'monoclinic'
loop_
_space_group_symop_operation_xyz
x,y,z
-x,y,-z
-x,-y,-z
x,-y,z
1/2+x,1/2+y,z
1/2-x,1/2+y,-z
1/2-x,1/2-y,-z
1/2+x,1/2-y,z
loop_
_atom_site_type_symbol
_atom_site_label
_atom_site_fract_x
_atom_site_fract_y
_atom_site_fract_z
Si Si1 0.801499 0.330484 0.056384
Si Si2 0.413457 0.169967 0.989542
Si Si3 0.969014 0.826906 0.146088
Si Si4 0.180493 0.322505 0.319536
Si Si5 0.309261 0.324268 0.351474
Si Si6 0.595209 0.327192 0.177265
Si Si7 0.689124 0.323673 0.476668
Si Si8 0.863092 0.822632 0.211327
O O1 0.784591 0.500000 0.071751
O O2 0.853633 0.323581 0.013663
O O3 0.815087 0.245838 0.141129
O O4 0.750000 0.250000 0.000000
O O5 0.461298 0.230340 0.064236
O O6 0.429009 0.000000 0.969608
O O7 0.408994 0.277156 0.913780
O O8 0.925853 0.772596 0.201659
O O9 0.032965 0.805049 0.197162
O O10 0.956957 0.000000 0.120698
O O11 0.178539 0.500000 0.326651
O O12 0.244660 0.261174 0.325373
O O13 0.141088 0.272659 0.235905
O O14 0.155737 0.251833 0.393587
O O15 0.303231 0.500000 0.337724
O O16 0.338298 0.289832 0.445542
O O17 0.350165 0.259964 0.295363
O O18 0.614139 0.500000 0.186830
O O19 0.694051 0.500000 0.462919
O O20 0.750000 0.250000 0.500000
O O21 0.857234 0.000000 0.206300
#
# Coordination Sequence:
#
# PCOD8095738 Si02
#       8
#     8   8   8   8   8   8   8   8
#     4  10  21  34  47  68  99 133 165 202 245 292
#     4  10  21  35  51  71  96 130 171 209 249 296
#     4   9  19  35  53  72  97 129 169 210 252 295
#     4  10  20  33  49  75 105 132 163 203 251 300
#     4   8  16  30  52  77 100 125 159 200 242 294
#     4  11  22  34  50  74 101 130 166 211 253 298
#     4   9  16  30  50  74 103 134 163 197 244 299
#     4   9  17  33  54  73  95 128 164 205 248 291
#
# _framework density 17.907468000000001
#
# number of rings (size 3 to 8) (size 9 to 14) (size 15 to 20)
#    0.000    2.500    0.000    3.000    1.750    4.000 
#    0.000    3.125    0.000    0.750    0.000    5.250 
#    0.000    0.000    0.000    0.000    0.000    0.000 
#
# Total GULP energy -396644.797851 kJ/mol
# GULP energy per Si atom -12395.149933 kJ/mol
# Density = 1.786671 g / cm^3
# Si number density = 17.907468 Si / 1000 Ang^3
#
#
#
# Elastic Constant Matrix: (Units=GPa)
#
#
# Indices 1 2 3 4 5 6 
#
# 1 40.8439 18.3729 40.5279 0.0000 -4.9552 0.0000
# 2 18.3729 63.8749 26.8491 0.0000 -4.8229 0.0000
# 3 40.5279 26.8491 97.3930 0.0000 -22.2940 0.0000
# 4 0.0000 0.0000 0.0000 32.1609 0.0000 3.4087
# 5 -4.9552 -4.8229 -22.2940 0.0000 25.2223 0.0000
# 6 0.0000 0.0000 0.0000 3.4087 0.0000 19.6685
#
#
#
# Elastic Compliance Matrix: (Units=1/GPa)
#
#
# Indices 1 2 3 4 5 6 
#
# 1 0.045040 -0.005524 -0.019351 0.000000 -0.009312 0.000000
# 2 -0.005524 0.018412 -0.002783 0.000000 -0.000024 0.000000
# 3 -0.019351 -0.002783 0.022685 0.000000 0.015718 0.000000
# 4 0.000000 0.000000 0.000000 0.031676 0.000000 -0.005490
# 5 -0.009312 -0.000024 0.015718 0.000000 0.051706 0.000000
# 6 0.000000 0.000000 0.000000 -0.005490 0.000000 0.051794
#
#
# Mechanical properties :
#
#
# Convention : Reuss Voigt Hill
#
# Bulk Modulus (GPa) = 32.44477 41.51241 36.97859
# Shear Modulus (GPa) = 17.42747 23.16779 20.29763
#
# Velocity S-wave (km/s) = 3.12299 3.60078 3.37036
# Velocity P-wave (km/s) = 5.58224 6.36548 5.98669
#
# Compressibility (1/GPa) = 0.03082161
#
# Stress axis : x y z
#
# Youngs Moduli (GPa) = 22.20246 54.31113 44.08173
#
# Poissons Ratio (x) = 0.30004 0.85303
# Poissons Ratio (y) = 0.12266 0.12266
# Poissons Ratio (z) = 0.42964 0.15112
#
# Static dielectric constant tensor:
#      x y z
#    x 3.422180 0.000000 -0.303910 
#    y 0.000000 3.392320 0.000000 
#    z -0.303910 0.000000 3.623830 
# 
# 
# High freq. dielectric constant tensor:
#      x y z
#    x 1.675660 0.000000 -0.011430 
#    y 0.000000 1.692830 0.000000 
#    z -0.011430 0.000000 1.690160 
# 
# From -- ./inp_files/244245.got.cif
#   From: 2010.06.25/outbox.cif.g09.slc.cpg/sg12_123_cif.got.tgz:244245.got - 2010.06.28 00:19:55.
