data_PCOD8095687
_publ_section_title
;
Structure prediction by ZEFSAII (Michael W. Deem and Ramdas Pophale) SiO2 
 PCOD8095687
Probable space group: C 2/M
;
_chemical_formula_sum "Si O2"
_cell_formula_units_Z 56
_cell_length_a 29.730992
_cell_length_b 13.983798
_cell_length_c 8.885200
_cell_angle_alpha 90.000000
_cell_angle_beta 61.220048
_cell_angle_gamma 90.000000
_cell_volume 3237.735588
_symmetry_space_group_name_H-M "C 2/M"
_symmetry_group_IT_number 12
_symmetry_cell_setting 'monoclinic'
loop_
_space_group_symop_operation_xyz
x,y,z
-x,y,-z
-x,-y,-z
x,-y,z
1/2+x,1/2+y,z
1/2-x,1/2+y,-z
1/2-x,1/2-y,-z
1/2+x,1/2-y,z
loop_
_atom_site_type_symbol
_atom_site_label
_atom_site_fract_x
_atom_site_fract_y
_atom_site_fract_z
Si Si1 0.442639 0.610584 0.122942
Si Si2 0.639485 0.391515 0.000151
Si Si3 0.212893 0.891681 0.621907
Si Si4 0.274766 0.886538 0.073565
Si Si5 0.633240 0.269239 0.586429
Si Si6 0.673516 0.267430 0.203889
Si Si7 0.320811 0.891853 0.324212
O O1 0.442390 0.500000 0.172602
O O2 0.408981 0.627372 0.028541
O O3 0.418754 0.671908 0.298019
O O4 0.500000 0.647004 0.000000
O O5 0.638698 0.500000 0.062140
O O6 0.692582 0.371352 0.823354
O O7 0.636759 0.317982 0.141174
O O8 0.183859 0.828344 0.547394
O O9 0.273439 0.872634 0.515333
O O10 0.200007 0.000000 0.595996
O O11 0.218242 0.842022 0.174020
O O12 0.303800 0.865773 0.183121
O O13 0.271247 0.000000 0.045584
O O14 0.305602 0.833935 0.890546
O O15 0.637259 0.244447 0.404211
O O16 0.632837 0.174041 0.691602
O O17 0.340268 0.000000 0.301229
#
# Coordination Sequence:
#
# PCOD8095687 Si02
#       7
#     8   8   8   8   8   8   8
#     4   9  19  37  59  78  96 125 167 213 257 300
#     4   9  18  31  49  72 102 133 164 202 249 300
#     4   9  17  29  47  69  96 134 172 206 238 283
#     4  10  21  33  44  65 104 145 176 202 234 285
#     4  11  20  31  52  73 101 129 171 213 250 296
#     4  11  22  30  46  73 104 138 168 200 250 298
#     4  10  20  33  49  70  99 138 180 211 238 282
#
# _framework density 17.296037999999999
#
# number of rings (size 3 to 8) (size 9 to 14) (size 15 to 20)
#    0.000    2.143    1.429    3.857    4.000    2.286 
#    0.000    0.714    0.000    3.000    0.000    0.000 
#    0.000    4.571    0.000    0.000    0.000    0.000 
#
# Total GULP energy -347189.299867 kJ/mol
# GULP energy per Si atom -12399.617852 kJ/mol
# Density = 1.725667 g / cm^3
# Si number density = 17.296038 Si / 1000 Ang^3
#
#
#
# Elastic Constant Matrix: (Units=GPa)
#
#
# Indices 1 2 3 4 5 6 
#
# 1 46.7328 30.5583 42.5382 0.0000 -5.6443 0.0000
# 2 30.5583 98.7477 51.4979 0.0000 1.4933 0.0000
# 3 42.5382 51.4979 101.9482 0.0000 2.8484 0.0000
# 4 0.0000 0.0000 0.0000 24.1731 0.0000 1.9607
# 5 -5.6443 1.4933 2.8484 0.0000 18.3547 0.0000
# 6 0.0000 0.0000 0.0000 1.9607 0.0000 22.8223
#
#
#
# Elastic Compliance Matrix: (Units=1/GPa)
#
#
# Indices 1 2 3 4 5 6 
#
# 1 0.039537 -0.004942 -0.014414 0.000000 0.014797 0.000000
# 2 -0.004942 0.014366 -0.005142 0.000000 -0.001890 0.000000
# 3 -0.014414 -0.005142 0.018614 0.000000 -0.006903 0.000000
# 4 0.000000 0.000000 0.000000 0.041659 0.000000 -0.003579
# 5 0.014797 -0.001890 -0.006903 0.000000 0.060257 0.000000
# 6 0.000000 0.000000 0.000000 -0.003579 0.000000 0.044124
#
#
# Mechanical properties :
#
#
# Convention : Reuss Voigt Hill
#
# Bulk Modulus (GPa) = 42.51533 55.17974 48.84754
# Shear Modulus (GPa) = 18.15580 21.25898 19.70739
#
# Velocity S-wave (km/s) = 3.24344 3.50969 3.37919
# Velocity P-wave (km/s) = 6.21778 6.95674 6.59762
#
# Compressibility (1/GPa) = 0.02352093
#
# Stress axis : x y z
#
# Youngs Moduli (GPa) = 25.29263 69.60681 53.72396
#
# Poissons Ratio (x) = 0.34398 0.77439
# Poissons Ratio (y) = 0.12499 0.27626
# Poissons Ratio (z) = 0.36457 0.35794
#
# Static dielectric constant tensor:
#      x y z
#    x 2.927980 0.000000 0.034360 
#    y 0.000000 3.390810 0.000000 
#    z 0.034360 0.000000 3.224090 
# 
# 
# High freq. dielectric constant tensor:
#      x y z
#    x 1.621800 0.000000 0.017960 
#    y 0.000000 1.677520 0.000000 
#    z 0.017960 0.000000 1.660350 
# 
# From -- ./inp_files/110809.got.cif
#   From: 2010.06.25/outbox.cif.g09.slc.cpg/sg12_56_cif.got.tgz:110809.got - 2010.06.28 00:19:55.
