data_PCOD8095807
_publ_section_title
;
Structure prediction by ZEFSAII (Michael W. Deem and Ramdas Pophale) SiO2 
 PCOD8095807
Probable space group: C 2/M
;
_chemical_formula_sum "Si O2"
_cell_formula_units_Z 64
_cell_length_a 24.788235
_cell_length_b 8.863885
_cell_length_c 19.409309
_cell_angle_alpha 90.000000
_cell_angle_beta 63.844428
_cell_angle_gamma 90.000000
_cell_volume 3827.920005
_symmetry_space_group_name_H-M "C 2/M"
_symmetry_group_IT_number 12
_symmetry_cell_setting 'monoclinic'
loop_
_space_group_symop_operation_xyz
x,y,z
-x,y,-z
-x,-y,-z
x,-y,z
1/2+x,1/2+y,z
1/2-x,1/2+y,-z
1/2-x,1/2-y,-z
1/2+x,1/2-y,z
loop_
_atom_site_type_symbol
_atom_site_label
_atom_site_fract_x
_atom_site_fract_y
_atom_site_fract_z
Si Si1 0.047196 0.173515 0.828434
Si Si2 0.257144 0.322158 0.663045
Si Si3 0.640453 0.675144 0.665778
Si Si4 0.747440 0.676128 0.182087
Si Si5 0.799970 0.322271 0.923553
Si Si6 0.112624 0.675235 0.915910
Si Si7 0.411479 0.674856 0.929230
Si Si8 0.308046 0.676332 0.498641
O O1 0.076939 0.211876 0.737435
O O2 0.075920 0.281795 0.868861
O O3 0.976762 0.204319 0.860012
O O4 0.059353 0.000000 0.842994
O O5 0.249065 0.500000 0.672111
O O6 0.192820 0.261283 0.675986
O O7 0.273366 0.265528 0.730600
O O8 0.310488 0.273766 0.578347
O O9 0.656370 0.500000 0.663540
O O10 0.637452 0.719458 0.584832
O O11 0.733896 0.500000 0.178085
O O12 0.708981 0.771529 0.149809
O O13 0.817552 0.711579 0.133525
O O14 0.794129 0.500000 0.933390
O O15 0.865536 0.272812 0.910873
O O16 0.750000 0.250000 0.000000
O O17 0.102153 0.500000 0.938130
O O18 0.087301 0.774054 0.992442
O O19 0.393007 0.500000 0.935883
O O20 0.297473 0.500000 0.504401
O O21 0.250000 0.750000 0.500000
#
# Coordination Sequence:
#
# PCOD8095807 Si02
#       8
#     8   8   8   8   8   8   8   8
#     4  10  21  34  49  71 101 134 166 199 241 287
#     4   9  16  28  45  68  98 128 159 192 233 282
#     4   9  16  27  44  68  98 129 160 192 231 280
#     4  10  20  33  50  73 100 130 162 198 241 287
#     4  12  24  38  56  74  93 122 160 206 250 292
#     4  11  21  33  51  73  99 131 165 202 241 285
#     4  11  23  38  53  69  94 130 167 206 245 287
#     4   8  14  24  41  65  94 127 157 189 228 276
#
# _framework density 16.719262000000001
#
# number of rings (size 3 to 8) (size 9 to 14) (size 15 to 20)
#    0.000    2.000    2.500    2.250    0.000    3.500 
#    0.000    0.000    0.000    0.000    0.000    0.875 
#    0.000    7.000    0.000    0.000    0.000    0.000 
#
# Total GULP energy -396560.990242 kJ/mol
# GULP energy per Si atom -12392.530945 kJ/mol
# Density = 1.668121 g / cm^3
# Si number density = 16.719262 Si / 1000 Ang^3
#
#
#
# Elastic Constant Matrix: (Units=GPa)
#
#
# Indices 1 2 3 4 5 6 
#
# 1 61.9001 24.0215 52.7864 -0.0001 -1.1046 -0.0004
# 2 24.0215 51.5016 38.5329 0.0000 2.0507 -0.0005
# 3 52.7864 38.5329 169.2003 0.0000 12.0480 -0.0001
# 4 -0.0001 0.0000 0.0000 16.0271 0.0000 2.6945
# 5 -1.1046 2.0507 12.0480 0.0000 17.3291 -0.0001
# 6 -0.0004 -0.0005 -0.0001 2.6945 -0.0001 24.2206
#
#
#
# Elastic Compliance Matrix: (Units=1/GPa)
#
#
# Indices 1 2 3 4 5 6 
#
# 1 0.024547 -0.006781 -0.006610 0.000000 0.006963 0.000000
# 2 -0.006781 0.025294 -0.003578 0.000000 -0.000938 0.000000
# 3 -0.006610 -0.003578 0.009245 0.000000 -0.006425 0.000000
# 4 0.000000 0.000000 0.000000 0.063583 0.000000 -0.007074
# 5 0.006963 -0.000938 -0.006425 0.000000 0.062728 0.000000
# 6 0.000000 0.000000 0.000000 -0.007074 0.000000 0.042074
#
#
# Mechanical properties :
#
#
# Convention : Reuss Voigt Hill
#
# Bulk Modulus (GPa) = 39.76437 57.03152 48.39795
# Shear Modulus (GPa) = 18.53274 22.66611 20.59942
#
# Velocity S-wave (km/s) = 3.33298 3.68596 3.51390
# Velocity P-wave (km/s) = 6.21666 7.23190 6.74341
#
# Compressibility (1/GPa) = 0.02514814
#
# Stress axis : x y z
#
# Youngs Moduli (GPa) = 40.73749 39.53468 108.17225
#
# Poissons Ratio (x) = 0.26810 0.71497
# Poissons Ratio (y) = 0.27626 0.38704
# Poissons Ratio (z) = 0.26926 0.14145
#
# Static dielectric constant tensor:
#      x y z
#    x 2.866460 0.000000 0.115230 
#    y 0.000000 3.092590 0.000000 
#    z 0.115230 0.000000 3.882130 
# 
# 
# High freq. dielectric constant tensor:
#      x y z
#    x 1.600020 0.000000 0.008460 
#    y 0.000000 1.648810 0.000000 
#    z 0.008460 0.000000 1.662670 
# 
# From -- ./inp_files/323662.got.cif
#   From: 2010.06.25/outbox.cif.g09.slc.cpg/sg12_162_cif.got.tgz:323662.got - 2010.06.28 00:19:55.
