data_PCOD8095841
_publ_section_title
;
Structure prediction by ZEFSAII (Michael W. Deem and Ramdas Pophale) SiO2 
 PCOD8095841
Probable space group: C 2/M
;
_chemical_formula_sum "Si O2"
_cell_formula_units_Z 56
_cell_length_a 14.142487
_cell_length_b 9.407510
_cell_length_c 27.888533
_cell_angle_alpha 90.000000
_cell_angle_beta 57.452264
_cell_angle_gamma 90.000000
_cell_volume 3127.696570
_symmetry_space_group_name_H-M "C 2/M"
_symmetry_group_IT_number 12
_symmetry_cell_setting 'monoclinic'
loop_
_space_group_symop_operation_xyz
x,y,z
-x,y,-z
-x,-y,-z
x,-y,z
1/2+x,1/2+y,z
1/2-x,1/2+y,-z
1/2-x,1/2-y,-z
1/2+x,1/2-y,z
loop_
_atom_site_type_symbol
_atom_site_label
_atom_site_fract_x
_atom_site_fract_y
_atom_site_fract_z
Si Si1 0.332898 0.665190 0.139482
Si Si2 0.785953 0.335265 0.062505
Si Si3 0.507954 0.834599 0.639307
Si Si4 0.756292 0.335109 0.733424
Si Si5 0.046597 0.165273 0.436430
Si Si6 0.701745 0.165379 0.657837
Si Si7 0.914692 0.838334 0.953910
O O1 0.305040 0.500000 0.138143
O O2 0.268026 0.759462 0.118246
O O3 0.290561 0.715280 0.202791
O O4 0.464565 0.697401 0.100297
O O5 0.814628 0.500000 0.061979
O O6 0.671414 0.310647 0.065383
O O7 0.888969 0.262525 0.006024
O O8 0.388654 0.802157 0.696401
O O9 0.519334 0.750238 0.586584
O O10 0.604820 0.780792 0.648601
O O11 0.522887 0.000000 0.623405
O O12 0.731442 0.500000 0.731132
O O13 0.690336 0.248942 0.710720
O O14 0.178937 0.198088 0.399205
O O15 0.000000 0.217982 0.500000
O O16 0.021429 0.000000 0.435052
O O17 0.686893 0.000000 0.673599
O O18 0.906823 0.000000 0.974888
#
# Coordination Sequence:
#
# PCOD8095841 Si02
#       7
#     8   8   8   8   8   8   8
#     4  10  20  34  51  70  95 127 158 191 237 287
#     4  10  20  33  50  73  97 121 155 197 236 279
#     4   9  18  33  51  71  97 128 160 196 239 281
#     4   9  19  34  50  70  95 124 161 199 233 279
#     4   9  18  32  49  72 101 129 160 197 234 278
#     4   9  18  33  51  70  96 129 160 195 240 281
#     4   9  19  35  51  68  95 128 156 187 235 290
#
# _framework density 17.904548999999999
#
# number of rings (size 3 to 8) (size 9 to 14) (size 15 to 20)
#    0.000    2.714    0.000    0.857    0.000    6.000 
#    0.000    0.000    0.000    0.000    0.000    0.000 
#    0.000    0.000    0.000    0.000    0.000    0.000 
#
# Total GULP energy -347299.650086 kJ/mol
# GULP energy per Si atom -12403.558932 kJ/mol
# Density = 1.786380 g / cm^3
# Si number density = 17.904549 Si / 1000 Ang^3
#
#
#
# Elastic Constant Matrix: (Units=GPa)
#
#
# Indices 1 2 3 4 5 6 
#
# 1 110.9266 48.6225 58.4689 0.0000 23.6676 0.0000
# 2 48.6225 68.9995 59.8721 0.0000 18.6998 0.0000
# 3 58.4689 59.8721 148.4295 0.0000 27.0585 0.0000
# 4 0.0000 0.0000 0.0000 31.4351 0.0000 9.7162
# 5 23.6676 18.6998 27.0585 0.0000 23.6331 0.0000
# 6 0.0000 0.0000 0.0000 9.7162 0.0000 28.8302
#
#
#
# Elastic Compliance Matrix: (Units=1/GPa)
#
#
# Indices 1 2 3 4 5 6 
#
# 1 0.014370 -0.006777 -0.001619 0.000000 -0.007175 0.000000
# 2 -0.006777 0.027230 -0.007107 0.000000 -0.006622 0.000000
# 3 -0.001619 -0.007107 0.011274 0.000000 -0.005663 0.000000
# 4 0.000000 0.000000 0.000000 0.035511 0.000000 -0.011968
# 5 -0.007175 -0.006622 -0.005663 0.000000 0.061223 0.000000
# 6 0.000000 0.000000 0.000000 -0.011968 0.000000 0.038719
#
#
# Mechanical properties :
#
#
# Convention : Reuss Voigt Hill
#
# Bulk Modulus (GPa) = 45.72855 73.58698 59.65777
# Shear Modulus (GPa) = 22.06326 27.53914 24.80120
#
# Velocity S-wave (km/s) = 3.51418 3.92613 3.72585
# Velocity P-wave (km/s) = 6.48549 7.85757 7.20427
#
# Compressibility (1/GPa) = 0.02186817
#
# Stress axis : x y z
#
# Youngs Moduli (GPa) = 69.59148 36.72445 88.69829
#
# Poissons Ratio (x) = 0.24887 0.14360
# Poissons Ratio (y) = 0.47160 0.63039
# Poissons Ratio (z) = 0.11266 0.26100
#
# Static dielectric constant tensor:
#      x y z
#    x 3.356900 0.000000 0.040180 
#    y 0.000000 3.293360 0.000000 
#    z 0.040180 0.000000 3.329250 
# 
# 
# High freq. dielectric constant tensor:
#      x y z
#    x 1.696260 0.000000 0.004110 
#    y 0.000000 1.689500 0.000000 
#    z 0.004110 0.000000 1.690710 
# 
# From -- ./inp_files/337840.got.cif
#   From: 2010.06.25/outbox.cif.g09.slc.cpg/sg12_169_cif.got.tgz:337840.got - 2010.06.28 00:19:55.
