data_PCOD8095869
_publ_section_title
;
Structure prediction by ZEFSAII (Michael W. Deem and Ramdas Pophale) SiO2 
 PCOD8095869
Probable space group: C 2/M
;
_chemical_formula_sum "Si O2"
_cell_formula_units_Z 56
_cell_length_a 8.959599
_cell_length_b 18.749927
_cell_length_c 18.768645
_cell_angle_alpha 90.000000
_cell_angle_beta 103.766069
_cell_angle_gamma 90.000000
_cell_volume 3062.410816
_symmetry_space_group_name_H-M "C 2/M"
_symmetry_group_IT_number 12
_symmetry_cell_setting 'monoclinic'
loop_
_space_group_symop_operation_xyz
x,y,z
-x,y,-z
-x,-y,-z
x,-y,z
1/2+x,1/2+y,z
1/2-x,1/2+y,-z
1/2-x,1/2-y,-z
1/2+x,1/2-y,z
loop_
_atom_site_type_symbol
_atom_site_label
_atom_site_fract_x
_atom_site_fract_y
_atom_site_fract_z
Si Si1 0.598923 0.915619 0.355164
Si Si2 0.745027 0.084445 0.647462
Si Si3 0.331894 0.415131 0.501016
Si Si4 0.691918 0.172084 0.230978
Si Si5 0.460593 0.325093 0.769927
Si Si6 0.891840 0.670669 0.931551
Si Si7 0.453308 0.322893 0.067724
O O1 0.427102 0.891383 0.354035
O O2 0.709646 0.885976 0.429879
O O3 0.650674 0.884041 0.286368
O O4 0.612492 0.000000 0.350694
O O5 0.785205 0.113451 0.573435
O O6 0.860216 0.118103 0.716782
O O7 0.764650 0.000000 0.653943
O O8 0.500000 0.385563 0.500000
O O9 0.330441 0.500000 0.500782
O O10 0.618038 0.248118 0.239880
O O11 0.628273 0.137334 0.149587
O O12 0.874229 0.183036 0.248035
O O13 0.478084 0.357139 0.852201
O O14 0.729145 0.682221 0.950071
O O15 0.976946 0.744750 0.929022
O O16 0.000000 0.625904 0.000000
O O17 0.500000 0.365360 0.000000
#
# Coordination Sequence:
#
# PCOD8095869 Si02
#       7
#     8   8   8   8   8   8   8
#     4  10  20  34  53  76 101 130 165 204 245 291
#     4  10  20  34  53  76 101 130 165 204 245 291
#     4   9  17  31  52  75  98 127 164 203 241 287
#     4  10  20  33  50  74 103 133 165 203 248 295
#     4  10  20  33  50  74 103 133 165 203 248 295
#     4   9  16  26  43  67  94 125 161 200 240 285
#     4   9  16  26  43  67  94 125 161 200 240 285
#
# _framework density 18.286245999999998
#
# number of rings (size 3 to 8) (size 9 to 14) (size 15 to 20)
#    0.000    2.429    0.000    3.857    0.000    6.857 
#    0.000    0.714    0.000    0.857    0.000    0.000 
#    0.000    0.000    0.000    0.000    0.000    0.000 
#
# Total GULP energy -347015.207333 kJ/mol
# GULP energy per Si atom -12393.400262 kJ/mol
# Density = 1.824463 g / cm^3
# Si number density = 18.286246 Si / 1000 Ang^3
#
#
#
# Elastic Constant Matrix: (Units=GPa)
#
#
# Indices 1 2 3 4 5 6 
#
# 1 143.6381 22.3143 75.8654 0.0000 9.0643 0.0000
# 2 22.3143 16.5471 24.3509 0.0000 2.2394 0.0000
# 3 75.8654 24.3509 160.2870 0.0000 7.3512 0.0000
# 4 0.0000 0.0000 0.0000 -506.1206 0.0000 -7.5012
# 5 9.0643 2.2394 7.3512 0.0000 38.6287 0.0000
# 6 0.0000 0.0000 0.0000 -7.5012 0.0000 23.3493
#
#
#
# Elastic Compliance Matrix: (Units=1/GPa)
#
#
# Indices 1 2 3 4 5 6 
#
# 1 0.010193 -0.008451 -0.003484 0.000000 -0.001239 0.000000
# 2 -0.008451 0.085042 -0.008862 0.000000 -0.001261 0.000000
# 3 -0.003484 -0.008862 0.009254 0.000000 -0.000430 0.000000
# 4 0.000000 0.000000 0.000000 -0.001966 0.000000 -0.000632
# 5 -0.001239 -0.001261 -0.000430 0.000000 0.026333 0.000000
# 6 0.000000 0.000000 0.000000 -0.000632 0.000000 0.042625
#
#
# Mechanical properties :
#
#
# Convention : Reuss Voigt Hill
#
# Bulk Modulus (GPa) = 15.89940 62.83703 39.36822
# Shear Modulus (GPa) = 21.36393 -75.63242 -27.13424
#
# Velocity S-wave (km/s) = 3.42176 -6.43817 -3.85627
# Velocity P-wave (km/s) = 4.93202 4.56390 1.32206
#
# Compressibility (1/GPa) = 0.06289544
#
# Stress axis : x y z
#
# Youngs Moduli (GPa) = 98.10632 11.75885 108.06498
#
# Poissons Ratio (x) = 0.09938 0.37647
# Poissons Ratio (y) = 0.82912 0.95765
# Poissons Ratio (z) = 0.34177 0.10420
#
# Static dielectric constant tensor:
#      x y z
#    x 3.634560 0.000000 0.038390 
#    y 0.000000 2.763260 0.000000 
#    z 0.038390 0.000000 4.293780 
# 
# 
# High freq. dielectric constant tensor:
#      x y z
#    x 1.733010 0.000000 0.000840 
#    y 0.000000 1.640390 0.000000 
#    z 0.000840 0.000000 1.737610 
# 
# From -- ./inp_files/198349.got.cif
#   From: 2010.06.25/outbox.cif.g09.slc.cpg/sg12_100_cif.got.tgz:198349.got - 2010.06.28 00:19:55.
