data_PCOD8095493
_publ_section_title
;
Structure prediction by ZEFSAII (Michael W. Deem and Ramdas Pophale) SiO2 
 PCOD8095493
Probable space group: C 2/M
;
_chemical_formula_sum "Si O2"
_cell_formula_units_Z 56
_cell_length_a 20.758857
_cell_length_b 9.556959
_cell_length_c 26.228670
_cell_angle_alpha 90.000000
_cell_angle_beta 34.357669
_cell_angle_gamma 90.000000
_cell_volume 2936.659083
_symmetry_space_group_name_H-M "C 2/M"
_symmetry_group_IT_number 12
_symmetry_cell_setting 'monoclinic'
loop_
_space_group_symop_operation_xyz
x,y,z
-x,y,-z
-x,-y,-z
x,-y,z
1/2+x,1/2+y,z
1/2-x,1/2+y,-z
1/2-x,1/2-y,-z
1/2+x,1/2-y,z
loop_
_atom_site_type_symbol
_atom_site_label
_atom_site_fract_x
_atom_site_fract_y
_atom_site_fract_z
Si Si1 0.334962 0.337798 0.376566
Si Si2 0.536560 0.836663 0.090222
Si Si3 0.761639 0.662603 0.117141
Si Si4 0.136064 0.157697 0.527027
Si Si5 0.068806 0.840075 0.408594
Si Si6 0.065164 0.165676 0.170790
Si Si7 0.708649 0.167382 0.788747
O O1 0.305114 0.500000 0.391867
O O2 0.221279 0.251166 0.436769
O O3 0.369581 0.293146 0.411038
O O4 0.438086 0.297081 0.272350
O O5 0.585099 0.747444 0.105386
O O6 0.411816 0.781851 0.155089
O O7 0.534735 0.000000 0.106729
O O8 0.619033 0.809435 0.988770
O O9 0.737170 0.500000 0.139762
O O10 0.656267 0.723279 0.152745
O O11 0.770703 0.729665 0.167808
O O12 0.007280 0.171328 0.592130
O O13 0.181476 0.000000 0.492450
O O14 0.000000 0.764595 0.500000
O O15 0.191679 0.773594 0.313983
O O16 0.090762 0.000000 0.410833
O O17 0.081303 0.000000 0.151041
O O18 0.711763 0.000000 0.789525
#
# Coordination Sequence:
#
# PCOD8095493 Si02
#       7
#     8   8   8   8   8   8   8
#     4   9  18  31  47  69  95 130 166 196 237 292
#     4  10  20  32  52  80 104 126 163 214 258 291
#     4   9  17  32  52  73  98 132 171 207 246 297
#     4   9  17  30  49  70  95 125 163 206 242 281
#     4   9  17  27  43  70 101 127 155 195 244 291
#     4  10  20  33  51  72 103 139 168 198 245 307
#     4   9  17  30  50  75 102 131 166 209 252 295
#
# _framework density 19.069288
#
# number of rings (size 3 to 8) (size 9 to 14) (size 15 to 20)
#    0.000    2.714    0.000    1.714    2.000    5.714 
#    0.000    0.000    0.000    3.857    0.000    0.000 
#    0.000    0.000    0.000    0.000    0.000    0.000 
#
# Total GULP energy -347090.598161 kJ/mol
# GULP energy per Si atom -12396.092791 kJ/mol
# Density = 1.902589 g / cm^3
# Si number density = 19.069288 Si / 1000 Ang^3
#
#
#
# Elastic Constant Matrix: (Units=GPa)
#
#
# Indices 1 2 3 4 5 6 
#
# 1 88.3766 12.6443 38.2536 -0.0016 2.7039 0.0137
# 2 12.6443 23.1395 19.7239 -0.0010 0.0296 0.0052
# 3 38.2536 19.7239 111.5225 0.0005 -5.5461 0.0041
# 4 -0.0016 -0.0010 0.0005 16.1869 -0.0004 1.5536
# 5 2.7039 0.0296 -5.5461 -0.0004 31.4514 -0.0029
# 6 0.0137 0.0052 0.0041 1.5536 -0.0029 19.9753
#
#
#
# Elastic Compliance Matrix: (Units=1/GPa)
#
#
# Indices 1 2 3 4 5 6 
#
# 1 0.013717 -0.004006 -0.004091 0.000002 -0.001897 -0.000008
# 2 -0.004006 0.052142 -0.007902 0.000004 -0.001098 -0.000010
# 3 -0.004091 -0.007902 0.011890 -0.000001 0.002456 0.000003
# 4 0.000002 0.000004 -0.000001 0.062243 0.000000 -0.004841
# 5 -0.001897 -0.001098 0.002456 0.000000 0.032392 0.000006
# 6 -0.000008 -0.000010 0.000003 -0.004841 0.000006 0.050438
#
#
# Mechanical properties :
#
#
# Convention : Reuss Voigt Hill
#
# Bulk Modulus (GPa) = 21.85764 40.47577 31.16671
# Shear Modulus (GPa) = 18.51358 23.68385 21.09871
#
# Velocity S-wave (km/s) = 3.11924 3.52801 3.32990
# Velocity P-wave (km/s) = 4.94570 6.15366 5.58245
#
# Compressibility (1/GPa) = 0.04575058
#
# Stress axis : x y z
#
# Youngs Moduli (GPa) = 72.90129 19.17824 84.10558
#
# Poissons Ratio (x) = 0.07683 0.34408
# Poissons Ratio (y) = 0.29204 0.66464
# Poissons Ratio (z) = 0.29824 0.15155
#
# Static dielectric constant tensor:
#      x y z
#    x 3.557290 0.000000 -0.036810 
#    y 0.000000 2.970610 0.000000 
#    z -0.036810 0.000000 3.705630 
# 
# 
# High freq. dielectric constant tensor:
#      x y z
#    x 1.747670 0.000000 -0.002520 
#    y 0.000000 1.675600 0.000000 
#    z -0.002520 0.000000 1.758500 
# 
# From -- ./inp_files/365845.got.cif
#   From: 2010.06.25/outbox.cif.g09.slc.cpg/sg12_183_cif.got.tgz:365845.got - 2010.06.28 00:19:55.
