data_PCOD8095118
_publ_section_title
;
Structure prediction by ZEFSAII (Michael W. Deem and Ramdas Pophale) SiO2 
 PCOD8095118
Probable space group: C 2/M
;
_chemical_formula_sum "Si O2"
_cell_formula_units_Z 36
_cell_length_a 22.479491
_cell_length_b 12.978554
_cell_length_c 10.592615
_cell_angle_alpha 90.000000
_cell_angle_beta 135.023360
_cell_angle_gamma 90.000000
_cell_volume 2184.358081
_symmetry_space_group_name_H-M "C 2/M"
_symmetry_group_IT_number 12
_symmetry_cell_setting 'monoclinic'
loop_
_space_group_symop_operation_xyz
x,y,z
-x,y,-z
-x,-y,-z
x,-y,z
1/2+x,1/2+y,z
1/2-x,1/2+y,-z
1/2-x,1/2-y,-z
1/2+x,1/2-y,z
loop_
_atom_site_type_symbol
_atom_site_label
_atom_site_fract_x
_atom_site_fract_y
_atom_site_fract_z
Si Si1 0.313820 0.881823 0.796061
Si Si2 0.000000 0.758788 0.500000
Si Si3 0.567968 0.236389 0.203939
Si Si4 0.050209 0.381788 0.796061
Si Si5 0.879394 0.879394 0.500000
O O1 0.350143 0.810546 0.739885
O O2 0.217285 0.852996 0.674143
O O3 0.324501 0.000000 0.768980
O O4 0.362380 0.862381 1.000000
O O5 0.051931 0.687641 0.674142
O O6 0.933288 0.830498 0.469365
O O7 0.527760 0.147738 0.231019
O O8 0.595074 0.334645 0.325858
O O9 0.500000 0.275239 0.000000
O O10 0.039598 0.500000 0.739883
O O11 0.897210 0.000000 0.530635
#
# Coordination Sequence:
#
# PCOD8095118 Si02
#       5
#     8   4   8   8   8
#     4   9  17  30  49  71  92 114 143 183 229 271
#     4  10  20  32  46  64  90 124 156 184 214 256
#     4   9  17  30  49  71  92 114 143 183 229 271
#     4   9  17  30  49  71  92 114 143 183 229 271
#     4  10  20  32  46  64  90 124 156 184 214 256
#
# _framework density 16.480813000000001
#
# number of rings (size 3 to 8) (size 9 to 14) (size 15 to 20)
#    0.000    2.667    0.000    2.000    0.000    4.000 
#    0.000    0.000    0.000    1.333    0.000    0.000 
#    0.000    0.000    0.000    0.000    0.000    0.000 
#
# Total GULP energy -223237.459582 kJ/mol
# GULP energy per Si atom -12402.081088 kJ/mol
# Density = 1.644330 g / cm^3
# Si number density = 16.480813 Si / 1000 Ang^3
#
#
#
# Elastic Constant Matrix: (Units=GPa)
#
#
# Indices 1 2 3 4 5 6 
#
# 1 119.2324 76.2208 73.0715 0.0000 0.3616 0.0000
# 2 76.2208 119.2226 73.0838 0.0000 -0.3404 0.0000
# 3 73.0715 73.0838 109.1266 0.0000 -0.1301 0.0000
# 4 0.0000 0.0000 0.0000 25.9240 0.0000 -0.2782
# 5 0.3616 -0.3404 -0.1301 0.0000 25.9124 0.0000
# 6 0.0000 0.0000 0.0000 -0.2782 0.0000 21.4930
#
#
#
# Elastic Compliance Matrix: (Units=1/GPa)
#
#
# Indices 1 2 3 4 5 6 
#
# 1 0.016751 -0.006504 -0.006861 0.000000 -0.000354 0.000000
# 2 -0.006504 0.016756 -0.006866 0.000000 0.000276 0.000000
# 3 -0.006861 -0.006866 0.018356 0.000000 0.000098 0.000000
# 4 0.000000 0.000000 0.000000 0.038580 0.000000 0.000499
# 5 -0.000354 0.000276 0.000098 0.000000 0.038601 0.000000
# 6 0.000000 0.000000 0.000000 0.000499 0.000000 0.046533
#
#
# Mechanical properties :
#
#
# Convention : Reuss Voigt Hill
#
# Bulk Modulus (GPa) = 87.71590 88.03708 87.87649
# Shear Modulus (GPa) = 22.74414 23.01291 22.87852
#
# Velocity S-wave (km/s) = 3.71892 3.74082 3.72989
# Velocity P-wave (km/s) = 8.47225 8.49660 8.48443
#
# Compressibility (1/GPa) = 0.01140044
#
# Stress axis : x y z
#
# Youngs Moduli (GPa) = 59.69964 59.68187 54.47873
#
# Poissons Ratio (x) = 0.38819 0.37376
# Poissons Ratio (y) = 0.38830 0.37404
# Poissons Ratio (z) = 0.40957 0.40976
#
# Static dielectric constant tensor:
#      x y z
#    x 3.029830 0.000000 0.001610 
#    y 0.000000 3.029830 0.000000 
#    z 0.001610 0.000000 3.225550 
# 
# 
# High freq. dielectric constant tensor:
#      x y z
#    x 1.632990 0.000000 0.000060 
#    y 0.000000 1.632990 0.000000 
#    z 0.000060 0.000000 1.640160 
# 
# From -- ./inp_files/58681.got.cif
#   From: 2010.06.25/outbox.cif.g09.slc.cpg/sg12_30_cif.got.tgz:58681.got - 2010.06.28 00:19:55.
