data_PCOD8095338
_publ_section_title
;
Structure prediction by ZEFSAII (Michael W. Deem and Ramdas Pophale) SiO2 
 PCOD8095338
Probable space group: C 2/M
;
_chemical_formula_sum "Si O2"
_cell_formula_units_Z 64
_cell_length_a 16.839815
_cell_length_b 12.734325
_cell_length_c 16.502223
_cell_angle_alpha 90.000000
_cell_angle_beta 91.718406
_cell_angle_gamma 90.000000
_cell_volume 3537.205908
_symmetry_space_group_name_H-M "C 2/M"
_symmetry_group_IT_number 12
_symmetry_cell_setting 'monoclinic'
loop_
_space_group_symop_operation_xyz
x,y,z
-x,y,-z
-x,-y,-z
x,-y,z
1/2+x,1/2+y,z
1/2-x,1/2+y,-z
1/2-x,1/2-y,-z
1/2+x,1/2-y,z
loop_
_atom_site_type_symbol
_atom_site_label
_atom_site_fract_x
_atom_site_fract_y
_atom_site_fract_z
Si Si1 0.025339 0.623613 0.681496
Si Si2 0.357618 0.799307 0.636852
Si Si3 0.583371 0.254391 0.532124
Si Si4 0.811221 0.875678 0.752930
Si Si5 0.418209 0.379575 0.900192
Si Si6 0.850439 0.268583 0.215441
Si Si7 0.812063 0.117693 0.354660
Si Si8 0.898981 0.877103 0.080135
O O1 0.033857 0.500000 0.676255
O O2 0.066515 0.669554 0.601796
O O3 0.069697 0.664937 0.763978
O O4 0.933342 0.655766 0.687137
O O5 0.375319 0.801162 0.542335
O O6 0.334725 0.683671 0.670455
O O7 0.282972 0.875377 0.646056
O O8 0.500000 0.306162 0.500000
O O9 0.645694 0.341605 0.562577
O O10 0.869007 0.829700 0.824805
O O11 0.722635 0.848683 0.779068
O O12 0.819652 0.000000 0.737441
O O13 0.394412 0.500000 0.902310
O O14 0.511009 0.365898 0.886237
O O15 0.392824 0.335671 0.987468
O O16 0.848099 0.177378 0.280516
O O17 0.848414 0.207426 0.129622
O O18 0.838913 0.000000 0.343365
O O19 0.871619 0.000000 0.088853
#
# Coordination Sequence:
#
# PCOD8095338 Si02
#       8
#     8   8   8   8   8   8   8   8
#     4  10  20  35  53  73  99 129 163 205 246 288
#     4  10  20  34  52  74  95 126 170 204 240 294
#     4   9  20  35  50  73  98 123 163 203 243 300
#     4  10  20  34  50  72 103 132 163 205 248 291
#     4   8  16  30  50  75  99 129 166 201 244 294
#     4  10  20  32  49  74 100 131 167 198 242 298
#     4  10  20  33  48  69  99 129 160 202 245 286
#     4   9  16  30  52  76 102 129 164 207 243 284
#
# _framework density 18.093377
#
# number of rings (size 3 to 8) (size 9 to 14) (size 15 to 20)
#    0.000    2.500    0.000    3.000    0.000    4.000 
#    0.000    6.250    0.000    0.000    0.000   17.500 
#    0.000    0.000    0.000    0.000    0.000    0.000 
#
# Total GULP energy -396645.095365 kJ/mol
# GULP energy per Si atom -12395.159230 kJ/mol
# Density = 1.805220 g / cm^3
# Si number density = 18.093377 Si / 1000 Ang^3
#
#
#
# Elastic Constant Matrix: (Units=GPa)
#
#
# Indices 1 2 3 4 5 6 
#
# 1 69.7518 30.0498 3.7656 0.0000 1.5346 0.0000
# 2 30.0498 87.6879 17.8248 0.0000 0.3998 0.0000
# 3 3.7656 17.8248 49.8214 0.0000 -5.7014 0.0000
# 4 0.0000 0.0000 0.0000 16.2369 0.0000 2.8102
# 5 1.5346 0.3998 -5.7014 0.0000 25.0941 0.0000
# 6 0.0000 0.0000 0.0000 2.8102 0.0000 18.8250
#
#
#
# Elastic Compliance Matrix: (Units=1/GPa)
#
#
# Indices 1 2 3 4 5 6 
#
# 1 0.016868 -0.005931 0.000760 0.000000 -0.000764 0.000000
# 2 -0.005931 0.014421 -0.004821 0.000000 -0.000962 0.000000
# 3 0.000760 -0.004821 0.022323 0.000000 0.005102 0.000000
# 4 0.000000 0.000000 0.000000 0.063222 0.000000 -0.009438
# 5 -0.000764 -0.000962 0.005102 0.000000 0.041071 0.000000
# 6 0.000000 0.000000 0.000000 -0.009438 0.000000 0.054530
#
#
# Mechanical properties :
#
#
# Convention : Reuss Voigt Hill
#
# Bulk Modulus (GPa) = 29.73897 34.50464 32.12181
# Shear Modulus (GPa) = 20.52299 22.40591 21.46445
#
# Velocity S-wave (km/s) = 3.37156 3.52284 3.44803
# Velocity P-wave (km/s) = 5.62394 5.97151 5.80032
#
# Compressibility (1/GPa) = 0.03362591
#
# Stress axis : x y z
#
# Youngs Moduli (GPa) = 59.28515 69.34267 44.79667
#
# Poissons Ratio (x) = 0.41129 -0.03403
# Poissons Ratio (y) = 0.35164 0.21598
# Poissons Ratio (z) = -0.04504 0.33433
#
# Static dielectric constant tensor:
#      x y z
#    x 3.478680 0.000000 0.197260 
#    y 0.000000 3.120520 0.000000 
#    z 0.197260 0.000000 3.472430 
# 
# 
# High freq. dielectric constant tensor:
#      x y z
#    x 1.706630 0.000000 0.008590 
#    y 0.000000 1.680870 0.000000 
#    z 0.008590 0.000000 1.698420 
# 
# From -- ./inp_files/223807.got.cif
#   From: 2010.06.25/outbox.cif.g09.slc.cpg/sg12_112_cif.got.tgz:223807.got - 2010.06.28 00:19:55.
