data_PCOD8095644
_publ_section_title
;
Structure prediction by ZEFSAII (Michael W. Deem and Ramdas Pophale) SiO2 
 PCOD8095644
Probable space group: C 2/M
;
_chemical_formula_sum "Si O2"
_cell_formula_units_Z 48
_cell_length_a 22.184655
_cell_length_b 9.462434
_cell_length_c 12.377396
_cell_angle_alpha 90.000000
_cell_angle_beta 108.907222
_cell_angle_gamma 90.000000
_cell_volume 2458.082211
_symmetry_space_group_name_H-M "C 2/M"
_symmetry_group_IT_number 12
_symmetry_cell_setting 'monoclinic'
loop_
_space_group_symop_operation_xyz
x,y,z
-x,y,-z
-x,-y,-z
x,-y,z
1/2+x,1/2+y,z
1/2-x,1/2+y,-z
1/2-x,1/2-y,-z
1/2+x,1/2-y,z
loop_
_atom_site_type_symbol
_atom_site_label
_atom_site_fract_x
_atom_site_fract_y
_atom_site_fract_z
Si Si1 0.574611 0.654014 0.558189
Si Si2 0.416736 0.837799 0.636484
Si Si3 0.223014 0.660611 0.386429
Si Si4 0.240312 0.335253 0.157202
Si Si5 0.037494 0.835650 0.764311
Si Si6 0.842707 0.836573 0.039859
O O1 0.500000 0.637014 0.500000
O O2 0.607731 0.500000 0.557358
O O3 0.600918 0.769327 0.490099
O O4 0.582602 0.701537 0.687184
O O5 0.353340 0.824238 0.670891
O O6 0.473907 0.758328 0.731622
O O7 0.436965 0.000000 0.629594
O O8 0.241552 0.500000 0.422911
O O9 0.250000 0.750000 0.500000
O O10 0.253217 0.709840 0.289348
O O11 0.223779 0.500000 0.143003
O O12 0.301626 0.294854 0.121896
O O13 0.178523 0.254038 0.075337
O O14 0.082558 0.805379 0.893524
O O15 0.016632 0.000000 0.747056
O O16 0.831987 0.000000 0.005693
#
# Coordination Sequence:
#
# PCOD8095644 Si02
#       6
#     8   8   8   8   8   8
#     4   8  15  28  47  70  99 137 174 207 251 308
#     4  10  20  33  48  75 109 138 173 218 263 311
#     4  10  23  39  56  78 107 144 182 216 261 321
#     4   9  19  37  57  78 106 139 175 220 269 313
#     4   9  18  32  52  78 104 137 178 215 260 317
#     4   9  18  34  58  83 105 132 176 226 265 311
#
# _framework density 19.527418000000001
#
# number of rings (size 3 to 8) (size 9 to 14) (size 15 to 20)
#    0.000    2.833    0.000    1.500    2.333    5.667 
#    0.000    0.833    0.000    5.000    0.000    0.000 
#    0.000    0.000    0.000    0.000    0.000    0.000 
#
# Total GULP energy -297476.654644 kJ/mol
# GULP energy per Si atom -12394.860610 kJ/mol
# Density = 1.948297 g / cm^3
# Si number density = 19.527418 Si / 1000 Ang^3
#
#
#
# Elastic Constant Matrix: (Units=GPa)
#
#
# Indices 1 2 3 4 5 6 
#
# 1 51.2817 32.1810 24.7380 0.0000 3.0516 0.0000
# 2 32.1810 86.8824 53.0135 0.0000 5.0782 0.0000
# 3 24.7380 53.0135 114.0005 0.0000 6.8616 0.0000
# 4 0.0000 0.0000 0.0000 31.3051 0.0000 1.4538
# 5 3.0516 5.0782 6.8616 0.0000 28.0299 0.0000
# 6 0.0000 0.0000 0.0000 1.4538 0.0000 21.3044
#
#
#
# Elastic Compliance Matrix: (Units=1/GPa)
#
#
# Indices 1 2 3 4 5 6 
#
# 1 0.025633 -0.008491 -0.001562 0.000000 -0.000870 0.000000
# 2 -0.008491 0.018915 -0.006905 0.000000 -0.000812 0.000000
# 3 -0.001562 -0.006905 0.012419 0.000000 -0.001619 0.000000
# 4 0.000000 0.000000 0.000000 0.032045 0.000000 -0.002187
# 5 -0.000870 -0.000812 -0.001619 0.000000 0.036314 0.000000
# 6 0.000000 0.000000 0.000000 -0.002187 0.000000 0.047088
#
#
# Mechanical properties :
#
#
# Convention : Reuss Voigt Hill
#
# Bulk Modulus (GPa) = 43.37729 52.44774 47.91251
# Shear Modulus (GPa) = 23.36288 25.61002 24.48645
#
# Velocity S-wave (km/s) = 3.46267 3.62538 3.54496
# Velocity P-wave (km/s) = 6.18454 6.66643 6.43000
#
# Compressibility (1/GPa) = 0.02305354
#
# Stress axis : x y z
#
# Youngs Moduli (GPa) = 39.01147 52.86684 80.52074
#
# Poissons Ratio (x) = 0.44889 0.12574
# Poissons Ratio (y) = 0.33124 0.55598
# Poissons Ratio (z) = 0.06092 0.36504
#
# Static dielectric constant tensor:
#      x y z
#    x 3.453910 0.000000 -0.054690 
#    y 0.000000 3.540630 0.000000 
#    z -0.054690 0.000000 4.110820 
# 
# 
# High freq. dielectric constant tensor:
#      x y z
#    x 1.747460 0.000000 0.011790 
#    y 0.000000 1.750940 0.000000 
#    z 0.011790 0.000000 1.752720 
# 
# From -- ./inp_files/173053.got.cif
#   From: 2010.06.25/outbox.cif.g09.slc.cpg/sg12_87_cif.got.tgz:173053.got - 2010.06.28 00:19:55.
