data_PCOD8095176
_publ_section_title
;
Structure prediction by ZEFSAII (Michael W. Deem and Ramdas Pophale) SiO2 
 PCOD8095176
Probable space group: C 2/M
;
_chemical_formula_sum "Si O2"
_cell_formula_units_Z 64
_cell_length_a 18.545809
_cell_length_b 18.281398
_cell_length_c 12.767492
_cell_angle_alpha 90.000000
_cell_angle_beta 119.344969
_cell_angle_gamma 90.000000
_cell_volume 3773.291072
_symmetry_space_group_name_H-M "C 2/M"
_symmetry_group_IT_number 12
_symmetry_cell_setting 'monoclinic'
loop_
_space_group_symop_operation_xyz
x,y,z
-x,y,-z
-x,-y,-z
x,-y,z
1/2+x,1/2+y,z
1/2-x,1/2+y,-z
1/2-x,1/2-y,-z
1/2+x,1/2-y,z
loop_
_atom_site_type_symbol
_atom_site_label
_atom_site_fract_x
_atom_site_fract_y
_atom_site_fract_z
Si Si1 0.008523 0.819501 0.887016
Si Si2 0.828758 0.839856 0.740521
Si Si3 0.318961 0.835443 0.967344
Si Si4 0.469687 0.084412 0.590420
Si Si5 0.314904 0.661278 0.964905
Si Si6 0.328353 0.166387 0.741734
Si Si7 0.011534 0.663736 0.819176
Si Si8 0.782259 0.584944 0.510192
O O1 0.925384 0.864801 0.801887
O O2 0.014741 0.751393 0.812394
O O3 0.000000 0.787630 0.000000
O O4 0.092530 0.868141 0.938685
O O5 0.792657 0.861577 0.829673
O O6 0.821571 0.753004 0.717766
O O7 0.782245 0.882966 0.617700
O O8 0.320339 0.748407 0.977724
O O9 0.293894 0.857088 0.831201
O O10 0.252859 0.869888 0.002251
O O11 0.410605 0.866089 0.058395
O O12 0.500000 0.111618 0.500000
O O13 0.520461 0.131970 0.709358
O O14 0.372409 0.099233 0.527649
O O15 0.491142 0.000000 0.625431
O O16 0.423750 0.139055 0.805542
O O17 0.273370 0.125681 0.615373
O O18 0.763433 0.500000 0.514274
#
# Coordination Sequence:
#
# PCOD8095176 Si02
#       8
#     8   8   8   8   8   8   8   8
#     4   8  14  27  46  68  93 114 136 183 236 274
#     4   9  16  28  50  69  89 119 152 184 226 279
#     4   9  15  25  44  69  95 116 144 186 224 275
#     4   9  19  32  41  56  88 125 154 186 225 262
#     4   8  15  25  43  72  94 113 141 183 238 272
#     4   9  17  30  45  68  94 121 149 186 230 267
#     4   9  15  25  45  64  86 119 150 176 218 271
#     4  10  20  32  47  65  89 122 161 194 221 267
#
# _framework density 16.961321000000002
#
# number of rings (size 3 to 8) (size 9 to 14) (size 15 to 20)
#    0.000    3.125    0.000    3.000    1.750    0.000 
#    0.000    0.625    0.000    9.000    0.000    0.875 
#    0.000    0.000    0.000    0.000    0.000    0.000 
#
# Total GULP energy -396577.813711 kJ/mol
# GULP energy per Si atom -12393.056678 kJ/mol
# Density = 1.692272 g / cm^3
# Si number density = 16.961321 Si / 1000 Ang^3
#
#
#
# Elastic Constant Matrix: (Units=GPa)
#
#
# Indices 1 2 3 4 5 6 
#
# 1 83.3145 17.7906 55.0118 0.0000 -7.7895 0.0000
# 2 17.7906 31.6936 35.3231 0.0000 -1.6384 0.0000
# 3 55.0118 35.3231 134.2777 0.0000 -2.4533 0.0000
# 4 0.0000 0.0000 0.0000 4.5760 0.0000 -1.5631
# 5 -7.7895 -1.6384 -2.4533 0.0000 28.1140 0.0000
# 6 0.0000 0.0000 0.0000 -1.5631 0.0000 12.6011
#
#
#
# Elastic Compliance Matrix: (Units=1/GPa)
#
#
# Indices 1 2 3 4 5 6 
#
# 1 0.017032 -0.002345 -0.006287 0.000000 0.004034 0.000000
# 2 -0.002345 0.045033 -0.010867 0.000000 0.001026 0.000000
# 3 -0.006287 -0.010867 0.012859 0.000000 -0.001253 0.000000
# 4 0.000000 0.000000 0.000000 0.228201 0.000000 0.028308
# 5 0.004034 0.001026 -0.001253 0.000000 0.036637 0.000000
# 6 0.000000 0.000000 0.000000 0.028308 0.000000 0.082870
#
#
# Mechanical properties :
#
#
# Convention : Reuss Voigt Hill
#
# Bulk Modulus (GPa) = 27.83529 51.72630 39.78080
# Shear Modulus (GPa) = 10.55731 18.46892 14.51312
#
# Velocity S-wave (km/s) = 2.49757 3.30340 2.92834
# Velocity P-wave (km/s) = 4.97633 6.71661 5.91086
#
# Compressibility (1/GPa) = 0.03592561
#
# Stress axis : x y z
#
# Youngs Moduli (GPa) = 58.71327 22.20601 77.76777
#
# Poissons Ratio (x) = 0.05207 0.48894
# Poissons Ratio (y) = 0.13767 0.84510
# Poissons Ratio (z) = 0.36914 0.24131
#
# Static dielectric constant tensor:
#      x y z
#    x 3.424520 0.000000 0.003280 
#    y 0.000000 2.703990 0.000000 
#    z 0.003280 0.000000 3.257730 
# 
# 
# High freq. dielectric constant tensor:
#      x y z
#    x 1.651650 0.000000 0.001940 
#    y 0.000000 1.599630 0.000000 
#    z 0.001940 0.000000 1.659270 
# 
# From -- ./inp_files/169221.got.cif
#   From: 2010.06.25/outbox.cif.g09.slc.cpg/sg12_85_cif.got.tgz:169221.got - 2010.06.28 00:19:55.
