data_PCOD8095331
_publ_section_title
;
Structure prediction by ZEFSAII (Michael W. Deem and Ramdas Pophale) SiO2 
 PCOD8095331
Probable space group: C 2/M
;
_chemical_formula_sum "Si O2"
_cell_formula_units_Z 48
_cell_length_a 24.813492
_cell_length_b 9.029501
_cell_length_c 12.387578
_cell_angle_alpha 90.000000
_cell_angle_beta 89.396792
_cell_angle_gamma 90.000000
_cell_volume 2775.325785
_symmetry_space_group_name_H-M "C 2/M"
_symmetry_group_IT_number 12
_symmetry_cell_setting 'monoclinic'
loop_
_space_group_symop_operation_xyz
x,y,z
-x,y,-z
-x,-y,-z
x,-y,z
1/2+x,1/2+y,z
1/2-x,1/2+y,-z
1/2-x,1/2-y,-z
1/2+x,1/2-y,z
loop_
_atom_site_type_symbol
_atom_site_label
_atom_site_fract_x
_atom_site_fract_y
_atom_site_fract_z
Si Si1 0.432939 0.828251 0.795394
Si Si2 0.936051 0.833021 0.008450
Si Si3 0.639486 0.667554 0.368092
Si Si4 0.941819 0.673191 0.222803
Si Si5 0.862325 0.827427 0.377643
Si Si6 0.741823 0.171336 0.612659
O O1 0.398294 0.781299 0.693225
O O2 0.494966 0.792952 0.768674
O O3 0.424389 0.000000 0.819474
O O4 0.412059 0.740129 0.900863
O O5 0.917419 0.739683 0.112725
O O6 0.913963 0.000000 0.019088
O O7 0.000000 0.830028 0.000000
O O8 0.619965 0.500000 0.345804
O O9 0.634932 0.702637 0.494935
O O10 0.701356 0.686981 0.325189
O O11 0.929103 0.500000 0.225464
O O12 0.914623 0.753217 0.324571
O O13 0.808384 0.752009 0.327552
O O14 0.860961 0.000000 0.349949
O O15 0.750000 0.250000 0.500000
O O16 0.727394 0.000000 0.594352
#
# Coordination Sequence:
#
# PCOD8095331 Si02
#       6
#     8   8   8   8   8   8
#     4  10  20  32  49  73 100 130 163 200 242 287
#     4   9  17  31  51  71  93 125 164 202 239 284
#     4   9  19  33  49  71  99 130 163 199 240 288
#     4  10  20  33  49  72 101 130 162 201 243 288
#     4  10  20  33  50  73  99 130 166 202 243 289
#     4   9  17  31  50  71  95 126 164 203 241 284
#
# _framework density 17.295266000000002
#
# number of rings (size 3 to 8) (size 9 to 14) (size 15 to 20)
#    0.000    2.500    0.000    3.500    0.000    8.667 
#    0.000    3.333    0.000    1.000    0.000    0.000 
#    0.000    0.000    0.000    0.000    0.000    0.000 
#
# Total GULP energy -297558.396540 kJ/mol
# GULP energy per Si atom -12398.266522 kJ/mol
# Density = 1.725590 g / cm^3
# Si number density = 17.295266 Si / 1000 Ang^3
#
#
#
# Elastic Constant Matrix: (Units=GPa)
#
#
# Indices 1 2 3 4 5 6 
#
# 1 71.2519 54.4764 39.8289 0.0000 6.6349 0.0000
# 2 54.4764 123.4056 43.9689 0.0000 7.9063 0.0000
# 3 39.8289 43.9689 67.4052 0.0000 8.2740 0.0000
# 4 0.0000 0.0000 0.0000 34.0581 0.0000 -0.8513
# 5 6.6349 7.9063 8.2740 0.0000 4.8594 0.0000
# 6 0.0000 0.0000 0.0000 -0.8513 0.0000 31.3592
#
#
#
# Elastic Compliance Matrix: (Units=1/GPa)
#
#
# Indices 1 2 3 4 5 6 
#
# 1 0.025717 -0.007558 -0.009438 0.000000 -0.006747 0.000000
# 2 -0.007558 0.012964 -0.003373 0.000000 -0.005030 0.000000
# 3 -0.009438 -0.003373 0.025736 0.000000 -0.025446 0.000000
# 4 0.000000 0.000000 0.000000 0.029382 0.000000 0.000798
# 5 -0.006747 -0.005030 -0.025446 0.000000 0.266508 0.000000
# 6 0.000000 0.000000 0.000000 0.000798 0.000000 0.031910
#
#
# Mechanical properties :
#
#
# Convention : Reuss Voigt Hill
#
# Bulk Modulus (GPa) = 42.23019 59.84568 51.03793
# Shear Modulus (GPa) = 11.34182 22.30791 16.82486
#
# Velocity S-wave (km/s) = 2.56359 3.59531 3.12236
# Velocity P-wave (km/s) = 5.76479 7.20503 6.52477
#
# Compressibility (1/GPa) = 0.02367974
#
# Stress axis : x y z
#
# Youngs Moduli (GPa) = 38.88519 77.13842 38.85593
#
# Poissons Ratio (x) = 0.58298 0.36671
# Poissons Ratio (y) = 0.29388 0.13107
# Poissons Ratio (z) = 0.36698 0.26021
#
# Static dielectric constant tensor:
#      x y z
#    x 3.267760 0.000000 -0.043740 
#    y 0.000000 3.434910 0.000000 
#    z -0.043740 0.000000 3.052940 
# 
# 
# High freq. dielectric constant tensor:
#      x y z
#    x 1.651300 0.000000 -0.002290 
#    y 0.000000 1.687430 0.000000 
#    z -0.002290 0.000000 1.645590 
# 
# From -- ./inp_files/172068.got.cif
#   From: 2010.06.25/outbox.cif.g09.slc.cpg/sg12_87_cif.got.tgz:172068.got - 2010.06.28 00:19:55.
