data_PCOD8095379
_publ_section_title
;
Structure prediction by ZEFSAII (Michael W. Deem and Ramdas Pophale) SiO2 
 PCOD8095379
Probable space group: C 2/M
;
_chemical_formula_sum "Si O2"
_cell_formula_units_Z 64
_cell_length_a 12.880439
_cell_length_b 22.155609
_cell_length_c 18.382327
_cell_angle_alpha 90.000000
_cell_angle_beta 45.516792
_cell_angle_gamma 90.000000
_cell_volume 3742.673488
_symmetry_space_group_name_H-M "C 2/M"
_symmetry_group_IT_number 12
_symmetry_cell_setting 'monoclinic'
loop_
_space_group_symop_operation_xyz
x,y,z
-x,y,-z
-x,-y,-z
x,-y,z
1/2+x,1/2+y,z
1/2-x,1/2+y,-z
1/2-x,1/2-y,-z
1/2+x,1/2-y,z
loop_
_atom_site_type_symbol
_atom_site_label
_atom_site_fract_x
_atom_site_fract_y
_atom_site_fract_z
Si Si1 0.582010 0.860957 0.118665
Si Si2 0.266454 0.163618 0.613219
Si Si3 0.099327 0.070142 0.780921
Si Si4 0.819338 0.139045 0.881336
Si Si5 0.007105 0.336381 0.613220
Si Si6 0.379029 0.932961 0.120971
Si Si7 0.497612 0.249999 0.252388
Si Si8 0.338829 0.070142 0.780921
O O1 0.444106 0.899496 0.159229
O O2 0.515060 0.798934 0.180470
O O3 0.671552 0.898282 0.135463
O O4 0.690728 0.845435 0.000001
O O5 0.187459 0.100506 0.671116
O O6 0.329922 0.158968 0.499999
O O7 0.396088 0.176944 0.603912
O O8 0.159114 0.219558 0.675585
O O9 0.185299 0.079809 0.814699
O O10 0.942475 0.101718 0.864537
O O11 0.080464 0.000000 0.772021
O O12 0.762561 0.100507 0.840771
O O13 0.875996 0.201068 0.819534
O O14 0.989711 0.280442 0.675587
O O15 0.970307 0.399494 0.671117
O O16 0.331677 0.000000 0.168320
O O17 0.500000 0.936518 0.000000
O O18 0.375491 0.000000 0.772021
#
# Coordination Sequence:
#
# PCOD8095379 Si02
#       8
#     8   8   8   8   8   8   8   8
#     4  10  20  33  49  72 100 134 169 207 249 291
#     4   9  18  32  50  72  97 125 159 202 249 297
#     4   9  18  32  50  74 101 129 163 201 245 297
#     4  10  20  33  49  72 100 134 169 207 249 291
#     4   9  18  32  50  72  97 125 159 202 249 297
#     4   9  18  32  50  70  93 127 172 211 243 287
#     4  10  20  32  50  70 100 128 166 204 248 300
#     4   9  18  32  50  74 101 129 163 201 245 297
#
# _framework density 17.100076000000001
#
# number of rings (size 3 to 8) (size 9 to 14) (size 15 to 20)
#    0.000    2.625    0.000    1.500    1.750    2.500 
#    0.000    3.750    0.000    0.000    0.000    0.000 
#    0.000   10.500    0.000    0.000    0.000    0.000 
#
# Total GULP energy -396775.848444 kJ/mol
# GULP energy per Si atom -12399.245264 kJ/mol
# Density = 1.706116 g / cm^3
# Si number density = 17.100076 Si / 1000 Ang^3
#
#
#
# Elastic Constant Matrix: (Units=GPa)
#
#
# Indices 1 2 3 4 5 6 
#
# 1 70.3489 33.6576 22.5574 0.0002 0.1542 -0.0002
# 2 33.6576 109.9914 27.1512 -0.0002 0.1091 0.0001
# 3 22.5574 27.1512 76.3383 0.0004 -0.2492 0.0000
# 4 0.0002 -0.0002 0.0004 15.1101 -0.0004 0.2317
# 5 0.1542 0.1091 -0.2492 -0.0004 19.2916 0.0002
# 6 -0.0002 0.0001 0.0000 0.2317 0.0002 29.1201
#
#
#
# Elastic Compliance Matrix: (Units=1/GPa)
#
#
# Indices 1 2 3 4 5 6 
#
# 1 0.017503 -0.004472 -0.003582 0.000000 -0.000161 0.000000
# 2 -0.004472 0.011109 -0.002630 0.000000 -0.000061 0.000000
# 3 -0.003582 -0.002630 0.015094 0.000000 0.000238 0.000000
# 4 0.000000 0.000000 0.000000 0.066189 0.000001 -0.000527
# 5 -0.000161 -0.000061 0.000238 0.000001 0.051841 0.000000
# 6 0.000000 0.000000 0.000000 -0.000527 0.000000 0.034345
#
#
# Mechanical properties :
#
#
# Convention : Reuss Voigt Hill
#
# Bulk Modulus (GPa) = 44.76472 47.04566 45.90519
# Shear Modulus (GPa) = 22.23258 24.25852 23.24555
#
# Velocity S-wave (km/s) = 3.60966 3.77054 3.69098
# Velocity P-wave (km/s) = 6.60362 6.82112 6.71325
#
# Compressibility (1/GPa) = 0.02233902
#
# Stress axis : x y z
#
# Youngs Moduli (GPa) = 57.13229 90.01519 66.25008
#
# Poissons Ratio (x) = 0.40251 0.23732
# Poissons Ratio (y) = 0.25547 0.17424
# Poissons Ratio (z) = 0.20466 0.23675
#
# Static dielectric constant tensor:
#      x y z
#    x 3.235720 0.000000 0.000760 
#    y 0.000000 3.296280 0.000000 
#    z 0.000760 0.000000 3.190380 
# 
# 
# High freq. dielectric constant tensor:
#      x y z
#    x 1.658800 0.000000 0.000180 
#    y 0.000000 1.669400 0.000000 
#    z 0.000180 0.000000 1.647980 
# 
# From -- ./inp_files/265069.got.cif
#   From: 2010.06.25/outbox.cif.g09.slc.cpg/sg12_133_cif.got.tgz:265069.got - 2010.06.28 00:19:55.
