data_PCOD8095593
_publ_section_title
;
Structure prediction by ZEFSAII (Michael W. Deem and Ramdas Pophale) SiO2 
 PCOD8095593
Probable space group: C 2/M
;
_chemical_formula_sum "Si O2"
_cell_formula_units_Z 48
_cell_length_a 28.262281
_cell_length_b 8.773833
_cell_length_c 11.458145
_cell_angle_alpha 90.000000
_cell_angle_beta 78.011982
_cell_angle_gamma 90.000000
_cell_volume 2779.294555
_symmetry_space_group_name_H-M "C 2/M"
_symmetry_group_IT_number 12
_symmetry_cell_setting 'monoclinic'
loop_
_space_group_symop_operation_xyz
x,y,z
-x,y,-z
-x,-y,-z
x,-y,z
1/2+x,1/2+y,z
1/2-x,1/2+y,-z
1/2-x,1/2-y,-z
1/2+x,1/2-y,z
loop_
_atom_site_type_symbol
_atom_site_label
_atom_site_fract_x
_atom_site_fract_y
_atom_site_fract_z
Si Si1 0.223262 0.175825 0.339493
Si Si2 0.491399 0.166933 0.867426
Si Si3 0.678684 0.822535 0.577585
Si Si4 0.594377 0.182403 0.785400
Si Si5 0.889283 0.317523 0.964019
Si Si6 0.708698 0.179737 0.100128
O O1 0.277168 0.206986 0.357172
O O2 0.184700 0.225962 0.456951
O O3 0.215461 0.276762 0.230189
O O4 0.215162 0.000000 0.312200
O O5 0.539681 0.248731 0.789732
O O6 0.438940 0.248830 0.877719
O O7 0.488027 0.000000 0.811041
O O8 0.500000 0.149251 0.000000
O O9 0.630186 0.761820 0.665332
O O10 0.675466 0.000000 0.546044
O O11 0.592403 0.000000 0.788909
O O12 0.614349 0.240358 0.900268
O O13 0.892102 0.500000 0.960723
O O14 0.843066 0.256530 0.917320
O O15 0.710966 0.000000 0.084242
O O16 0.750000 0.250000 0.000000
#
# Coordination Sequence:
#
# PCOD8095593 Si02
#       6
#     8   8   8   8   8   8
#     4  10  20  33  47  65  91 120 151 185 222 265
#     4   7  10  18  35  61  90 115 139 173 221 267
#     4   9  17  30  48  68  90 116 148 188 229 266
#     4   8  12  21  41  67  91 113 141 180 225 267
#     4   8  14  24  39  63  94 121 142 174 221 266
#     4  11  21  32  47  67  93 122 151 181 217 264
#
# _framework density 17.270571
#
# number of rings (size 3 to 8) (size 9 to 14) (size 15 to 20)
#    0.000    3.167    0.000    4.000    0.000    3.333 
#    0.000    0.000    0.000    1.000    0.000    9.333 
#    0.000   11.333    0.000    0.000    0.000    0.000 
#
# Total GULP energy -297336.045743 kJ/mol
# GULP energy per Si atom -12389.001906 kJ/mol
# Density = 1.723126 g / cm^3
# Si number density = 17.270571 Si / 1000 Ang^3
#
#
#
# Elastic Constant Matrix: (Units=GPa)
#
#
# Indices 1 2 3 4 5 6 
#
# 1 141.0908 25.7861 68.2445 0.0000 -26.5883 0.0000
# 2 25.7861 26.3552 18.2951 0.0000 -1.2907 0.0000
# 3 68.2445 18.2951 94.9238 0.0000 -20.8868 0.0000
# 4 0.0000 0.0000 0.0000 22.9532 0.0000 -0.5215
# 5 -26.5883 -1.2907 -20.8868 0.0000 33.0432 0.0000
# 6 0.0000 0.0000 0.0000 -0.5215 0.0000 14.0554
#
#
#
# Elastic Compliance Matrix: (Units=1/GPa)
#
#
# Indices 1 2 3 4 5 6 
#
# 1 0.012667 -0.007716 -0.006323 0.000000 0.005894 0.000000
# 2 -0.007716 0.049014 -0.005627 0.000000 -0.007851 0.000000
# 3 -0.006323 -0.005627 0.017420 0.000000 0.005704 0.000000
# 4 0.000000 0.000000 0.000000 0.043604 0.000000 0.001618
# 5 0.005894 -0.007851 0.005704 0.000000 0.038305 0.000000
# 6 0.000000 0.000000 0.000000 0.001618 0.000000 0.071207
#
#
# Mechanical properties :
#
#
# Convention : Reuss Voigt Hill
#
# Bulk Modulus (GPa) = 25.14454 54.11347 39.62900
# Shear Modulus (GPa) = 17.55598 24.01331 20.78465
#
# Velocity S-wave (km/s) = 3.19176 3.73288 3.47287
# Velocity P-wave (km/s) = 5.30791 7.06965 6.25115
#
# Compressibility (1/GPa) = 0.03977007
#
# Stress axis : x y z
#
# Youngs Moduli (GPa) = 78.94709 20.40240 57.40562
#
# Poissons Ratio (x) = 0.15742 0.36295
# Poissons Ratio (y) = 0.60912 0.32302
# Poissons Ratio (z) = 0.49915 0.11481
#
# Static dielectric constant tensor:
#      x y z
#    x 3.729800 0.000000 -0.278720 
#    y 0.000000 2.793850 0.000000 
#    z -0.278720 0.000000 3.184170 
# 
# 
# High freq. dielectric constant tensor:
#      x y z
#    x 1.676820 0.000000 -0.022440 
#    y 0.000000 1.618490 0.000000 
#    z -0.022440 0.000000 1.647300 
# 
# From -- ./inp_files/179192.got.cif
#   From: 2010.06.25/outbox.cif.g09.slc.cpg/sg12_90_cif.got.tgz:179192.got - 2010.06.28 00:19:55.
