data_PCOD8095965
_publ_section_title
;
Structure prediction by ZEFSAII (Michael W. Deem and Ramdas Pophale) SiO2 
 PCOD8095965
Probable space group: C 2/M
;
_chemical_formula_sum "Si O2"
_cell_formula_units_Z 64
_cell_length_a 29.814626
_cell_length_b 8.803180
_cell_length_c 15.034654
_cell_angle_alpha 90.000000
_cell_angle_beta 78.225540
_cell_angle_gamma 90.000000
_cell_volume 3863.017218
_symmetry_space_group_name_H-M "C 2/M"
_symmetry_group_IT_number 12
_symmetry_cell_setting 'monoclinic'
loop_
_space_group_symop_operation_xyz
x,y,z
-x,y,-z
-x,-y,-z
x,-y,z
1/2+x,1/2+y,z
1/2-x,1/2+y,-z
1/2-x,1/2-y,-z
1/2+x,1/2-y,z
loop_
_atom_site_type_symbol
_atom_site_label
_atom_site_fract_x
_atom_site_fract_y
_atom_site_fract_z
Si Si1 0.791126 0.180014 0.792403
Si Si2 0.557847 0.675927 0.066646
Si Si3 0.215226 0.321628 0.392159
Si Si4 0.454891 0.675766 0.132074
Si Si5 0.627438 0.821185 0.749221
Si Si6 0.190897 0.680212 0.883530
Si Si7 0.147918 0.321136 0.084280
Si Si8 0.314649 0.678380 0.420931
O O1 0.801443 0.242221 0.690622
O O2 0.742158 0.242140 0.847261
O O3 0.830763 0.238252 0.840188
O O4 0.791328 0.000000 0.789365
O O5 0.571365 0.500000 0.071349
O O6 0.508284 0.706954 0.130317
O O7 0.594332 0.780216 0.102558
O O8 0.556716 0.722759 0.963943
O O9 0.208338 0.500000 0.386112
O O10 0.267996 0.277246 0.388631
O O11 0.183708 0.260083 0.484512
O O12 0.443017 0.500000 0.152612
O O13 0.425229 0.778571 0.210677
O O14 0.658308 0.758504 0.818221
O O15 0.642742 0.738439 0.653094
O O16 0.632858 0.000000 0.734227
O O17 0.189671 0.500000 0.883915
O O18 0.172716 0.741818 0.985254
O O19 0.154221 0.500000 0.092341
O O20 0.318616 0.500000 0.434685
#
# Coordination Sequence:
#
# PCOD8095965 Si02
#       8
#     8   8   8   8   8   8   8   8
#     4  11  21  35  51  69  98 137 175 210 250 295
#     4   9  18  33  50  70  97 131 168 208 253 299
#     4  10  20  34  51  73  98 129 167 210 252 294
#     4   9  18  32  50  72  99 129 166 208 252 303
#     4  11  19  31  50  75 103 133 168 206 250 299
#     4   9  19  32  46  68 100 135 171 208 243 288
#     4  11  21  34  49  71 100 133 175 215 250 293
#     4  10  20  33  51  74 100 131 165 204 252 302
#
# _framework density 16.567360999999998
#
# number of rings (size 3 to 8) (size 9 to 14) (size 15 to 20)
#    0.000    2.000    2.500    3.000    0.000    1.500 
#    0.000    3.125    0.000    0.000    0.000    0.875 
#    0.000    7.000    0.000    0.000    0.000    0.000 
#
# Total GULP energy -396918.894486 kJ/mol
# GULP energy per Si atom -12403.715453 kJ/mol
# Density = 1.652965 g / cm^3
# Si number density = 16.567361 Si / 1000 Ang^3
#
#
#
# Elastic Constant Matrix: (Units=GPa)
#
#
# Indices 1 2 3 4 5 6 
#
# 1 84.3148 28.8786 52.1584 0.0000 -3.5870 0.0000
# 2 28.8786 59.7841 36.3574 0.0000 0.1099 0.0000
# 3 52.1584 36.3574 108.4340 0.0000 -0.7366 0.0000
# 4 0.0000 0.0000 0.0000 27.6671 0.0000 -1.9690
# 5 -3.5870 0.1099 -0.7366 0.0000 23.2871 0.0000
# 6 0.0000 0.0000 0.0000 -1.9690 0.0000 26.2010
#
#
#
# Elastic Compliance Matrix: (Units=1/GPa)
#
#
# Indices 1 2 3 4 5 6 
#
# 1 0.017849 -0.004291 -0.007130 0.000000 0.002544 0.000000
# 2 -0.004291 0.022045 -0.005334 0.000000 -0.000934 0.000000
# 3 -0.007130 -0.005334 0.014436 0.000000 -0.000616 0.000000
# 4 0.000000 0.000000 0.000000 0.036338 0.000000 0.002731
# 5 0.002544 -0.000934 -0.000616 0.000000 0.043319 0.000000
# 6 0.000000 0.000000 0.000000 0.002731 0.000000 0.038372
#
#
# Mechanical properties :
#
#
# Convention : Reuss Voigt Hill
#
# Bulk Modulus (GPa) = 48.02830 54.14688 51.08759
# Shear Modulus (GPa) = 23.49543 24.44028 23.96785
#
# Velocity S-wave (km/s) = 3.76995 3.84501 3.80767
# Velocity P-wave (km/s) = 6.92840 7.24334 7.08762
#
# Compressibility (1/GPa) = 0.02082106
#
# Stress axis : x y z
#
# Youngs Moduli (GPa) = 56.02693 45.36165 69.27158
#
# Poissons Ratio (x) = 0.19463 0.49387
# Poissons Ratio (y) = 0.24039 0.36950
# Poissons Ratio (z) = 0.39945 0.24196
#
# Static dielectric constant tensor:
#      x y z
#    x 2.994040 0.000000 -0.093390 
#    y 0.000000 3.001440 0.000000 
#    z -0.093390 0.000000 3.047920 
# 
# 
# High freq. dielectric constant tensor:
#      x y z
#    x 1.618760 0.000000 -0.010630 
#    y 0.000000 1.639700 0.000000 
#    z -0.010630 0.000000 1.626700 
# 
# From -- ./inp_files/243810.got.cif
#   From: 2010.06.25/outbox.cif.g09.slc.cpg/sg12_122_cif.got.tgz:243810.got - 2010.06.28 00:19:55.
