data_PCOD8095871
_publ_section_title
;
Structure prediction by ZEFSAII (Michael W. Deem and Ramdas Pophale) SiO2 
 PCOD8095871
Probable space group: C 2/M
;
_chemical_formula_sum "Si O2"
_cell_formula_units_Z 64
_cell_length_a 27.827208
_cell_length_b 18.647113
_cell_length_c 21.316734
_cell_angle_alpha 90.000000
_cell_angle_beta 161.056550
_cell_angle_gamma 90.000000
_cell_volume 3590.847450
_symmetry_space_group_name_H-M "C 2/M"
_symmetry_group_IT_number 12
_symmetry_cell_setting 'monoclinic'
loop_
_space_group_symop_operation_xyz
x,y,z
-x,y,-z
-x,-y,-z
x,-y,z
1/2+x,1/2+y,z
1/2-x,1/2+y,-z
1/2-x,1/2-y,-z
1/2+x,1/2-y,z
loop_
_atom_site_type_symbol
_atom_site_label
_atom_site_fract_x
_atom_site_fract_y
_atom_site_fract_z
Si Si1 0.462472 0.418712 0.162677
Si Si2 0.200861 0.416056 0.401771
Si Si3 0.680870 0.799784 0.599589
Si Si4 0.584012 0.200897 0.167953
Si Si5 0.133554 0.753649 0.767016
Si Si6 0.843566 0.200213 0.924852
Si Si7 0.746256 0.366530 0.992610
Si Si8 0.561938 0.081287 0.361727
O O1 0.460750 0.500000 0.135485
O O2 0.628265 0.393322 0.381804
O O3 0.392028 0.370445 0.021577
O O4 0.369834 0.414572 0.112560
O O5 0.182036 0.500000 0.364027
O O6 0.126531 0.373452 0.253086
O O7 0.120888 0.393381 0.367265
O O8 0.767830 0.746343 0.661197
O O9 0.541469 0.757367 0.456053
O O10 0.785954 0.825264 0.785951
O O11 0.632985 0.870419 0.503409
O O12 0.500000 0.181969 0.000000
O O13 0.481434 0.246475 0.088088
O O14 0.212587 0.742762 0.798035
O O15 0.197752 0.697558 0.895304
O O16 0.166142 0.833814 0.832328
O O17 0.884253 0.414548 0.141592
O O18 0.611136 0.000000 0.436410
#
# Coordination Sequence:
#
# PCOD8095871 Si02
#       8
#     8   8   8   8   8   8   8   8
#     4  10  20  33  50  74 103 135 171 208 248 298
#     4  10  21  36  54  76 100 128 165 208 254 304
#     4  10  20  33  50  74 103 135 171 208 248 298
#     4  10  21  36  54  76 100 128 165 208 254 304
#     4   9  17  30  49  71  95 127 167 209 250 289
#     4  10  20  33  50  74 103 135 171 208 248 298
#     4   9  17  30  49  71  95 127 167 209 250 289
#     4  10  20  33  50  74 103 135 171 208 248 298
#
# _framework density 17.823091000000002
#
# number of rings (size 3 to 8) (size 9 to 14) (size 15 to 20)
#    0.000    2.250    0.000    3.000    0.000    4.750 
#    0.000    0.000    0.000    9.000    0.000    0.000 
#    0.000   18.000    0.000    0.000    0.000    0.000 
#
# Total GULP energy -396878.870166 kJ/mol
# GULP energy per Si atom -12402.464693 kJ/mol
# Density = 1.778252 g / cm^3
# Si number density = 17.823091 Si / 1000 Ang^3
#
#
#
# Elastic Constant Matrix: (Units=GPa)
#
#
# Indices 1 2 3 4 5 6 
#
# 1 100.9119 46.3708 56.6913 0.0012 18.7631 0.0009
# 2 46.3708 82.8209 47.6956 -0.0176 -9.7419 -0.0161
# 3 56.6913 47.6956 94.9524 -0.0208 15.5790 -0.0197
# 4 0.0012 -0.0176 -0.0208 25.4769 -0.0116 -4.6477
# 5 18.7631 -9.7419 15.5790 -0.0116 39.8853 -0.0093
# 6 0.0009 -0.0161 -0.0197 -4.6477 -0.0093 24.8131
#
#
#
# Elastic Compliance Matrix: (Units=1/GPa)
#
#
# Indices 1 2 3 4 5 6 
#
# 1 0.018250 -0.008060 -0.005466 -0.000018 -0.008419 -0.000017
# 2 -0.008060 0.023325 -0.009040 0.000018 0.013020 0.000017
# 3 -0.005466 -0.009040 0.019528 0.000008 -0.007264 0.000009
# 4 -0.000018 0.000018 0.000008 0.040640 0.000023 0.007612
# 5 -0.008419 0.013020 -0.007264 0.000023 0.035050 0.000020
# 6 -0.000017 0.000017 0.000009 0.007612 0.000020 0.041727
#
#
# Mechanical properties :
#
#
# Convention : Reuss Voigt Hill
#
# Bulk Modulus (GPa) = 62.61889 64.46675 63.54282
# Shear Modulus (GPa) = 21.83650 26.56353 24.20002
#
# Velocity S-wave (km/s) = 3.50406 3.86476 3.68882
# Velocity P-wave (km/s) = 7.18199 7.49427 7.33979
#
# Compressibility (1/GPa) = 0.01596962
#
# Stress axis : x y z
#
# Youngs Moduli (GPa) = 54.79600 42.87299 51.20946
#
# Poissons Ratio (x) = 0.34557 0.27990
# Poissons Ratio (y) = 0.44168 0.46293
# Poissons Ratio (z) = 0.29950 0.38757
#
# Static dielectric constant tensor:
#      x y z
#    x 3.379760 -0.000010 0.252350 
#    y -0.000010 3.106360 -0.000010 
#    z 0.252350 -0.000010 3.339410 
# 
# 
# High freq. dielectric constant tensor:
#      x y z
#    x 1.696740 0.000000 0.017940 
#    y 0.000000 1.677320 0.000000 
#    z 0.017940 0.000000 1.693910 
# 
# From -- ./inp_files/328638.got.cif
#   From: 2010.06.25/outbox.cif.g09.slc.cpg/sg12_165_cif.got.tgz:328638.got - 2010.06.28 00:19:55.
