data_PCOD8095191
_publ_section_title
;
Structure prediction by ZEFSAII (Michael W. Deem and Ramdas Pophale) SiO2 
 PCOD8095191
Probable space group: C 2/M
;
_chemical_formula_sum "Si O2"
_cell_formula_units_Z 56
_cell_length_a 29.226297
_cell_length_b 9.236131
_cell_length_c 18.437618
_cell_angle_alpha 90.000000
_cell_angle_beta 141.244379
_cell_angle_gamma 90.000000
_cell_volume 3115.609428
_symmetry_space_group_name_H-M "C 2/M"
_symmetry_group_IT_number 12
_symmetry_cell_setting 'monoclinic'
loop_
_space_group_symop_operation_xyz
x,y,z
-x,y,-z
-x,-y,-z
x,-y,z
1/2+x,1/2+y,z
1/2-x,1/2+y,-z
1/2-x,1/2-y,-z
1/2+x,1/2-y,z
loop_
_atom_site_type_symbol
_atom_site_label
_atom_site_fract_x
_atom_site_fract_y
_atom_site_fract_z
Si Si1 0.072728 0.167933 0.049564
Si Si2 0.776662 0.663894 0.927175
Si Si3 0.285973 0.836754 0.766367
Si Si4 0.580465 0.669001 0.890462
Si Si5 0.499043 0.168567 0.325043
Si Si6 0.854642 0.331604 0.412760
Si Si7 0.136471 0.332621 0.742972
O O1 0.140233 0.256227 0.166851
O O2 0.088446 0.000000 0.083740
O O3 0.062895 0.199232 0.952441
O O4 0.000000 0.221056 0.000000
O O5 0.778847 0.500000 0.959627
O O6 0.780174 0.668433 0.845288
O O7 0.702010 0.740857 0.860395
O O8 0.845864 0.750010 0.044407
O O9 0.215558 0.756851 0.645793
O O10 0.288221 0.000000 0.739509
O O11 0.589508 0.500000 0.885469
O O12 0.513702 0.735302 0.762124
O O13 0.577426 0.212614 0.453422
O O14 0.438759 0.206508 0.310884
O O15 0.496053 0.000000 0.300316
O O16 0.835755 0.500000 0.396297
O O17 0.874419 0.291750 0.354551
O O18 0.157653 0.500000 0.777885
#
# Coordination Sequence:
#
# PCOD8095191 Si02
#       7
#     8   8   8   8   8   8   8
#     4   9  18  34  56  78  97 119 150 189 234 287
#     4   9  17  30  47  67  94 126 159 197 239 282
#     4   9  17  29  48  75 101 123 151 192 239 280
#     4  10  20  33  49  70  96 125 155 190 238 291
#     4  10  20  32  47  68  96 130 164 200 238 275
#     4   9  17  31  50  69  93 129 169 201 230 270
#     4   9  17  30  48  69  92 123 167 209 238 268
#
# _framework density 17.974011999999998
#
# number of rings (size 3 to 8) (size 9 to 14) (size 15 to 20)
#    0.000    2.714    0.000    1.714    0.000    7.714 
#    0.000    0.000    0.000    5.143    0.000    0.000 
#    0.000    0.000    0.000    0.000    0.000    0.000 
#
# Total GULP energy -347256.212572 kJ/mol
# GULP energy per Si atom -12402.007592 kJ/mol
# Density = 1.793310 g / cm^3
# Si number density = 17.974012 Si / 1000 Ang^3
#
#
#
# Elastic Constant Matrix: (Units=GPa)
#
#
# Indices 1 2 3 4 5 6 
#
# 1 77.7958 53.7421 52.0475 0.0000 30.2803 0.0000
# 2 53.7421 104.1267 68.0038 0.0000 20.0724 0.0000
# 3 52.0475 68.0038 127.5992 0.0000 26.7123 0.0000
# 4 0.0000 0.0000 0.0000 33.8043 0.0000 4.4350
# 5 30.2803 20.0724 26.7123 0.0000 27.0718 0.0000
# 6 0.0000 0.0000 0.0000 4.4350 0.0000 18.7849
#
#
#
# Elastic Compliance Matrix: (Units=1/GPa)
#
#
# Indices 1 2 3 4 5 6 
#
# 1 0.030688 -0.009598 -0.002150 0.000000 -0.025086 0.000000
# 2 -0.009598 0.018085 -0.006508 0.000000 0.003748 0.000000
# 3 -0.002150 -0.006508 0.013447 0.000000 -0.006037 0.000000
# 4 0.000000 0.000000 0.000000 0.030528 0.000000 -0.007207
# 5 -0.025086 0.003748 -0.006037 0.000000 0.068176 0.000000
# 6 0.000000 0.000000 0.000000 -0.007207 0.000000 0.054936
#
#
# Mechanical properties :
#
#
# Convention : Reuss Voigt Hill
#
# Bulk Modulus (GPa) = 38.90142 73.01206 55.95674
# Shear Modulus (GPa) = 19.16136 24.98075 22.07106
#
# Velocity S-wave (km/s) = 3.26860 3.73208 3.50800
# Velocity P-wave (km/s) = 5.99459 7.69937 6.89983
#
# Compressibility (1/GPa) = 0.02570600
#
# Stress axis : x y z
#
# Youngs Moduli (GPa) = 32.58630 55.29299 74.36868
#
# Poissons Ratio (x) = 0.53073 0.15992
# Poissons Ratio (y) = 0.31278 0.48400
# Poissons Ratio (z) = 0.07007 0.35985
#
# Static dielectric constant tensor:
#      x y z
#    x 3.089450 0.000000 0.172760 
#    y 0.000000 3.379600 0.000000 
#    z 0.172760 0.000000 3.343320 
# 
# 
# High freq. dielectric constant tensor:
#      x y z
#    x 1.666590 0.000000 0.016560 
#    y 0.000000 1.697960 0.000000 
#    z 0.016560 0.000000 1.692670 
# 
# From -- ./inp_files/280965.got.cif
#   From: 2010.06.25/outbox.cif.g09.slc.cpg/sg12_141_cif.got.tgz:280965.got - 2010.06.28 00:19:55.
