data_PCOD8095466
_publ_section_title
;
Structure prediction by ZEFSAII (Michael W. Deem and Ramdas Pophale) SiO2 
 PCOD8095466
Probable space group: C 2/M
;
_chemical_formula_sum "Si O2"
_cell_formula_units_Z 64
_cell_length_a 30.770065
_cell_length_b 13.731872
_cell_length_c 12.402517
_cell_angle_alpha 90.000000
_cell_angle_beta 143.489256
_cell_angle_gamma 90.000000
_cell_volume 3117.924713
_symmetry_space_group_name_H-M "C 2/M"
_symmetry_group_IT_number 12
_symmetry_cell_setting 'monoclinic'
loop_
_space_group_symop_operation_xyz
x,y,z
-x,y,-z
-x,-y,-z
x,-y,z
1/2+x,1/2+y,z
1/2-x,1/2+y,-z
1/2-x,1/2-y,-z
1/2+x,1/2-y,z
loop_
_atom_site_type_symbol
_atom_site_label
_atom_site_fract_x
_atom_site_fract_y
_atom_site_fract_z
Si Si1 0.348700 0.613179 0.317062
Si Si2 0.334088 0.108549 0.545681
Si Si3 0.766904 0.606322 0.182784
Si Si4 0.820078 0.609921 0.065267
Si Si5 0.379386 0.696953 0.147244
Si Si6 0.099808 0.804164 0.357979
Si Si7 0.945984 0.884248 0.079371
Si Si8 0.181831 0.886380 0.329553
O O1 0.370959 0.500000 0.377169
O O2 0.384737 0.652543 0.277928
O O3 0.379574 0.678616 0.476111
O O4 0.261302 0.625181 0.143683
O O5 0.314330 0.099085 0.382388
O O6 0.396958 0.190740 0.674215
O O7 0.264439 0.151201 0.473144
O O8 0.359460 0.000000 0.637397
O O9 0.734893 0.500000 0.086063
O O10 0.818236 0.640223 0.187552
O O11 0.698262 0.674806 0.062632
O O12 0.847785 0.500000 0.099292
O O13 0.881026 0.684851 0.142453
O O14 0.441891 0.652646 0.195292
O O15 0.158091 0.864852 0.403946
O O16 0.018839 0.841328 0.171150
O O17 0.950619 0.000000 0.086746
O O18 0.877585 0.843616 0.873554
O O19 0.185639 0.000000 0.314594
#
# Coordination Sequence:
#
# PCOD8095466 Si02
#       8
#     8   8   8   8   8   8   8   8
#     4  10  20  32  51  82 117 145 174 225 288 337
#     4  10  20  36  60  86 108 141 191 237 269 315
#     4   9  15  29  54  81 107 138 185 234 268 312
#     4   9  18  30  49  79 111 146 186 227 269 322
#     4  11  18  32  54  78 109 149 187 222 269 328
#     4  12  23  37  55  84 118 149 174 222 292 336
#     4  11  23  38  59  83 110 147 188 227 270 332
#     4  10  21  39  62  84 106 140 190 235 270 322
#
# _framework density 20.526474
#
# number of rings (size 3 to 8) (size 9 to 14) (size 15 to 20)
#    0.000    1.750    1.250    6.750    0.000    1.500 
#    0.000    1.875    0.000    1.500    0.000    4.375 
#    0.000    0.000    0.000    0.000    0.000    0.000 
#
# Total GULP energy -396610.647164 kJ/mol
# GULP energy per Si atom -12394.082724 kJ/mol
# Density = 2.047976 g / cm^3
# Si number density = 20.526474 Si / 1000 Ang^3
#
#
#
# Elastic Constant Matrix: (Units=GPa)
#
#
# Indices 1 2 3 4 5 6 
#
# 1 76.8651 39.4269 18.2675 0.0000 1.0215 0.0000
# 2 39.4269 97.0982 10.8065 0.0000 23.4739 0.0000
# 3 18.2675 10.8065 20.5915 0.0000 -5.3779 0.0000
# 4 0.0000 0.0000 0.0000 21.4765 0.0000 4.4736
# 5 1.0215 23.4739 -5.3779 0.0000 20.1569 0.0000
# 6 0.0000 0.0000 0.0000 4.4736 0.0000 28.2803
#
#
#
# Elastic Compliance Matrix: (Units=1/GPa)
#
#
# Indices 1 2 3 4 5 6 
#
# 1 0.019911 -0.007927 -0.012207 0.000000 0.004965 0.000000
# 2 -0.007927 0.021487 -0.011474 0.000000 -0.027682 0.000000
# 3 -0.012207 -0.011474 0.074239 0.000000 0.033788 0.000000
# 4 0.000000 0.000000 0.000000 0.048149 0.000000 -0.007617
# 5 0.004965 -0.027682 0.033788 0.000000 0.090612 0.000000
# 6 0.000000 0.000000 0.000000 -0.007617 0.000000 0.036565
#
#
# Mechanical properties :
#
#
# Convention : Reuss Voigt Hill
#
# Bulk Modulus (GPa) = 19.07621 36.83961 27.95791
# Shear Modulus (GPa) = 13.45346 22.38634 17.91990
#
# Velocity S-wave (km/s) = 2.56289 3.30602 2.95789
# Velocity P-wave (km/s) = 4.25106 5.70608 5.03145
#
# Compressibility (1/GPa) = 0.05242131
#
# Stress axis : x y z
#
# Youngs Moduli (GPa) = 50.22430 46.54028 13.46999
#
# Poissons Ratio (x) = 0.36890 0.16443
# Poissons Ratio (y) = 0.39811 0.15456
# Poissons Ratio (z) = 0.61308 0.53401
#
# Static dielectric constant tensor:
#      x y z
#    x 3.718320 0.000000 -0.075610 
#    y 0.000000 4.178700 0.000000 
#    z -0.075610 0.000000 3.363390 
# 
# 
# High freq. dielectric constant tensor:
#      x y z
#    x 1.796360 0.000000 -0.017850 
#    y 0.000000 1.811770 0.000000 
#    z -0.017850 0.000000 1.761750 
# 
# From -- ./inp_files/183770.got.cif
#   From: 2010.06.25/outbox.cif.g09.slc.cpg/sg12_92_cif.got.tgz:183770.got - 2010.06.28 00:19:55.
