data_PCOD8095798
_publ_section_title
;
Structure prediction by ZEFSAII (Michael W. Deem and Ramdas Pophale) SiO2 
 PCOD8095798
Probable space group: C 2/M
;
_chemical_formula_sum "Si O2"
_cell_formula_units_Z 44
_cell_length_a 10.430011
_cell_length_b 27.557840
_cell_length_c 10.607392
_cell_angle_alpha 90.000000
_cell_angle_beta 130.054575
_cell_angle_gamma 90.000000
_cell_volume 2333.700282
_symmetry_space_group_name_H-M "C 2/M"
_symmetry_group_IT_number 12
_symmetry_cell_setting 'monoclinic'
loop_
_space_group_symop_operation_xyz
x,y,z
-x,y,-z
-x,-y,-z
x,-y,z
1/2+x,1/2+y,z
1/2-x,1/2+y,-z
1/2-x,1/2-y,-z
1/2+x,1/2-y,z
loop_
_atom_site_type_symbol
_atom_site_label
_atom_site_fract_x
_atom_site_fract_y
_atom_site_fract_z
Si Si1 0.903796 0.696056 0.663031
Si Si2 0.592784 0.946932 0.189466
Si Si3 0.421909 0.692609 0.689468
Si Si4 0.500000 0.646685 0.000000
Si Si5 0.265865 0.355493 0.221110
Si Si6 0.160348 0.377852 0.878425
O O1 0.769493 0.682895 0.469766
O O2 0.964754 0.751273 0.693147
O O3 0.823619 0.684737 0.749066
O O4 0.068026 0.663994 0.739976
O O5 0.747558 0.908866 0.275371
O O6 0.452940 0.926307 0.198525
O O7 0.657364 0.000000 0.277086
O O8 0.500000 0.953812 0.000000
O O9 0.540362 0.659073 0.675969
O O10 0.451214 0.681094 0.853800
O O11 0.656416 0.611937 0.063692
O O12 0.171125 0.357447 0.027635
#
# Coordination Sequence:
#
# PCOD8095798 Si02
#       6
#     8   8   8   4   8   8
#     4  10  20  33  50  72  98 140 176 212 248 294
#     4   8  14  29  55  80 100 128 167 213 260 303
#     4  10  22  32  49  73 103 139 175 209 251 298
#     4  10  22  34  47  72 104 138 171 206 256 304
#     4   9  18  33  51  76 104 130 168 220 252 297
#     4   9  19  33  51  74 104 134 171 207 256 303
#
# _framework density 18.854177
#
# number of rings (size 3 to 8) (size 9 to 14) (size 15 to 20)
#    0.000    2.727    0.000    2.182    5.091    2.182 
#    0.000    0.455    0.000    9.818    0.000    5.091 
#    0.000    0.000    0.000    0.000    0.000    0.000 
#
# Total GULP energy -272661.895234 kJ/mol
# GULP energy per Si atom -12393.722511 kJ/mol
# Density = 1.881126 g / cm^3
# Si number density = 18.854177 Si / 1000 Ang^3
#
#
#
# Elastic Constant Matrix: (Units=GPa)
#
#
# Indices 1 2 3 4 5 6 
#
# 1 114.2215 55.1473 36.6181 0.0000 16.6272 0.0000
# 2 55.1473 138.2898 41.3068 0.0000 20.9542 0.0000
# 3 36.6181 41.3068 57.4727 0.0000 6.4310 0.0000
# 4 0.0000 0.0000 0.0000 10.6159 0.0000 6.3342
# 5 16.6272 20.9542 6.4310 0.0000 20.2255 0.0000
# 6 0.0000 0.0000 0.0000 6.3342 0.0000 17.0571
#
#
#
# Elastic Compliance Matrix: (Units=1/GPa)
#
#
# Indices 1 2 3 4 5 6 
#
# 1 0.012610 -0.002436 -0.005606 0.000000 -0.006061 0.000000
# 2 -0.002436 0.011005 -0.005501 0.000000 -0.007650 0.000000
# 3 -0.005606 -0.005501 0.024649 0.000000 0.002471 0.000000
# 4 0.000000 0.000000 0.000000 0.121011 0.000000 -0.044938
# 5 -0.006061 -0.007650 0.002471 0.000000 0.061565 0.000000
# 6 0.000000 0.000000 0.000000 -0.044938 0.000000 0.075314
#
#
# Mechanical properties :
#
#
# Convention : Reuss Voigt Hill
#
# Bulk Modulus (GPa) = 47.21906 64.01428 55.61667
# Shear Modulus (GPa) = 14.69293 21.37382 18.03338
#
# Velocity S-wave (km/s) = 2.79461 3.37061 3.09603
# Velocity P-wave (km/s) = 5.95918 7.01242 6.50714
#
# Compressibility (1/GPa) = 0.02117789
#
# Stress axis : x y z
#
# Youngs Moduli (GPa) = 79.29945 90.86753 40.57014
#
# Poissons Ratio (x) = 0.22136 0.22742
# Poissons Ratio (y) = 0.19318 0.22320
# Poissons Ratio (z) = 0.44452 0.49990
#
# Static dielectric constant tensor:
#      x y z
#    x 3.483510 0.000000 0.124350 
#    y 0.000000 3.564480 0.000000 
#    z 0.124350 0.000000 3.403900 
# 
# 
# High freq. dielectric constant tensor:
#      x y z
#    x 1.727460 0.000000 0.009680 
#    y 0.000000 1.708920 0.000000 
#    z 0.009680 0.000000 1.721460 
# 
# From -- ./inp_files/137492.got.cif
#   From: 2010.06.25/outbox.cif.g09.slc.cpg/sg12_69_cif.got.tgz:137492.got - 2010.06.28 00:19:55.
