data_PCOD8095205
_publ_section_title
;
Structure prediction by ZEFSAII (Michael W. Deem and Ramdas Pophale) SiO2 
 PCOD8095205
Probable space group: C 2/M
;
_chemical_formula_sum "Si O2"
_cell_formula_units_Z 64
_cell_length_a 19.815691
_cell_length_b 9.657476
_cell_length_c 18.834263
_cell_angle_alpha 90.000000
_cell_angle_beta 87.260574
_cell_angle_gamma 90.000000
_cell_volume 3600.185715
_symmetry_space_group_name_H-M "C 2/M"
_symmetry_group_IT_number 12
_symmetry_cell_setting 'monoclinic'
loop_
_space_group_symop_operation_xyz
x,y,z
-x,y,-z
-x,-y,-z
x,-y,z
1/2+x,1/2+y,z
1/2-x,1/2+y,-z
1/2-x,1/2-y,-z
1/2+x,1/2-y,z
loop_
_atom_site_type_symbol
_atom_site_label
_atom_site_fract_x
_atom_site_fract_y
_atom_site_fract_z
Si Si1 0.007777 0.843886 0.781494
Si Si2 0.043678 0.148403 0.065202
Si Si3 0.101848 0.661148 0.687854
Si Si4 0.607335 0.338335 0.321082
Si Si5 0.245007 0.337110 0.728647
Si Si6 0.841448 0.657994 0.972705
Si Si7 0.240123 0.341060 0.889678
Si Si8 0.009465 0.661038 0.418228
O O1 0.065686 0.741736 0.752718
O O2 0.002116 0.816560 0.864924
O O3 0.935048 0.814233 0.748799
O O4 0.030847 0.000000 0.762472
O O5 0.085265 0.284291 0.045515
O O6 0.082705 0.000000 0.078424
O O7 0.000000 0.117670 0.000000
O O8 0.097607 0.500000 0.707317
O O9 0.181299 0.706592 0.681639
O O10 0.062294 0.694237 0.616674
O O11 0.608346 0.500000 0.343110
O O12 0.683515 0.278430 0.304730
O O13 0.571264 0.251522 0.385149
O O14 0.253645 0.500000 0.729171
O O15 0.228819 0.286568 0.809960
O O16 0.836265 0.500000 0.948356
O O17 0.794733 0.746754 0.924204
O O18 0.826466 0.673402 0.057772
O O19 0.265223 0.500000 0.887588
O O20 0.028552 0.500000 0.408052
O O21 0.000000 0.702581 0.500000
#
# Coordination Sequence:
#
# PCOD8095205 Si02
#       8
#     8   8   8   8   8   8   8   8
#     4   9  18  33  50  69  95 130 168 206 252 300
#     4  10  21  34  48  66  94 133 170 207 258 310
#     4   9  18  32  53  77 100 130 168 205 245 297
#     4   9  17  31  53  76  97 126 166 206 239 286
#     4   9  17  31  52  75  98 128 166 206 250 293
#     4  10  20  32  47  70  94 122 166 214 256 299
#     4   9  18  33  51  67  92 129 162 200 254 310
#     4   9  18  34  54  76 105 137 163 193 239 295
#
# _framework density 17.776859999999999
#
# number of rings (size 3 to 8) (size 9 to 14) (size 15 to 20)
#    0.000    2.750    0.000    1.125    1.750    3.500 
#    0.000    5.000    0.000    0.000    0.000    0.000 
#    0.000    0.000    0.000    0.000    0.000    0.000 
#
# Total GULP energy -396520.471617 kJ/mol
# GULP energy per Si atom -12391.264738 kJ/mol
# Density = 1.773640 g / cm^3
# Si number density = 17.776860 Si / 1000 Ang^3
#
#
#
# Elastic Constant Matrix: (Units=GPa)
#
#
# Indices 1 2 3 4 5 6 
#
# 1 109.1767 35.8275 50.4670 0.0000 -2.4779 0.0000
# 2 35.8275 59.5803 39.3500 0.0000 -6.6073 0.0000
# 3 50.4670 39.3500 124.2709 0.0000 -4.4923 0.0000
# 4 0.0000 0.0000 0.0000 25.1157 0.0000 -6.0287
# 5 -2.4779 -6.6073 -4.4923 0.0000 15.6564 0.0000
# 6 0.0000 0.0000 0.0000 -6.0287 0.0000 25.6440
#
#
#
# Elastic Compliance Matrix: (Units=1/GPa)
#
#
# Indices 1 2 3 4 5 6 
#
# 1 0.012474 -0.005395 -0.003404 0.000000 -0.001279 0.000000
# 2 -0.005395 0.024367 -0.005238 0.000000 0.007926 0.000000
# 3 -0.003404 -0.005238 0.011104 0.000000 0.000437 0.000000
# 4 0.000000 0.000000 0.000000 0.042197 0.000000 0.009920
# 5 -0.001279 0.007926 0.000437 0.000000 0.067140 0.000000
# 6 0.000000 0.000000 0.000000 0.009920 0.000000 0.041328
#
#
# Mechanical properties :
#
#
# Convention : Reuss Voigt Hill
#
# Bulk Modulus (GPa) = 50.32507 60.47964 55.40235
# Shear Modulus (GPa) = 21.43104 24.44211 22.93658
#
# Velocity S-wave (km/s) = 3.47588 3.71204 3.59590
# Velocity P-wave (km/s) = 6.66932 7.24346 6.96231
#
# Compressibility (1/GPa) = 0.01987081
#
# Stress axis : x y z
#
# Youngs Moduli (GPa) = 80.16507 41.03931 90.06013
#
# Poissons Ratio (x) = 0.22141 0.30655
# Poissons Ratio (y) = 0.43249 0.47176
# Poissons Ratio (z) = 0.27287 0.21497
#
# Static dielectric constant tensor:
#      x y z
#    x 3.666980 0.000000 0.082200 
#    y 0.000000 3.580030 0.000000 
#    z 0.082200 0.000000 3.268930 
# 
# 
# High freq. dielectric constant tensor:
#      x y z
#    x 1.679410 0.000000 0.001140 
#    y 0.000000 1.679130 0.000000 
#    z 0.001140 0.000000 1.677270 
# 
# From -- ./inp_files/281327.got.cif
#   From: 2010.06.25/outbox.cif.g09.slc.cpg/sg12_141_cif.got.tgz:281327.got - 2010.06.28 00:19:55.
