data_PCOD8095121
_publ_section_title
;
Structure prediction by ZEFSAII (Michael W. Deem and Ramdas Pophale) SiO2 
 PCOD8095121
Probable space group: C 2/M
;
_chemical_formula_sum "Si O2"
_cell_formula_units_Z 56
_cell_length_a 27.583285
_cell_length_b 8.743738
_cell_length_c 14.592414
_cell_angle_alpha 90.000000
_cell_angle_beta 75.513944
_cell_angle_gamma 90.000000
_cell_volume 3407.525989
_symmetry_space_group_name_H-M "C 2/M"
_symmetry_group_IT_number 12
_symmetry_cell_setting 'monoclinic'
loop_
_space_group_symop_operation_xyz
x,y,z
-x,y,-z
-x,-y,-z
x,-y,z
1/2+x,1/2+y,z
1/2-x,1/2+y,-z
1/2-x,1/2-y,-z
1/2+x,1/2-y,z
loop_
_atom_site_type_symbol
_atom_site_label
_atom_site_fract_x
_atom_site_fract_y
_atom_site_fract_z
Si Si1 0.684107 0.677082 0.092050
Si Si2 0.363177 0.680780 0.422719
Si Si3 0.862468 0.177979 0.702939
Si Si4 0.189043 0.318900 0.707808
Si Si5 0.706528 0.179741 0.902599
Si Si6 0.555247 0.319999 0.474150
Si Si7 0.209314 0.679514 0.401195
O O1 0.688965 0.500000 0.067279
O O2 0.639661 0.708865 0.186637
O O3 0.736547 0.738609 0.109713
O O4 0.671665 0.759589 0.001968
O O5 0.364528 0.500000 0.407579
O O6 0.360446 0.765288 0.325006
O O7 0.412461 0.739641 0.454370
O O8 0.314565 0.726672 0.504114
O O9 0.916649 0.220759 0.634881
O O10 0.820009 0.282034 0.678094
O O11 0.849672 0.000000 0.687986
O O12 0.196709 0.500000 0.698728
O O13 0.185327 0.262208 0.814975
O O14 0.234110 0.233057 0.636349
O O15 0.704762 0.000000 0.904888
O O16 0.500000 0.243259 0.500000
O O17 0.549677 0.500000 0.486596
O O18 0.206812 0.500000 0.423434
#
# Coordination Sequence:
#
# PCOD8095121 Si02
#       7
#     8   8   8   8   8   8   8
#     4   9  16  28  43  62  88 119 152 185 222 258
#     4  10  20  32  46  65  90 117 150 186 223 268
#     4   9  16  29  47  67  93 121 150 186 226 267
#     4  11  20  32  45  61  90 123 155 185 222 263
#     4   9  18  29  42  60  87 121 153 186 220 255
#     4   8  15  29  50  72  91 113 143 182 228 274
#     4  11  20  29  43  64  90 122 157 185 217 260
#
# _framework density 16.434211000000001
#
# number of rings (size 3 to 8) (size 9 to 14) (size 15 to 20)
#    0.000    2.429    1.429    3.429    0.000    1.714 
#    0.000    0.000    0.000   10.714    0.000    1.000 
#    0.000    8.000    0.000    0.000    0.000    0.000 
#
# Total GULP energy -347040.935726 kJ/mol
# GULP energy per Si atom -12394.319133 kJ/mol
# Density = 1.639681 g / cm^3
# Si number density = 16.434211 Si / 1000 Ang^3
#
#
#
# Elastic Constant Matrix: (Units=GPa)
#
#
# Indices 1 2 3 4 5 6 
#
# 1 80.2610 15.1695 61.2797 0.0000 2.4080 0.0000
# 2 15.1695 35.5267 21.2685 0.0000 4.4428 0.0000
# 3 61.2797 21.2685 135.0410 0.0000 16.7363 0.0000
# 4 0.0000 0.0000 0.0000 26.9003 0.0000 5.0934
# 5 2.4080 4.4428 16.7363 0.0000 18.6704 0.0000
# 6 0.0000 0.0000 0.0000 5.0934 0.0000 12.7978
#
#
#
# Elastic Compliance Matrix: (Units=1/GPa)
#
#
# Indices 1 2 3 4 5 6 
#
# 1 0.020131 -0.003829 -0.009363 0.000000 0.006708 0.000000
# 2 -0.003829 0.031998 -0.002722 0.000000 -0.004680 0.000000
# 3 -0.009363 -0.002722 0.013334 0.000000 -0.010098 0.000000
# 4 0.000000 0.000000 0.000000 0.040204 0.000000 -0.016001
# 5 0.006708 -0.004680 -0.010098 0.000000 0.062861 0.000000
# 6 0.000000 0.000000 0.000000 -0.016001 0.000000 0.084507
#
#
# Mechanical properties :
#
#
# Convention : Reuss Voigt Hill
#
# Bulk Modulus (GPa) = 29.73178 49.58489 39.65834
# Shear Modulus (GPa) = 16.88767 21.88110 19.38438
#
# Velocity S-wave (km/s) = 3.20909 3.65284 3.43813
# Velocity P-wave (km/s) = 5.64461 6.93024 6.32020
#
# Compressibility (1/GPa) = 0.03363405
#
# Stress axis : x y z
#
# Youngs Moduli (GPa) = 49.67516 31.25239 74.99463
#
# Poissons Ratio (x) = 0.11967 0.70221
# Poissons Ratio (y) = 0.19021 0.20413
# Poissons Ratio (z) = 0.46513 0.08507
#
# Static dielectric constant tensor:
#      x y z
#    x 3.055190 0.000000 0.122830 
#    y 0.000000 2.960870 0.000000 
#    z 0.122830 0.000000 3.341520 
# 
# 
# High freq. dielectric constant tensor:
#      x y z
#    x 1.584000 0.000000 0.012580 
#    y 0.000000 1.622560 0.000000 
#    z 0.012580 0.000000 1.637360 
# 
# From -- ./inp_files/243011.got.cif
#   From: 2010.06.25/outbox.cif.g09.slc.cpg/sg12_122_cif.got.tgz:243011.got - 2010.06.28 00:19:55.
