data_PCOD8095808
_publ_section_title
;
Structure prediction by ZEFSAII (Michael W. Deem and Ramdas Pophale) SiO2 
 PCOD8095808
Probable space group: C 2/M
;
_chemical_formula_sum "Si O2"
_cell_formula_units_Z 56
_cell_length_a 19.529258
_cell_length_b 9.227181
_cell_length_c 19.878710
_cell_angle_alpha 90.000000
_cell_angle_beta 119.616845
_cell_angle_gamma 90.000000
_cell_volume 3114.135287
_symmetry_space_group_name_H-M "C 2/M"
_symmetry_group_IT_number 12
_symmetry_cell_setting 'monoclinic'
loop_
_space_group_symop_operation_xyz
x,y,z
-x,y,-z
-x,-y,-z
x,-y,z
1/2+x,1/2+y,z
1/2-x,1/2+y,-z
1/2-x,1/2-y,-z
1/2+x,1/2-y,z
loop_
_atom_site_type_symbol
_atom_site_label
_atom_site_fract_x
_atom_site_fract_y
_atom_site_fract_z
Si Si1 0.637763 0.166610 0.902338
Si Si2 0.921195 0.171537 0.495488
Si Si3 0.151239 0.332209 0.191149
Si Si4 0.746879 0.668786 0.633295
Si Si5 0.716053 0.834256 0.078146
Si Si6 0.621969 0.331222 0.378297
Si Si7 0.519936 0.668850 0.200264
O O1 0.712956 0.224782 0.898933
O O2 0.564696 0.259607 0.842981
O O3 0.624334 0.000000 0.876134
O O4 0.650522 0.184567 0.988471
O O5 0.844285 0.218142 0.415160
O O6 0.911092 0.228352 0.566933
O O7 0.000000 0.240067 0.500000
O O8 0.930361 0.000000 0.501036
O O9 0.127307 0.500000 0.185211
O O10 0.222067 0.294504 0.276934
O O11 0.177223 0.290018 0.129354
O O12 0.074803 0.237824 0.169860
O O13 0.754811 0.500000 0.620473
O O14 0.797402 0.750680 0.601360
O O15 0.747405 0.000000 0.094730
O O16 0.642781 0.500000 0.392928
O O17 0.555257 0.299644 0.290801
O O18 0.511898 0.500000 0.181216
#
# Coordination Sequence:
#
# PCOD8095808 Si02
#       7
#     8   8   8   8   8   8   8
#     4  10  20  34  52  73  99 131 165 202 244 291
#     4   9  17  29  47  73  99 123 158 199 236 279
#     4   9  18  33  52  74  99 127 162 203 246 292
#     4   9  17  30  51  74  95 124 159 196 237 284
#     4   9  19  35  53  73  99 131 164 199 244 296
#     4   9  18  32  50  70  95 128 160 195 239 285
#     4  10  20  33  50  73 100 130 165 204 245 289
#
# _framework density 17.982520000000001
#
# number of rings (size 3 to 8) (size 9 to 14) (size 15 to 20)
#    0.000    2.714    0.000    1.286    0.000    3.429 
#    0.000    7.143    0.000    1.714    0.000    0.000 
#    0.000    0.000    0.000    0.000    0.000    0.000 
#
# Total GULP energy -347223.812030 kJ/mol
# GULP energy per Si atom -12400.850430 kJ/mol
# Density = 1.794159 g / cm^3
# Si number density = 17.982520 Si / 1000 Ang^3
#
#
#
# Elastic Constant Matrix: (Units=GPa)
#
#
# Indices 1 2 3 4 5 6 
#
# 1 67.1986 26.2881 14.9666 0.0000 8.6060 0.0000
# 2 26.2881 53.9261 18.7313 0.0000 6.2159 0.0000
# 3 14.9666 18.7313 36.0605 0.0000 8.2721 0.0000
# 4 0.0000 0.0000 0.0000 20.1211 0.0000 2.0575
# 5 8.6060 6.2159 8.2721 0.0000 33.8837 0.0000
# 6 0.0000 0.0000 0.0000 2.0575 0.0000 29.7730
#
#
#
# Elastic Compliance Matrix: (Units=1/GPa)
#
#
# Indices 1 2 3 4 5 6 
#
# 1 0.018999 -0.007846 -0.003213 0.000000 -0.002602 0.000000
# 2 -0.007846 0.025925 -0.010145 0.000000 -0.000287 0.000000
# 3 -0.003213 -0.010145 0.035721 0.000000 -0.006043 0.000000
# 4 0.000000 0.000000 0.000000 0.050053 0.000000 -0.003459
# 5 -0.002602 -0.000287 -0.006043 0.000000 0.031702 0.000000
# 6 0.000000 0.000000 0.000000 -0.003459 0.000000 0.033826
#
#
# Mechanical properties :
#
#
# Convention : Reuss Voigt Hill
#
# Bulk Modulus (GPa) = 26.15198 30.79525 28.47362
# Shear Modulus (GPa) = 19.89022 23.23551 21.56286
#
# Velocity S-wave (km/s) = 3.32940 3.59850 3.46656
# Velocity P-wave (km/s) = 5.41797 5.86753 5.64723
#
# Compressibility (1/GPa) = 0.03823803
#
# Stress axis : x y z
#
# Youngs Moduli (GPa) = 52.63310 38.57215 27.99500
#
# Poissons Ratio (x) = 0.30263 0.08995
# Poissons Ratio (y) = 0.41295 0.28400
# Poissons Ratio (z) = 0.16912 0.39130
#
# Static dielectric constant tensor:
#      x y z
#    x 3.371170 0.000000 -0.026750 
#    y 0.000000 3.232920 0.000000 
#    z -0.026750 0.000000 3.454890 
# 
# 
# High freq. dielectric constant tensor:
#      x y z
#    x 1.693030 0.000000 0.000720 
#    y 0.000000 1.682710 0.000000 
#    z 0.000720 0.000000 1.703340 
# 
# From -- ./inp_files/313729.got.cif
#   From: 2010.06.25/outbox.cif.g09.slc.cpg/sg12_157_cif.got.tgz:313729.got - 2010.06.28 00:19:55.
