data_PCOD8095983
_publ_section_title
;
Structure prediction by ZEFSAII (Michael W. Deem and Ramdas Pophale) SiO2 
 PCOD8095983
Probable space group: C 2/M
;
_chemical_formula_sum "Si O2"
_cell_formula_units_Z 56
_cell_length_a 13.120442
_cell_length_b 13.229705
_cell_length_c 30.811937
_cell_angle_alpha 90.000000
_cell_angle_beta 35.624795
_cell_angle_gamma 90.000000
_cell_volume 3115.263306
_symmetry_space_group_name_H-M "C 2/M"
_symmetry_group_IT_number 12
_symmetry_cell_setting 'monoclinic'
loop_
_space_group_symop_operation_xyz
x,y,z
-x,y,-z
-x,-y,-z
x,-y,z
1/2+x,1/2+y,z
1/2-x,1/2+y,-z
1/2-x,1/2-y,-z
1/2+x,1/2-y,z
loop_
_atom_site_type_symbol
_atom_site_label
_atom_site_fract_x
_atom_site_fract_y
_atom_site_fract_z
Si Si1 0.393297 0.116849 0.933717
Si Si2 0.637758 0.614037 0.414979
Si Si3 0.946365 0.231116 0.416932
Si Si4 0.691877 0.223367 0.949400
Si Si5 0.780451 0.881228 0.830402
Si Si6 0.921135 0.214691 0.326623
Si Si7 0.905967 0.388058 0.574492
O O1 0.312366 0.180739 0.921402
O O2 0.601494 0.132650 0.865426
O O3 0.346578 0.000000 0.941386
O O4 0.311956 0.149682 0.007842
O O5 0.500000 0.643153 0.500000
O O6 0.705693 0.500000 0.395618
O O7 0.525921 0.628694 0.409733
O O8 0.808510 0.685083 0.354615
O O9 0.750000 0.250000 0.500000
O O10 0.984223 0.224701 0.353560
O O11 0.055966 0.326595 0.395502
O O12 0.772652 0.157198 0.882591
O O13 0.500000 0.261535 0.000000
O O14 0.915235 0.804440 0.760956
O O15 0.835235 0.000000 0.811293
O O16 0.800330 0.115350 0.363539
O O17 0.976090 0.500000 0.557616
O O18 0.000000 0.338521 0.500000
#
# Coordination Sequence:
#
# PCOD8095983 Si02
#       7
#     8   8   8   8   8   8   8
#     4   9  18  34  59  89 115 144 189 227 263 322
#     4  10  21  36  55  77 101 136 183 230 281 336
#     4  11  19  34  52  74  99 131 173 227 275 320
#     4   9  18  35  59  85 115 150 185 224 269 319
#     4  10  21  36  55  79 111 150 183 222 275 331
#     4  11  21  36  52  74 107 138 179 224 273 324
#     4  10  20  33  51  74  98 128 172 225 274 323
#
# _framework density 17.976009000000001
#
# number of rings (size 3 to 8) (size 9 to 14) (size 15 to 20)
#    0.000    2.000    2.857    1.714    0.000    6.571 
#    0.000    2.143    0.000    4.286    0.000    0.000 
#    0.000    0.000    0.000    0.000    0.000    0.000 
#
# Total GULP energy -346976.819943 kJ/mol
# GULP energy per Si atom -12392.029284 kJ/mol
# Density = 1.793510 g / cm^3
# Si number density = 17.976009 Si / 1000 Ang^3
#
#
#
# Elastic Constant Matrix: (Units=GPa)
#
#
# Indices 1 2 3 4 5 6 
#
# 1 114.7288 50.0360 41.5631 -0.0001 7.5026 0.0000
# 2 50.0360 127.9527 46.8211 -0.0004 -5.4765 0.0001
# 3 41.5631 46.8211 105.9933 -0.0004 0.2880 0.0004
# 4 -0.0001 -0.0004 -0.0004 23.8047 0.0000 -5.0027
# 5 7.5026 -5.4765 0.2880 0.0000 22.8544 -0.0001
# 6 0.0000 0.0001 0.0004 -5.0027 -0.0001 20.0519
#
#
#
# Elastic Compliance Matrix: (Units=1/GPa)
#
#
# Indices 1 2 3 4 5 6 
#
# 1 0.011703 -0.003701 -0.002941 0.000000 -0.004691 0.000000
# 2 -0.003701 0.010614 -0.003248 0.000000 0.003799 0.000000
# 3 -0.002941 -0.003248 0.012022 0.000000 0.000036 0.000000
# 4 0.000000 0.000000 0.000000 0.044333 0.000000 0.011061
# 5 -0.004691 0.003799 0.000036 0.000000 0.046205 0.000000
# 6 0.000000 0.000000 0.000000 0.011061 0.000000 0.052630
#
#
# Mechanical properties :
#
#
# Convention : Reuss Voigt Hill
#
# Bulk Modulus (GPa) = 68.68546 69.50170 69.09358
# Shear Modulus (GPa) = 24.73543 27.35918 26.04730
#
# Velocity S-wave (km/s) = 3.71350 3.90549 3.81071
# Velocity P-wave (km/s) = 7.52856 7.68666 7.60802
#
# Compressibility (1/GPa) = 0.01455912
#
# Stress axis : x y z
#
# Youngs Moduli (GPa) = 85.45119 94.21934 83.17787
#
# Poissons Ratio (x) = 0.34868 0.24466
# Poissons Ratio (y) = 0.31624 0.27012
# Poissons Ratio (z) = 0.25135 0.30598
#
# Static dielectric constant tensor:
#      x y z
#    x 3.612860 0.000000 -0.043820 
#    y 0.000000 3.305950 0.000000 
#    z -0.043820 0.000000 3.116320 
# 
# 
# High freq. dielectric constant tensor:
#      x y z
#    x 1.704600 0.000000 0.000040 
#    y 0.000000 1.697610 0.000000 
#    z 0.000040 0.000000 1.677680 
# 
# From -- ./inp_files/358185.got.cif
#   From: 2010.06.25/outbox.cif.g09.slc.cpg/sg12_180_cif.got.tgz:358185.got - 2010.06.28 00:19:55.
