data_PCOD8095326
_publ_section_title
;
Structure prediction by ZEFSAII (Michael W. Deem and Ramdas Pophale) SiO2 
 PCOD8095326
Probable space group: C 2/M
;
_chemical_formula_sum "Si O2"
_cell_formula_units_Z 56
_cell_length_a 21.838119
_cell_length_b 9.201986
_cell_length_c 20.389963
_cell_angle_alpha 90.000000
_cell_angle_beta 46.832921
_cell_angle_gamma 90.000000
_cell_volume 2988.520698
_symmetry_space_group_name_H-M "C 2/M"
_symmetry_group_IT_number 12
_symmetry_cell_setting 'monoclinic'
loop_
_space_group_symop_operation_xyz
x,y,z
-x,y,-z
-x,-y,-z
x,-y,z
1/2+x,1/2+y,z
1/2-x,1/2+y,-z
1/2-x,1/2-y,-z
1/2+x,1/2-y,z
loop_
_atom_site_type_symbol
_atom_site_label
_atom_site_fract_x
_atom_site_fract_y
_atom_site_fract_z
Si Si1 0.185180 0.340884 0.131712
Si Si2 0.486106 0.167370 0.937039
Si Si3 0.634066 0.658254 0.059358
Si Si4 0.839039 0.669216 0.255654
Si Si5 0.263846 0.175878 0.560321
Si Si6 0.224998 0.666006 0.245228
Si Si7 0.910970 0.336197 0.546395
O O1 0.143063 0.500000 0.170904
O O2 0.121455 0.238227 0.138554
O O3 0.202685 0.273146 0.189997
O O4 0.268823 0.357833 0.028309
O O5 0.407007 0.253538 0.968951
O O6 0.562924 0.191488 0.830590
O O7 0.460659 0.000000 0.959504
O O8 0.500000 0.227850 0.000000
O O9 0.591771 0.500000 0.096312
O O10 0.817281 0.500000 0.284146
O O11 0.811147 0.766050 0.338262
O O12 0.793507 0.724969 0.223642
O O13 0.250000 0.250000 0.500000
O O14 0.353520 0.225968 0.527821
O O15 0.258503 0.000000 0.559753
O O16 0.260087 0.500000 0.216237
O O17 0.141663 0.671140 0.349056
O O18 0.932962 0.500000 0.509548
O O19 0.000000 0.256091 0.500000
#
# Coordination Sequence:
#
# PCOD8095326 Si02
#       7
#     8   8   8   8   8   8   8
#     4   9  18  33  50  71 100 136 175 212 259 317
#     4  10  21  36  53  75 104 138 177 221 268 318
#     4  10  20  32  49  72 101 135 172 217 263 310
#     4  10  20  34  54  79 106 138 178 219 265 324
#     4  10  20  36  58  81 110 145 182 226 274 328
#     4   9  17  31  53  76  99 132 171 212 259 309
#     4   8  15  30  52  78 103 129 169 216 258 309
#
# _framework density 18.738368000000001
#
# number of rings (size 3 to 8) (size 9 to 14) (size 15 to 20)
#    0.000    2.571    0.000    3.000    0.000    2.571 
#    2.571    0.000    0.000   10.714    0.000    0.000 
#    0.000    0.000    0.000    0.000    0.000    0.000 
#
# Total GULP energy -346989.333455 kJ/mol
# GULP energy per Si atom -12392.476195 kJ/mol
# Density = 1.869572 g / cm^3
# Si number density = 18.738368 Si / 1000 Ang^3
#
#
#
# Elastic Constant Matrix: (Units=GPa)
#
#
# Indices 1 2 3 4 5 6 
#
# 1 107.1853 45.4175 32.4362 0.0000 28.7268 -0.0003
# 2 45.4175 76.6536 27.1465 -0.0004 11.5049 -0.0004
# 3 32.4362 27.1465 45.6274 -0.0002 20.5401 0.0000
# 4 0.0000 -0.0004 -0.0002 20.3143 0.0001 2.6160
# 5 28.7268 11.5049 20.5401 0.0001 39.9058 0.0000
# 6 -0.0003 -0.0004 0.0000 2.6160 0.0000 27.7144
#
#
#
# Elastic Compliance Matrix: (Units=1/GPa)
#
#
# Indices 1 2 3 4 5 6 
#
# 1 0.015139 -0.006620 -0.003614 0.000000 -0.007129 0.000000
# 2 -0.006620 0.019428 -0.008430 0.000000 0.003503 0.000000
# 3 -0.003614 -0.008430 0.035450 0.000000 -0.013215 0.000000
# 4 0.000000 0.000000 0.000000 0.049832 0.000000 -0.004704
# 5 -0.007129 0.003503 -0.013215 0.000000 0.035983 0.000000
# 6 0.000000 0.000000 0.000000 -0.004704 0.000000 0.036526
#
#
# Mechanical properties :
#
#
# Convention : Reuss Voigt Hill
#
# Bulk Modulus (GPa) = 30.59129 48.82963 39.71046
# Shear Modulus (GPa) = 20.78287 25.88464 23.33376
#
# Velocity S-wave (km/s) = 3.33394 3.72071 3.53262
# Velocity P-wave (km/s) = 5.58401 6.67634 6.15445
#
# Compressibility (1/GPa) = 0.03268904
#
# Stress axis : x y z
#
# Youngs Moduli (GPa) = 66.05371 51.47320 28.20853
#
# Poissons Ratio (x) = 0.34075 0.10196
# Poissons Ratio (y) = 0.43727 0.23779
# Poissons Ratio (z) = 0.23874 0.43390
#
# Static dielectric constant tensor:
#      x y z
#    x 3.511280 0.000000 0.101610 
#    y 0.000000 3.590660 0.000000 
#    z 0.101610 0.000000 3.291640 
# 
# 
# High freq. dielectric constant tensor:
#      x y z
#    x 1.730020 0.000000 0.013970 
#    y 0.000000 1.717290 0.000000 
#    z 0.013970 0.000000 1.712010 
# 
# From -- ./inp_files/319719.got.cif
#   From: 2010.06.25/outbox.cif.g09.slc.cpg/sg12_160_cif.got.tgz:319719.got - 2010.06.28 00:19:55.
