data_PCOD8095097
_publ_section_title
;
Structure prediction by ZEFSAII (Michael W. Deem and Ramdas Pophale) SiO2 
 PCOD8095097
Probable space group: C 2/M
;
_chemical_formula_sum "Si O2"
_cell_formula_units_Z 56
_cell_length_a 27.680877
_cell_length_b 8.335057
_cell_length_c 22.385798
_cell_angle_alpha 90.000000
_cell_angle_beta 39.959564
_cell_angle_gamma 90.000000
_cell_volume 3317.133598
_symmetry_space_group_name_H-M "C 2/M"
_symmetry_group_IT_number 12
_symmetry_cell_setting 'monoclinic'
loop_
_space_group_symop_operation_xyz
x,y,z
-x,y,-z
-x,-y,-z
x,-y,z
1/2+x,1/2+y,z
1/2-x,1/2+y,-z
1/2-x,1/2-y,-z
1/2+x,1/2-y,z
loop_
_atom_site_type_symbol
_atom_site_label
_atom_site_fract_x
_atom_site_fract_y
_atom_site_fract_z
Si Si1 0.117210 0.191502 0.899967
Si Si2 0.762495 0.685643 0.387424
Si Si3 0.928914 0.690804 0.532270
Si Si4 0.267244 0.185621 0.710138
Si Si5 0.106772 0.689020 0.565726
Si Si6 0.085855 0.810046 0.706923
Si Si7 0.009768 0.809716 0.897275
O O1 0.203664 0.258469 0.815653
O O2 0.072450 0.255621 0.884067
O O3 0.119554 0.000000 0.894989
O O4 0.073101 0.249528 0.001626
O O5 0.764203 0.500000 0.367805
O O6 0.764553 0.794074 0.326322
O O7 0.687135 0.724270 0.495569
O O8 0.833401 0.729451 0.360457
O O9 0.928678 0.500000 0.538754
O O10 0.851182 0.762642 0.634776
O O11 0.933933 0.739336 0.457682
O O12 0.000000 0.765699 0.500000
O O13 0.276335 0.000000 0.715562
O O14 0.118866 0.500000 0.556565
O O15 0.056882 0.750088 0.669345
O O16 0.027890 0.748093 0.813189
O O17 0.093063 0.000000 0.702088
O O18 0.010965 0.000000 0.897528
#
# Coordination Sequence:
#
# PCOD8095097 Si02
#       7
#     8   8   8   8   8   8   8
#     4   8  12  22  39  62  84 109 144 177 209 238
#     4  11  20  29  41  60  88 118 147 175 205 248
#     4   8  15  28  46  67  86 104 132 176 222 258
#     4   9  15  26  46  66  86 112 144 178 213 252
#     4  10  20  32  45  61  83 111 143 177 212 254
#     4  11  19  29  43  61  86 116 147 175 209 247
#     4   8  14  22  38  60  85 112 142 178 206 238
#
# _framework density 16.882045000000002
#
# number of rings (size 3 to 8) (size 9 to 14) (size 15 to 20)
#    0.000    2.714    1.429    4.286    0.000    0.000 
#    0.000    0.000    0.000   13.286    0.000    1.000 
#    0.000    0.000    0.000    0.000    0.000    0.000 
#
# Total GULP energy -346865.805593 kJ/mol
# GULP energy per Si atom -12388.064485 kJ/mol
# Density = 1.684362 g / cm^3
# Si number density = 16.882045 Si / 1000 Ang^3
#
#
#
# Elastic Constant Matrix: (Units=GPa)
#
#
# Indices 1 2 3 4 5 6 
#
# 1 83.8486 8.4833 82.7618 0.0111 -3.5660 -0.0034
# 2 8.4833 21.8277 13.2243 0.0426 -1.6228 -0.0187
# 3 82.7618 13.2243 157.2301 0.0307 5.0310 -0.0091
# 4 0.0111 0.0426 0.0307 13.0471 -0.0260 6.3443
# 5 -3.5660 -1.6228 5.0310 -0.0260 19.1462 0.0015
# 6 -0.0034 -0.0187 -0.0091 6.3443 0.0015 10.3052
#
#
#
# Elastic Compliance Matrix: (Units=1/GPa)
#
#
# Indices 1 2 3 4 5 6 
#
# 1 0.026167 -0.001089 -0.013953 0.000049 0.008448 -0.000037
# 2 -0.001089 0.048838 -0.003692 -0.000258 0.004906 0.000243
# 3 -0.013953 -0.003692 0.014228 -0.000034 -0.006650 0.000023
# 4 0.000049 -0.000258 -0.000034 0.109395 0.000150 -0.067348
# 5 0.008448 0.004906 -0.006650 0.000150 0.055967 -0.000095
# 6 -0.000037 0.000243 0.000023 -0.067348 -0.000095 0.138500
#
#
# Mechanical properties :
#
#
# Convention : Reuss Voigt Hill
#
# Bulk Modulus (GPa) = 19.31706 52.42727 35.87217
# Shear Modulus (GPa) = 11.16527 19.06217 15.11372
#
# Velocity S-wave (km/s) = 2.57450 3.36391 2.99533
# Velocity P-wave (km/s) = 4.50606 6.79782 5.76693
#
# Compressibility (1/GPa) = 0.05176771
#
# Stress axis : x y z
#
# Youngs Moduli (GPa) = 38.21536 20.47566 70.28550
#
# Poissons Ratio (x) = 0.02229 0.98067
# Poissons Ratio (y) = 0.04161 0.25946
# Poissons Ratio (z) = 0.53320 0.07559
#
# Static dielectric constant tensor:
#      x y z
#    x 3.045050 -0.000020 -0.041630 
#    y -0.000020 2.793090 0.000020 
#    z -0.041630 0.000020 3.785780 
# 
# 
# High freq. dielectric constant tensor:
#      x y z
#    x 1.598650 0.000000 0.004840 
#    y 0.000000 1.619950 0.000000 
#    z 0.004840 0.000000 1.662480 
# 
# From -- ./inp_files/291449.got.cif
#   From: 2010.06.25/outbox.cif.g09.slc.cpg/sg12_146_cif.got.tgz:291449.got - 2010.06.28 00:19:55.
