data_PCOD8095894
_publ_section_title
;
Structure prediction by ZEFSAII (Michael W. Deem and Ramdas Pophale) SiO2 
 PCOD8095894
Probable space group: C 2/M
;
_chemical_formula_sum "Si O2"
_cell_formula_units_Z 64
_cell_length_a 31.723835
_cell_length_b 9.010210
_cell_length_c 15.434615
_cell_angle_alpha 90.000000
_cell_angle_beta 53.750120
_cell_angle_gamma 90.000000
_cell_volume 3557.882521
_symmetry_space_group_name_H-M "C 2/M"
_symmetry_group_IT_number 12
_symmetry_cell_setting 'monoclinic'
loop_
_space_group_symop_operation_xyz
x,y,z
-x,y,-z
-x,-y,-z
x,-y,z
1/2+x,1/2+y,z
1/2-x,1/2+y,-z
1/2-x,1/2-y,-z
1/2+x,1/2-y,z
loop_
_atom_site_type_symbol
_atom_site_label
_atom_site_fract_x
_atom_site_fract_y
_atom_site_fract_z
Si Si1 0.380593 0.172476 0.973968
Si Si2 0.259564 0.672651 0.735991
Si Si3 0.276353 0.676540 0.050410
Si Si4 0.367639 0.674053 0.521277
Si Si5 0.148904 0.668060 0.797025
Si Si6 0.506460 0.173700 0.224687
Si Si7 0.093238 0.825894 0.711753
Si Si8 0.966542 0.325868 0.460466
O O1 0.435978 0.228784 0.870744
O O2 0.370076 0.000000 0.964325
O O3 0.336253 0.270195 0.982335
O O4 0.380639 0.196766 0.076881
O O5 0.261574 0.500000 0.761563
O O6 0.255644 0.771589 0.826432
O O7 0.310284 0.723364 0.621073
O O8 0.210311 0.700936 0.733540
O O9 0.274347 0.500000 0.045338
O O10 0.250000 0.750000 0.000000
O O11 0.375437 0.500000 0.520795
O O12 0.376106 0.726322 0.411954
O O13 0.409840 0.750783 0.532253
O O14 0.139649 0.500000 0.776505
O O15 0.126820 0.779555 0.753283
O O16 0.464024 0.252818 0.215259
O O17 0.497153 0.216945 0.335815
O O18 0.500679 0.000000 0.215178
O O19 0.085359 0.000000 0.722898
O O20 0.957712 0.500000 0.479548
O O21 0.000000 0.263950 0.500000
#
# Coordination Sequence:
#
# PCOD8095894 Si02
#       8
#     8   8   8   8   8   8   8   8
#     4   9  19  36  55  75 101 135 175 215 255 303
#     4   9  19  37  56  75 102 135 172 212 254 303
#     4  11  22  36  55  79 107 137 170 209 254 303
#     4   9  19  35  53  74 102 135 169 208 255 304
#     4   9  18  33  52  72  98 133 171 213 259 307
#     4   9  18  34  54  73  99 136 172 207 252 307
#     4  10  20  33  50  75 106 135 168 212 257 304
#     4   9  18  32  50  75 104 131 165 209 252 299
#
# _framework density 17.988227999999999
#
# number of rings (size 3 to 8) (size 9 to 14) (size 15 to 20)
#    0.000    2.625    0.000    2.250    0.000    5.750 
#    0.000    3.750    0.000    0.000    0.000    0.000 
#    0.000    0.000    0.000    0.000    0.000    0.000 
#
# Total GULP energy -396873.568512 kJ/mol
# GULP energy per Si atom -12402.299016 kJ/mol
# Density = 1.794729 g / cm^3
# Si number density = 17.988228 Si / 1000 Ang^3
#
#
#
# Elastic Constant Matrix: (Units=GPa)
#
#
# Indices 1 2 3 4 5 6 
#
# 1 137.4469 55.1068 80.2483 0.0000 -3.0955 0.0000
# 2 55.1068 68.4226 42.2142 0.0000 -2.2348 -0.0002
# 3 80.2483 42.2142 105.6567 0.0000 -24.4716 0.0000
# 4 0.0000 0.0000 0.0000 25.0456 0.0000 0.5660
# 5 -3.0955 -2.2348 -24.4716 0.0000 34.4446 0.0000
# 6 0.0000 -0.0002 0.0000 0.5660 0.0000 34.4342
#
#
#
# Elastic Compliance Matrix: (Units=1/GPa)
#
#
# Indices 1 2 3 4 5 6 
#
# 1 0.016423 -0.006289 -0.011627 0.000000 -0.007193 0.000000
# 2 -0.006289 0.022578 -0.004831 0.000000 -0.002533 0.000000
# 3 -0.011627 -0.004831 0.023833 0.000000 0.015574 0.000000
# 4 0.000000 0.000000 0.000000 0.039942 0.000000 -0.000657
# 5 -0.007193 -0.002533 0.015574 0.000000 0.039286 0.000000
# 6 0.000000 0.000000 0.000000 -0.000657 0.000000 0.029052
#
#
# Mechanical properties :
#
#
# Convention : Reuss Voigt Hill
#
# Bulk Modulus (GPa) = 57.66848 74.07386 65.87117
# Shear Modulus (GPa) = 22.48319 27.71533 25.09926
#
# Velocity S-wave (km/s) = 3.53921 3.92949 3.73945
# Velocity P-wave (km/s) = 6.98784 7.86488 7.43930
#
# Compressibility (1/GPa) = 0.01734050
#
# Stress axis : x y z
#
# Youngs Moduli (GPa) = 60.88861 44.29172 41.95825
#
# Poissons Ratio (x) = 0.27853 0.48786
# Poissons Ratio (y) = 0.38290 0.20270
# Poissons Ratio (z) = 0.70797 0.21397
#
# Static dielectric constant tensor:
#      x y z
#    x 3.368830 0.000000 -0.107800 
#    y 0.000000 3.228720 0.000000 
#    z -0.107800 0.000000 3.464010 
# 
# 
# High freq. dielectric constant tensor:
#      x y z
#    x 1.700670 0.000000 -0.004370 
#    y 0.000000 1.690920 0.000000 
#    z -0.004370 0.000000 1.695780 
# 
# From -- ./inp_files/249117.got.cif
#   From: 2010.06.25/outbox.cif.g09.slc.cpg/sg12_125_cif.got.tgz:249117.got - 2010.06.28 00:19:55.
