data_PCOD8095059
_publ_section_title
;
Structure prediction by ZEFSAII (Michael W. Deem and Ramdas Pophale) SiO2 
 PCOD8095059
Probable space group: C 2/M
;
_chemical_formula_sum "Si O2"
_cell_formula_units_Z 60
_cell_length_a 8.804870
_cell_length_b 25.075906
_cell_length_c 23.517565
_cell_angle_alpha 90.000000
_cell_angle_beta 39.809636
_cell_angle_gamma 90.000000
_cell_volume 3324.405501
_symmetry_space_group_name_H-M "C 2/M"
_symmetry_group_IT_number 12
_symmetry_cell_setting 'monoclinic'
loop_
_space_group_symop_operation_xyz
x,y,z
-x,y,-z
-x,-y,-z
x,-y,z
1/2+x,1/2+y,z
1/2-x,1/2+y,-z
1/2-x,1/2-y,-z
1/2+x,1/2-y,z
loop_
_atom_site_type_symbol
_atom_site_label
_atom_site_fract_x
_atom_site_fract_y
_atom_site_fract_z
Si Si1 0.526724 0.781131 0.591973
Si Si2 0.405909 0.060832 0.660042
Si Si3 0.738505 0.943128 0.466992
Si Si4 0.000000 0.738962 0.000000
Si Si5 0.996933 0.216312 0.121679
Si Si6 0.272138 0.197182 0.258502
Si Si7 0.544143 0.847247 0.279686
Si Si8 0.670930 0.638264 0.645707
O O1 0.750000 0.750000 0.500000
O O2 0.338602 0.736860 0.663555
O O3 0.592373 0.814915 0.630194
O O4 0.396559 0.821115 0.584334
O O5 0.660032 0.064630 0.554750
O O6 0.445493 0.089979 0.708722
O O7 0.199869 0.092209 0.684634
O O8 0.324819 0.000000 0.692852
O O9 0.500000 0.949157 0.500000
O O10 0.864309 0.890213 0.406281
O O11 0.880622 0.000000 0.419903
O O12 0.970459 0.778258 0.061952
O O13 0.768296 0.701177 0.059519
O O14 0.946373 0.273697 0.164973
O O15 0.815142 0.173222 0.198536
O O16 0.418995 0.155897 0.254742
O O17 0.072895 0.170030 0.275920
#
# Coordination Sequence:
#
# PCOD8095059 Si02
#       8
#     8   8   8   4   8   8   8   8
#     4  10  22  33  46  71 106 151 191 212 252 314
#     4   9  19  35  55  73  94 139 190 235 275 309
#     4   8  15  30  50  70  91 124 191 244 267 296
#     4  10  20  34  64  80 114 140 172 204 252 336
#     4  10  20  37  54  87 113 142 170 209 259 319
#     4  11  22  33  48  76 118 142 173 217 262 317
#     4  10  21  36  51  74 115 142 172 227 264 313
#     4  10  20  31  52  71  98 147 180 237 264 304
#
# _framework density 18.04834
#
# number of rings (size 3 to 8) (size 9 to 14) (size 15 to 20)
#    0.000    2.267    1.333    2.800   11.200    1.600 
#    0.000    1.333    0.000    1.600    0.000    0.933 
#    0.000    0.000    0.000    0.000    0.000    0.000 
#
# Total GULP energy -371668.152838 kJ/mol
# GULP energy per Si atom -12388.938428 kJ/mol
# Density = 1.800726 g / cm^3
# Si number density = 18.048340 Si / 1000 Ang^3
#
#
#
# Elastic Constant Matrix: (Units=GPa)
#
#
# Indices 1 2 3 4 5 6 
#
# 1 85.3608 41.7392 29.9986 -0.0002 -0.6395 -0.0003
# 2 41.7392 113.5390 31.4505 0.0000 3.3995 0.0000
# 3 29.9986 31.4505 75.8521 0.0004 3.7495 0.0004
# 4 -0.0002 0.0000 0.0004 -2.2690 -0.0001 -11.0949
# 5 -0.6395 3.3995 3.7495 -0.0001 26.2849 -0.0001
# 6 -0.0003 0.0000 0.0004 -11.0949 -0.0001 -7.1751
#
#
#
# Elastic Compliance Matrix: (Units=1/GPa)
#
#
# Indices 1 2 3 4 5 6 
#
# 1 0.015460 -0.004536 -0.004311 0.000000 0.001578 0.000000
# 2 -0.004536 0.011294 -0.002831 0.000000 -0.001167 0.000000
# 3 -0.004311 -0.002831 0.016164 0.000000 -0.002044 0.000001
# 4 0.000000 0.000000 0.000000 0.067173 0.000000 -0.103869
# 5 0.001578 -0.001167 -0.002044 0.000000 0.038526 0.000000
# 6 0.000000 0.000000 0.000001 -0.103869 0.000000 0.021242
#
#
# Mechanical properties :
#
#
# Convention : Reuss Voigt Hill
#
# Bulk Modulus (GPa) = 51.12425 53.45871 52.29148
# Shear Modulus (GPa) = 25.03300 14.80575 19.91937
#
# Velocity S-wave (km/s) = 3.72828 2.86726 3.32575
# Velocity P-wave (km/s) = 6.84991 6.37539 6.61690
#
# Compressibility (1/GPa) = 0.01956019
#
# Stress axis : x y z
#
# Youngs Moduli (GPa) = 64.68245 88.53927 61.86747
#
# Poissons Ratio (x) = 0.40165 0.26673
# Poissons Ratio (y) = 0.29343 0.17516
# Poissons Ratio (z) = 0.27887 0.25067
#
# Static dielectric constant tensor:
#      x y z
#    x 3.252220 0.000000 0.117230 
#    y 0.000000 3.538050 0.000000 
#    z 0.117230 0.000000 3.320160 
# 
# 
# High freq. dielectric constant tensor:
#      x y z
#    x 1.694700 0.000000 0.011090 
#    y 0.000000 1.681670 0.000000 
#    z 0.011090 0.000000 1.668460 
# 
# From -- ./inp_files/334156.got.cif
#   From: 2010.06.25/outbox.cif.g09.slc.cpg/sg12_168_cif.got.tgz:334156.got - 2010.06.28 00:19:55.
