data_PCOD8095076
_publ_section_title
;
Structure prediction by ZEFSAII (Michael W. Deem and Ramdas Pophale) SiO2 
 PCOD8095076
Probable space group: C 2/M
;
_chemical_formula_sum "Si O2"
_cell_formula_units_Z 64
_cell_length_a 21.158062
_cell_length_b 26.920934
_cell_length_c 12.485378
_cell_angle_alpha 90.000000
_cell_angle_beta 150.501266
_cell_angle_gamma 90.000000
_cell_volume 3501.785711
_symmetry_space_group_name_H-M "C 2/M"
_symmetry_group_IT_number 12
_symmetry_cell_setting 'monoclinic'
loop_
_space_group_symop_operation_xyz
x,y,z
-x,y,-z
-x,-y,-z
x,-y,z
1/2+x,1/2+y,z
1/2-x,1/2+y,-z
1/2-x,1/2-y,-z
1/2+x,1/2-y,z
loop_
_atom_site_type_symbol
_atom_site_label
_atom_site_fract_x
_atom_site_fract_y
_atom_site_fract_z
Si Si1 0.697620 0.057606 0.093369
Si Si2 0.400200 0.707569 0.635206
Si Si3 0.964665 0.054051 0.571178
Si Si4 0.180720 0.125236 0.893109
Si Si5 0.470129 0.138156 0.078556
Si Si6 0.299003 0.305298 0.891639
Si Si7 0.708263 0.817165 0.524439
Si Si8 0.783164 0.196029 0.238877
O O1 0.813834 0.067481 0.349340
O O2 0.724154 0.084172 0.017785
O O3 0.673661 0.000000 0.035516
O O4 0.574566 0.081428 0.969375
O O5 0.357362 0.763979 0.585194
O O6 0.323815 0.675477 0.610666
O O7 0.367390 0.687507 0.468972
O O8 0.549904 0.703028 0.877178
O O9 0.000000 0.048625 0.500000
O O10 0.052615 0.097651 0.750627
O O11 0.988566 0.000000 0.662471
O O12 0.145588 0.166140 0.750643
O O13 0.247532 0.153887 0.090250
O O14 0.598012 0.142997 0.337731
O O15 0.500000 0.150265 0.000000
O O16 0.360893 0.176091 0.956950
O O17 0.264325 0.326459 0.724519
O O18 0.224081 0.253977 0.803475
#
# Coordination Sequence:
#
# PCOD8095076 Si02
#       8
#     8   8   8   8   8   8   8   8
#     4   9  20  36  55  82 110 134 177 238 290 330
#     4  10  20  33  55  72 106 148 191 222 263 303
#     4   8  15  30  52  78 104 129 170 230 280 319
#     4  10  20  31  53  78 114 141 179 220 280 328
#     4  11  20  35  59  79 109 142 186 228 277 327
#     4  11  22  33  51  78 113 153 182 219 263 322
#     4  10  21  36  51  77 109 146 189 225 255 321
#     4  10  21  34  48  80 110 145 185 223 266 317
#
# _framework density 18.276389999999999
#
# number of rings (size 3 to 8) (size 9 to 14) (size 15 to 20)
#    0.000    2.125    2.500    1.875    7.000    0.250 
#    0.000    2.500    0.000    2.250    0.000    0.000 
#    0.000    7.000    0.000    0.000    0.000    0.000 
#
# Total GULP energy -396709.693797 kJ/mol
# GULP energy per Si atom -12397.177931 kJ/mol
# Density = 1.823479 g / cm^3
# Si number density = 18.276390 Si / 1000 Ang^3
#
#
#
# Elastic Constant Matrix: (Units=GPa)
#
#
# Indices 1 2 3 4 5 6 
#
# 1 64.1636 36.1969 37.6997 0.0000 -12.5206 0.0000
# 2 36.1969 98.1365 35.3068 0.0000 -14.6772 0.0000
# 3 37.6997 35.3068 100.9404 0.0000 -16.3997 0.0000
# 4 0.0000 0.0000 0.0000 18.1425 0.0000 -2.1248
# 5 -12.5206 -14.6772 -16.3997 0.0000 26.4643 0.0000
# 6 0.0000 0.0000 0.0000 -2.1248 0.0000 13.4360
#
#
#
# Elastic Compliance Matrix: (Units=1/GPa)
#
#
# Indices 1 2 3 4 5 6 
#
# 1 0.023141 -0.005786 -0.005962 0.000000 0.004045 0.000000
# 2 -0.005786 0.013578 -0.002012 0.000000 0.003546 0.000000
# 3 -0.005962 -0.002012 0.013563 0.000000 0.004468 0.000000
# 4 0.000000 0.000000 0.000000 0.056159 0.000000 0.008881
# 5 0.004045 0.003546 0.004468 0.000000 0.044436 0.000000
# 6 0.000000 0.000000 0.000000 0.008881 0.000000 0.075831
#
#
# Mechanical properties :
#
#
# Convention : Reuss Voigt Hill
#
# Bulk Modulus (GPa) = 43.93096 53.51636 48.72366
# Shear Modulus (GPa) = 19.09725 21.87771 20.48748
#
# Velocity S-wave (km/s) = 3.23602 3.46359 3.35174
# Velocity P-wave (km/s) = 6.16860 6.73354 6.45725
#
# Compressibility (1/GPa) = 0.02276299
#
# Stress axis : x y z
#
# Youngs Moduli (GPa) = 43.21263 73.64736 73.72759
#
# Poissons Ratio (x) = 0.42609 0.43957
# Poissons Ratio (y) = 0.25001 0.14837
# Poissons Ratio (z) = 0.25764 0.14821
#
# Static dielectric constant tensor:
#      x y z
#    x 3.363700 0.000000 0.127650 
#    y 0.000000 3.508260 0.000000 
#    z 0.127650 0.000000 3.359940 
# 
# 
# High freq. dielectric constant tensor:
#      x y z
#    x 1.695350 0.000000 0.013030 
#    y 0.000000 1.700870 0.000000 
#    z 0.013030 0.000000 1.691470 
# 
# From -- ./inp_files/170636.got.cif
#   From: 2010.06.25/outbox.cif.g09.slc.cpg/sg12_86_cif.got.tgz:170636.got - 2010.06.28 00:19:55.
