data_PCOD8095350
_publ_section_title
;
Structure prediction by ZEFSAII (Michael W. Deem and Ramdas Pophale) SiO2 
 PCOD8095350
Probable space group: C 2/M
;
_chemical_formula_sum "Si O2"
_cell_formula_units_Z 56
_cell_length_a 15.351744
_cell_length_b 9.087055
_cell_length_c 25.371267
_cell_angle_alpha 90.000000
_cell_angle_beta 50.852162
_cell_angle_gamma 90.000000
_cell_volume 2744.832147
_symmetry_space_group_name_H-M "C 2/M"
_symmetry_group_IT_number 12
_symmetry_cell_setting 'monoclinic'
loop_
_space_group_symop_operation_xyz
x,y,z
-x,y,-z
-x,-y,-z
x,-y,z
1/2+x,1/2+y,z
1/2-x,1/2+y,-z
1/2-x,1/2-y,-z
1/2+x,1/2-y,z
loop_
_atom_site_type_symbol
_atom_site_label
_atom_site_fract_x
_atom_site_fract_y
_atom_site_fract_z
Si Si1 0.186424 0.329436 0.070737
Si Si2 0.570680 0.176105 0.831849
Si Si3 0.582782 0.333739 0.294509
Si Si4 0.241248 0.827289 0.840742
Si Si5 0.410544 0.161451 0.422331
Si Si6 0.739346 0.835522 0.682739
Si Si7 0.679403 0.337581 0.456203
O O1 0.183979 0.500000 0.058093
O O2 0.254099 0.298724 0.098537
O O3 0.057885 0.272669 0.122685
O O4 0.250000 0.250000 0.000000
O O5 0.629859 0.249868 0.860083
O O6 0.632895 0.234596 0.754658
O O7 0.586252 0.000000 0.830859
O O8 0.559781 0.500000 0.283460
O O9 0.645119 0.242441 0.225498
O O10 0.467437 0.253832 0.353519
O O11 0.655517 0.334940 0.319188
O O12 0.238405 0.000000 0.828553
O O13 0.416623 0.242978 0.477091
O O14 0.281627 0.142075 0.457004
O O15 0.467726 0.000000 0.405608
O O16 0.777350 0.755505 0.614068
O O17 0.703590 0.000000 0.679665
O O18 0.628920 0.500000 0.462553
#
# Coordination Sequence:
#
# PCOD8095350 Si02
#       7
#     8   8   8   8   8   8   8
#     4  10  23  40  62  89 120 156 194 231 278 344
#     4   9  19  38  61  85 115 154 195 234 281 343
#     4  10  20  35  55  78 106 141 184 229 276 339
#     4  10  21  38  60  88 119 151 189 239 291 335
#     4  10  20  32  49  74 106 140 178 230 283 331
#     4   8  16  32  55  76  96 134 186 225 265 327
#     4   9  18  33  52  71  98 140 184 227 274 332
#
# _framework density 20.401975
#
# number of rings (size 3 to 8) (size 9 to 14) (size 15 to 20)
#    0.000    2.571    0.000    2.143    2.000    3.429 
#    0.000    9.286    0.000    0.000    0.000    0.000 
#    0.000    0.000    0.000    0.000    0.000    0.000 
#
# Total GULP energy -347054.141823 kJ/mol
# GULP energy per Si atom -12394.790779 kJ/mol
# Density = 2.035554 g / cm^3
# Si number density = 20.401975 Si / 1000 Ang^3
#
#
#
# Elastic Constant Matrix: (Units=GPa)
#
#
# Indices 1 2 3 4 5 6 
#
# 1 39.4716 20.0631 20.7409 0.0000 -0.1491 0.0001
# 2 20.0631 88.5923 41.6720 0.0000 4.3822 0.0002
# 3 20.7409 41.6720 108.8602 0.0000 12.8208 0.0000
# 4 0.0000 0.0000 0.0000 35.6858 0.0000 -1.7253
# 5 -0.1491 4.3822 12.8208 0.0000 30.3876 0.0000
# 6 0.0001 0.0002 0.0000 -1.7253 0.0000 22.8458
#
#
#
# Elastic Compliance Matrix: (Units=1/GPa)
#
#
# Indices 1 2 3 4 5 6 
#
# 1 0.030049 -0.004996 -0.004119 0.000000 0.002606 0.000000
# 2 -0.004996 0.014599 -0.004615 0.000000 -0.000183 0.000000
# 3 -0.004119 -0.004615 0.012271 0.000000 -0.004532 0.000000
# 4 0.000000 0.000000 0.000000 0.028125 0.000000 0.002124
# 5 0.002606 -0.000183 -0.004532 0.000000 0.034859 0.000000
# 6 0.000000 0.000000 0.000000 0.002124 0.000000 0.043932
#
#
# Mechanical properties :
#
#
# Convention : Reuss Voigt Hill
#
# Bulk Modulus (GPa) = 33.94714 44.65288 39.30001
# Shear Modulus (GPa) = 24.86123 28.08038 26.47081
#
# Velocity S-wave (km/s) = 3.49459 3.71395 3.60594
# Velocity P-wave (km/s) = 5.74092 6.35022 6.05324
#
# Compressibility (1/GPa) = 0.02945756
#
# Stress axis : x y z
#
# Youngs Moduli (GPa) = 33.27939 68.49774 81.49027
#
# Poissons Ratio (x) = 0.34223 0.33570
# Poissons Ratio (y) = 0.16627 0.37609
# Poissons Ratio (z) = 0.13709 0.31613
#
# Static dielectric constant tensor:
#      x y z
#    x 3.505180 0.000000 -0.001280 
#    y 0.000000 3.816030 0.000000 
#    z -0.001280 0.000000 3.761810 
# 
# 
# High freq. dielectric constant tensor:
#      x y z
#    x 1.782760 0.000000 0.001760 
#    y 0.000000 1.781430 0.000000 
#    z 0.001760 0.000000 1.803200 
# 
# From -- ./inp_files/338518.got.cif
#   From: 2010.06.25/outbox.cif.g09.slc.cpg/sg12_170_cif.got.tgz:338518.got - 2010.06.28 00:19:55.
