data_PCOD8095535
_publ_section_title
;
Structure prediction by ZEFSAII (Michael W. Deem and Ramdas Pophale) SiO2 
 PCOD8095535
Probable space group: C 2/M
;
_chemical_formula_sum "Si O2"
_cell_formula_units_Z 48
_cell_length_a 19.156502
_cell_length_b 32.580760
_cell_length_c 8.387496
_cell_angle_alpha 90.000000
_cell_angle_beta 150.118102
_cell_angle_gamma 90.000000
_cell_volume 2608.107712
_symmetry_space_group_name_H-M "C 2/M"
_symmetry_group_IT_number 12
_symmetry_cell_setting 'monoclinic'
loop_
_space_group_symop_operation_xyz
x,y,z
-x,y,-z
-x,-y,-z
x,-y,z
1/2+x,1/2+y,z
1/2-x,1/2+y,-z
1/2-x,1/2-y,-z
1/2+x,1/2-y,z
loop_
_atom_site_type_symbol
_atom_site_label
_atom_site_fract_x
_atom_site_fract_y
_atom_site_fract_z
Si Si1 0.528903 0.177304 0.377955
Si Si2 0.878726 0.754602 0.640051
Si Si3 0.723803 0.378934 0.050006
Si Si4 0.537060 0.600489 0.246575
Si Si5 0.785137 0.832325 0.285191
Si Si6 0.652247 0.454743 0.726945
O O1 0.500000 0.193902 0.500000
O O2 0.591864 0.212259 0.391455
O O3 0.634243 0.138191 0.588250
O O4 0.380819 0.163705 0.011306
O O5 0.750000 0.750000 0.500000
O O6 0.844236 0.786775 0.431272
O O7 0.000000 0.769110 0.000000
O O8 0.600460 0.384008 0.932358
O O9 0.674944 0.347069 0.814924
O O10 0.751373 0.423732 0.024299
O O11 0.640847 0.639066 0.437590
O O12 0.624496 0.563377 0.497250
O O13 0.500000 0.584141 0.000000
O O14 0.500000 0.457868 0.500000
O O15 0.722699 0.500000 0.858109
#
# Coordination Sequence:
#
# PCOD8095535 Si02
#       6
#     8   8   8   8   8   8
#     4  10  23  39  56  75 107 145 187 226 273 324
#     4  12  25  40  55  81 109 143 187 231 281 317
#     4   9  20  36  57  80 107 146 184 220 272 324
#     4  10  20  32  54  85 109 144 182 221 273 320
#     4  10  21  38  53  75 108 145 183 226 268 327
#     4   8  15  32  55  82 113 140 175 221 266 323
#
# _framework density 18.404147999999999
#
# number of rings (size 3 to 8) (size 9 to 14) (size 15 to 20)
#    0.000    2.167    1.667    2.000    4.667    4.333 
#    0.000    0.000    0.000   12.500    0.000    0.000 
#    0.000   27.333    0.000    0.000    0.000    0.000 
#
# Total GULP energy -297445.226324 kJ/mol
# GULP energy per Si atom -12393.551097 kJ/mol
# Density = 1.836226 g / cm^3
# Si number density = 18.404148 Si / 1000 Ang^3
#
#
#
# Elastic Constant Matrix: (Units=GPa)
#
#
# Indices 1 2 3 4 5 6 
#
# 1 92.1003 52.2926 35.1618 0.0000 -1.0167 0.0000
# 2 52.2926 138.8841 64.6993 0.0000 -2.9735 0.0000
# 3 35.1618 64.6993 119.8928 0.0000 3.2360 0.0000
# 4 0.0000 0.0000 0.0000 36.6607 0.0000 6.1843
# 5 -1.0167 -2.9735 3.2360 0.0000 23.8180 0.0000
# 6 0.0000 0.0000 0.0000 6.1843 0.0000 19.1918
#
#
#
# Elastic Compliance Matrix: (Units=1/GPa)
#
#
# Indices 1 2 3 4 5 6 
#
# 1 0.014064 -0.004495 -0.001707 0.000000 0.000271 0.000000
# 2 -0.004495 0.011142 -0.004744 0.000000 0.001844 0.000000
# 3 -0.001707 -0.004744 0.011462 0.000000 -0.002222 0.000000
# 4 0.000000 0.000000 0.000000 0.028845 0.000000 -0.009295
# 5 0.000271 0.001844 -0.002222 0.000000 0.042529 0.000000
# 6 0.000000 0.000000 0.000000 -0.009295 0.000000 0.055101
#
#
# Mechanical properties :
#
#
# Convention : Reuss Voigt Hill
#
# Bulk Modulus (GPa) = 67.67363 72.79829 70.23596
# Shear Modulus (GPa) = 26.32139 29.18232 27.75185
#
# Velocity S-wave (km/s) = 3.78589 3.98633 3.88740
# Velocity P-wave (km/s) = 7.48073 7.79929 7.64167
#
# Compressibility (1/GPa) = 0.01477680
#
# Stress axis : x y z
#
# Youngs Moduli (GPa) = 71.10247 89.74859 87.24832
#
# Poissons Ratio (x) = 0.40339 0.14889
# Poissons Ratio (y) = 0.31958 0.41394
# Poissons Ratio (z) = 0.12134 0.42580
#
# Static dielectric constant tensor:
#      x y z
#    x 3.243960 0.000000 -0.046650 
#    y 0.000000 3.766620 0.000000 
#    z -0.046650 0.000000 3.570610 
# 
# 
# High freq. dielectric constant tensor:
#      x y z
#    x 1.701900 0.000000 -0.005210 
#    y 0.000000 1.705200 0.000000 
#    z -0.005210 0.000000 1.714710 
# 
# From -- ./inp_files/91280.got.cif
#   From: 2010.06.25/outbox.cif.g09.slc.cpg/sg12_46_cif.got.tgz:91280.got - 2010.06.28 00:19:55.
