data_PCOD8095193
_publ_section_title
;
Structure prediction by ZEFSAII (Michael W. Deem and Ramdas Pophale) SiO2 
 PCOD8095193
Probable space group: C 2/M
;
_chemical_formula_sum "Si O2"
_cell_formula_units_Z 64
_cell_length_a 25.155316
_cell_length_b 9.331874
_cell_length_c 18.073632
_cell_angle_alpha 90.000000
_cell_angle_beta 118.309367
_cell_angle_gamma 90.000000
_cell_volume 3735.287475
_symmetry_space_group_name_H-M "C 2/M"
_symmetry_group_IT_number 12
_symmetry_cell_setting 'monoclinic'
loop_
_space_group_symop_operation_xyz
x,y,z
-x,y,-z
-x,-y,-z
x,-y,z
1/2+x,1/2+y,z
1/2-x,1/2+y,-z
1/2-x,1/2-y,-z
1/2+x,1/2-y,z
loop_
_atom_site_type_symbol
_atom_site_label
_atom_site_fract_x
_atom_site_fract_y
_atom_site_fract_z
Si Si1 0.295427 0.333071 0.477742
Si Si2 0.265627 0.331246 0.678959
Si Si3 0.620695 0.335066 0.339965
Si Si4 0.755416 0.665014 0.166442
Si Si5 0.623366 0.163550 0.825590
Si Si6 0.989924 0.834066 0.220125
Si Si7 0.047716 0.164765 0.970671
Si Si8 0.161446 0.667725 0.014662
O O1 0.277890 0.500000 0.459029
O O2 0.250000 0.250000 0.500000
O O3 0.290878 0.255337 0.395014
O O4 0.360439 0.316440 0.561136
O O5 0.255915 0.500000 0.658003
O O6 0.328110 0.274488 0.682771
O O7 0.266100 0.294037 0.765649
O O8 0.613677 0.500000 0.313511
O O9 0.554765 0.264207 0.285028
O O10 0.740087 0.500000 0.138144
O O11 0.827450 0.690915 0.206274
O O12 0.722840 0.764058 0.085155
O O13 0.563922 0.257256 0.770636
O O14 0.601726 0.000000 0.813405
O O15 0.655075 0.204961 0.924026
O O16 0.982210 0.807907 0.128218
O O17 0.986489 0.000000 0.239689
O O18 0.067333 0.000000 0.993792
O O19 0.105930 0.262496 0.022274
O O20 0.000000 0.212789 0.000000
O O21 0.162667 0.500000 0.031126
#
# Coordination Sequence:
#
# PCOD8095193 Si02
#       8
#     8   8   8   8   8   8   8   8
#     4   9  16  29  48  70 100 130 156 190 234 288
#     4   9  18  31  49  73  98 123 154 198 245 286
#     4   8  15  28  48  72  95 120 152 190 231 278
#     4  10  20  33  52  71  93 126 164 204 242 287
#     4   9  19  35  49  67  95 127 162 202 245 283
#     4   9  17  30  49  70  91 121 161 199 231 277
#     4   9  18  30  47  68  93 127 164 197 232 283
#     4  10  20  32  47  68  97 127 160 202 246 287
#
# _framework density 17.133889
#
# number of rings (size 3 to 8) (size 9 to 14) (size 15 to 20)
#    0.000    2.875    0.000    1.875    1.750    1.750 
#    0.000    3.125    0.000    0.750    0.000    5.250 
#    0.000    0.000    0.000    0.000    0.000    0.000 
#
# Total GULP energy -396662.035644 kJ/mol
# GULP energy per Si atom -12395.688614 kJ/mol
# Density = 1.709489 g / cm^3
# Si number density = 17.133889 Si / 1000 Ang^3
#
#
#
# Elastic Constant Matrix: (Units=GPa)
#
#
# Indices 1 2 3 4 5 6 
#
# 1 90.9931 34.8456 43.7395 0.0000 15.4057 0.0000
# 2 34.8456 60.8781 37.4638 0.0000 7.7657 0.0000
# 3 43.7395 37.4638 73.5970 0.0000 17.5595 0.0000
# 4 0.0000 0.0000 0.0000 25.7765 0.0000 3.3976
# 5 15.4057 7.7657 17.5595 0.0000 19.8735 0.0000
# 6 0.0000 0.0000 0.0000 3.3976 0.0000 23.9017
#
#
#
# Elastic Compliance Matrix: (Units=1/GPa)
#
#
# Indices 1 2 3 4 5 6 
#
# 1 0.016834 -0.005226 -0.005979 0.000000 -0.005725 0.000000
# 2 -0.005226 0.025592 -0.010773 0.000000 0.003570 0.000000
# 3 -0.005979 -0.010773 0.025994 0.000000 -0.014123 0.000000
# 4 0.000000 0.000000 0.000000 0.039536 0.000000 -0.005620
# 5 -0.005725 0.003570 -0.014123 0.000000 0.065840 0.000000
# 6 0.000000 0.000000 0.000000 -0.005620 0.000000 0.042637
#
#
# Mechanical properties :
#
#
# Convention : Reuss Voigt Hill
#
# Bulk Modulus (GPa) = 40.87477 50.84066 45.85772
# Shear Modulus (GPa) = 18.61893 21.20496 19.91194
#
# Velocity S-wave (km/s) = 3.30005 3.52178 3.41271
# Velocity P-wave (km/s) = 6.19906 6.80251 6.50778
#
# Compressibility (1/GPa) = 0.02446497
#
# Stress axis : x y z
#
# Youngs Moduli (GPa) = 59.40235 39.07478 38.47010
#
# Poissons Ratio (x) = 0.20421 0.22999
# Poissons Ratio (y) = 0.31045 0.41444
# Poissons Ratio (z) = 0.35514 0.42095
#
# Static dielectric constant tensor:
#      x y z
#    x 3.204110 0.000000 0.081700 
#    y 0.000000 3.203390 0.000000 
#    z 0.081700 0.000000 3.408530 
# 
# 
# High freq. dielectric constant tensor:
#      x y z
#    x 1.647090 0.000000 0.007670 
#    y 0.000000 1.650550 0.000000 
#    z 0.007670 0.000000 1.651020 
# 
# From -- ./inp_files/323623.got.cif
#   From: 2010.06.25/outbox.cif.g09.slc.cpg/sg12_162_cif.got.tgz:323623.got - 2010.06.28 00:19:55.
