data_PCOD8095124
_publ_section_title
;
Structure prediction by ZEFSAII (Michael W. Deem and Ramdas Pophale) SiO2 
 PCOD8095124
Probable space group: C 2/M
;
_chemical_formula_sum "Si O2"
_cell_formula_units_Z 48
_cell_length_a 22.596323
_cell_length_b 9.347920
_cell_length_c 19.729996
_cell_angle_alpha 90.000000
_cell_angle_beta 135.940591
_cell_angle_gamma 90.000000
_cell_volume 2898.123312
_symmetry_space_group_name_H-M "C 2/M"
_symmetry_group_IT_number 12
_symmetry_cell_setting 'monoclinic'
loop_
_space_group_symop_operation_xyz
x,y,z
-x,y,-z
-x,-y,-z
x,-y,z
1/2+x,1/2+y,z
1/2-x,1/2+y,-z
1/2-x,1/2-y,-z
1/2+x,1/2-y,z
loop_
_atom_site_type_symbol
_atom_site_label
_atom_site_fract_x
_atom_site_fract_y
_atom_site_fract_z
Si Si1 0.348316 0.666770 0.223709
Si Si2 0.357943 0.834860 0.642515
Si Si3 0.700877 0.162674 0.014254
Si Si4 0.701709 0.165973 0.557617
Si Si5 0.049100 0.333127 0.806305
Si Si6 0.600148 0.334775 0.585725
O O1 0.371871 0.500000 0.236707
O O2 0.246612 0.694826 0.124253
O O3 0.408548 0.749798 0.221102
O O4 0.365632 0.720111 0.313680
O O5 0.343681 0.809310 0.551369
O O6 0.294086 0.739880 0.634337
O O7 0.452818 0.781642 0.738693
O O8 0.343376 0.000000 0.650120
O O9 0.717803 0.000000 0.008987
O O10 0.750000 0.250000 0.000000
O O11 0.600120 0.195358 0.919969
O O12 0.642302 0.237055 0.564184
O O13 0.713767 0.000000 0.584475
O O14 0.049374 0.500000 0.786667
O O15 0.500000 0.311801 0.500000
O O16 0.624622 0.500000 0.593039
#
# Coordination Sequence:
#
# PCOD8095124 Si02
#       6
#     8   8   8   8   8   8
#     4   9  17  28  43  65  93 121 146 177 217 259
#     4   9  18  32  48  66  89 115 144 181 222 262
#     4   8  14  25  41  63  89 114 143 178 216 257
#     4  10  20  32  47  67  89 115 147 182 219 258
#     4   9  16  27  46  69  90 114 145 181 220 260
#     4  10  20  32  46  65  91 122 150 176 212 259
#
# _framework density 16.562442000000001
#
# number of rings (size 3 to 8) (size 9 to 14) (size 15 to 20)
#    0.000    2.833    0.000    1.500    0.000    2.333 
#    0.000    0.000    0.000    1.000    0.000    7.000 
#    0.000    0.000    0.000    0.000    0.000    0.000 
#
# Total GULP energy -297378.346603 kJ/mol
# GULP energy per Si atom -12390.764442 kJ/mol
# Density = 1.652475 g / cm^3
# Si number density = 16.562442 Si / 1000 Ang^3
#
#
#
# Elastic Constant Matrix: (Units=GPa)
#
#
# Indices 1 2 3 4 5 6 
#
# 1 84.7092 46.8674 45.9591 0.0000 12.7935 0.0000
# 2 46.8674 61.6752 36.2570 0.0000 5.4791 0.0000
# 3 45.9591 36.2570 117.1537 0.0000 20.1757 0.0000
# 4 0.0000 0.0000 0.0000 17.6341 0.0000 0.3309
# 5 12.7935 5.4791 20.1757 0.0000 27.3158 0.0000
# 6 0.0000 0.0000 0.0000 0.3309 0.0000 30.0283
#
#
#
# Elastic Compliance Matrix: (Units=1/GPa)
#
#
# Indices 1 2 3 4 5 6 
#
# 1 0.022549 -0.014666 -0.003431 0.000000 -0.005085 0.000000
# 2 -0.014666 0.029369 -0.004015 0.000000 0.003943 0.000000
# 3 -0.003431 -0.004015 0.012270 0.000000 -0.006650 0.000000
# 4 0.000000 0.000000 0.000000 0.056720 0.000000 -0.000625
# 5 -0.005085 0.003943 -0.006650 0.000000 0.043111 0.000000
# 6 0.000000 0.000000 0.000000 -0.000625 0.000000 0.033309
#
#
# Mechanical properties :
#
#
# Convention : Reuss Voigt Hill
#
# Bulk Modulus (GPa) = 50.09299 57.96725 54.03012
# Shear Modulus (GPa) = 20.14447 23.95928 22.05187
#
# Velocity S-wave (km/s) = 3.49130 3.80755 3.65285
# Velocity P-wave (km/s) = 6.82369 7.37598 7.10521
#
# Compressibility (1/GPa) = 0.01996287
#
# Stress axis : x y z
#
# Youngs Moduli (GPa) = 44.34725 34.04966 81.50211
#
# Poissons Ratio (x) = 0.49939 0.27966
# Poissons Ratio (y) = 0.65042 0.32720
# Poissons Ratio (z) = 0.15217 0.13670
#
# Static dielectric constant tensor:
#      x y z
#    x 2.766870 0.000000 0.266310 
#    y 0.000000 3.114810 0.000000 
#    z 0.266310 0.000000 3.803820 
# 
# 
# High freq. dielectric constant tensor:
#      x y z
#    x 1.602830 0.000000 0.018880 
#    y 0.000000 1.640870 0.000000 
#    z 0.018880 0.000000 1.652450 
# 
# From -- ./inp_files/249378.got.cif
#   From: 2010.06.25/outbox.cif.g09.slc.cpg/sg12_125_cif.got.tgz:249378.got - 2010.06.28 00:19:55.
