data_PCOD8095678
_publ_section_title
;
Structure prediction by ZEFSAII (Michael W. Deem and Ramdas Pophale) SiO2 
 PCOD8095678
Probable space group: C 2/M
;
_chemical_formula_sum "Si O2"
_cell_formula_units_Z 64
_cell_length_a 18.733693
_cell_length_b 9.464788
_cell_length_c 22.210781
_cell_angle_alpha 90.000000
_cell_angle_beta 65.440497
_cell_angle_gamma 90.000000
_cell_volume 3581.914387
_symmetry_space_group_name_H-M "C 2/M"
_symmetry_group_IT_number 12
_symmetry_cell_setting 'monoclinic'
loop_
_space_group_symop_operation_xyz
x,y,z
-x,y,-z
-x,-y,-z
x,-y,z
1/2+x,1/2+y,z
1/2-x,1/2+y,-z
1/2-x,1/2-y,-z
1/2+x,1/2-y,z
loop_
_atom_site_type_symbol
_atom_site_label
_atom_site_fract_x
_atom_site_fract_y
_atom_site_fract_z
Si Si1 0.016227 0.832455 0.060929
Si Si2 0.141633 0.835066 0.824525
Si Si3 0.720930 0.337803 0.174428
Si Si4 0.680182 0.665087 0.554511
Si Si5 0.141633 0.164934 0.324525
Si Si6 0.983773 0.167545 0.439071
Si Si7 0.779070 0.162197 0.325572
Si Si8 0.680182 0.334913 0.054511
O O1 0.946327 0.783503 0.129805
O O2 0.098588 0.773927 0.057017
O O3 0.020866 0.000000 0.057277
O O4 0.000000 0.771230 0.000000
O O5 0.201329 0.756091 0.848006
O O6 0.159513 0.798225 0.748771
O O7 0.151306 0.000000 0.835054
O O8 0.747313 0.500000 0.170929
O O9 0.659513 0.298225 0.248771
O O10 0.678338 0.307580 0.126552
O O11 0.691293 0.500000 0.535854
O O12 0.750000 0.750000 0.500000
O O13 0.598588 0.726073 0.557017
O O14 0.678338 0.692420 0.626552
O O15 0.201329 0.243909 0.348006
O O16 0.053673 0.216497 0.370195
O O17 0.151306 0.000000 0.335054
O O18 0.000000 0.228770 0.500000
O O19 0.979134 0.000000 0.442723
O O20 0.752687 0.000000 0.329071
O O21 0.691293 0.500000 0.035854
O O22 0.750000 0.250000 0.000000
#
# Coordination Sequence:
#
# PCOD8095678 Si02
#       8
#     8   8   8   8   8   8   8   8
#     4   9  17  29  47  70  93 121 159 196 228 271
#     4   9  17  31  51  71  94 126 158 189 230 278
#     4   9  18  31  48  72  98 123 154 193 234 276
#     4  10  20  33  49  70  96 124 157 196 235 277
#     4   9  17  31  51  71  94 126 158 189 230 278
#     4   9  17  29  47  70  93 121 159 196 228 271
#     4   9  18  31  48  72  98 123 154 193 234 276
#     4  10  20  33  49  70  96 124 157 196 235 277
#
# _framework density 17.867540999999999
#
# number of rings (size 3 to 8) (size 9 to 14) (size 15 to 20)
#    0.000    2.750    0.000    1.500    0.000    4.000 
#    0.000    6.250    0.000    4.500    0.000    8.750 
#    0.000    0.000    0.000    0.000    0.000    0.000 
#
# Total GULP energy -396799.712845 kJ/mol
# GULP energy per Si atom -12399.991026 kJ/mol
# Density = 1.782687 g / cm^3
# Si number density = 17.867541 Si / 1000 Ang^3
#
#
#
# Elastic Constant Matrix: (Units=GPa)
#
#
# Indices 1 2 3 4 5 6 
#
# 1 178.2088 42.7796 93.0955 0.0000 -9.0458 -0.0001
# 2 42.7796 33.7147 35.0830 -0.0001 -3.1611 -0.0005
# 3 93.0955 35.0830 119.9565 0.0000 -10.1481 -0.0001
# 4 0.0000 -0.0001 0.0000 22.7481 0.0000 -1.7849
# 5 -9.0458 -3.1611 -10.1481 0.0000 37.7251 0.0000
# 6 -0.0001 -0.0005 -0.0001 -1.7849 0.0000 25.0485
#
#
#
# Elastic Compliance Matrix: (Units=1/GPa)
#
#
# Indices 1 2 3 4 5 6 
#
# 1 0.010458 -0.006933 -0.006064 0.000000 0.000296 0.000000
# 2 -0.006933 0.047233 -0.008432 0.000000 0.000027 0.000001
# 3 -0.006064 -0.008432 0.015683 0.000000 0.002058 0.000000
# 4 0.000000 0.000000 0.000000 0.044207 0.000000 0.003150
# 5 0.000296 0.000027 0.002058 0.000000 0.027134 0.000000
# 6 0.000000 0.000001 0.000000 0.003150 0.000000 0.040147
#
#
# Mechanical properties :
#
#
# Convention : Reuss Voigt Hill
#
# Bulk Modulus (GPa) = 32.76742 74.86627 53.81684
# Shear Modulus (GPa) = 21.01797 27.83245 24.42521
#
# Velocity S-wave (km/s) = 3.43348 3.95107 3.70133
# Velocity P-wave (km/s) = 5.83928 7.92504 6.96073
#
# Compressibility (1/GPa) = 0.03051812
#
# Stress axis : x y z
#
# Youngs Moduli (GPa) = 95.61717 21.17143 63.76526
#
# Poissons Ratio (x) = 0.14677 0.38667
# Poissons Ratio (y) = 0.66287 0.53764
# Poissons Ratio (z) = 0.57982 0.17851
#
# Static dielectric constant tensor:
#      x y z
#    x 3.473730 0.000000 0.011370 
#    y 0.000000 3.071310 0.000000 
#    z 0.011370 0.000000 3.527380 
# 
# 
# High freq. dielectric constant tensor:
#      x y z
#    x 1.691870 0.000000 0.000940 
#    y 0.000000 1.658280 0.000000 
#    z 0.000940 0.000000 1.705890 
# 
# From -- ./inp_files/315344.got.cif
#   From: 2010.06.25/outbox.cif.g09.slc.cpg/sg12_158_cif.got.tgz:315344.got - 2010.06.28 00:19:55.
