data_PCOD8095273
_publ_section_title
;
Structure prediction by ZEFSAII (Michael W. Deem and Ramdas Pophale) SiO2 
 PCOD8095273
Probable space group: C 2/M
;
_chemical_formula_sum "Si O2"
_cell_formula_units_Z 56
_cell_length_a 27.355499
_cell_length_b 10.213850
_cell_length_c 13.285535
_cell_angle_alpha 90.000000
_cell_angle_beta 122.088506
_cell_angle_gamma 90.000000
_cell_volume 3144.949854
_symmetry_space_group_name_H-M "C 2/M"
_symmetry_group_IT_number 12
_symmetry_cell_setting 'monoclinic'
loop_
_space_group_symop_operation_xyz
x,y,z
-x,y,-z
-x,-y,-z
x,-y,z
1/2+x,1/2+y,z
1/2-x,1/2+y,-z
1/2-x,1/2-y,-z
1/2+x,1/2-y,z
loop_
_atom_site_type_symbol
_atom_site_label
_atom_site_fract_x
_atom_site_fract_y
_atom_site_fract_z
Si Si1 0.447167 0.151414 0.167095
Si Si2 0.132877 0.352413 0.098532
Si Si3 0.540772 0.272762 0.130389
Si Si4 0.717319 0.649410 0.280777
Si Si5 0.649957 0.847131 0.553599
Si Si6 0.637322 0.641808 0.370317
Si Si7 0.442536 0.154881 0.385602
O O1 0.502714 0.215528 0.177947
O O2 0.436671 0.212938 0.266436
O O3 0.462099 0.000000 0.192820
O O4 0.389539 0.174019 0.038956
O O5 0.156993 0.500000 0.136404
O O6 0.079006 0.338346 0.116397
O O7 0.183846 0.249124 0.171705
O O8 0.585319 0.371127 0.232112
O O9 0.500000 0.340793 0.000000
O O10 0.707015 0.500000 0.232559
O O11 0.784272 0.686252 0.349693
O O12 0.696119 0.667043 0.372463
O O13 0.627531 0.760095 0.436289
O O14 0.613317 0.805492 0.610867
O O15 0.641380 0.000000 0.515711
O O16 0.641115 0.500000 0.429592
O O17 0.500000 0.213685 0.500000
O O18 0.447444 0.000000 0.385229
#
# Coordination Sequence:
#
# PCOD8095273 Si02
#       7
#     8   8   8   8   8   8   8
#     4   9  16  28  47  73 101 125 158 202 239 275
#     4   9  17  29  49  76 100 124 156 197 241 280
#     4   9  17  29  47  72 101 129 156 190 236 287
#     4   9  19  34  49  69  98 128 157 192 238 291
#     4  10  20  34  52  71  93 126 164 198 235 281
#     4  10  20  32  48  72  99 126 157 196 241 284
#     4   9  17  29  48  72  95 122 158 199 238 276
#
# _framework density 17.806325000000001
#
# number of rings (size 3 to 8) (size 9 to 14) (size 15 to 20)
#    0.000    2.714    0.000    1.714    0.000    6.571 
#    0.000    2.857    0.000    4.714    0.000    0.000 
#    0.000    0.000    0.000    0.000    0.000    0.000 
#
# Total GULP energy -347044.573081 kJ/mol
# GULP energy per Si atom -12394.449039 kJ/mol
# Density = 1.776580 g / cm^3
# Si number density = 17.806325 Si / 1000 Ang^3
#
#
#
# Elastic Constant Matrix: (Units=GPa)
#
#
# Indices 1 2 3 4 5 6 
#
# 1 123.0684 33.9419 69.6678 0.0000 -4.3140 0.0000
# 2 33.9419 69.6572 48.2014 0.0000 -1.3145 0.0000
# 3 69.6678 48.2014 107.5764 0.0000 -10.3851 0.0000
# 4 0.0000 0.0000 0.0000 19.8318 0.0000 0.4970
# 5 -4.3140 -1.3145 -10.3851 0.0000 28.5876 0.0000
# 6 0.0000 0.0000 0.0000 0.4970 0.0000 14.3806
#
#
#
# Elastic Compliance Matrix: (Units=1/GPa)
#
#
# Indices 1 2 3 4 5 6 
#
# 1 0.012884 -0.000658 -0.008150 0.000000 -0.001047 0.000000
# 2 -0.000658 0.021017 -0.009231 0.000000 -0.002486 0.000000
# 3 -0.008150 -0.009231 0.019224 0.000000 0.005329 0.000000
# 4 0.000000 0.000000 0.000000 0.050468 0.000000 -0.001744
# 5 -0.001047 -0.002486 0.005329 0.000000 0.036644 0.000000
# 6 0.000000 0.000000 0.000000 -0.001744 0.000000 0.069599
#
#
# Mechanical properties :
#
#
# Convention : Reuss Voigt Hill
#
# Bulk Modulus (GPa) = 58.65956 67.10271 62.88114
# Shear Modulus (GPa) = 19.87304 22.45938 21.16621
#
# Velocity S-wave (km/s) = 3.34438 3.55535 3.45148
# Velocity P-wave (km/s) = 6.92299 7.39058 7.16060
#
# Compressibility (1/GPa) = 0.01704752
#
# Stress axis : x y z
#
# Youngs Moduli (GPa) = 77.61552 47.57945 52.01721
#
# Poissons Ratio (x) = 0.03131 0.42394
# Poissons Ratio (y) = 0.05108 0.48017
# Poissons Ratio (z) = 0.63257 0.43921
#
# Static dielectric constant tensor:
#      x y z
#    x 3.343180 0.000000 -0.048740 
#    y 0.000000 3.023570 0.000000 
#    z -0.048740 0.000000 3.392930 
# 
# 
# High freq. dielectric constant tensor:
#      x y z
#    x 1.683090 0.000000 0.007070 
#    y 0.000000 1.661700 0.000000 
#    z 0.007070 0.000000 1.688420 
# 
# From -- ./inp_files/174805.got.cif
#   From: 2010.06.25/outbox.cif.g09.slc.cpg/sg12_88_cif.got.tgz:174805.got - 2010.06.28 00:19:55.
