data_PCOD8095777
_publ_section_title
;
Structure prediction by ZEFSAII (Michael W. Deem and Ramdas Pophale) SiO2 
 PCOD8095777
Probable space group: C 2/M
;
_chemical_formula_sum "Si O2"
_cell_formula_units_Z 64
_cell_length_a 30.278729
_cell_length_b 8.709141
_cell_length_c 14.868551
_cell_angle_alpha 90.000000
_cell_angle_beta 79.137837
_cell_angle_gamma 90.000000
_cell_volume 3850.613846
_symmetry_space_group_name_H-M "C 2/M"
_symmetry_group_IT_number 12
_symmetry_cell_setting 'monoclinic'
loop_
_space_group_symop_operation_xyz
x,y,z
-x,y,-z
-x,-y,-z
x,-y,z
1/2+x,1/2+y,z
1/2-x,1/2+y,-z
1/2-x,1/2-y,-z
1/2+x,1/2-y,z
loop_
_atom_site_type_symbol
_atom_site_label
_atom_site_fract_x
_atom_site_fract_y
_atom_site_fract_z
Si Si1 0.718107 0.680364 0.195322
Si Si2 0.781378 0.677985 0.616437
Si Si3 0.187687 0.181075 0.876213
Si Si4 0.055009 0.318491 0.070983
Si Si5 0.685265 0.678111 0.570361
Si Si6 0.129992 0.681218 0.741083
Si Si7 0.543674 0.818197 0.874605
Si Si8 0.854909 0.820154 0.920128
O O1 0.728446 0.500000 0.181895
O O2 0.706004 0.721077 0.302297
O O3 0.759925 0.778432 0.143850
O O4 0.675934 0.731391 0.150956
O O5 0.789003 0.500000 0.635246
O O6 0.729776 0.712386 0.611194
O O7 0.813707 0.727686 0.522640
O O8 0.164231 0.274727 0.806261
O O9 0.181546 0.000000 0.861847
O O10 0.167089 0.237252 0.978376
O O11 0.058933 0.500000 0.071334
O O12 0.095717 0.250601 0.113214
O O13 0.006944 0.264893 0.131696
O O14 0.057555 0.254609 0.967664
O O15 0.680804 0.500000 0.548573
O O16 0.642542 0.734028 0.643882
O O17 0.132367 0.500000 0.724616
O O18 0.079775 0.738234 0.787062
O O19 0.544836 0.000000 0.881131
O O20 0.860488 0.000000 0.920528
#
# Coordination Sequence:
#
# PCOD8095777 Si02
#       8
#     8   8   8   8   8   8   8   8
#     4  11  22  35  50  68  96 134 170 205 244 287
#     4  10  20  34  51  72  97 126 162 204 243 289
#     4  11  21  33  46  67 100 133 170 208 236 280
#     4   9  16  31  51  70  94 128 167 205 242 286
#     4  10  20  33  50  72 100 128 159 201 244 292
#     4  11  19  30  50  74 100 132 164 198 244 293
#     4   8  16  29  48  73  98 125 163 204 243 289
#     4  10  22  35  47  69 100 132 169 208 245 285
#
# _framework density 16.620726999999999
#
# number of rings (size 3 to 8) (size 9 to 14) (size 15 to 20)
#    0.000    2.000    2.500    3.000    0.000    2.500 
#    0.000    2.500    0.000    0.000    0.000    0.875 
#    0.000    7.000    0.000    0.000    0.000    0.000 
#
# Total GULP energy -396815.037327 kJ/mol
# GULP energy per Si atom -12400.469916 kJ/mol
# Density = 1.658290 g / cm^3
# Si number density = 16.620727 Si / 1000 Ang^3
#
#
#
# Elastic Constant Matrix: (Units=GPa)
#
#
# Indices 1 2 3 4 5 6 
#
# 1 111.1032 16.3694 46.5131 0.0000 -14.0057 0.0000
# 2 16.3694 28.1487 15.3530 0.0000 -3.0908 0.0000
# 3 46.5131 15.3530 81.6490 0.0000 -15.3504 0.0000
# 4 0.0000 0.0000 0.0000 25.6624 0.0000 -0.6150
# 5 -14.0057 -3.0908 -15.3504 0.0000 24.9673 0.0000
# 6 0.0000 0.0000 0.0000 -0.6150 0.0000 23.2939
#
#
#
# Elastic Compliance Matrix: (Units=1/GPa)
#
#
# Indices 1 2 3 4 5 6 
#
# 1 0.012333 -0.003698 -0.005784 0.000000 0.002904 0.000000
# 2 -0.003698 0.040697 -0.005641 0.000000 -0.000504 0.000000
# 3 -0.005784 -0.005641 0.017935 0.000000 0.007084 0.000000
# 4 0.000000 0.000000 0.000000 0.038992 0.000000 0.001029
# 5 0.002904 -0.000504 0.007084 0.000000 0.045974 0.000000
# 6 0.000000 0.000000 0.000000 0.001029 0.000000 0.042957
#
#
# Mechanical properties :
#
#
# Convention : Reuss Voigt Hill
#
# Bulk Modulus (GPa) = 24.55851 41.93020 33.24436
# Shear Modulus (GPa) = 20.60077 24.29575 22.44826
#
# Velocity S-wave (km/s) = 3.52442 3.82746 3.67906
# Velocity P-wave (km/s) = 5.60089 6.69441 6.17191
#
# Compressibility (1/GPa) = 0.04071908
#
# Stress axis : x y z
#
# Youngs Moduli (GPa) = 81.08119 24.57157 55.75615
#
# Poissons Ratio (x) = 0.09087 0.32252
# Poissons Ratio (y) = 0.29987 0.31450
# Poissons Ratio (z) = 0.46901 0.13860
#
# Static dielectric constant tensor:
#      x y z
#    x 3.259320 0.000000 -0.216820 
#    y 0.000000 3.024890 0.000000 
#    z -0.216820 0.000000 3.155350 
# 
# 
# High freq. dielectric constant tensor:
#      x y z
#    x 1.623290 0.000000 -0.015240 
#    y 0.000000 1.639550 0.000000 
#    z -0.015240 0.000000 1.627340 
# 
# From -- ./inp_files/243957.got.cif
#   From: 2010.06.25/outbox.cif.g09.slc.cpg/sg12_122_cif.got.tgz:243957.got - 2010.06.28 00:19:55.
