data_PCOD8095519
_publ_section_title
;
Structure prediction by ZEFSAII (Michael W. Deem and Ramdas Pophale) SiO2 
 PCOD8095519
Probable space group: C 2/M
;
_chemical_formula_sum "Si O2"
_cell_formula_units_Z 56
_cell_length_a 29.982591
_cell_length_b 9.431844
_cell_length_c 11.628220
_cell_angle_alpha 90.000000
_cell_angle_beta 122.270273
_cell_angle_gamma 90.000000
_cell_volume 2780.434269
_symmetry_space_group_name_H-M "C 2/M"
_symmetry_group_IT_number 12
_symmetry_cell_setting 'monoclinic'
loop_
_space_group_symop_operation_xyz
x,y,z
-x,y,-z
-x,-y,-z
x,-y,z
1/2+x,1/2+y,z
1/2-x,1/2+y,-z
1/2-x,1/2-y,-z
1/2+x,1/2-y,z
loop_
_atom_site_type_symbol
_atom_site_label
_atom_site_fract_x
_atom_site_fract_y
_atom_site_fract_z
Si Si1 0.196296 0.168506 0.954972
Si Si2 0.419869 0.339875 0.632533
Si Si3 0.333583 0.243251 0.679857
Si Si4 0.657249 0.663663 0.657846
Si Si5 0.228266 0.649643 0.616905
Si Si6 0.125898 0.661283 0.029982
Si Si7 0.980058 0.832161 0.100668
O O1 0.155442 0.187450 0.791731
O O2 0.206263 0.000000 0.991501
O O3 0.250000 0.250000 0.000000
O O4 0.170327 0.245879 0.027249
O O5 0.433691 0.500000 0.622529
O O6 0.378757 0.335600 0.681324
O O7 0.393859 0.270311 0.480462
O O8 0.475237 0.272513 0.749213
O O9 0.290137 0.345395 0.675796
O O10 0.304683 0.145701 0.546800
O O11 0.359689 0.149684 0.815818
O O12 0.660837 0.500000 0.629728
O O13 0.711108 0.728408 0.680955
O O14 0.217535 0.500000 0.664648
O O15 0.122715 0.500000 0.977099
O O16 0.070929 0.741794 0.938156
O O17 0.968300 0.000000 0.099405
O O18 0.000000 0.800640 0.000000
#
# Coordination Sequence:
#
# PCOD8095519 Si02
#       7
#     8   8   8   8   8   8   8
#     4  11  24  42  63  87 117 154 198 243 289 341
#     4   9  17  34  59  83 111 148 189 236 290 348
#     4  10  20  33  50  80 117 151 187 230 286 345
#     4   9  20  38  58  80 110 149 191 236 288 343
#     4  10  20  32  53  82 113 147 187 233 284 342
#     4  12  25  39  58  85 120 157 195 237 289 347
#     4  10  20  37  61  89 118 150 193 241 292 347
#
# _framework density 20.140737999999999
#
# number of rings (size 3 to 8) (size 9 to 14) (size 15 to 20)
#    0.000    1.857    1.429    2.571    0.000    9.429 
#    0.000    1.429    0.000    4.286    0.000    0.000 
#    0.000    0.000    0.000    0.000    0.000    0.000 
#
# Total GULP energy -346963.280921 kJ/mol
# GULP energy per Si atom -12391.545747 kJ/mol
# Density = 2.009490 g / cm^3
# Si number density = 20.140738 Si / 1000 Ang^3
#
#
#
# Elastic Constant Matrix: (Units=GPa)
#
#
# Indices 1 2 3 4 5 6 
#
# 1 72.1536 24.4654 26.1018 0.0000 16.1150 0.0000
# 2 24.4654 89.3191 23.4007 0.0000 4.8120 0.0000
# 3 26.1018 23.4007 104.7923 0.0000 6.5617 0.0000
# 4 0.0000 0.0000 0.0000 9.3447 0.0000 -1.2169
# 5 16.1150 4.8120 6.5617 0.0000 33.8117 0.0000
# 6 0.0000 0.0000 0.0000 -1.2169 0.0000 28.3799
#
#
#
# Elastic Compliance Matrix: (Units=1/GPa)
#
#
# Indices 1 2 3 4 5 6 
#
# 1 0.017906 -0.003674 -0.003177 0.000000 -0.007395 0.000000
# 2 -0.003674 0.012693 -0.001939 0.000000 0.000321 0.000000
# 3 -0.003177 -0.001939 0.010786 0.000000 -0.000303 0.000000
# 4 0.000000 0.000000 0.000000 0.107613 0.000000 0.004614
# 5 -0.007395 0.000321 -0.000303 0.000000 0.033113 0.000000
# 6 0.000000 0.000000 0.000000 0.004614 0.000000 0.035434
#
#
# Mechanical properties :
#
#
# Convention : Reuss Voigt Hill
#
# Bulk Modulus (GPa) = 42.00817 46.02231 44.01524
# Shear Modulus (GPa) = 20.57108 27.12707 23.84908
#
# Velocity S-wave (km/s) = 3.19935 3.67396 3.44484
# Velocity P-wave (km/s) = 5.87796 6.39510 6.14197
#
# Compressibility (1/GPa) = 0.02380489
#
# Stress axis : x y z
#
# Youngs Moduli (GPa) = 55.84796 78.78382 92.71306
#
# Poissons Ratio (x) = 0.28945 0.29451
# Poissons Ratio (y) = 0.20518 0.17981
# Poissons Ratio (z) = 0.17740 0.15279
#
# Static dielectric constant tensor:
#      x y z
#    x 3.469530 0.000000 0.155460 
#    y 0.000000 3.451620 0.000000 
#    z 0.155460 0.000000 4.141150 
# 
# 
# High freq. dielectric constant tensor:
#      x y z
#    x 1.762040 0.000000 0.010910 
#    y 0.000000 1.768870 0.000000 
#    z 0.010910 0.000000 1.804880 
# 
# From -- ./inp_files/187690.got.cif
#   From: 2010.06.25/outbox.cif.g09.slc.cpg/sg12_94_cif.got.tgz:187690.got - 2010.06.28 00:19:55.
