data_PCOD8095202
_publ_section_title
;
Structure prediction by ZEFSAII (Michael W. Deem and Ramdas Pophale) SiO2 
 PCOD8095202
Probable space group: C 2/M
;
_chemical_formula_sum "Si O2"
_cell_formula_units_Z 40
_cell_length_a 14.308009
_cell_length_b 26.622800
_cell_length_c 15.201050
_cell_angle_alpha 90.000000
_cell_angle_beta 160.894636
_cell_angle_gamma 90.000000
_cell_volume 1895.225845
_symmetry_space_group_name_H-M "C 2/M"
_symmetry_group_IT_number 12
_symmetry_cell_setting 'monoclinic'
loop_
_space_group_symop_operation_xyz
x,y,z
-x,y,-z
-x,-y,-z
x,-y,z
1/2+x,1/2+y,z
1/2-x,1/2+y,-z
1/2-x,1/2-y,-z
1/2+x,1/2-y,z
loop_
_atom_site_type_symbol
_atom_site_label
_atom_site_fract_x
_atom_site_fract_y
_atom_site_fract_z
Si Si1 0.433404 0.655806 0.166936
Si Si2 0.819582 0.443548 0.035698
Si Si3 0.074166 0.943627 0.474126
Si Si4 0.535384 0.786981 0.358142
Si Si5 0.678120 0.304941 0.740688
O O1 0.756699 0.668383 0.421800
O O2 0.405525 0.661159 0.248712
O O3 0.366812 0.598329 0.077857
O O4 0.207843 0.693645 0.923407
O O5 0.790820 0.500000 0.052094
O O6 0.143745 0.421670 0.323683
O O7 0.704318 0.444075 0.833754
O O8 0.000000 0.915494 0.500000
O O9 0.176226 0.000000 0.588436
O O10 0.750000 0.750000 0.500000
O O11 0.384268 0.754572 0.299809
O O12 0.500000 0.324976 0.500000
O O13 0.000000 0.312808 0.000000
#
# Coordination Sequence:
#
# PCOD8095202 Si02
#       5
#     8   8   8   8   8
#     4  11  21  35  53  74 105 143 170 202 259 308
#     4  10  20  32  47  69  97 131 174 212 234 280
#     4   9  17  29  42  58  87 128 167 206 248 275
#     4  10  20  37  54  72 102 137 168 206 265 314
#     4  11  21  34  53  78 103 129 170 216 251 300
#
# _framework density 21.105664999999998
#
# number of rings (size 3 to 8) (size 9 to 14) (size 15 to 20)
#    0.000    1.800    0.000    7.800    0.000    4.800 
#    0.000    0.000    0.000    0.000    0.000    0.000 
#    0.000   16.000    0.000    0.000    0.000    0.000 
#
# Total GULP energy -247833.245003 kJ/mol
# GULP energy per Si atom -12391.662250 kJ/mol
# Density = 2.105763 g / cm^3
# Si number density = 21.105665 Si / 1000 Ang^3
#
#
#
# Elastic Constant Matrix: (Units=GPa)
#
#
# Indices 1 2 3 4 5 6 
#
# 1 17.3846 16.0129 15.0517 -0.0007 2.8341 0.0051
# 2 16.0129 101.7326 4.8395 -0.0150 6.6470 0.0167
# 3 15.0517 4.8395 115.6216 -0.0225 2.5185 0.0343
# 4 -0.0007 -0.0150 -0.0225 24.6622 -0.0132 12.5614
# 5 2.8341 6.6470 2.5185 -0.0132 24.5677 0.0110
# 6 0.0051 0.0167 0.0343 12.5614 0.0110 16.6590
#
#
#
# Elastic Compliance Matrix: (Units=1/GPa)
#
#
# Indices 1 2 3 4 5 6 
#
# 1 0.076928 -0.011344 -0.009434 -0.000034 -0.004838 0.000036
# 2 -0.011344 0.011694 0.001030 0.000018 -0.001961 -0.000023
# 3 -0.009434 0.001030 0.009838 0.000030 -0.000199 -0.000041
# 4 -0.000034 0.000018 0.000030 0.065831 0.000054 -0.049638
# 5 -0.004838 -0.001961 -0.000199 0.000054 0.041813 -0.000064
# 6 0.000036 -0.000023 -0.000041 -0.049638 -0.000064 0.097457
#
#
# Mechanical properties :
#
#
# Convention : Reuss Voigt Hill
#
# Bulk Modulus (GPa) = 16.95940 34.06076 25.51008
# Shear Modulus (GPa) = 13.78507 26.43342 20.10925
#
# Velocity S-wave (km/s) = 2.55844 3.54281 3.09008
# Velocity P-wave (km/s) = 4.09639 5.73660 4.98443
#
# Compressibility (1/GPa) = 0.05896434
#
# Stress axis : x y z
#
# Youngs Moduli (GPa) = 12.99923 85.51148 101.64354
#
# Poissons Ratio (x) = 0.97001 0.95894
# Poissons Ratio (y) = 0.14746 -0.10469
# Poissons Ratio (z) = 0.12264 -0.08807
#
# Static dielectric constant tensor:
#      x y z
#    x 3.378500 -0.000040 0.339370 
#    y -0.000040 4.484550 -0.000170 
#    z 0.339370 -0.000170 4.142810 
# 
# 
# High freq. dielectric constant tensor:
#      x y z
#    x 1.742720 0.000000 0.013850 
#    y 0.000000 1.840630 0.000000 
#    z 0.013850 0.000000 1.855350 
# 
# From -- ./inp_files/17255.got.cif
#   From: 2010.06.25/outbox.cif.g09.slc.cpg/sg12_9_cif.got.tgz:17255.got - 2010.06.28 00:19:55.
