data_PCOD8095427
_publ_section_title
;
Structure prediction by ZEFSAII (Michael W. Deem and Ramdas Pophale) SiO2 
 PCOD8095427
Probable space group: C 2/M
;
_chemical_formula_sum "Si O2"
_cell_formula_units_Z 56
_cell_length_a 27.868322
_cell_length_b 9.180166
_cell_length_c 10.475899
_cell_angle_alpha 90.000000
_cell_angle_beta 106.168109
_cell_angle_gamma 90.000000
_cell_volume 2574.108722
_symmetry_space_group_name_H-M "C 2/M"
_symmetry_group_IT_number 12
_symmetry_cell_setting 'monoclinic'
loop_
_space_group_symop_operation_xyz
x,y,z
-x,y,-z
-x,-y,-z
x,-y,z
1/2+x,1/2+y,z
1/2-x,1/2+y,-z
1/2-x,1/2-y,-z
1/2+x,1/2-y,z
loop_
_atom_site_type_symbol
_atom_site_label
_atom_site_fract_x
_atom_site_fract_y
_atom_site_fract_z
Si Si1 0.864412 0.670813 0.746235
Si Si2 0.920686 0.339091 0.535280
Si Si3 0.103925 0.336883 0.763338
Si Si4 0.547333 0.662093 0.105088
Si Si5 0.506498 0.659597 0.674931
Si Si6 0.763726 0.172500 0.643524
Si Si7 0.214601 0.671288 0.872186
O O1 0.854332 0.500000 0.761549
O O2 0.882691 0.708502 0.617323
O O3 0.905766 0.729471 0.877690
O O4 0.815613 0.764940 0.733768
O O5 0.941089 0.500000 0.584181
O O6 0.888588 0.336792 0.383518
O O7 0.970784 0.242859 0.546080
O O8 0.092534 0.500000 0.804097
O O9 0.056567 0.237384 0.763885
O O10 0.156981 0.281104 0.858576
O O11 0.559483 0.500000 0.058261
O O12 0.533156 0.648281 0.241359
O O13 0.500000 0.733127 0.000000
O O14 0.521364 0.500000 0.634366
O O15 0.750000 0.250000 0.500000
O O16 0.726227 0.209313 0.732408
O O17 0.766875 0.000000 0.620117
O O18 0.221261 0.500000 0.898778
O O19 0.250000 0.750000 0.000000
#
# Coordination Sequence:
#
# PCOD8095427 Si02
#       7
#     8   8   8   8   8   8   8
#     4  10  20  35  57  85 114 145 188 241 294 348
#     4   9  18  34  55  79 111 148 182 221 276 342
#     4  10  20  36  56  76 105 147 187 224 276 341
#     4   9  19  36  54  74 107 148 186 227 280 343
#     4  10  20  32  50  80 111 138 177 227 277 333
#     4  11  23  41  65  92 121 155 200 252 305 360
#     4  10  24  44  63  86 119 158 202 251 300 355
#
# _framework density 21.755102000000001
#
# number of rings (size 3 to 8) (size 9 to 14) (size 15 to 20)
#    0.000    2.143    0.000    2.571    0.000    8.857 
#    0.000    5.714    0.000    0.000    0.000    0.000 
#    0.000    0.000    0.000    0.000    0.000    0.000 
#
# Total GULP energy -347007.307246 kJ/mol
# GULP energy per Si atom -12393.118116 kJ/mol
# Density = 2.170559 g / cm^3
# Si number density = 21.755102 Si / 1000 Ang^3
#
#
#
# Elastic Constant Matrix: (Units=GPa)
#
#
# Indices 1 2 3 4 5 6 
#
# 1 99.0336 59.5434 16.9998 0.0000 29.7839 0.0000
# 2 59.5434 106.9184 23.7560 0.0000 17.6104 0.0000
# 3 16.9998 23.7560 69.1993 0.0000 28.2839 0.0000
# 4 0.0000 0.0000 0.0000 33.4494 0.0000 7.3343
# 5 29.7839 17.6104 28.2839 0.0000 40.9805 0.0000
# 6 0.0000 0.0000 0.0000 7.3343 0.0000 34.9713
#
#
#
# Elastic Compliance Matrix: (Units=1/GPa)
#
#
# Indices 1 2 3 4 5 6 
#
# 1 0.018618 -0.009165 0.003473 0.000000 -0.011990 0.000000
# 2 -0.009165 0.014859 -0.004126 0.000000 0.003124 0.000000
# 3 0.003473 -0.004126 0.021342 0.000000 -0.015481 0.000000
# 4 0.000000 0.000000 0.000000 0.031337 0.000000 -0.006572
# 5 -0.011990 0.003124 -0.015481 0.000000 0.042458 0.000000
# 6 0.000000 0.000000 0.000000 -0.006572 0.000000 0.029973
#
#
# Mechanical properties :
#
#
# Convention : Reuss Voigt Hill
#
# Bulk Modulus (GPa) = 28.42333 52.86109 40.64221
# Shear Modulus (GPa) = 26.32253 33.53703 29.92978
#
# Velocity S-wave (km/s) = 3.48220 3.93054 3.71315
# Velocity P-wave (km/s) = 5.40936 6.70447 6.09143
#
# Compressibility (1/GPa) = 0.03518237
#
# Stress axis : x y z
#
# Youngs Moduli (GPa) = 53.71217 67.29732 46.85639
#
# Poissons Ratio (x) = 0.61680 -0.16274
# Poissons Ratio (y) = 0.49228 0.19335
# Poissons Ratio (z) = -0.18656 0.27769
#
# Static dielectric constant tensor:
#      x y z
#    x 3.938190 0.000000 0.071750 
#    y 0.000000 4.194750 0.000000 
#    z 0.071750 0.000000 3.869480 
# 
# 
# High freq. dielectric constant tensor:
#      x y z
#    x 1.858190 0.000000 0.005720 
#    y 0.000000 1.848440 0.000000 
#    z 0.005720 0.000000 1.854390 
# 
# From -- ./inp_files/181082.got.cif
#   From: 2010.06.25/outbox.cif.g09.slc.cpg/sg12_91_cif.got.tgz:181082.got - 2010.06.28 00:19:55.
