data_PCOD8095061
_publ_section_title
;
Structure prediction by ZEFSAII (Michael W. Deem and Ramdas Pophale) SiO2 
 PCOD8095061
Probable space group: C 2/M
;
_chemical_formula_sum "Si O2"
_cell_formula_units_Z 44
_cell_length_a 20.963311
_cell_length_b 21.183175
_cell_length_c 17.061795
_cell_angle_alpha 90.000000
_cell_angle_beta 160.779595
_cell_angle_gamma 90.000000
_cell_volume 2494.246493
_symmetry_space_group_name_H-M "C 2/M"
_symmetry_group_IT_number 12
_symmetry_cell_setting 'monoclinic'
loop_
_space_group_symop_operation_xyz
x,y,z
-x,y,-z
-x,-y,-z
x,-y,z
1/2+x,1/2+y,z
1/2-x,1/2+y,-z
1/2-x,1/2-y,-z
1/2+x,1/2-y,z
loop_
_atom_site_type_symbol
_atom_site_label
_atom_site_fract_x
_atom_site_fract_y
_atom_site_fract_z
Si Si1 0.482586 0.869032 0.330379
Si Si2 0.068134 0.000000 0.964873
Si Si3 0.500000 0.216465 0.500000
Si Si4 0.834038 0.500000 0.412013
Si Si5 0.443349 0.630792 0.133303
Si Si6 0.675442 0.818943 0.397721
Si Si7 0.918394 0.248418 0.991651
O O1 0.542518 0.826413 0.473507
O O2 0.537798 0.940329 0.415310
O O3 0.590812 0.848889 0.377925
O O4 0.253925 0.859431 0.046906
O O5 0.064328 0.060993 0.907440
O O6 0.875136 0.000000 0.791365
O O7 0.274000 0.000000 0.250562
O O8 0.687665 0.260835 0.726773
O O9 0.636955 0.639489 0.411629
O O10 0.461030 0.681742 0.083621
O O11 0.750000 0.750000 0.500000
O O12 0.514379 0.810634 0.143202
O O13 0.000000 0.241393 0.000000
#
# Coordination Sequence:
#
# PCOD8095061 Si02
#       7
#     8   4   4   4   8   8   8
#     4  11  21  35  51  77 108 142 172 209 247 304
#     4  11  21  31  53  78 107 145 169 203 247 303
#     4  10  20  31  52  76 104 137 176 206 254 304
#     4  11  21  31  53  76 111 140 172 204 245 305
#     4  10  21  34  52  76 107 140 173 203 253 307
#     4  10  21  35  50  72 103 139 177 215 254 299
#     4  10  21  34  53  73 103 134 176 219 257 299
#
# _framework density 17.640598000000001
#
# number of rings (size 3 to 8) (size 9 to 14) (size 15 to 20)
#    0.000    1.636    1.818    4.909    2.545    9.091 
#    0.000    0.000    0.000    0.000    0.000    2.545 
#    0.000    5.818    0.000    0.000    0.000    0.000 
#
# Total GULP energy -272652.392411 kJ/mol
# GULP energy per Si atom -12393.290564 kJ/mol
# Density = 1.760045 g / cm^3
# Si number density = 17.640598 Si / 1000 Ang^3
#
#
#
# Elastic Constant Matrix: (Units=GPa)
#
#
# Indices 1 2 3 4 5 6 
#
# 1 31.9791 22.2299 38.2634 0.0002 3.9615 -0.0001
# 2 22.2299 77.4134 56.7054 0.0001 -3.7907 -0.0001
# 3 38.2634 56.7054 161.3890 0.0005 10.5373 -0.0002
# 4 0.0002 0.0001 0.0005 27.9756 0.0001 0.6369
# 5 3.9615 -3.7907 10.5373 0.0001 18.9988 0.0000
# 6 -0.0001 -0.0001 -0.0002 0.6369 0.0000 14.3894
#
#
#
# Elastic Compliance Matrix: (Units=1/GPa)
#
#
# Indices 1 2 3 4 5 6 
#
# 1 0.047232 -0.008144 -0.007872 0.000000 -0.007107 0.000000
# 2 -0.008144 0.019779 -0.005590 0.000000 0.008745 0.000000
# 3 -0.007872 -0.005590 0.010368 0.000000 -0.005224 0.000000
# 4 0.000000 0.000000 0.000000 0.035782 0.000000 -0.001584
# 5 -0.007107 0.008745 -0.005224 0.000000 0.058759 0.000000
# 6 0.000000 0.000000 0.000000 -0.001584 0.000000 0.069566
#
#
# Mechanical properties :
#
#
# Convention : Reuss Voigt Hill
#
# Bulk Modulus (GPa) = 29.26916 56.13099 42.70007
# Shear Modulus (GPa) = 16.88697 22.51160 19.69928
#
# Velocity S-wave (km/s) = 3.09735 3.57616 3.34533
# Velocity P-wave (km/s) = 5.42396 6.99573 6.25938
#
# Compressibility (1/GPa) = 0.03416566
#
# Stress axis : x y z
#
# Youngs Moduli (GPa) = 21.17215 50.55884 96.45374
#
# Poissons Ratio (x) = 0.41178 0.75932
# Poissons Ratio (y) = 0.17244 0.53913
# Poissons Ratio (z) = 0.16668 0.28260
#
# Static dielectric constant tensor:
#      x y z
#    x 3.104470 0.000000 -0.016350 
#    y 0.000000 3.174580 0.000000 
#    z -0.016350 0.000000 4.293790 
# 
# 
# High freq. dielectric constant tensor:
#      x y z
#    x 1.658430 0.000000 0.026900 
#    y 0.000000 1.657240 0.000000 
#    z 0.026900 0.000000 1.708070 
# 
# From -- ./inp_files/285747.got.cif
#   From: 2010.06.25/outbox.cif.g09.slc.cpg/sg12_143_cif.got.tgz:285747.got - 2010.06.28 00:19:55.
