data_PCOD8095985
_publ_section_title
;
Structure prediction by ZEFSAII (Michael W. Deem and Ramdas Pophale) SiO2 
 PCOD8095985
Probable space group: C 2/M
;
_chemical_formula_sum "Si O2"
_cell_formula_units_Z 40
_cell_length_a 14.285500
_cell_length_b 9.376133
_cell_length_c 26.936140
_cell_angle_alpha 90.000000
_cell_angle_beta 37.852161
_cell_angle_gamma 90.000000
_cell_volume 2213.902132
_symmetry_space_group_name_H-M "C 2/M"
_symmetry_group_IT_number 12
_symmetry_cell_setting 'monoclinic'
loop_
_space_group_symop_operation_xyz
x,y,z
-x,y,-z
-x,-y,-z
x,-y,z
1/2+x,1/2+y,z
1/2-x,1/2+y,-z
1/2-x,1/2-y,-z
1/2+x,1/2-y,z
loop_
_atom_site_type_symbol
_atom_site_label
_atom_site_fract_x
_atom_site_fract_y
_atom_site_fract_z
Si Si1 0.877372 0.166871 0.511161
Si Si2 0.778381 0.665671 0.912219
Si Si3 0.810771 0.835044 0.803406
Si Si4 0.464639 0.163080 0.932021
Si Si5 0.917414 0.165016 0.381557
O O1 0.939124 0.203866 0.430357
O O2 0.717933 0.246118 0.587143
O O3 0.000000 0.222001 0.500000
O O4 0.847031 0.000000 0.530861
O O5 0.748996 0.500000 0.914609
O O6 0.851588 0.738043 0.833350
O O7 0.898336 0.693397 0.905586
O O8 0.616793 0.738707 0.992900
O O9 0.641920 0.798501 0.855028
O O10 0.925178 0.795276 0.711226
O O11 0.826130 0.000000 0.812401
O O12 0.436590 0.000000 0.959987
O O13 0.875343 0.000000 0.392744
#
# Coordination Sequence:
#
# PCOD8095985 Si02
#       5
#     8   8   8   8   8
#     4   9  18  34  56  77  99 130 164 200 245 296
#     4  10  20  33  51  75 100 129 170 214 248 285
#     4  10  20  34  51  71 100 136 167 199 247 302
#     4   9  19  35  52  70  98 136 170 202 248 301
#     4   9  19  34  51  75 103 129 163 204 245 295
#
# _framework density 18.067644999999999
#
# number of rings (size 3 to 8) (size 9 to 14) (size 15 to 20)
#    0.000    2.600    0.000    1.200    0.000    6.800 
#    0.000    4.000    0.000    0.000    0.000    0.000 
#    0.000    0.000    0.000    0.000    0.000    0.000 
#
# Total GULP energy -248068.451728 kJ/mol
# GULP energy per Si atom -12403.422586 kJ/mol
# Density = 1.802652 g / cm^3
# Si number density = 18.067645 Si / 1000 Ang^3
#
#
#
# Elastic Constant Matrix: (Units=GPa)
#
#
# Indices 1 2 3 4 5 6 
#
# 1 100.2549 42.8892 52.2159 0.0000 -4.2535 0.0000
# 2 42.8892 65.6926 48.9328 0.0000 3.1506 0.0000
# 3 52.2159 48.9328 125.8787 0.0000 3.1524 0.0000
# 4 0.0000 0.0000 0.0000 30.1444 0.0000 1.2130
# 5 -4.2535 3.1506 3.1524 0.0000 21.6307 0.0000
# 6 0.0000 0.0000 0.0000 1.2130 0.0000 29.9620
#
#
#
# Elastic Compliance Matrix: (Units=1/GPa)
#
#
# Indices 1 2 3 4 5 6 
#
# 1 0.015222 -0.007558 -0.003491 0.000000 0.004603 0.000000
# 2 -0.007558 0.025259 -0.006578 0.000000 -0.004207 0.000000
# 3 -0.003491 -0.006578 0.011987 0.000000 -0.001475 0.000000
# 4 0.000000 0.000000 0.000000 0.033228 0.000000 -0.001345
# 5 0.004603 -0.004207 -0.001475 0.000000 0.047963 0.000000
# 6 0.000000 0.000000 0.000000 -0.001345 0.000000 0.033430
#
#
# Mechanical properties :
#
#
# Convention : Reuss Voigt Hill
#
# Bulk Modulus (GPa) = 58.10068 64.43356 61.26712
# Shear Modulus (GPa) = 24.02918 26.19998 25.11458
#
# Velocity S-wave (km/s) = 3.65081 3.81216 3.73236
# Velocity P-wave (km/s) = 7.07095 7.42405 7.24965
#
# Compressibility (1/GPa) = 0.01721150
#
# Stress axis : x y z
#
# Youngs Moduli (GPa) = 65.69624 39.59046 83.42690
#
# Poissons Ratio (x) = 0.29922 0.29127
# Poissons Ratio (y) = 0.49653 0.54881
# Poissons Ratio (z) = 0.22937 0.26044
#
# Static dielectric constant tensor:
#      x y z
#    x 3.399680 0.000000 0.026650 
#    y 0.000000 3.340960 0.000000 
#    z 0.026650 0.000000 3.335400 
# 
# 
# High freq. dielectric constant tensor:
#      x y z
#    x 1.703640 0.000000 0.001080 
#    y 0.000000 1.697720 0.000000 
#    z 0.001080 0.000000 1.695740 
# 
# From -- ./inp_files/211190.got.cif
#   From: 2010.06.25/outbox.cif.g09.slc.cpg/sg12_106_cif.got.tgz:211190.got - 2010.06.28 00:19:55.
