data_PCOD8095975
_publ_section_title
;
Structure prediction by ZEFSAII (Michael W. Deem and Ramdas Pophale) SiO2 
 PCOD8095975
Probable space group: C 2/M
;
_chemical_formula_sum "Si O2"
_cell_formula_units_Z 56
_cell_length_a 22.955008
_cell_length_b 8.842568
_cell_length_c 15.012414
_cell_angle_alpha 90.000000
_cell_angle_beta 90.005232
_cell_angle_gamma 90.000000
_cell_volume 3047.238084
_symmetry_space_group_name_H-M "C 2/M"
_symmetry_group_IT_number 12
_symmetry_cell_setting 'monoclinic'
loop_
_space_group_symop_operation_xyz
x,y,z
-x,y,-z
-x,-y,-z
x,-y,z
1/2+x,1/2+y,z
1/2-x,1/2+y,-z
1/2-x,1/2-y,-z
1/2+x,1/2-y,z
loop_
_atom_site_type_symbol
_atom_site_label
_atom_site_fract_x
_atom_site_fract_y
_atom_site_fract_z
Si Si1 0.953874 0.673691 0.680701
Si Si2 0.587706 0.174653 0.664610
Si Si3 0.718452 0.666691 0.367528
Si Si4 0.236890 0.179119 0.094372
Si Si5 0.612550 0.678522 0.478115
Si Si6 0.306589 0.676894 0.252860
Si Si7 0.369101 0.666659 0.796099
O O1 0.939871 0.500000 0.657796
O O2 0.932004 0.777631 0.600118
O O3 0.921572 0.719052 0.773145
O O4 0.021871 0.700831 0.695923
O O5 0.594932 0.228326 0.563867
O O6 0.627268 0.271643 0.731567
O O7 0.605674 0.000000 0.670730
O O8 0.745461 0.500000 0.384798
O O9 0.679776 0.720718 0.452196
O O10 0.770095 0.781907 0.342649
O O11 0.674000 0.656025 0.286593
O O12 0.282693 0.240497 0.165977
O O13 0.170331 0.224011 0.120963
O O14 0.243906 0.000000 0.090803
O O15 0.250000 0.250000 0.000000
O O16 0.606901 0.500000 0.495836
O O17 0.303458 0.500000 0.236552
O O18 0.395191 0.500000 0.816017
#
# Coordination Sequence:
#
# PCOD8095975 Si02
#       7
#     8   8   8   8   8   8   8
#     4  10  20  33  51  74 101 137 179 217 255 298
#     4  11  23  36  49  69 102 141 177 217 260 301
#     4   8  16  32  50  70 100 134 168 211 259 305
#     4  10  20  36  59  86 111 133 160 199 249 304
#     4  10  20  33  51  74  99 133 178 222 261 300
#     4  11  22  35  53  77 103 135 172 208 256 311
#     4   8  16  31  52  77 104 133 165 204 249 296
#
# _framework density 18.377298
#
# number of rings (size 3 to 8) (size 9 to 14) (size 15 to 20)
#    0.000    2.286    0.000    5.143    0.000   10.857 
#    0.000    0.000    0.000    0.857    0.000    6.000 
#    0.000    0.000    0.000    0.000    0.000    0.000 
#
# Total GULP energy -347133.845681 kJ/mol
# GULP energy per Si atom -12397.637346 kJ/mol
# Density = 1.833547 g / cm^3
# Si number density = 18.377298 Si / 1000 Ang^3
#
#
#
# Elastic Constant Matrix: (Units=GPa)
#
#
# Indices 1 2 3 4 5 6 
#
# 1 97.1002 42.7739 49.4196 0.0000 -11.9539 0.0000
# 2 42.7739 84.1004 37.5433 0.0000 -8.5316 0.0000
# 3 49.4196 37.5433 82.9880 0.0000 -24.2810 0.0000
# 4 0.0000 0.0000 0.0000 29.3617 0.0000 -2.6545
# 5 -11.9539 -8.5316 -24.2810 0.0000 23.0993 0.0000
# 6 0.0000 0.0000 0.0000 -2.6545 0.0000 30.4471
#
#
#
# Elastic Compliance Matrix: (Units=1/GPa)
#
#
# Indices 1 2 3 4 5 6 
#
# 1 0.016322 -0.004899 -0.008032 0.000000 -0.001805 0.000000
# 2 -0.004899 0.016454 -0.005040 0.000000 -0.001756 0.000000
# 3 -0.008032 -0.005040 0.025059 0.000000 0.020323 0.000000
# 4 0.000000 0.000000 0.000000 0.034329 0.000000 0.002993
# 5 -0.001805 -0.001756 0.020323 0.000000 0.063071 0.000000
# 6 0.000000 0.000000 0.000000 0.002993 0.000000 0.033105
#
#
# Mechanical properties :
#
#
# Convention : Reuss Voigt Hill
#
# Bulk Modulus (GPa) = 45.67559 58.18467 51.93013
# Shear Modulus (GPa) = 21.59075 25.54508 23.56792
#
# Velocity S-wave (km/s) = 3.43134 3.73236 3.58501
# Velocity P-wave (km/s) = 6.37237 7.09253 6.74207
#
# Compressibility (1/GPa) = 0.02189353
#
# Stress axis : x y z
#
# Youngs Moduli (GPa) = 61.26534 60.77503 39.90545
#
# Poissons Ratio (x) = 0.29776 0.32052
# Poissons Ratio (y) = 0.30016 0.20112
# Poissons Ratio (z) = 0.49208 0.30630
#
# Static dielectric constant tensor:
#      x y z
#    x 3.568970 0.000000 -0.402880 
#    y 0.000000 3.464640 0.000000 
#    z -0.402880 0.000000 3.339370 
# 
# 
# High freq. dielectric constant tensor:
#      x y z
#    x 1.709750 0.000000 -0.020020 
#    y 0.000000 1.722260 0.000000 
#    z -0.020020 0.000000 1.682710 
# 
# From -- ./inp_files/230906.got.cif
#   From: 2010.06.25/outbox.cif.g09.slc.cpg/sg12_116_cif.got.tgz:230906.got - 2010.06.28 00:19:55.
