data_PCOD8095563
_publ_section_title
;
Structure prediction by ZEFSAII (Michael W. Deem and Ramdas Pophale) SiO2 
 PCOD8095563
Probable space group: C 2/M
;
_chemical_formula_sum "Si O2"
_cell_formula_units_Z 48
_cell_length_a 13.211697
_cell_length_b 18.797692
_cell_length_c 10.610549
_cell_angle_alpha 90.000000
_cell_angle_beta 124.274315
_cell_angle_gamma 90.000000
_cell_volume 2177.536578
_symmetry_space_group_name_H-M "C 2/M"
_symmetry_group_IT_number 12
_symmetry_cell_setting 'monoclinic'
loop_
_space_group_symop_operation_xyz
x,y,z
-x,y,-z
-x,-y,-z
x,-y,z
1/2+x,1/2+y,z
1/2-x,1/2+y,-z
1/2-x,1/2-y,-z
1/2+x,1/2-y,z
loop_
_atom_site_type_symbol
_atom_site_label
_atom_site_fract_x
_atom_site_fract_y
_atom_site_fract_z
Si Si1 0.398487 0.152318 0.280325
Si Si2 0.627943 0.846297 0.277898
Si Si3 0.500000 0.747645 0.000000
Si Si4 0.367187 0.703098 0.365114
Si Si5 0.134114 0.500000 0.735945
Si Si6 0.335134 0.649920 0.061139
Si Si7 0.951667 0.500000 0.828112
Si Si8 0.390172 0.500000 0.017552
O O1 0.533341 0.172597 0.322664
O O2 0.364368 0.210624 0.360469
O O3 0.404736 0.075052 0.356178
O O4 0.301017 0.150892 0.096215
O O5 0.595767 0.799281 0.133974
O O6 0.769738 0.824192 0.402078
O O7 0.629461 0.930494 0.253025
O O8 0.426908 0.699049 0.046970
O O9 0.500000 0.674486 0.500000
O O10 0.329663 0.675947 0.200168
O O11 0.074262 0.500000 0.831944
O O12 0.278515 0.500000 0.842679
O O13 0.388164 0.569976 0.102778
O O14 0.000000 0.500000 0.000000
O O15 0.500000 0.500000 0.000000
#
# Coordination Sequence:
#
# PCOD8095563 Si02
#       8
#     8   8   4   8   4   8   4   4
#     4  10  20  41  64  91 121 155 209 269 311 357
#     4  11  22  36  61  90 121 157 204 257 310 359
#     4  12  18  34  66  92 118 152 200 264 308 354
#     4  12  26  40  59  92 129 170 204 246 316 385
#     4   8  20  34  59  90 119 147 199 265 310 347
#     4  11  22  38  61  95 125 158 207 260 310 365
#     4  10  20  32  56  93 121 147 197 256 313 357
#     4  10  20  34  60  93 126 159 199 252 314 364
#
# _framework density 22.043258000000002
#
# number of rings (size 3 to 8) (size 9 to 14) (size 15 to 20)
#    0.000    1.333    5.000    1.500    4.667    0.667 
#    0.000    2.083    0.000    0.000    0.000    0.000 
#    0.000    0.000    0.000    0.000    0.000    0.000 
#
# Total GULP energy -297464.213562 kJ/mol
# GULP energy per Si atom -12394.342232 kJ/mol
# Density = 2.199309 g / cm^3
# Si number density = 22.043258 Si / 1000 Ang^3
#
#
#
# Elastic Constant Matrix: (Units=GPa)
#
#
# Indices 1 2 3 4 5 6 
#
# 1 138.3635 62.6927 20.8225 0.0000 35.6724 0.0000
# 2 62.6927 169.6815 11.4808 0.0000 9.0326 0.0000
# 3 20.8225 11.4808 61.0872 0.0000 21.4618 0.0000
# 4 0.0000 0.0000 0.0000 -4.1578 0.0000 6.1296
# 5 35.6724 9.0326 21.4618 0.0000 31.5423 0.0000
# 6 0.0000 0.0000 0.0000 6.1296 0.0000 25.0738
#
#
#
# Elastic Compliance Matrix: (Units=1/GPa)
#
#
# Indices 1 2 3 4 5 6 
#
# 1 0.012350 -0.003922 0.001367 0.000000 -0.013774 0.000000
# 2 -0.003922 0.007252 -0.001123 0.000000 0.003123 0.000000
# 3 0.001367 -0.001123 0.021743 0.000000 -0.016018 0.000000
# 4 0.000000 0.000000 0.000000 -0.176794 0.000000 0.043220
# 5 -0.013774 0.003123 -0.016018 0.000000 0.057285 0.000000
# 6 0.000000 0.000000 0.000000 0.043220 0.000000 0.029317
#
#
# Mechanical properties :
#
#
# Convention : Reuss Voigt Hill
#
# Bulk Modulus (GPa) = 29.42293 62.12491 45.77392
# Shear Modulus (GPa) = -165.78111 28.76740 -68.50685
#
# Velocity S-wave (km/s) = -8.68162 3.61646 -5.58085
# Velocity P-wave (km/s) = 9.33366 6.75890 4.55162
#
# Compressibility (1/GPa) = 0.03398709
#
# Stress axis : x y z
#
# Youngs Moduli (GPa) = 80.97229 137.88756 45.99197
#
# Poissons Ratio (x) = 0.54082 -0.06285
# Poissons Ratio (y) = 0.31759 0.05167
# Poissons Ratio (z) = -0.11065 0.15490
#
# Static dielectric constant tensor:
#      x y z
#    x 4.078610 0.000000 0.310110 
#    y 0.000000 4.717610 0.000000 
#    z 0.310110 0.000000 3.493660 
# 
# 
# High freq. dielectric constant tensor:
#      x y z
#    x 1.875460 0.000000 0.017140 
#    y 0.000000 1.891280 0.000000 
#    z 0.017140 0.000000 1.829440 
# 
# From -- ./inp_files/133462.got.cif
#   From: 2010.06.25/outbox.cif.g09.slc.cpg/sg12_67_cif.got.tgz:133462.got - 2010.06.28 00:19:55.
