data_PCOD8095615
_publ_section_title
;
Structure prediction by ZEFSAII (Michael W. Deem and Ramdas Pophale) SiO2 
 PCOD8095615
Probable space group: C 2/M
;
_chemical_formula_sum "Si O2"
_cell_formula_units_Z 48
_cell_length_a 18.206918
_cell_length_b 9.434655
_cell_length_c 18.310752
_cell_angle_alpha 90.000000
_cell_angle_beta 121.189680
_cell_angle_gamma 90.000000
_cell_volume 2690.711317
_symmetry_space_group_name_H-M "C 2/M"
_symmetry_group_IT_number 12
_symmetry_cell_setting 'monoclinic'
loop_
_space_group_symop_operation_xyz
x,y,z
-x,y,-z
-x,-y,-z
x,-y,z
1/2+x,1/2+y,z
1/2-x,1/2+y,-z
1/2-x,1/2-y,-z
1/2+x,1/2-y,z
loop_
_atom_site_type_symbol
_atom_site_label
_atom_site_fract_x
_atom_site_fract_y
_atom_site_fract_z
Si Si1 0.674697 0.161027 0.493584
Si Si2 0.759514 0.163382 0.677587
Si Si3 0.583644 0.833682 0.309009
Si Si4 0.253635 0.333625 0.839916
Si Si5 0.407332 0.834839 0.985529
Si Si6 0.592281 0.168105 0.847729
O O1 0.750000 0.250000 0.500000
O O2 0.675180 0.190382 0.581492
O O3 0.589892 0.194437 0.400881
O O4 0.700161 0.000000 0.492340
O O5 0.839995 0.258022 0.695238
O O6 0.730223 0.200936 0.744076
O O7 0.789047 0.000000 0.687855
O O8 0.493020 0.770970 0.235210
O O9 0.590099 0.000000 0.293870
O O10 0.267955 0.500000 0.860517
O O11 0.340191 0.253127 0.904151
O O12 0.176049 0.273425 0.849272
O O13 0.383560 0.000000 0.968398
O O14 0.500000 0.804216 0.000000
O O15 0.405133 0.779991 0.067583
O O16 0.590574 0.000000 0.841940
#
# Coordination Sequence:
#
# PCOD8095615 Si02
#       6
#     8   8   8   8   8   8
#     4   8  14  25  43  67  91 116 149 187 224 262
#     4   9  17  29  45  68  96 121 149 188 229 266
#     4   9  16  29  50  70  89 119 157 190 222 265
#     4  10  20  33  48  67  95 126 150 180 227 277
#     4  10  20  34  52  71  90 115 152 195 229 262
#     4   9  18  32  48  68  94 121 150 187 229 269
#
# _framework density 17.839148999999999
#
# number of rings (size 3 to 8) (size 9 to 14) (size 15 to 20)
#    0.000    2.833    0.000    1.500    0.000    2.333 
#    0.000    2.500    0.000    5.000    0.000    0.000 
#    0.000   14.667    0.000    0.000    0.000    0.000 
#
# Total GULP energy -297357.072971 kJ/mol
# GULP energy per Si atom -12389.878040 kJ/mol
# Density = 1.779855 g / cm^3
# Si number density = 17.839149 Si / 1000 Ang^3
#
#
#
# Elastic Constant Matrix: (Units=GPa)
#
#
# Indices 1 2 3 4 5 6 
#
# 1 89.9396 24.0091 51.5900 0.0000 -18.9282 0.0000
# 2 24.0091 30.1234 31.3641 0.0000 -4.3528 0.0000
# 3 51.5900 31.3641 146.4977 0.0000 -23.2850 0.0000
# 4 0.0000 0.0000 0.0000 23.1399 0.0000 0.4752
# 5 -18.9282 -4.3528 -23.2850 0.0000 21.3470 0.0000
# 6 0.0000 0.0000 0.0000 0.4752 0.0000 15.2429
#
#
#
# Elastic Compliance Matrix: (Units=1/GPa)
#
#
# Indices 1 2 3 4 5 6 
#
# 1 0.017352 -0.009904 -0.002257 0.000000 0.010904 0.000000
# 2 -0.009904 0.048414 -0.008110 0.000000 -0.007756 0.000000
# 3 -0.002257 -0.008110 0.010617 0.000000 0.007926 0.000000
# 4 0.000000 0.000000 0.000000 0.043243 0.000000 -0.001348
# 5 0.010904 -0.007756 0.007926 0.000000 0.063578 0.000000
# 6 0.000000 0.000000 0.000000 -0.001348 0.000000 0.065646
#
#
# Mechanical properties :
#
#
# Convention : Reuss Voigt Hill
#
# Bulk Modulus (GPa) = 27.90160 53.38747 40.64453
# Shear Modulus (GPa) = 16.59257 22.58580 19.58918
#
# Velocity S-wave (km/s) = 3.05310 3.56206 3.31736
# Velocity P-wave (km/s) = 5.30124 6.84907 6.12425
#
# Compressibility (1/GPa) = 0.03584024
#
# Stress axis : x y z
#
# Youngs Moduli (GPa) = 57.63020 20.65511 94.18929
#
# Poissons Ratio (x) = 0.20458 0.21258
# Poissons Ratio (y) = 0.57079 0.76388
# Poissons Ratio (z) = 0.13007 0.16751
#
# Static dielectric constant tensor:
#      x y z
#    x 2.980100 0.000000 -0.131270 
#    y 0.000000 3.102940 0.000000 
#    z -0.131270 0.000000 4.021110 
# 
# 
# High freq. dielectric constant tensor:
#      x y z
#    x 1.661060 0.000000 -0.006190 
#    y 0.000000 1.668910 0.000000 
#    z -0.006190 0.000000 1.720190 
# 
# From -- ./inp_files/212828.got.cif
#   From: 2010.06.25/outbox.cif.g09.slc.cpg/sg12_107_cif.got.tgz:212828.got - 2010.06.28 00:19:55.
