data_PCOD8095313
_publ_section_title
;
Structure prediction by ZEFSAII (Michael W. Deem and Ramdas Pophale) SiO2 
 PCOD8095313
Probable space group: C 2/M
;
_chemical_formula_sum "Si O2"
_cell_formula_units_Z 56
_cell_length_a 31.979372
_cell_length_b 9.031045
_cell_length_c 12.660000
_cell_angle_alpha 90.000000
_cell_angle_beta 56.101768
_cell_angle_gamma 90.000000
_cell_volume 3034.835589
_symmetry_space_group_name_H-M "C 2/M"
_symmetry_group_IT_number 12
_symmetry_cell_setting 'monoclinic'
loop_
_space_group_symop_operation_xyz
x,y,z
-x,y,-z
-x,-y,-z
x,-y,z
1/2+x,1/2+y,z
1/2-x,1/2+y,-z
1/2-x,1/2-y,-z
1/2+x,1/2-y,z
loop_
_atom_site_type_symbol
_atom_site_label
_atom_site_fract_x
_atom_site_fract_y
_atom_site_fract_z
Si Si1 0.119289 0.828120 0.018735
Si Si2 0.353759 0.826752 0.456467
Si Si3 0.434214 0.675092 0.491035
Si Si4 0.241205 0.174734 0.325328
Si Si5 0.353894 0.830095 0.219737
Si Si6 0.233397 0.826648 0.917254
Si Si7 0.547324 0.674879 0.300106
O O1 0.079647 0.757012 0.157908
O O2 0.108547 0.000000 0.020291
O O3 0.112455 0.758265 0.912289
O O4 0.174505 0.795241 0.985161
O O5 0.393213 0.764323 0.483940
O O6 0.300813 0.742827 0.539568
O O7 0.374214 0.798324 0.308879
O O8 0.344972 0.000000 0.489026
O O9 0.424190 0.500000 0.494577
O O10 0.489023 0.718730 0.368202
O O11 0.431175 0.728948 0.617101
O O12 0.295319 0.217037 0.297352
O O13 0.234789 0.250028 0.220172
O O14 0.233092 0.000000 0.326000
O O15 0.359175 0.000000 0.180787
O O16 0.245784 0.000000 0.902566
O O17 0.250000 0.750000 0.000000
O O18 0.552773 0.500000 0.292541
#
# Coordination Sequence:
#
# PCOD8095313 Si02
#       7
#     8   8   8   8   8   8   8
#     4   9  18  33  55  77 101 136 177 218 260 307
#     4  11  22  35  52  78 110 137 172 221 268 314
#     4   9  18  34  57  80 104 136 174 215 264 317
#     4  10  20  35  54  74 100 141 184 217 258 311
#     4   9  20  37  53  74 106 141 176 216 261 314
#     4  10  20  32  48  76 111 141 173 216 260 311
#     4   8  16  34  57  80 104 133 173 220 263 308
#
# _framework density 18.452400000000001
#
# number of rings (size 3 to 8) (size 9 to 14) (size 15 to 20)
#    0.000    2.571    0.000    2.571    2.000    2.286 
#    0.000    3.571    0.000    4.286    0.000    0.000 
#    0.000    0.000    0.000    0.000    0.000    0.000 
#
# Total GULP energy -347180.809354 kJ/mol
# GULP energy per Si atom -12399.314620 kJ/mol
# Density = 1.841040 g / cm^3
# Si number density = 18.452400 Si / 1000 Ang^3
#
#
#
# Elastic Constant Matrix: (Units=GPa)
#
#
# Indices 1 2 3 4 5 6 
#
# 1 58.8356 24.8797 38.2127 0.0000 6.1402 0.0000
# 2 24.8797 63.9449 41.4541 0.0000 1.6120 0.0000
# 3 38.2127 41.4541 139.8661 0.0000 -1.9425 0.0000
# 4 0.0000 0.0000 0.0000 29.5854 0.0000 5.4578
# 5 6.1402 1.6120 -1.9425 0.0000 23.6268 0.0000
# 6 0.0000 0.0000 0.0000 5.4578 0.0000 24.9417
#
#
#
# Elastic Compliance Matrix: (Units=1/GPa)
#
#
# Indices 1 2 3 4 5 6 
#
# 1 0.023117 -0.005811 -0.004677 0.000000 -0.005996 0.000000
# 2 -0.005811 0.020895 -0.004609 0.000000 -0.000294 0.000000
# 3 -0.004677 -0.004609 0.009826 0.000000 0.002338 0.000000
# 4 0.000000 0.000000 0.000000 0.035222 0.000000 -0.007707
# 5 -0.005996 -0.000294 0.002338 0.000000 0.044095 0.000000
# 6 0.000000 0.000000 0.000000 -0.007707 0.000000 0.041780
#
#
# Mechanical properties :
#
#
# Convention : Reuss Voigt Hill
#
# Bulk Modulus (GPa) = 42.29521 52.41551 47.35536
# Shear Modulus (GPa) = 23.47286 26.17079 24.82182
#
# Velocity S-wave (km/s) = 3.57049 3.77010 3.67165
# Velocity P-wave (km/s) = 6.32209 6.88615 6.61014
#
# Compressibility (1/GPa) = 0.02364334
#
# Stress axis : x y z
#
# Youngs Moduli (GPa) = 43.25794 47.85805 101.77086
#
# Poissons Ratio (x) = 0.27813 0.47595
# Poissons Ratio (y) = 0.25139 0.46909
# Poissons Ratio (z) = 0.20230 0.22059
#
# Static dielectric constant tensor:
#      x y z
#    x 3.218110 0.000000 -0.035350 
#    y 0.000000 3.264650 0.000000 
#    z -0.035350 0.000000 3.776670 
# 
# 
# High freq. dielectric constant tensor:
#      x y z
#    x 1.700510 0.000000 0.008880 
#    y 0.000000 1.703650 0.000000 
#    z 0.008880 0.000000 1.726270 
# 
# From -- ./inp_files/180868.got.cif
#   From: 2010.06.25/outbox.cif.g09.slc.cpg/sg12_91_cif.got.tgz:180868.got - 2010.06.28 00:19:55.
